AV-unprocessed.smi:2257|AV-procd|sdf|9128|dock2
  -GOLD-   2272012333D 1   1.00000     0.00000
 Structure written by MMmdl.
 40 42  0  0  0  0  0  0  0  0  1 V2000
  142.9106  137.0515  153.3223 C   0  0  0  0  0  0  0  0  0  0  0  0
  143.9071  136.9839  152.3088 O   0  0  0  0  0  0  0  0  0  0  0  0
  144.6041  135.7432  152.1911 C   0  0  0  0  0  0  0  0  0  0  0  0
  145.4687  135.4563  153.4314 C   0  0  0  0  0  0  0  0  0  0  0  0
  146.6945  136.2484  153.4305 N   0  0  0  0  0  0  0  0  0  0  0  0
  146.9944  137.2274  154.2945 C   0  0  0  0  0  0  0  0  0  0  0  0
  146.2431  137.5968  155.1962 O   0  0  0  0  0  0  0  0  0  0  0  0
  148.2013  137.7532  154.0264 N   0  0  0  0  0  0  0  0  0  0  0  0
  148.8877  138.7844  154.7210 C   0  0  0  0  0  0  0  0  0  0  0  0
  150.0975  139.2779  154.1893 C   0  0  0  0  0  0  0  0  0  0  0  0
  150.8100  140.2443  154.8067 N   0  0  0  0  0  0  0  0  0  0  0  0
  150.3258  140.7039  155.9638 C   0  0  0  0  0  0  0  0  0  0  0  0
  151.0972  141.8020  156.6279 C   0  0  0  0  0  0  0  0  0  0  0  0
  151.7236  141.5985  157.9926 C   0  0  0  0  0  0  0  0  0  0  0  0
  150.5393  142.5122  157.8444 C   0  0  0  0  0  0  0  0  0  0  0  0
  149.1966  140.3173  156.5637 N   0  0  0  0  0  0  0  0  0  0  0  0
  148.4758  139.3526  155.9517 C   0  0  0  0  0  0  0  0  0  0  0  0
  143.5878  134.6672  151.7589 C   0  0  0  0  0  0  0  0  0  0  0  0
  144.6079  134.1720  150.7326 C   0  0  0  0  0  0  0  0  0  0  0  0
  145.2317  135.5671  150.7920 C   0  0  0  0  0  0  0  0  0  0  0  0
  142.4706  138.0484  153.3212 H   0  0  0  0  0  0  0  0  0  0  0  0
  143.3239  136.8789  154.3158 H   0  0  0  0  0  0  0  0  0  0  0  0
  142.1021  136.3413  153.1571 H   0  0  0  0  0  0  0  0  0  0  0  0
  144.9212  135.7255  154.3348 H   0  0  0  0  0  0  0  0  0  0  0  0
  145.6878  134.3940  153.5399 H   0  0  0  0  0  0  0  0  0  0  0  0
  147.3762  136.0201  152.7219 H   0  0  0  0  0  0  0  0  0  0  0  0
  148.6672  137.4005  153.2031 H   0  0  0  0  0  0  0  0  0  0  0  0
  150.4962  138.8998  153.2593 H   0  0  0  0  0  0  0  0  0  0  0  0
  151.6451  142.3964  155.8992 H   0  0  0  0  0  0  0  0  0  0  0  0
  151.5600  140.6449  158.4907 H   0  0  0  0  0  0  0  0  0  0  0  0
  152.6941  142.0567  158.1716 H   0  0  0  0  0  0  0  0  0  0  0  0
  150.7161  143.5827  157.9257 H   0  0  0  0  0  0  0  0  0  0  0  0
  149.5879  142.1654  158.2428 H   0  0  0  0  0  0  0  0  0  0  0  0
  147.5849  139.0370  156.4719 H   0  0  0  0  0  0  0  0  0  0  0  0
  143.3295  133.9358  152.5249 H   0  0  0  0  0  0  0  0  0  0  0  0
  142.6940  135.0829  151.2900 H   0  0  0  0  0  0  0  0  0  0  0  0
  145.2649  133.3945  151.1256 H   0  0  0  0  0  0  0  0  0  0  0  0
  144.1874  133.8986  149.7644 H   0  0  0  0  0  0  0  0  0  0  0  0
  144.8124  136.2337  150.0363 H   0  0  0  0  0  0  0  0  0  0  0  0
  146.3219  135.5766  150.7736 H   0  0  0  0  0  0  0  0  0  0  0  0
  1  2  1  0  0  0  0
  1 21  1  0  0  0  0
  1 22  1  0  0  0  0
  1 23  1  0  0  0  0
  2  3  1  0  0  0  0
  3 20  1  0  0  0  0
  3  4  1  0  0  0  0
  3 18  1  0  0  0  0
  4  5  1  0  0  0  0
  4 24  1  0  0  0  0
  4 25  1  0  0  0  0
  5  6  1  0  0  0  0
  5 26  1  0  0  0  0
  6  7  2  0  0  0  0
  6  8  1  0  0  0  0
  8  9  1  0  0  0  0
  8 27  1  0  0  0  0
  9 17  1  0  0  0  0
  9 10  2  0  0  0  0
 10 11  1  0  0  0  0
 10 28  1  0  0  0  0
 11 12  2  0  0  0  0
 12 13  1  0  0  0  0
 12 16  1  0  0  0  0
 13 15  1  0  0  0  0
 13 14  1  0  0  0  0
 13 29  1  0  0  0  0
 14 15  1  0  0  0  0
 14 30  1  0  0  0  0
 14 31  1  0  0  0  0
 15 32  1  0  0  0  0
 15 33  1  0  0  0  0
 16 17  2  0  0  0  0
 17 34  1  0  0  0  0
 18 19  1  0  0  0  0
 18 35  1  0  0  0  0
 18 36  1  0  0  0  0
 19 20  1  0  0  0  0
 19 37  1  0  0  0  0
 19 38  1  0  0  0  0
 20 39  1  0  0  0  0
 20 40  1  0  0  0  0
M  END
> <s_m_source_file>
AV-unprocessed.smi

> <i_m_source_file_index>
2257

> <i_lp_mmshare_version>
43012

> <i_f3d_flags>
0

> <s_epik_input>
W0NIMl0xW0NIMl1bQ0gyXUMxKE9bQ0gzXSlbQ0gyXVtOSF1DKD1PKVtOSF1jMltjSF1uYyhuW2NIXTIpW0NIXTNbQ0gyXVtDSDJdMw==

> <s_epik_cmdline>
J2VwaWtfcHl0aG9uJywgJy1waCcsICc3LjAnLCAnLXRuJywgJzgnLCAnLW1hJywgJzIwMCcsICctbWV0YWxfYmluZGluZycsICctaW1hZScsICc8aW5maWxlLm1hZT4nLCAnLW9tYWUnLCAnPG91dGZpbGUubWFlPic=

> <r_lp_tautomer_probability>
1

> <r_epik_Ionization_Penalty>
2.49679e-05

> <r_epik_Ionization_Penalty_Charging>
0

> <r_epik_Ionization_Penalty_Neutral>
2.49679e-05

> <r_epik_State_Penalty>
-0

> <r_epik_Charging_Adjusted_Penalty>
0

> <i_epik_Tot_Q>
0

> <i_epik_Tot_abs_Q>
0

> <r_epik_Metal_State_Penalty>
-0

> <b_epik_Metal_Only>
0

> <s_lp_Force_Field>
OPLS_2005

> <r_lp_Energy>
15.4086

> <b_lp_Chiralities_Consistent>
1

> <s_lp_Variant>
AV-unprocessed.smi:2257-1

> <Gold.Version>
5.8.1

> <Gold.Id.Protein>
6NUR|6NUR_protein|mol2

> <Gold.PLP.Fitness>
39.2415

> <Gold.PLP.PLP>
-28.3979

> <Gold.PLP.part.hbond>
-3.0000

> <Gold.PLP.part.metal>
0.0000

> <Gold.PLP.part.buried>
-4.8254

> <Gold.PLP.part.nonpolar>
-21.5230

> <Gold.PLP.part.repulsive>
1.0889

> <Gold.PLP.ligand.clash>
0.0000

> <Gold.PLP.ligand.torsion>
0.4121

> <Gold.PLP.Chemscore.Hbond>
3.0000

> <Gold.PLP.Chemscore.CHOScore>
0.7398

> <Gold.PLP.Chemscore.Metal>
0.0000

> <Gold.Chemscore.Hbonds>
donor molecule, donor type, donor heavy atom, donor atom, acceptor molecule, acceptor atom, score
      L1  H     5    26       P1  7948  1.00
      L1  H     8    27       P1  7948  1.00
      P1  H  7989  7998       L1    11  1.00
      L1  C    10    28       P1  7957  0.72

> <Gold.PLP.Chemscore.Internal.Correction>
0.4484

> <Gold.Rescore>
     Score         DG    S(hbond)    S(metal)    S(lipo)     H(rot)  DE(clash)    DE(int)     intcor
     15.49     -17.31       2.67        0.00      60.51       1.62       0.00       1.82       ----

> <Gold.Chemscore.Fitness>
15.4871

> <Gold.Chemscore.DG>
-17.3099

> <Gold.Chemscore.ZeroCoef>
-5.4800

> <Gold.Chemscore.Hbond>
2.6659

> <Gold.Chemscore.Metal>
0.0000

> <Gold.Chemscore.Lipo>
60.5145

> <Gold.Chemscore.Internal_Hbond>
0.0000

> <Gold.Chemscore.DEClash>
0.0048

> <Gold.Chemscore.DEInternal>
1.8180

> <Gold.Chemscore.Rot>
1.6229

> <Gold.Chemscore.Internal.Correction>
   9.000000E+99

> <Gold.Chemscore.Hbonds>
donor molecule, donor type, donor heavy atom, donor atom, acceptor molecule, acceptor atom, score
      L1  H     5    26       P1  7948  0.98
      L1  H     8    27       P1  7948  0.99
      P1  H  7989  7998       L1    11  0.25

> <Gold.Chemscore.Hbond.Weighted>
-8.9042

> <Gold.Chemscore.Metal.Weighted>
-0.0000

> <Gold.Chemscore.Lipo.Weighted>
-7.0802

> <Gold.Chemscore.Internal_Hbond.Weighted>
0.0000

> <Gold.Chemscore.DEClash.Weighted>
0.0048

> <Gold.Chemscore.DEInternal.Weighted>
1.8180

> <Gold.Chemscore.Rot.Weighted>
4.1545

> <Gold.Chemscore.Internal.Correction.Weighted>
   9.000000E+99

> <Gold.Protein.RotatedTorsions>
[ 6907 6896 6895 6894 ] final -178.56 input  -60.11 | X-H torsion
[ 7974 7965 7964 7962 ] final -143.56 input  175.53 | X-H torsion
[ 8008 7997 7996 7995 ] final   14.50 input   59.86 | X-H torsion
[ 10167 10162 10161 10158 ] final -177.71 input  -65.29 | X-H torsion
[ 10718 10713 10712 10709 ] final  153.83 input   66.30 | X-H torsion
[ 10763 10752 10751 10750 ] final -177.78 input  -60.55 | X-H torsion
[ 11005 11000 10999 10996 ] final  -52.38 input  -57.11 | X-H torsion

> <Gold.Protein.ActiveResidues>
 VAL166  LYS551  ARG553  GLY616  TRP617  ASP618  TYR619  PRO620  LYS621  CYS622 
 ASP623  PHE694  ASN695  SER759  ASP760  ASP761  ALA762  ILE779  LEU786  VAL792 
 PHE793  MET794  SER795  GLU796  ALA797  LYS798  CYS799  TRP800  GLU811  SER814 

> <Gold.Protein.RotatedAtoms>
  151.6391  133.3327  159.3125 H   0  0  0  0  0  0  0  0  0  0  0  0  # atno 6907 bound_to 6896
  150.8017  134.7119  159.6618 H   0  0  0  0  0  0  0  0  0  0  0  0  # atno 6908 bound_to 6896
  152.4110  134.6129  160.0082 H   0  0  0  0  0  0  0  0  0  0  0  0  # atno 6909 bound_to 6896
  144.8361  140.5820  143.5483 H   0  0  0  0  0  0  0  0  0  0  0  0  # atno 7974 bound_to 7965
  154.8494  140.2927  155.5608 H   0  0  0  0  0  0  0  0  0  0  0  0  # atno 8008 bound_to 7997
  156.3016  140.2499  156.3382 H   0  0  0  0  0  0  0  0  0  0  0  0  # atno 8009 bound_to 7997
  154.9038  140.0390  157.1897 H   0  0  0  0  0  0  0  0  0  0  0  0  # atno 8010 bound_to 7997
  139.5467  144.2216  152.1001 H   0  0  0  0  0  0  0  0  0  0  0  0  # atno 10167 bound_to 10162
  157.2396  131.0756  151.1801 H   0  0  0  0  0  0  0  0  0  0  0  0  # atno 10718 bound_to 10713
  154.5559  135.2816  155.0965 H   0  0  0  0  0  0  0  0  0  0  0  0  # atno 10763 bound_to 10752
  154.2393  135.6360  153.5205 H   0  0  0  0  0  0  0  0  0  0  0  0  # atno 10764 bound_to 10752
  153.0015  135.5556  154.6139 H   0  0  0  0  0  0  0  0  0  0  0  0  # atno 10765 bound_to 10752
  141.0921  133.6631  156.4015 H   0  0  0  0  0  0  0  0  0  0  0  0  # atno 11005 bound_to 11000
  145.4792  139.1497  143.3771 LP  0  0  0  0  0  0  0  0  0  0  0  0  # atno 17320 bound_to 7965
  146.2659  140.4928  142.8834 LP  0  0  0  0  0  0  0  0  0  0  0  0  # atno 17321 bound_to 7965
  140.1704  144.4941  150.6582 LP  0  0  0  0  0  0  0  0  0  0  0  0  # atno 17342 bound_to 10162
  140.6717  143.2288  151.5607 LP  0  0  0  0  0  0  0  0  0  0  0  0  # atno 17343 bound_to 10162
  157.3392  130.7025  149.6371 LP  0  0  0  0  0  0  0  0  0  0  0  0  # atno 17370 bound_to 10713
  155.9671  130.4285  150.4789 LP  0  0  0  0  0  0  0  0  0  0  0  0  # atno 17371 bound_to 10713
  140.5227  134.6288  157.5324 LP  0  0  0  0  0  0  0  0  0  0  0  0  # atno 17394 bound_to 11000
  139.9749  134.7232  155.9969 LP  0  0  0  0  0  0  0  0  0  0  0  0  # atno 17395 bound_to 11000

$$$$
