#       Name:                AV-unprocessed.smi:2873
#       Creating user name   scv26
#       Creation time:       Fri Mar 27 15:50:11 2020


#       File generated by GOLD software.
#

@<TRIPOS>MOLECULE
AV-unprocessed.smi:2873
    44    46     1
SMALL
NO_CHARGES


@<TRIPOS>ATOM
      1 ****        -4.9264   1.4497   1.6983 C.3            1 S1                 0.0000
      2 ****        -3.3980   1.4555   1.5078 C.3            1 S1                 0.0000
      3 ****        -2.8933  -0.0080   1.4832 C.3            1 S1                 0.0000
      4 ****        -1.4369  -0.1140   1.4031 N.am           1 S1                 0.0000
      5 ****        -0.7400  -0.5874   0.3609 C.2            1 S1                 0.0000
      6 ****        -1.2591  -0.9907  -0.6792 O.2            1 S1                 0.0000
      7 ****         0.5791  -0.5651   0.6148 N.am           1 S1                 0.0000
      8 ****         1.6481  -1.0125  -0.2073 C.ar           1 S1                 0.0000
      9 ****         1.5630  -1.2629  -1.5995 C.ar           1 S1                 0.0000
     10 ****         2.6319  -1.6814  -2.3115 N.ar           1 S1                 0.0000
     11 ****         3.7758  -1.8547  -1.6437 C.ar           1 S1                 0.0000
     12 ****         4.9632  -2.2914  -2.4446 C.3            1 S1                 0.0000
     13 ****         4.9133  -3.5549  -3.2797 C.3            1 S1                 0.0000
     14 ****         5.7637  -3.5128  -2.0410 C.3            1 S1                 0.0000
     15 ****         3.9805  -1.6261  -0.3436 N.ar           1 S1                 0.0000
     16 ****         2.9179  -1.2067   0.3757 C.ar           1 S1                 0.0000
     17 ****        -3.0359   2.2350   0.2220 C.3            1 S1                 0.0000
     18 ****        -2.9407   3.7191   0.5825 C.3            1 S1                 0.0000
     19 ****        -2.1534   3.7927   1.8890 C.3            1 S1                 0.0000
     20 ****        -2.6502   2.3722   2.8939 S.3            1 S1                 0.0000
     21 ****        -5.4261   0.9322   0.8787 H              1 S1                 0.0000
     22 ****        -5.3319   2.4605   1.7449 H              1 S1                 0.0000
     23 ****        -5.2074   0.9455   2.6236 H              1 S1                 0.0000
     24 ****        -3.2013  -0.5174   2.3970 H              1 S1                 0.0000
     25 ****        -3.3715  -0.5504   0.6659 H              1 S1                 0.0000
     26 ****        -0.9208   0.1991   2.2124 H              1 S1                 0.0000
     27 ****         0.8467  -0.2460   1.5345 H              1 S1                 0.0000
     28 ****         0.6577  -1.1186  -2.1675 H              1 S1                 0.0000
     29 ****         5.5063  -1.4375  -2.8453 H              1 S1                 0.0000
     30 ****         4.0049  -4.1532  -3.2426 H              1 S1                 0.0000
     31 ****         5.4238  -3.5424  -4.2403 H              1 S1                 0.0000
     32 ****         6.8428  -3.4693  -2.1720 H              1 S1                 0.0000
     33 ****         5.4211  -4.0848  -1.1809 H              1 S1                 0.0000
     34 ****         3.0843  -1.0273   1.4279 H              1 S1                 0.0000
     35 ****        -2.0664   1.9236  -0.1650 H              1 S1                 0.0000
     36 ****        -3.7545   2.0604  -0.5795 H              1 S1                 0.0000
     37 ****        -2.4651   4.2997  -0.2084 H              1 S1                 0.0000
     38 ****        -3.9397   4.1306   0.7292 H              1 S1                 0.0000
     39 ****        -1.0854   3.7094   1.6858 H              1 S1                 0.0000
     40 ****        -2.3211   4.7293   2.4210 H              1 S1                 0.0000
     41 ****        -2.2539  -0.9760  -0.7799 LP             1 S1                 0.0000
     42 ****        -0.6862  -1.3332  -1.4238 LP             1 S1                 0.0000
     43 ****         2.5697  -1.8538  -3.2946 LP             1 S1                 0.0000
     44 ****         4.8781  -1.7593   0.0768 LP             1 S1                 0.0000
@<TRIPOS>BOND
    1    1    2 1     
    2    1   21 1     
    3    1   22 1     
    4    1   23 1     
    5    2   20 1     
    6    2    3 1     
    7    2   17 1     
    8    3    4 1     
    9    3   24 1     
   10    3   25 1     
   11    4    5 am    
   12    4   26 1     
   13    5    6 2     
   14    5    7 am    
   15    7    8 1     
   16    7   27 1     
   17    8   16 ar    
   18    8    9 ar    
   19    9   10 ar    
   20    9   28 1     
   21   10   11 ar    
   22   11   12 1     
   23   11   15 ar    
   24   12   14 1     
   25   12   13 1     
   26   12   29 1     
   27   13   14 1     
   28   13   30 1     
   29   13   31 1     
   30   14   32 1     
   31   14   33 1     
   32   15   16 ar    
   33   16   34 1     
   34   17   18 1     
   35   17   35 1     
   36   17   36 1     
   37   18   19 1     
   38   18   37 1     
   39   18   38 1     
   40   19   20 1     
   41   19   39 1     
   42   19   40 1     
   43    6   41 1     
   44    6   42 1     
   45   10   43 1     
   46   15   44 1     
@<TRIPOS>SUBSTRUCTURE
      1 S1             1
@<TRIPOS>SET
LONE_PAIRS      STATIC     ATOMS    <user>   **** ""
4 41 42 43 44
DONOR_HYDROGENS      STATIC     ATOMS    <user>   **** ""
2 26 27
ATOM$BLUE        STATIC     ATOMS    COLORGROUP SYSTEM
4 41 42 43 44
ATOM$RED        STATIC     ATOMS    COLORGROUP SYSTEM
2 26 27
