AV-unprocessed.smi:3209|AV-procd|sdf|12271|dock7
  -GOLD-   2272018103D 1   1.00000     0.00000
 Structure written by MMmdl.
 37 39  0  0  0  0  0  0  0  0  2 V2000
  153.2324  138.0565  156.8454 C   0  0  0  0  0  0  0  0  0  0  0  0
  152.1050  138.6567  156.0773 C   0  0  0  0  0  0  0  0  0  0  0  0
  151.4235  139.7319  156.4815 N   0  0  0  0  0  0  0  0  0  0  0  0
  150.4140  140.0980  155.5857 C   0  0  0  0  0  0  0  0  0  0  0  0
  149.5463  141.2831  155.8826 C   0  0  0  0  0  0  0  0  0  0  0  0
  149.4465  141.5684  157.3872 C   0  0  0  0  0  0  0  0  0  0  0  0
  149.9096  142.9354  157.6990 N   0  3  0  0  0  0  0  0  0  0  0  0
  151.3797  143.0880  157.7597 C   0  0  1  0  0  0  0  0  0  0  0  0
  151.8877  144.4840  157.3375 C   0  0  0  0  0  0  0  0  0  0  0  0
  152.7805  144.8920  158.5260 C   0  0  1  0  0  0  0  0  0  0  0  0
  151.8839  145.2914  159.7109 C   0  0  0  0  0  0  0  0  0  0  0  0
  151.3094  143.9383  160.1679 C   0  0  0  0  0  0  0  0  0  0  0  0
  151.9548  142.9370  159.1848 C   0  0  2  0  0  0  0  0  0  0  0  0
  153.3383  143.5519  158.9971 C   0  0  0  0  0  0  0  0  0  0  0  0
  150.3427  139.2787  154.4866 C   0  0  0  0  0  0  0  0  0  0  0  0
  151.5413  138.0154  154.5391 S   0  0  0  0  0  0  0  0  0  0  0  0
  153.2957  138.4947  157.8420 H   0  0  0  0  0  0  0  0  0  0  0  0
  154.1733  138.2333  156.3245 H   0  0  0  0  0  0  0  0  0  0  0  0
  153.0842  136.9813  156.9463 H   0  0  0  0  0  0  0  0  0  0  0  0
  149.9369  142.1633  155.3701 H   0  0  0  0  0  0  0  0  0  0  0  0
  148.5468  141.1202  155.4774 H   0  0  0  0  0  0  0  0  0  0  0  0
  148.4137  141.4550  157.7197 H   0  0  0  0  0  0  0  0  0  0  0  0
  150.0454  140.8463  157.9434 H   0  0  0  0  0  0  0  0  0  0  0  0
  149.5472  143.5742  157.0055 H   0  0  0  0  0  0  0  0  0  0  0  0
  151.8325  142.3258  157.1226 H   0  0  0  0  0  0  0  0  0  0  0  0
  152.4695  144.4144  156.4176 H   0  0  0  0  0  0  0  0  0  0  0  0
  151.0857  145.2040  157.1689 H   0  0  0  0  0  0  0  0  0  0  0  0
  153.5301  145.6429  158.2740 H   0  0  0  0  0  0  0  0  0  0  0  0
  152.4742  145.7453  160.5082 H   0  0  0  0  0  0  0  0  0  0  0  0
  151.1065  146.0015  159.4261 H   0  0  0  0  0  0  0  0  0  0  0  0
  151.6205  143.7231  161.1911 H   0  0  0  0  0  0  0  0  0  0  0  0
  150.2196  143.9185  160.1483 H   0  0  0  0  0  0  0  0  0  0  0  0
  151.9590  141.9087  159.5477 H   0  0  0  0  0  0  0  0  0  0  0  0
  153.9426  143.0452  158.2425 H   0  0  0  0  0  0  0  0  0  0  0  0
  153.9110  143.6232  159.9238 H   0  0  0  0  0  0  0  0  0  0  0  0
  149.6616  139.3403  153.6504 H   0  0  0  0  0  0  0  0  0  0  0  0
  149.5315  143.1905  158.6002 H   0  0  0  0  0  0  0  0  0  0  0  0
  1  2  1  0  0  0  0
  1 17  1  0  0  0  0
  1 18  1  0  0  0  0
  1 19  1  0  0  0  0
  2 16  1  0  0  0  0
  2  3  2  0  0  0  0
  3  4  1  0  0  0  0
  4  5  1  0  0  0  0
  4 15  2  0  0  0  0
  5  6  1  0  0  0  0
  5 20  1  0  0  0  0
  5 21  1  0  0  0  0
  6  7  1  0  0  0  0
  6 22  1  0  0  0  0
  6 23  1  0  0  0  0
  7  8  1  0  0  0  0
  7 24  1  0  0  0  0
  7 37  1  0  0  0  0
  8 13  1  0  0  0  0
  8  9  1  0  0  0  0
  8 25  1  0  0  0  0
  9 10  1  0  0  0  0
  9 26  1  0  0  0  0
  9 27  1  0  0  0  0
 10 14  1  0  0  0  0
 10 11  1  0  0  0  0
 10 28  1  0  0  0  0
 11 12  1  0  0  0  0
 11 29  1  0  0  0  0
 11 30  1  0  0  0  0
 12 13  1  0  0  0  0
 12 31  1  0  0  0  0
 12 32  1  0  0  0  0
 13 14  1  0  0  0  0
 13 33  1  0  0  0  0
 14 34  1  0  0  0  0
 14 35  1  0  0  0  0
 15 16  1  0  0  0  0
 15 36  1  0  0  0  0
M  CHG  1   7   1
M  END
> <s_m_source_file>
AV-unprocessed.smi

> <i_m_source_file_index>
3209

> <i_lp_mmshare_version>
43012

> <i_f3d_flags>
0

> <s_epik_input>
W0NIM11jMW5jKFtjSF1zMSlbQ0gyXVtDSDJdW05IXVtDQEhdKFtDSDJdW0NASF0yMylbQ0BIXShbQ0gyXTMpW0NIMl1bQ0gyXTI=

> <s_epik_cmdline>
J2VwaWtfcHl0aG9uJywgJy1waCcsICc3LjAnLCAnLXRuJywgJzgnLCAnLW1hJywgJzIwMCcsICctbWV0YWxfYmluZGluZycsICctaW1hZScsICc8aW5maWxlLm1hZT4nLCAnLW9tYWUnLCAnPG91dGZpbGUubWFlPic=

> <r_lp_tautomer_probability>
1

> <r_epik_Ionization_Penalty>
0.000342479

> <r_epik_Ionization_Penalty_Charging>
0.000317129

> <r_epik_Ionization_Penalty_Neutral>
2.535e-05

> <r_epik_State_Penalty>
-0

> <r_epik_Charging_Adjusted_Penalty>
0.000317129

> <i_epik_Tot_Q>
1

> <i_epik_Tot_abs_Q>
1

> <r_epik_Metal_State_Penalty>
-0

> <b_epik_Metal_Only>
0

> <s_lp_Force_Field>
OPLS_2005

> <r_lp_Energy>
49.0881

> <b_lp_Chiralities_Consistent>
1

> <s_lp_Variant>
AV-unprocessed.smi:3209-4

> <Gold.Version>
5.8.1

> <Gold.Id.Protein>
6NUR|6NUR_protein|mol2

> <Gold.PLP.Fitness>
45.8375

> <Gold.PLP.PLP>
-39.3179

> <Gold.PLP.part.hbond>
-1.0000

> <Gold.PLP.part.metal>
0.0000

> <Gold.PLP.part.buried>
-3.8407

> <Gold.PLP.part.nonpolar>
-33.5901

> <Gold.PLP.part.repulsive>
0.0333

> <Gold.PLP.ligand.clash>
0.0000

> <Gold.PLP.ligand.torsion>
1.2436

> <Gold.PLP.Chemscore.Hbond>
2.0000

> <Gold.PLP.Chemscore.CHOScore>
1.0000

> <Gold.PLP.Chemscore.Metal>
0.0000

> <Gold.Chemscore.Hbonds>
donor molecule, donor type, donor heavy atom, donor atom, acceptor molecule, acceptor atom, score
      L1  H     7    24       P1  8028  2.00
      L1  C    15    36       P1  7957  0.87

> <Gold.PLP.Chemscore.Internal.Correction>
0.0068

> <Gold.Rescore>
     Score         DG    S(hbond)    S(metal)    S(lipo)     H(rot)  DE(clash)    DE(int)     intcor
     19.61     -20.85       1.00        0.00     131.57       1.31       0.12       1.12       ----

> <Gold.Chemscore.Fitness>
19.6143

> <Gold.Chemscore.DG>
-20.8525

> <Gold.Chemscore.ZeroCoef>
-5.4800

> <Gold.Chemscore.Hbond>
0.9984

> <Gold.Chemscore.Metal>
0.0000

> <Gold.Chemscore.Lipo>
131.5683

> <Gold.Chemscore.Internal_Hbond>
0.0000

> <Gold.Chemscore.DEClash>
0.1203

> <Gold.Chemscore.DEInternal>
1.1179

> <Gold.Chemscore.Rot>
1.3108

> <Gold.Chemscore.Internal.Correction>
   9.000000E+99

> <Gold.Chemscore.Hbonds>
donor molecule, donor type, donor heavy atom, donor atom, acceptor molecule, acceptor atom, score
      L1  H     7    24       P1  8028  0.93

> <Gold.Chemscore.Hbond.Weighted>
-3.3348

> <Gold.Chemscore.Metal.Weighted>
-0.0000

> <Gold.Chemscore.Lipo.Weighted>
-15.3935

> <Gold.Chemscore.Internal_Hbond.Weighted>
0.0000

> <Gold.Chemscore.DEClash.Weighted>
0.1203

> <Gold.Chemscore.DEInternal.Weighted>
1.1179

> <Gold.Chemscore.Rot.Weighted>
3.3558

> <Gold.Chemscore.Internal.Correction.Weighted>
   9.000000E+99

> <Gold.Protein.RotatedTorsions>
[ 6907 6896 6895 6894 ] final  -39.70 input  -60.11 | X-H torsion
[ 7974 7965 7964 7962 ] final -165.17 input  175.53 | X-H torsion
[ 8008 7997 7996 7995 ] final   -4.29 input   59.86 | X-H torsion
[ 10167 10162 10161 10158 ] final  -12.62 input  -65.29 | X-H torsion
[ 10718 10713 10712 10709 ] final  145.59 input   66.30 | X-H torsion
[ 10763 10752 10751 10750 ] final   -5.54 input  -60.55 | X-H torsion
[ 11005 11000 10999 10996 ] final -114.10 input  -57.11 | X-H torsion

> <Gold.Protein.ActiveResidues>
 VAL166  LYS551  ARG553  GLY616  TRP617  ASP618  TYR619  PRO620  LYS621  CYS622 
 ASP623  PHE694  ASN695  SER759  ASP760  ASP761  ALA762  ILE779  LEU786  VAL792 
 PHE793  MET794  SER795  GLU796  ALA797  LYS798  CYS799  TRP800  GLU811  SER814 

> <Gold.Protein.RotatedAtoms>
  150.9872  134.9215  159.7878 H   0  0  0  0  0  0  0  0  0  0  0  0  # atno 6907 bound_to 6896
  152.5240  134.3330  159.9200 H   0  0  0  0  0  0  0  0  0  0  0  0  # atno 6908 bound_to 6896
  151.3336  133.3949  159.2699 H   0  0  0  0  0  0  0  0  0  0  0  0  # atno 6909 bound_to 6896
  144.7277  140.2853  143.6229 H   0  0  0  0  0  0  0  0  0  0  0  0  # atno 7974 bound_to 7965
  154.6159  140.2488  155.7610 H   0  0  0  0  0  0  0  0  0  0  0  0  # atno 8008 bound_to 7997
  156.2398  140.2937  156.0363 H   0  0  0  0  0  0  0  0  0  0  0  0  # atno 8009 bound_to 7997
  155.1976  140.0393  157.2902 H   0  0  0  0  0  0  0  0  0  0  0  0  # atno 8010 bound_to 7997
  140.7165  143.5513  150.9298 H   0  0  0  0  0  0  0  0  0  0  0  0  # atno 10167 bound_to 10162
  157.3434  131.0939  151.1063 H   0  0  0  0  0  0  0  0  0  0  0  0  # atno 10718 bound_to 10713
  153.4000  135.7004  153.6433 H   0  0  0  0  0  0  0  0  0  0  0  0  # atno 10763 bound_to 10752
  153.4970  135.3660  155.2521 H   0  0  0  0  0  0  0  0  0  0  0  0  # atno 10764 bound_to 10752
  154.8709  135.4103  154.3333 H   0  0  0  0  0  0  0  0  0  0  0  0  # atno 10765 bound_to 10752
  141.0573  133.9592  157.2731 H   0  0  0  0  0  0  0  0  0  0  0  0  # atno 11005 bound_to 11000
  145.7909  139.1926  143.2103 LP  0  0  0  0  0  0  0  0  0  0  0  0  # atno 17320 bound_to 7965
  146.0756  140.7820  142.9666 LP  0  0  0  0  0  0  0  0  0  0  0  0  # atno 17321 bound_to 7965
  139.9237  143.6575  152.3091 LP  0  0  0  0  0  0  0  0  0  0  0  0  # atno 17342 bound_to 10162
  139.7001  144.7636  151.1288 LP  0  0  0  0  0  0  0  0  0  0  0  0  # atno 17343 bound_to 10162
  157.2266  130.6506  149.5832 LP  0  0  0  0  0  0  0  0  0  0  0  0  # atno 17370 bound_to 10713
  155.9711  130.4612  150.6101 LP  0  0  0  0  0  0  0  0  0  0  0  0  # atno 17371 bound_to 10713
  139.9401  135.0192  156.8681 LP  0  0  0  0  0  0  0  0  0  0  0  0  # atno 17394 bound_to 11000
  140.5939  134.0236  155.7510 LP  0  0  0  0  0  0  0  0  0  0  0  0  # atno 17395 bound_to 11000

$$$$
