#       Name:                AV-unprocessed.smi:2090
#       Creating user name   scv26
#       Creation time:       Fri Mar 27 11:25:44 2020


#       File generated by GOLD software.
#

@<TRIPOS>MOLECULE
AV-unprocessed.smi:2090
    47    48     1
SMALL
NO_CHARGES


@<TRIPOS>ATOM
      1 ****        -6.3472   5.4153   1.4707 C.3            1 S1                 0.0000
      2 ****        -5.1140   4.5973   1.2941 C.2            1 S1                 0.0000
      3 ****        -4.6374   3.4857   1.9298 C.2            1 S1                 0.0000
      4 ****        -3.4117   3.2321   1.2580 C.2            1 S1                 0.0000
      5 ****        -2.5963   2.1307   1.6308 N.am           1 S1                 0.0000
      6 ****        -1.4171   1.7422   1.1122 C.2            1 S1                 0.0000
      7 ****        -0.9038   2.3765   0.1824 O.2            1 S1                 0.0000
      8 ****        -0.9266   0.6275   1.7223 N.pl3          1 S1                -1.0000
      9 ****         0.3454  -0.0121   1.3895 C.3            1 S1                 0.0000
     10 ****         0.1731  -0.9388   0.1688 C.3            1 S1                 0.0000
     11 ****         1.4539  -1.5873  -0.2176 N.4            1 S1                 1.0000
     12 ****         2.1972  -0.8468  -1.2750 C.3            1 S1                 0.0000
     13 ****         3.5771  -1.4763  -1.5269 C.3            1 S1                 0.0000
     14 ****         3.4508  -2.9618  -1.9042 C.3            1 S1                 0.0000
     15 ****         4.8235  -3.6096  -2.1335 C.3            1 S1                 0.0000
     16 ****         2.6493  -3.6941  -0.8152 C.3            1 S1                 0.0000
     17 ****         1.2879  -3.0204  -0.5740 C.3            1 S1                 0.0000
     18 ****        -3.1632   4.1121   0.2991 N.2            1 S1                 0.0000
     19 ****        -4.2520   4.9916   0.3180 O.3            1 S1                 0.0000
     20 ****        -7.1367   4.8306   1.9431 H              1 S1                 0.0000
     21 ****        -6.7197   5.7700   0.5095 H              1 S1                 0.0000
     22 ****        -6.1468   6.2838   2.0983 H              1 S1                 0.0000
     23 ****        -5.0935   2.9418   2.7436 H              1 S1                 0.0000
     24 ****        -2.9501   1.5628   2.3865 H              1 S1                 0.0000
     25 ****         1.1286   0.7178   1.1810 H              1 S1                 0.0000
     26 ****         0.7183  -0.6030   2.2263 H              1 S1                 0.0000
     27 ****        -0.5668  -1.6984   0.4258 H              1 S1                 0.0000
     28 ****        -0.2398  -0.3978  -0.6844 H              1 S1                 0.0000
     29 ****         1.6137  -0.8434  -2.1971 H              1 S1                 0.0000
     30 ****         2.3278   0.1960  -0.9834 H              1 S1                 0.0000
     31 ****         4.0883  -0.9312  -2.3210 H              1 S1                 0.0000
     32 ****         4.1936  -1.3703  -0.6330 H              1 S1                 0.0000
     33 ****         2.8927  -3.0290  -2.8393 H              1 S1                 0.0000
     34 ****         5.4379  -3.5698  -1.2334 H              1 S1                 0.0000
     35 ****         5.3679  -3.1025  -2.9305 H              1 S1                 0.0000
     36 ****         4.7201  -4.6565  -2.4203 H              1 S1                 0.0000
     37 ****         2.4967  -4.7359  -1.0996 H              1 S1                 0.0000
     38 ****         3.2173  -3.7082   0.1163 H              1 S1                 0.0000
     39 ****         0.7718  -3.5426   0.2328 H              1 S1                 0.0000
     40 ****         0.6595  -3.1056  -1.4622 H              1 S1                 0.0000
     41 ****         2.0286  -1.5710   0.6128 H              1 S1                 0.0000
     42 ****        -1.3654   3.1826  -0.1878 LP             1 S1                 0.0000
     43 ****        -0.0272   2.0831  -0.1991 LP             1 S1                 0.0000
     44 ****        -1.4759   0.2170   2.4501 LP             1 S1                 0.0000
     45 ****        -2.3687   4.1416  -0.3076 LP             1 S1                 0.0000
     46 ****        -3.9315   5.9198   0.5068 LP             1 S1                 0.0000
     47 ****        -4.7153   4.9726  -0.5680 LP             1 S1                 0.0000
@<TRIPOS>BOND
    1    1    2 1     
    2    1   20 1     
    3    1   21 1     
    4    1   22 1     
    5    2   19 1     
    6    2    3 2     
    7    3    4 1     
    8    3   23 1     
    9    4    5 1     
   10    4   18 2     
   11    5    6 am    
   12    5   24 1     
   13    6    7 2     
   14    6    8 1     
   15    8    9 1     
   16    9   10 1     
   17    9   25 1     
   18    9   26 1     
   19   10   11 1     
   20   10   27 1     
   21   10   28 1     
   22   11   17 1     
   23   11   12 1     
   24   11   41 1     
   25   12   13 1     
   26   12   29 1     
   27   12   30 1     
   28   13   14 1     
   29   13   31 1     
   30   13   32 1     
   31   14   15 1     
   32   14   16 1     
   33   14   33 1     
   34   15   34 1     
   35   15   35 1     
   36   15   36 1     
   37   16   17 1     
   38   16   37 1     
   39   16   38 1     
   40   17   39 1     
   41   17   40 1     
   42   18   19 1     
   43    7   42 1     
   44    7   43 1     
   45    8   44 1     
   46   18   45 1     
   47   19   46 1     
   48   19   47 1     
@<TRIPOS>SUBSTRUCTURE
      1 S1             1
@<TRIPOS>SET
LONE_PAIRS      STATIC     ATOMS    <user>   **** ""
6 42 43 44 45 46 47
DONOR_HYDROGENS      STATIC     ATOMS    <user>   **** ""
2 24 41
ATOM$BLUE        STATIC     ATOMS    COLORGROUP SYSTEM
6 42 43 44 45 46 47
ATOM$RED        STATIC     ATOMS    COLORGROUP SYSTEM
2 24 41
