#       Name:                AV-unprocessed.smi:2886
#       Creating user name   scv26
#       Creation time:       Fri Mar 27 15:56:39 2020


#       File generated by GOLD software.
#

@<TRIPOS>MOLECULE
AV-unprocessed.smi:2886
    33    35     1
SMALL
NO_CHARGES


@<TRIPOS>ATOM
      1 ****        -4.4614  -2.9291   0.8911 O.2            1 S1                 0.0000
      2 ****        -3.9371  -1.8237   0.7653 C.2            1 S1                 0.0000
      3 ****        -4.6691  -0.6686   0.7489 N.pl3          1 S1                -1.0000
      4 ****        -4.0083   0.6075   0.5877 N.2            1 S1                 0.0000
      5 ****        -2.7416   0.6810   0.4690 C.2            1 S1                 0.0000
      6 ****        -1.8702  -0.5196   0.4924 C.2            1 S1                 0.0000
      7 ****        -0.4895  -0.4401   0.3620 N.pl3          1 S1                 0.0000
      8 ****         0.3412   0.7436   0.1876 C.3            1 S1                 0.0000
      9 ****         1.6622   0.6676   0.9548 C.3            1 S1                 0.0000
     10 ****         2.6828   0.9420  -0.1592 C.3            1 S1                 0.0000
     11 ****         2.8527  -0.2741  -1.0787 C.3            1 S1                 0.0000
     12 ****         1.5404  -0.2587  -1.8603 C.3            1 S1                 0.0000
     13 ****         0.8243   0.9613  -1.2566 C.3            1 S1                 0.0000
     14 ****         1.9385   1.8022  -1.0070 O.3            1 S1                 0.0000
     15 ****        -2.4788  -1.7249   0.6294 C.2            1 S1                 0.0000
     16 ****        -1.5471  -3.1869   0.6542 Cl             1 S1                 0.0000
     17 ****        -2.2411   1.6430   0.3376 H              1 S1                 0.0000
     18 ****         0.0236  -1.2919   0.5379 H              1 S1                 0.0000
     19 ****        -0.1935   1.6304   0.5275 H              1 S1                 0.0000
     20 ****         1.7003   1.4434   1.7201 H              1 S1                 0.0000
     21 ****         1.8347  -0.2947   1.4394 H              1 S1                 0.0000
     22 ****         3.6240   1.3622   0.1962 H              1 S1                 0.0000
     23 ****         3.6997  -0.1377  -1.7518 H              1 S1                 0.0000
     24 ****         3.0038  -1.1994  -0.5215 H              1 S1                 0.0000
     25 ****         1.7347  -0.1013  -2.9218 H              1 S1                 0.0000
     26 ****         0.9715  -1.1831  -1.7575 H              1 S1                 0.0000
     27 ****         0.0699   1.3990  -1.9111 H              1 S1                 0.0000
     28 ****        -3.8949  -3.7530   0.9004 LP             1 S1                 0.0000
     29 ****        -5.4542  -3.0039   0.9842 LP             1 S1                 0.0000
     30 ****        -5.6634  -0.7065   0.8486 LP             1 S1                 0.0000
     31 ****        -4.5538   1.4454   0.5691 LP             1 S1                 0.0000
     32 ****         2.4359   2.0239  -1.8457 LP             1 S1                 0.0000
     33 ****         1.6733   2.6476  -0.5433 LP             1 S1                 0.0000
@<TRIPOS>BOND
    1    1    2 2     
    2    2   15 1     
    3    2    3 1     
    4    3    4 1     
    5    4    5 2     
    6    5    6 1     
    7    5   17 1     
    8    6    7 1     
    9    6   15 2     
   10    7    8 1     
   11    7   18 1     
   12    8   13 1     
   13    8    9 1     
   14    8   19 1     
   15    9   10 1     
   16    9   20 1     
   17    9   21 1     
   18   10   14 1     
   19   10   11 1     
   20   10   22 1     
   21   11   12 1     
   22   11   23 1     
   23   11   24 1     
   24   12   13 1     
   25   12   25 1     
   26   12   26 1     
   27   13   14 1     
   28   13   27 1     
   29   15   16 1     
   30    1   28 1     
   31    1   29 1     
   32    3   30 1     
   33    4   31 1     
   34   14   32 1     
   35   14   33 1     
@<TRIPOS>SUBSTRUCTURE
      1 S1             1
@<TRIPOS>SET
LONE_PAIRS      STATIC     ATOMS    <user>   **** ""
6 28 29 30 31 32 33
DONOR_HYDROGENS      STATIC     ATOMS    <user>   **** ""
1 18
ATOM$BLUE        STATIC     ATOMS    COLORGROUP SYSTEM
6 28 29 30 31 32 33
ATOM$RED        STATIC     ATOMS    COLORGROUP SYSTEM
1 18
