AV-unprocessed.smi:1005|AV-procd|sdf|4382|dock6
  -GOLD-   22720 2303D 1   1.00000     0.00000
 Structure written by MMmdl.
 58 60  0  0  0  0  0  0  0  0  4 V2000
  151.9475  145.1640  160.5750 C   0  0  0  0  0  0  0  0  0  0  0  0
  151.7914  143.8586  159.8138 C   0  0  0  0  0  0  0  0  0  0  0  0
  151.0757  143.8699  158.5952 C   0  0  0  0  0  0  0  0  0  0  0  0
  150.9521  142.6612  157.9208 C   0  0  0  0  0  0  0  0  0  0  0  0
  150.3199  142.3444  156.7165 N   0  3  0  0  0  0  0  0  0  0  0  0
  150.4697  141.0153  156.4599 C   0  0  0  0  0  0  0  0  0  0  0  0
  151.1914  140.4791  157.4819 N   0  0  0  0  0  0  0  0  0  0  0  0
  151.6378  139.0970  157.7028 C   0  0  0  0  0  0  0  0  0  0  0  0
  150.5059  138.1728  158.1946 C   0  0  2  0  0  0  0  0  0  0  0  0
  151.0556  137.1556  159.0097 O   0  0  0  0  0  0  0  0  0  0  0  0
  149.7450  137.5192  157.0239 C   0  0  0  0  0  0  0  0  0  0  0  0
  148.6310  136.6489  157.4892 N   0  3  1  0  0  0  0  0  0  0  0  0
  147.3712  137.3688  157.8065 C   0  0  0  0  0  0  0  0  0  0  0  0
  146.5836  137.7190  156.5300 C   0  0  0  0  0  0  0  0  0  0  0  0
  146.3566  136.5410  155.7660 O   0  0  0  0  0  0  0  0  0  0  0  0
  147.5657  135.9184  155.3432 C   0  0  2  0  0  0  0  0  0  0  0  0
  147.1905  134.7052  154.4714 C   0  0  0  0  0  0  0  0  0  0  0  0
  148.2993  134.2707  153.5830 N   0  3  0  0  0  0  0  0  0  0  0  0
  149.5459  133.9470  154.3145 C   0  0  0  0  0  0  0  0  0  0  0  0
  147.8949  133.1655  152.6860 C   0  0  0  0  0  0  0  0  0  0  0  0
  148.3589  135.4938  156.5980 C   0  0  0  0  0  0  0  0  0  0  0  0
  151.5103  141.4679  158.4187 C   0  0  0  0  0  0  0  0  0  0  0  0
  152.2152  141.4379  159.6194 C   0  0  0  0  0  0  0  0  0  0  0  0
  152.3536  142.6577  160.3195 C   0  0  0  0  0  0  0  0  0  0  0  0
  153.1216  142.6578  161.6304 C   0  0  0  0  0  0  0  0  0  0  0  0
  151.4750  145.9930  160.0473 H   0  0  0  0  0  0  0  0  0  0  0  0
  153.0021  145.4091  160.7031 H   0  0  0  0  0  0  0  0  0  0  0  0
  151.4865  145.0899  161.5602 H   0  0  0  0  0  0  0  0  0  0  0  0
  150.6443  144.7801  158.2048 H   0  0  0  0  0  0  0  0  0  0  0  0
  150.0879  140.4851  155.5992 H   0  0  0  0  0  0  0  0  0  0  0  0
  152.0700  138.7254  156.7727 H   0  0  0  0  0  0  0  0  0  0  0  0
  152.4494  139.1269  158.4314 H   0  0  0  0  0  0  0  0  0  0  0  0
  149.8210  138.7569  158.8079 H   0  0  0  0  0  0  0  0  0  0  0  0
  151.7805  137.5145  159.4989 H   0  0  0  0  0  0  0  0  0  0  0  0
  149.3596  138.2847  156.3503 H   0  0  0  0  0  0  0  0  0  0  0  0
  150.4535  136.9334  156.4363 H   0  0  0  0  0  0  0  0  0  0  0  0
  146.7603  136.7188  158.4344 H   0  0  0  0  0  0  0  0  0  0  0  0
  147.5622  138.2651  158.3951 H   0  0  0  0  0  0  0  0  0  0  0  0
  145.6199  138.1537  156.7957 H   0  0  0  0  0  0  0  0  0  0  0  0
  147.1059  138.4632  155.9279 H   0  0  0  0  0  0  0  0  0  0  0  0
  148.1602  136.6246  154.7631 H   0  0  0  0  0  0  0  0  0  0  0  0
  146.8767  133.8657  155.0940 H   0  0  0  0  0  0  0  0  0  0  0  0
  146.3237  134.9761  153.8665 H   0  0  0  0  0  0  0  0  0  0  0  0
  149.3907  133.1146  155.0023 H   0  0  0  0  0  0  0  0  0  0  0  0
  149.9089  134.7999  154.8867 H   0  0  0  0  0  0  0  0  0  0  0  0
  150.3366  133.6660  153.6177 H   0  0  0  0  0  0  0  0  0  0  0  0
  147.6268  132.2758  153.2570 H   0  0  0  0  0  0  0  0  0  0  0  0
  148.7054  132.9039  152.0048 H   0  0  0  0  0  0  0  0  0  0  0  0
  147.0371  133.4543  152.0778 H   0  0  0  0  0  0  0  0  0  0  0  0
  149.2904  134.9980  156.3228 H   0  0  0  0  0  0  0  0  0  0  0  0
  147.7812  134.7602  157.1624 H   0  0  0  0  0  0  0  0  0  0  0  0
  152.6426  140.5244  160.0046 H   0  0  0  0  0  0  0  0  0  0  0  0
  153.4731  141.6581  161.8876 H   0  0  0  0  0  0  0  0  0  0  0  0
  152.4889  143.0077  162.4463 H   0  0  0  0  0  0  0  0  0  0  0  0
  153.9930  143.3097  161.5630 H   0  0  0  0  0  0  0  0  0  0  0  0
  148.5070  135.0525  152.9775 H   0  0  0  0  0  0  0  0  0  0  0  0
  148.9627  136.2523  158.3579 H   0  0  0  0  0  0  0  0  0  0  0  0
  149.8228  142.9861  156.1118 H   0  0  0  0  0  0  0  0  0  0  0  0
  1  2  1  0  0  0  0
  1 26  1  0  0  0  0
  1 27  1  0  0  0  0
  1 28  1  0  0  0  0
  2 24  1  0  0  0  0
  2  3  2  0  0  0  0
  3  4  1  0  0  0  0
  3 29  1  0  0  0  0
  4 22  2  0  0  0  0
  4  5  1  0  0  0  0
  5  6  2  0  0  0  0
  5 58  1  0  0  0  0
  6  7  1  0  0  0  0
  6 30  1  0  0  0  0
  7  8  1  0  0  0  0
  7 22  1  0  0  0  0
  8  9  1  0  0  0  0
  8 31  1  0  0  0  0
  8 32  1  0  0  0  0
  9 10  1  0  0  0  0
  9 11  1  0  0  0  0
  9 33  1  0  0  0  0
 10 34  1  0  0  0  0
 11 12  1  0  0  0  0
 11 35  1  0  0  0  0
 11 36  1  0  0  0  0
 12 21  1  0  0  0  0
 12 13  1  0  0  0  0
 12 57  1  0  0  0  0
 13 14  1  0  0  0  0
 13 37  1  0  0  0  0
 13 38  1  0  0  0  0
 14 15  1  0  0  0  0
 14 39  1  0  0  0  0
 14 40  1  0  0  0  0
 15 16  1  0  0  0  0
 16 17  1  0  0  0  0
 16 21  1  0  0  0  0
 16 41  1  0  0  0  0
 17 18  1  0  0  0  0
 17 42  1  0  0  0  0
 17 43  1  0  0  0  0
 18 19  1  0  0  0  0
 18 20  1  0  0  0  0
 18 56  1  0  0  0  0
 19 44  1  0  0  0  0
 19 45  1  0  0  0  0
 19 46  1  0  0  0  0
 20 47  1  0  0  0  0
 20 48  1  0  0  0  0
 20 49  1  0  0  0  0
 21 50  1  0  0  0  0
 21 51  1  0  0  0  0
 22 23  1  0  0  0  0
 23 24  2  0  0  0  0
 23 52  1  0  0  0  0
 24 25  1  0  0  0  0
 25 53  1  0  0  0  0
 25 54  1  0  0  0  0
 25 55  1  0  0  0  0
M  CHG  1   5   1
M  CHG  1  12   1
M  CHG  1  18   1
M  END
> <s_m_source_file>
AV-unprocessed.smi

> <i_m_source_file_index>
1005

> <i_lp_mmshare_version>
43012

> <i_f3d_flags>
0

> <s_epik_input>
W0NIM11jKFtjSF0xKWMoW0NIM10pW2NIXWMoYzEyKW4oW2NIXW4yKVtDSDJdW0NASF0oW09IXSlbQ0gyXU4zW0NIMl1bQ0gyXU9bQ0BIXShbQ0gyXTMpW0NIMl1OKFtDSDNdKVtDSDNd

> <s_epik_cmdline>
J2VwaWtfcHl0aG9uJywgJy1waCcsICc3LjAnLCAnLXRuJywgJzgnLCAnLW1hJywgJzIwMCcsICctbWV0YWxfYmluZGluZycsICctaW1hZScsICc8aW5maWxlLm1hZT4nLCAnLW9tYWUnLCAnPG91dGZpbGUubWFlPic=

> <r_epik_Ionization_Penalty>
2.30802

> <r_epik_Ionization_Penalty_Charging>
2.30798

> <r_epik_Ionization_Penalty_Neutral>
3.4851e-05

> <r_epik_State_Penalty>
2.52618

> <r_epik_Charging_Adjusted_Penalty>
4.83416

> <i_epik_Tot_Q>
3

> <i_epik_Tot_abs_Q>
3

> <r_epik_Metal_State_Penalty>
6.53149

> <b_epik_Metal_Only>
0

> <s_lp_Force_Field>
OPLS_2005

> <r_lp_Energy>
46.1367

> <b_lp_Chiralities_Consistent>
1

> <s_lp_Variant>
AV-unprocessed.smi:1005-21

> <Gold.Version>
5.8.1

> <Gold.Id.Protein>
6NUR|6NUR_protein|mol2

> <Gold.PLP.Fitness>
52.7813

> <Gold.PLP.PLP>
-41.8418

> <Gold.PLP.part.hbond>
-2.3684

> <Gold.PLP.part.metal>
0.0000

> <Gold.PLP.part.buried>
-6.6816

> <Gold.PLP.part.nonpolar>
-33.2289

> <Gold.PLP.part.repulsive>
0.1005

> <Gold.PLP.ligand.clash>
0.0000

> <Gold.PLP.ligand.torsion>
1.1215

> <Gold.PLP.Chemscore.Hbond>
4.3415

> <Gold.PLP.Chemscore.CHOScore>
0.0000

> <Gold.PLP.Chemscore.Metal>
0.0000

> <Gold.Chemscore.Hbonds>
donor molecule, donor type, donor heavy atom, donor atom, acceptor molecule, acceptor atom, score
      L1  H     5    58       P1  8028  2.00
      L1  H    18    56       P1  7948  2.00
      P1  H  6896  6907       L1    10  0.45

> <Gold.PLP.Chemscore.Internal.Correction>
0.1580

> <Gold.Rescore>
     Score         DG    S(hbond)    S(metal)    S(lipo)     H(rot)  DE(clash)    DE(int)     intcor
     16.76     -18.04       1.96        0.00     107.32       2.56       0.01       1.27       ----

> <Gold.Chemscore.Fitness>
16.7576

> <Gold.Chemscore.DG>
-18.0410

> <Gold.Chemscore.ZeroCoef>
-5.4800

> <Gold.Chemscore.Hbond>
1.9610

> <Gold.Chemscore.Metal>
0.0000

> <Gold.Chemscore.Lipo>
107.3200

> <Gold.Chemscore.Internal_Hbond>
0.0000

> <Gold.Chemscore.DEClash>
0.0089

> <Gold.Chemscore.DEInternal>
1.2745

> <Gold.Chemscore.Rot>
2.5566

> <Gold.Chemscore.Internal.Correction>
   9.000000E+99

> <Gold.Chemscore.Hbonds>
donor molecule, donor type, donor heavy atom, donor atom, acceptor molecule, acceptor atom, score
      L1  H     5    58       P1  8028  0.93
      L1  H    18    56       P1  7948  0.70
      P1  H  6896  6907       L1    10  0.10

> <Gold.Chemscore.Hbond.Weighted>
-6.5496

> <Gold.Chemscore.Metal.Weighted>
-0.0000

> <Gold.Chemscore.Lipo.Weighted>
-12.5564

> <Gold.Chemscore.Internal_Hbond.Weighted>
0.0000

> <Gold.Chemscore.DEClash.Weighted>
0.0089

> <Gold.Chemscore.DEInternal.Weighted>
1.2745

> <Gold.Chemscore.Rot.Weighted>
6.5450

> <Gold.Chemscore.Internal.Correction.Weighted>
   9.000000E+99

> <Gold.Protein.RotatedTorsions>
[ 6907 6896 6895 6894 ] final  -30.22 input  -60.11 | X-H torsion
[ 7974 7965 7964 7962 ] final   76.10 input  175.53 | X-H torsion
[ 8008 7997 7996 7995 ] final  -46.84 input   59.86 | X-H torsion
[ 10167 10162 10161 10158 ] final  171.98 input  -65.29 | X-H torsion
[ 10718 10713 10712 10709 ] final -146.75 input   66.30 | X-H torsion
[ 10763 10752 10751 10750 ] final  101.56 input  -60.55 | X-H torsion
[ 11005 11000 10999 10996 ] final -172.82 input  -57.11 | X-H torsion

> <Gold.Protein.ActiveResidues>
 VAL166  LYS551  ARG553  GLY616  TRP617  ASP618  TYR619  PRO620  LYS621  CYS622 
 ASP623  PHE694  ASN695  SER759  ASP760  ASP761  ALA762  ILE779  LEU786  VAL792 
 PHE793  MET794  SER795  GLU796  ALA797  LYS798  CYS799  TRP800  GLU811  SER814 

> <Gold.Protein.RotatedAtoms>
  151.1085  135.0013  159.8482 H   0  0  0  0  0  0  0  0  0  0  0  0  # atno 6907 bound_to 6896
  152.5441  134.1864  159.8666 H   0  0  0  0  0  0  0  0  0  0  0  0  # atno 6908 bound_to 6896
  151.1913  133.4621  159.2628 H   0  0  0  0  0  0  0  0  0  0  0  0  # atno 6909 bound_to 6896
  145.7071  139.2602  143.1672 H   0  0  0  0  0  0  0  0  0  0  0  0  # atno 7974 bound_to 7965
  154.4011  140.1361  156.4078 H   0  0  0  0  0  0  0  0  0  0  0  0  # atno 8008 bound_to 7997
  155.7763  140.3482  155.5253 H   0  0  0  0  0  0  0  0  0  0  0  0  # atno 8009 bound_to 7997
  155.8718  140.0973  157.1535 H   0  0  0  0  0  0  0  0  0  0  0  0  # atno 8010 bound_to 7997
  139.5062  144.3426  152.0003 H   0  0  0  0  0  0  0  0  0  0  0  0  # atno 10167 bound_to 10162
  156.3988  130.7923  151.2132 H   0  0  0  0  0  0  0  0  0  0  0  0  # atno 10718 bound_to 10713
  153.3282  135.4040  155.1473 H   0  0  0  0  0  0  0  0  0  0  0  0  # atno 10763 bound_to 10752
  154.8617  135.3604  154.5505 H   0  0  0  0  0  0  0  0  0  0  0  0  # atno 10764 bound_to 10752
  153.5943  135.7073  153.5469 H   0  0  0  0  0  0  0  0  0  0  0  0  # atno 10765 bound_to 10752
  140.4927  134.5969  157.4960 H   0  0  0  0  0  0  0  0  0  0  0  0  # atno 11005 bound_to 11000
  146.0745  140.7832  142.9671 LP  0  0  0  0  0  0  0  0  0  0  0  0  # atno 17320 bound_to 7965
  144.6952  140.3394  143.7202 LP  0  0  0  0  0  0  0  0  0  0  0  0  # atno 17321 bound_to 7965
  140.2863  144.3803  150.6102 LP  0  0  0  0  0  0  0  0  0  0  0  0  # atno 17342 bound_to 10162
  140.5980  143.2167  151.7127 LP  0  0  0  0  0  0  0  0  0  0  0  0  # atno 17343 bound_to 10162
  157.7503  131.0293  150.4086 LP  0  0  0  0  0  0  0  0  0  0  0  0  # atno 17370 bound_to 10713
  156.4362  130.3982  149.6727 LP  0  0  0  0  0  0  0  0  0  0  0  0  # atno 17371 bound_to 10713
  139.9759  134.7216  155.9950 LP  0  0  0  0  0  0  0  0  0  0  0  0  # atno 17394 bound_to 11000
  141.1476  133.6553  156.3913 LP  0  0  0  0  0  0  0  0  0  0  0  0  # atno 17395 bound_to 11000

$$$$
