AV-unprocessed.smi:3193|AV-procd|sdf|12206|dock10
  -GOLD-   2272018 43D 1   1.00000     0.00000
 Structure written by MMmdl.
 41 42  0  0  0  0  0  0  0  0  3 V2000
  153.4314  142.4438  159.2994 C   0  0  0  0  0  0  0  0  0  0  0  0
  151.9666  142.6710  159.7266 C   0  0  1  0  0  0  0  0  0  0  0  0
  151.8770  143.3438  161.1128 C   0  0  0  0  0  0  0  0  0  0  0  0
  152.2724  144.8295  161.0694 C   0  0  0  0  0  0  0  0  0  0  0  0
  151.4383  145.5962  160.0330 C   0  0  0  0  0  0  0  0  0  0  0  0
  151.5254  144.9429  158.6440 C   0  0  0  0  0  0  0  0  0  0  0  0
  151.1148  143.4538  158.6914 C   0  0  1  0  0  0  0  0  0  0  0  0
  151.1228  142.7956  157.2968 C   0  0  0  0  0  0  0  0  0  0  0  0
  149.7686  142.3736  156.8850 N   0  3  0  0  0  0  0  0  0  0  0  0
  149.7530  141.4458  155.7367 C   0  0  0  0  0  0  0  0  0  0  0  0
  150.9762  140.5177  155.7557 C   0  0  0  0  0  0  0  0  0  0  0  0
  150.6280  139.1469  155.3734 N   0  0  0  0  0  0  0  0  0  0  0  0
  150.9103  137.9947  156.0622 C   0  0  0  0  0  0  0  0  0  0  0  0
  150.3931  136.9612  155.3243 C   0  0  0  0  0  0  0  0  0  0  0  0
  149.8183  137.5254  154.2169 N   0  3  0  0  0  0  0  0  0  0  0  0
  149.9613  138.8547  154.2487 C   0  0  0  0  0  0  0  0  0  0  0  0
  153.9619  143.3803  159.1290 H   0  0  0  0  0  0  0  0  0  0  0  0
  153.4972  141.8549  158.3849 H   0  0  0  0  0  0  0  0  0  0  0  0
  153.9774  141.8953  160.0674 H   0  0  0  0  0  0  0  0  0  0  0  0
  151.5231  141.6797  159.8302 H   0  0  0  0  0  0  0  0  0  0  0  0
  150.8551  143.2605  161.4857 H   0  0  0  0  0  0  0  0  0  0  0  0
  152.5014  142.8131  161.8322 H   0  0  0  0  0  0  0  0  0  0  0  0
  152.1381  145.2765  162.0550 H   0  0  0  0  0  0  0  0  0  0  0  0
  153.3325  144.9268  160.8339 H   0  0  0  0  0  0  0  0  0  0  0  0
  150.3971  145.6268  160.3561 H   0  0  0  0  0  0  0  0  0  0  0  0
  151.7742  146.6323  159.9796 H   0  0  0  0  0  0  0  0  0  0  0  0
  150.8816  145.4910  157.9558 H   0  0  0  0  0  0  0  0  0  0  0  0
  152.5388  145.0433  158.2542 H   0  0  0  0  0  0  0  0  0  0  0  0
  150.0852  143.4154  159.0520 H   0  0  0  0  0  0  0  0  0  0  0  0
  151.5295  143.4795  156.5506 H   0  0  0  0  0  0  0  0  0  0  0  0
  151.7663  141.9147  157.3095 H   0  0  0  0  0  0  0  0  0  0  0  0
  149.3244  141.9212  157.6716 H   0  0  0  0  0  0  0  0  0  0  0  0
  148.8352  140.8566  155.7639 H   0  0  0  0  0  0  0  0  0  0  0  0
  149.7384  142.0234  154.8113 H   0  0  0  0  0  0  0  0  0  0  0  0
  151.7399  140.8721  155.0619 H   0  0  0  0  0  0  0  0  0  0  0  0
  151.4302  140.4905  156.7476 H   0  0  0  0  0  0  0  0  0  0  0  0
  151.4435  137.9931  157.0022 H   0  0  0  0  0  0  0  0  0  0  0  0
  150.3909  135.8949  155.4994 H   0  0  0  0  0  0  0  0  0  0  0  0
  149.6078  139.5520  153.5099 H   0  0  0  0  0  0  0  0  0  0  0  0
  149.2367  143.1982  156.6451 H   0  0  0  0  0  0  0  0  0  0  0  0
  149.3504  137.0119  153.4802 H   0  0  0  0  0  0  0  0  0  0  0  0
  1  2  1  0  0  0  0
  1 17  1  0  0  0  0
  1 18  1  0  0  0  0
  1 19  1  0  0  0  0
  2  7  1  0  0  0  0
  2  3  1  0  0  0  0
  2 20  1  0  0  0  0
  3  4  1  0  0  0  0
  3 21  1  0  0  0  0
  3 22  1  0  0  0  0
  4  5  1  0  0  0  0
  4 23  1  0  0  0  0
  4 24  1  0  0  0  0
  5  6  1  0  0  0  0
  5 25  1  0  0  0  0
  5 26  1  0  0  0  0
  6  7  1  0  0  0  0
  6 27  1  0  0  0  0
  6 28  1  0  0  0  0
  7  8  1  0  0  0  0
  7 29  1  0  0  0  0
  8  9  1  0  0  0  0
  8 30  1  0  0  0  0
  8 31  1  0  0  0  0
  9 10  1  0  0  0  0
  9 32  1  0  0  0  0
  9 40  1  0  0  0  0
 10 11  1  0  0  0  0
 10 33  1  0  0  0  0
 10 34  1  0  0  0  0
 11 12  1  0  0  0  0
 11 35  1  0  0  0  0
 11 36  1  0  0  0  0
 12 16  1  0  0  0  0
 12 13  1  0  0  0  0
 13 14  2  0  0  0  0
 13 37  1  0  0  0  0
 14 15  1  0  0  0  0
 14 38  1  0  0  0  0
 15 16  2  0  0  0  0
 15 41  1  0  0  0  0
 16 39  1  0  0  0  0
M  CHG  1   9   1
M  CHG  1  15   1
M  END
> <s_m_source_file>
AV-unprocessed.smi

> <i_m_source_file_index>
3193

> <i_lp_mmshare_version>
43012

> <i_f3d_flags>
0

> <s_epik_input>
W0NIM11bQ0BASF0xW0NIMl1bQ0gyXVtDSDJdW0NIMl1bQ0BIXTFbQ0gyXVtOSF1bQ0gyXVtDSDJdbjJbY0hdW2NIXW5bY0hdMg==

> <s_epik_cmdline>
J2VwaWtfcHl0aG9uJywgJy1waCcsICc3LjAnLCAnLXRuJywgJzgnLCAnLW1hJywgJzIwMCcsICctbWV0YWxfYmluZGluZycsICctaW1hZScsICc8aW5maWxlLm1hZT4nLCAnLW9tYWUnLCAnPG91dGZpbGUubWFlPic=

> <r_lp_tautomer_probability>
1

> <r_epik_Ionization_Penalty>
1.50262

> <r_epik_Ionization_Penalty_Charging>
0.00193432

> <r_epik_Ionization_Penalty_Neutral>
1.50068

> <r_epik_State_Penalty>
1.11854

> <r_epik_Charging_Adjusted_Penalty>
1.12048

> <i_epik_Tot_Q>
2

> <i_epik_Tot_abs_Q>
2

> <r_epik_Metal_State_Penalty>
5.11322

> <b_epik_Metal_Only>
0

> <s_lp_Force_Field>
OPLS_2005

> <r_lp_Energy>
27.2728

> <b_lp_Chiralities_Consistent>
1

> <s_lp_Variant>
AV-unprocessed.smi:3193-6

> <Gold.Version>
5.8.1

> <Gold.Id.Protein>
6NUR|6NUR_protein|mol2

> <Gold.PLP.Fitness>
52.8884

> <Gold.PLP.PLP>
-40.4433

> <Gold.PLP.part.hbond>
-2.7034

> <Gold.PLP.part.metal>
0.0000

> <Gold.PLP.part.buried>
-4.1025

> <Gold.PLP.part.nonpolar>
-34.1068

> <Gold.PLP.part.repulsive>
0.0982

> <Gold.PLP.ligand.clash>
0.0000

> <Gold.PLP.ligand.torsion>
1.2904

> <Gold.PLP.Chemscore.Hbond>
4.0000

> <Gold.PLP.Chemscore.CHOScore>
1.0000

> <Gold.PLP.Chemscore.Metal>
0.0000

> <Gold.Chemscore.Hbonds>
donor molecule, donor type, donor heavy atom, donor atom, acceptor molecule, acceptor atom, score
      L1  H     9    40       P1  8028  2.00
      L1  H    15    41       P1  7948  2.00
      L1  C    16    39       P1  7957  1.00

> <Gold.PLP.Chemscore.Internal.Correction>
0.0259

> <Gold.Rescore>
     Score         DG    S(hbond)    S(metal)    S(lipo)     H(rot)  DE(clash)    DE(int)     intcor
     18.57     -20.06       1.99        0.00     111.04       1.98       0.33       1.16       ----

> <Gold.Chemscore.Fitness>
18.5739

> <Gold.Chemscore.DG>
-20.0638

> <Gold.Chemscore.ZeroCoef>
-5.4800

> <Gold.Chemscore.Hbond>
1.9922

> <Gold.Chemscore.Metal>
0.0000

> <Gold.Chemscore.Lipo>
111.0433

> <Gold.Chemscore.Internal_Hbond>
0.0000

> <Gold.Chemscore.DEClash>
0.3343

> <Gold.Chemscore.DEInternal>
1.1556

> <Gold.Chemscore.Rot>
1.9774

> <Gold.Chemscore.Internal.Correction>
   9.000000E+99

> <Gold.Chemscore.Hbonds>
donor molecule, donor type, donor heavy atom, donor atom, acceptor molecule, acceptor atom, score
      L1  H     9    40       P1  8028  0.97
      L1  H    15    41       P1  7948  0.95

> <Gold.Chemscore.Hbond.Weighted>
-6.6539

> <Gold.Chemscore.Metal.Weighted>
-0.0000

> <Gold.Chemscore.Lipo.Weighted>
-12.9921

> <Gold.Chemscore.Internal_Hbond.Weighted>
0.0000

> <Gold.Chemscore.DEClash.Weighted>
0.3343

> <Gold.Chemscore.DEInternal.Weighted>
1.1556

> <Gold.Chemscore.Rot.Weighted>
5.0622

> <Gold.Chemscore.Internal.Correction.Weighted>
   9.000000E+99

> <Gold.Protein.RotatedTorsions>
[ 6907 6896 6895 6894 ] final    8.31 input  -60.11 | X-H torsion
[ 7974 7965 7964 7962 ] final  123.05 input  175.53 | X-H torsion
[ 8008 7997 7996 7995 ] final  -65.86 input   59.86 | X-H torsion
[ 10167 10162 10161 10158 ] final  105.87 input  -65.29 | X-H torsion
[ 10718 10713 10712 10709 ] final  -82.83 input   66.30 | X-H torsion
[ 10763 10752 10751 10750 ] final -140.02 input  -60.55 | X-H torsion
[ 11005 11000 10999 10996 ] final  136.64 input  -57.11 | X-H torsion

> <Gold.Protein.ActiveResidues>
 VAL166  LYS551  ARG553  GLY616  TRP617  ASP618  TYR619  PRO620  LYS621  CYS622 
 ASP623  PHE694  ASN695  SER759  ASP760  ASP761  ALA762  ILE779  LEU786  VAL792 
 PHE793  MET794  SER795  GLU796  ALA797  LYS798  CYS799  TRP800  GLU811  SER814 

> <Gold.Protein.RotatedAtoms>
  151.7040  135.0925  160.0255 H   0  0  0  0  0  0  0  0  0  0  0  0  # atno 6907 bound_to 6896
  152.3703  133.6405  159.6090 H   0  0  0  0  0  0  0  0  0  0  0  0  # atno 6908 bound_to 6896
  150.7668  133.9198  159.3436 H   0  0  0  0  0  0  0  0  0  0  0  0  # atno 6909 bound_to 6896
  145.1004  139.3523  143.4815 H   0  0  0  0  0  0  0  0  0  0  0  0  # atno 7974 bound_to 7965
  154.4698  140.0924  156.7114 H   0  0  0  0  0  0  0  0  0  0  0  0  # atno 8008 bound_to 7997
  155.4757  140.3466  155.4314 H   0  0  0  0  0  0  0  0  0  0  0  0  # atno 8009 bound_to 7997
  156.1019  140.1424  156.9445 H   0  0  0  0  0  0  0  0  0  0  0  0  # atno 8010 bound_to 7997
  139.7056  144.7087  151.1112 H   0  0  0  0  0  0  0  0  0  0  0  0  # atno 10167 bound_to 10162
  156.0027  130.4646  150.4164 H   0  0  0  0  0  0  0  0  0  0  0  0  # atno 10718 bound_to 10713
  154.8591  135.3565  154.5641 H   0  0  0  0  0  0  0  0  0  0  0  0  # atno 10763 bound_to 10752
  153.6255  135.7004  153.5299 H   0  0  0  0  0  0  0  0  0  0  0  0  # atno 10764 bound_to 10752
  153.3093  135.4183  155.1281 H   0  0  0  0  0  0  0  0  0  0  0  0  # atno 10765 bound_to 10752
  140.0060  134.9459  157.0176 H   0  0  0  0  0  0  0  0  0  0  0  0  # atno 11005 bound_to 11000
  146.3530  140.0878  142.8614 LP  0  0  0  0  0  0  0  0  0  0  0  0  # atno 17320 bound_to 7965
  145.0962  140.9317  143.4739 LP  0  0  0  0  0  0  0  0  0  0  0  0  # atno 17321 bound_to 7965
  140.7721  143.5363  150.9364 LP  0  0  0  0  0  0  0  0  0  0  0  0  # atno 17342 bound_to 10162
  139.9046  143.6794  152.3125 LP  0  0  0  0  0  0  0  0  0  0  0  0  # atno 17343 bound_to 10162
  157.2224  131.0485  151.2539 LP  0  0  0  0  0  0  0  0  0  0  0  0  # atno 17370 bound_to 10713
  157.3788  130.7220  149.6616 LP  0  0  0  0  0  0  0  0  0  0  0  0  # atno 17371 bound_to 10713
  140.4641  134.1454  155.7195 LP  0  0  0  0  0  0  0  0  0  0  0  0  # atno 17394 bound_to 11000
  141.1677  133.8670  157.1665 LP  0  0  0  0  0  0  0  0  0  0  0  0  # atno 17395 bound_to 11000

$$$$
