AV-unprocessed.smi:561|AV-procd|sdf|2941|dock1
  -GOLD-   2262023433D 1   1.00000     0.00000
 Structure written by MMmdl.
 36 37  0  0  0  0  0  0  0  0  3 V2000
  152.0417  140.3478  158.4505 C   0  0  0  0  0  0  0  0  0  0  0  0
  153.2466  141.1060  159.0239 C   0  0  1  0  0  0  0  0  0  0  0  0
  152.7935  142.2529  159.9644 C   0  0  0  0  0  0  0  0  0  0  0  0
  152.1633  143.3937  159.2740 N   0  0  0  0  0  0  0  0  0  0  0  0
  152.3526  144.7284  159.5366 C   0  0  0  0  0  0  0  0  0  0  0  0
  151.5722  145.4193  158.6464 C   0  0  0  0  0  0  0  0  0  0  0  0
  150.9281  144.4808  157.8860 N   0  3  0  0  0  0  0  0  0  0  0  0
  151.2817  143.2510  158.2729 C   0  0  0  0  0  0  0  0  0  0  0  0
  154.0949  140.1582  159.7558 N   0  5  0  0  0  0  0  0  0  0  0  0
  153.6757  138.9819  160.3103 C   0  0  0  0  0  0  0  0  0  0  0  0
  153.0112  138.1038  159.7427 O   0  0  0  0  0  0  0  0  0  0  0  0
  154.0634  138.7001  161.7240 C   0  0  0  0  0  0  0  0  0  0  0  0
  153.7560  137.5502  162.2373 N   0  0  0  0  0  0  0  0  0  0  0  0
  154.0640  137.2189  163.5405 N   0  0  0  0  0  0  0  0  0  0  0  0
  153.4127  136.0075  164.0346 C   0  0  0  0  0  0  0  0  0  0  0  0
  154.9243  137.9091  164.3289 C   0  0  0  0  0  0  0  0  0  0  0  0
  155.1821  137.6030  165.4932 O   0  0  0  0  0  0  0  0  0  0  0  0
  155.6218  139.1116  163.6883 C   0  0  0  0  0  0  0  0  0  0  0  0
  154.7809  139.7453  162.5628 C   0  0  0  0  0  0  0  0  0  0  0  0
  151.3887  141.0179  157.8906 H   0  0  0  0  0  0  0  0  0  0  0  0
  151.4459  139.8874  159.2397 H   0  0  0  0  0  0  0  0  0  0  0  0
  152.3609  139.5583  157.7692 H   0  0  0  0  0  0  0  0  0  0  0  0
  153.7725  141.5547  158.1798 H   0  0  0  0  0  0  0  0  0  0  0  0
  152.0740  141.8769  160.6930 H   0  0  0  0  0  0  0  0  0  0  0  0
  153.6399  142.6371  160.5358 H   0  0  0  0  0  0  0  0  0  0  0  0
  153.0257  145.0739  160.3080 H   0  0  0  0  0  0  0  0  0  0  0  0
  151.4324  146.4803  158.5006 H   0  0  0  0  0  0  0  0  0  0  0  0
  150.9375  142.3239  157.8504 H   0  0  0  0  0  0  0  0  0  0  0  0
  154.1543  135.2420  164.2678 H   0  0  0  0  0  0  0  0  0  0  0  0
  152.7217  135.5863  163.3022 H   0  0  0  0  0  0  0  0  0  0  0  0
  152.8419  136.2184  164.9403 H   0  0  0  0  0  0  0  0  0  0  0  0
  155.8615  139.8561  164.4480 H   0  0  0  0  0  0  0  0  0  0  0  0
  156.5707  138.7600  163.2820 H   0  0  0  0  0  0  0  0  0  0  0  0
  155.4501  140.3478  161.9476 H   0  0  0  0  0  0  0  0  0  0  0  0
  154.0472  140.4328  162.9850 H   0  0  0  0  0  0  0  0  0  0  0  0
  150.2818  144.6847  157.1344 H   0  0  0  0  0  0  0  0  0  0  0  0
  1  2  1  0  0  0  0
  1 20  1  0  0  0  0
  1 21  1  0  0  0  0
  1 22  1  0  0  0  0
  2  3  1  0  0  0  0
  2  9  1  0  0  0  0
  2 23  1  0  0  0  0
  3  4  1  0  0  0  0
  3 24  1  0  0  0  0
  3 25  1  0  0  0  0
  4  8  1  0  0  0  0
  4  5  1  0  0  0  0
  5  6  2  0  0  0  0
  5 26  1  0  0  0  0
  6  7  1  0  0  0  0
  6 27  1  0  0  0  0
  7  8  2  0  0  0  0
  7 36  1  0  0  0  0
  8 28  1  0  0  0  0
  9 10  1  0  0  0  0
 10 11  2  0  0  0  0
 10 12  1  0  0  0  0
 12 19  1  0  0  0  0
 12 13  2  0  0  0  0
 13 14  1  0  0  0  0
 14 15  1  0  0  0  0
 14 16  1  0  0  0  0
 15 29  1  0  0  0  0
 15 30  1  0  0  0  0
 15 31  1  0  0  0  0
 16 17  2  0  0  0  0
 16 18  1  0  0  0  0
 18 19  1  0  0  0  0
 18 32  1  0  0  0  0
 18 33  1  0  0  0  0
 19 34  1  0  0  0  0
 19 35  1  0  0  0  0
M  CHG  1   7   1
M  CHG  1   9  -1
M  END
> <s_m_source_file>
AV-unprocessed.smi

> <i_m_source_file_index>
561

> <i_lp_mmshare_version>
43012

> <i_f3d_flags>
0

> <s_epik_input>
W2NIXTFuW2NIXVtjSF1uMVtDSDJdW0NAQEhdKFtDSDNdKVtOSF1DKD1PKUMyPU5OKFtDSDNdKUMoPU8pW0NIMl1bQ0gyXTI=

> <s_epik_cmdline>
J2VwaWtfcHl0aG9uJywgJy1waCcsICc3LjAnLCAnLXRuJywgJzgnLCAnLW1hJywgJzIwMCcsICctbWV0YWxfYmluZGluZycsICctaW1hZScsICc8aW5maWxlLm1hZT4nLCAnLW9tYWUnLCAnPG91dGZpbGUubWFlPic=

> <r_lp_tautomer_probability>
1

> <r_epik_Ionization_Penalty>
5.37239

> <r_epik_Ionization_Penalty_Charging>
5.18263

> <r_epik_Ionization_Penalty_Neutral>
0.189756

> <r_epik_State_Penalty>
5.53772

> <r_epik_Charging_Adjusted_Penalty>
10.7204

> <i_epik_Tot_Q>
0

> <i_epik_Tot_abs_Q>
2

> <r_epik_Metal_State_Penalty>
1.80836

> <b_epik_Metal_Only>
1

> <s_epik_Chemistry_Notes>
This compound has an imine and may undergo hydrolysis.

> <s_lp_Force_Field>
OPLS_2005

> <r_lp_Energy>
21.245

> <b_lp_Chiralities_Consistent>
1

> <s_lp_Variant>
AV-unprocessed.smi:561-6

> <Gold.Version>
5.8.1

> <Gold.Id.Protein>
6NUR|6NUR_protein|mol2

> <Gold.PLP.Fitness>
44.2024

> <Gold.PLP.PLP>
-40.1441

> <Gold.PLP.part.hbond>
-1.3435

> <Gold.PLP.part.metal>
0.0000

> <Gold.PLP.part.buried>
-5.4889

> <Gold.PLP.part.nonpolar>
-32.5471

> <Gold.PLP.part.repulsive>
0.1484

> <Gold.PLP.ligand.clash>
0.0000

> <Gold.PLP.ligand.torsion>
1.0898

> <Gold.PLP.Chemscore.Hbond>
2.0000

> <Gold.PLP.Chemscore.CHOScore>
0.0000

> <Gold.PLP.Chemscore.Metal>
0.0000

> <Gold.Chemscore.Hbonds>
donor molecule, donor type, donor heavy atom, donor atom, acceptor molecule, acceptor atom, score
      L1  H     7    36       P1  8028  2.00

> <Gold.PLP.Chemscore.Internal.Correction>
0.2380

> <Gold.Rescore>
     Score         DG    S(hbond)    S(metal)    S(lipo)     H(rot)  DE(clash)    DE(int)     intcor
     10.52     -13.35       0.98        0.00      77.13       1.73       0.26       2.57       ----

> <Gold.Chemscore.Fitness>
10.5243

> <Gold.Chemscore.DG>
-13.3549

> <Gold.Chemscore.ZeroCoef>
-5.4800

> <Gold.Chemscore.Hbond>
0.9819

> <Gold.Chemscore.Metal>
0.0000

> <Gold.Chemscore.Lipo>
77.1268

> <Gold.Chemscore.Internal_Hbond>
0.0000

> <Gold.Chemscore.DEClash>
0.2575

> <Gold.Chemscore.DEInternal>
2.5731

> <Gold.Chemscore.Rot>
1.7299

> <Gold.Chemscore.Internal.Correction>
   9.000000E+99

> <Gold.Chemscore.Hbonds>
donor molecule, donor type, donor heavy atom, donor atom, acceptor molecule, acceptor atom, score
      L1  H     7    36       P1  8028  0.48

> <Gold.Chemscore.Hbond.Weighted>
-3.2797

> <Gold.Chemscore.Metal.Weighted>
-0.0000

> <Gold.Chemscore.Lipo.Weighted>
-9.0238

> <Gold.Chemscore.Internal_Hbond.Weighted>
0.0000

> <Gold.Chemscore.DEClash.Weighted>
0.2575

> <Gold.Chemscore.DEInternal.Weighted>
2.5731

> <Gold.Chemscore.Rot.Weighted>
4.4286

> <Gold.Chemscore.Internal.Correction.Weighted>
   9.000000E+99

> <Gold.Protein.RotatedTorsions>
[ 6907 6896 6895 6894 ] final   -6.44 input  -60.11 | X-H torsion
[ 7974 7965 7964 7962 ] final  -79.80 input  175.53 | X-H torsion
[ 8008 7997 7996 7995 ] final   11.47 input   59.86 | X-H torsion
[ 10167 10162 10161 10158 ] final  -75.00 input  -65.29 | X-H torsion
[ 10718 10713 10712 10709 ] final  -82.52 input   66.30 | X-H torsion
[ 10763 10752 10751 10750 ] final  178.84 input  -60.55 | X-H torsion
[ 11005 11000 10999 10996 ] final  -73.88 input  -57.11 | X-H torsion

> <Gold.Protein.ActiveResidues>
 VAL166  LYS551  ARG553  GLY616  TRP617  ASP618  TYR619  PRO620  LYS621  CYS622 
 ASP623  PHE694  ASN695  SER759  ASP760  ASP761  ALA762  ILE779  LEU786  VAL792 
 PHE793  MET794  SER795  GLU796  ALA797  LYS798  CYS799  TRP800  GLU811  SER814 

> <Gold.Protein.RotatedAtoms>
  151.4654  135.1042  159.9736 H   0  0  0  0  0  0  0  0  0  0  0  0  # atno 6907 bound_to 6896
  152.4837  133.8314  159.7115 H   0  0  0  0  0  0  0  0  0  0  0  0  # atno 6908 bound_to 6896
  150.8928  133.7160  159.2927 H   0  0  0  0  0  0  0  0  0  0  0  0  # atno 6909 bound_to 6896
  145.5684  140.9470  143.1409 H   0  0  0  0  0  0  0  0  0  0  0  0  # atno 7974 bound_to 7965
  154.8074  140.2862  155.5877 H   0  0  0  0  0  0  0  0  0  0  0  0  # atno 8008 bound_to 7997
  156.2984  140.2575  156.2885 H   0  0  0  0  0  0  0  0  0  0  0  0  # atno 8009 bound_to 7997
  154.9487  140.0380  157.2122 H   0  0  0  0  0  0  0  0  0  0  0  0  # atno 8010 bound_to 7997
  140.4980  143.2367  151.7799 H   0  0  0  0  0  0  0  0  0  0  0  0  # atno 10167 bound_to 10162
  156.0032  130.4637  150.4117 H   0  0  0  0  0  0  0  0  0  0  0  0  # atno 10718 bound_to 10713
  154.5130  135.2789  155.1327 H   0  0  0  0  0  0  0  0  0  0  0  0  # atno 10763 bound_to 10752
  154.2915  135.6266  153.5391 H   0  0  0  0  0  0  0  0  0  0  0  0  # atno 10764 bound_to 10752
  152.9922  135.5675  154.5600 H   0  0  0  0  0  0  0  0  0  0  0  0  # atno 10765 bound_to 10752
  141.1628  133.6893  156.7279 H   0  0  0  0  0  0  0  0  0  0  0  0  # atno 11005 bound_to 11000
  144.7449  139.7346  143.7296 LP  0  0  0  0  0  0  0  0  0  0  0  0  # atno 17320 bound_to 7965
  146.1802  139.4990  142.9871 LP  0  0  0  0  0  0  0  0  0  0  0  0  # atno 17321 bound_to 7965
  139.4865  144.4560  151.9597 LP  0  0  0  0  0  0  0  0  0  0  0  0  # atno 17342 bound_to 10162
  140.3649  144.2927  150.5928 LP  0  0  0  0  0  0  0  0  0  0  0  0  # atno 17343 bound_to 10162
  157.2179  131.0475  151.2563 LP  0  0  0  0  0  0  0  0  0  0  0  0  # atno 17370 bound_to 10713
  157.3828  130.7240  149.6642 LP  0  0  0  0  0  0  0  0  0  0  0  0  # atno 17371 bound_to 10713
  140.2767  134.8349  157.3896 LP  0  0  0  0  0  0  0  0  0  0  0  0  # atno 17394 bound_to 11000
  140.1471  134.4897  155.7988 LP  0  0  0  0  0  0  0  0  0  0  0  0  # atno 17395 bound_to 11000

$$$$
