AV-unprocessed.smi:334|AV-procd|sdf|2369|dock1
  -GOLD-   2262022283D 1   1.00000     0.00000
 Structure written by MMmdl.
 44 46  0  0  0  0  0  0  0  0  3 V2000
  143.3844  137.3318  153.6118 C   0  0  0  0  0  0  0  0  0  0  0  0
  144.0318  137.0560  152.2449 C   0  0  1  0  0  0  0  0  0  0  0  0
  145.0581  138.0699  152.0080 N   0  0  0  0  0  0  0  0  0  0  0  0
  146.0028  138.4557  152.8800 C   0  0  0  0  0  0  0  0  0  0  0  0
  146.1415  137.9575  153.9977 O   0  0  0  0  0  0  0  0  0  0  0  0
  146.9383  139.5758  152.4046 C   0  0  0  0  0  0  0  0  0  0  0  0
  147.9882  139.9016  153.3848 N   0  0  0  0  0  0  0  0  0  0  0  0
  148.8905  138.8746  153.7271 C   0  0  0  0  0  0  0  0  0  0  0  0
  149.8860  139.0631  154.6156 C   0  0  0  0  0  0  0  0  0  0  0  0
  150.8023  137.9971  154.9572 N   0  3  0  0  0  0  0  0  0  0  0  0
  150.4781  136.8403  154.7082 O   0  0  0  0  0  0  0  0  0  0  0  0
  151.8740  138.2790  155.4853 O   0  5  0  0  0  0  0  0  0  0  0  0
  150.0080  140.3739  155.2235 C   0  0  0  0  0  0  0  0  0  0  0  0
  149.1471  141.3594  154.9024 C   0  0  0  0  0  0  0  0  0  0  0  0
  148.0650  141.1527  153.9346 C   0  0  0  0  0  0  0  0  0  0  0  0
  147.2757  142.0494  153.6364 O   0  0  0  0  0  0  0  0  0  0  0  0
  144.6521  135.6383  152.1639 C   0  0  1  0  0  0  0  0  0  0  0  0
  143.5964  134.5089  152.0751 C   0  0  0  0  0  0  0  0  0  0  0  0
  144.0191  133.7240  150.8208 C   0  0  2  0  0  0  0  0  0  0  0  0
  145.3337  132.9745  151.1020 C   0  0  0  0  0  0  0  0  0  0  0  0
  146.3698  134.1131  151.1324 C   0  0  0  0  0  0  0  0  0  0  0  0
  145.5057  135.3670  150.8968 C   0  0  1  0  0  0  0  0  0  0  0  0
  144.4798  134.8442  149.8975 C   0  0  0  0  0  0  0  0  0  0  0  0
  142.5698  136.6379  153.8186 H   0  0  0  0  0  0  0  0  0  0  0  0
  142.9684  138.3390  153.6510 H   0  0  0  0  0  0  0  0  0  0  0  0
  144.1103  137.2405  154.4206 H   0  0  0  0  0  0  0  0  0  0  0  0
  143.2489  137.1359  151.4893 H   0  0  0  0  0  0  0  0  0  0  0  0
  145.0288  138.5374  151.1135 H   0  0  0  0  0  0  0  0  0  0  0  0
  147.3747  139.2699  151.4528 H   0  0  0  0  0  0  0  0  0  0  0  0
  146.3559  140.4709  152.1770 H   0  0  0  0  0  0  0  0  0  0  0  0
  148.7121  137.9344  153.2255 H   0  0  0  0  0  0  0  0  0  0  0  0
  150.7892  140.5745  155.9421 H   0  0  0  0  0  0  0  0  0  0  0  0
  149.2550  142.3275  155.3693 H   0  0  0  0  0  0  0  0  0  0  0  0
  145.2726  135.4928  153.0500 H   0  0  0  0  0  0  0  0  0  0  0  0
  143.5806  133.8852  152.9694 H   0  0  0  0  0  0  0  0  0  0  0  0
  142.5914  134.9088  151.9355 H   0  0  0  0  0  0  0  0  0  0  0  0
  143.2307  133.0886  150.4164 H   0  0  0  0  0  0  0  0  0  0  0  0
  145.2985  132.4175  152.0390 H   0  0  0  0  0  0  0  0  0  0  0  0
  145.5608  132.2702  150.3006 H   0  0  0  0  0  0  0  0  0  0  0  0
  146.9191  134.1536  152.0737 H   0  0  0  0  0  0  0  0  0  0  0  0
  147.0971  133.9889  150.3290 H   0  0  0  0  0  0  0  0  0  0  0  0
  146.0907  136.2164  150.5452 H   0  0  0  0  0  0  0  0  0  0  0  0
  144.9254  134.4835  148.9687 H   0  0  0  0  0  0  0  0  0  0  0  0
  143.6947  135.5638  149.6604 H   0  0  0  0  0  0  0  0  0  0  0  0
  1  2  1  0  0  0  0
  1 24  1  0  0  0  0
  1 25  1  0  0  0  0
  1 26  1  0  0  0  0
  2  3  1  0  0  0  0
  2 17  1  0  0  0  0
  2 27  1  0  0  0  0
  3  4  1  0  0  0  0
  3 28  1  0  0  0  0
  4  5  2  0  0  0  0
  4  6  1  0  0  0  0
  6  7  1  0  0  0  0
  6 29  1  0  0  0  0
  6 30  1  0  0  0  0
  7 15  1  0  0  0  0
  7  8  1  0  0  0  0
  8  9  2  0  0  0  0
  8 31  1  0  0  0  0
  9 10  1  0  0  0  0
  9 13  1  0  0  0  0
 10 11  2  0  0  0  0
 10 12  1  0  0  0  0
 13 14  2  0  0  0  0
 13 32  1  0  0  0  0
 14 15  1  0  0  0  0
 14 33  1  0  0  0  0
 15 16  2  0  0  0  0
 17 22  1  0  0  0  0
 17 18  1  0  0  0  0
 17 34  1  0  0  0  0
 18 19  1  0  0  0  0
 18 35  1  0  0  0  0
 18 36  1  0  0  0  0
 19 23  1  0  0  0  0
 19 20  1  0  0  0  0
 19 37  1  0  0  0  0
 20 21  1  0  0  0  0
 20 38  1  0  0  0  0
 20 39  1  0  0  0  0
 21 22  1  0  0  0  0
 21 40  1  0  0  0  0
 21 41  1  0  0  0  0
 22 23  1  0  0  0  0
 22 42  1  0  0  0  0
 23 43  1  0  0  0  0
 23 44  1  0  0  0  0
M  CHG  1  10   1
M  CHG  1  12  -1
M  END
> <s_m_source_file>
AV-unprocessed.smi

> <i_m_source_file_index>
334

> <i_lp_mmshare_version>
43012

> <i_f3d_flags>
0

> <s_epik_input>
W0NIMl0xW0NIMl1bQ0BIXShbQ0gyXTIpW0NAQEhdKFtDSDJdW0NAQEhdMTIpW0NASF0oW0NIM10pW05IXUMoPU8pW0NIMl1uM1tjSF1jKFtOK10oPU8pW08tXSlbY0hdW2NIXWMzPU8=

> <s_epik_cmdline>
J2VwaWtfcHl0aG9uJywgJy1waCcsICc3LjAnLCAnLXRuJywgJzgnLCAnLW1hJywgJzIwMCcsICctbWV0YWxfYmluZGluZycsICctaW1hZScsICc8aW5maWxlLm1hZT4nLCAnLW9tYWUnLCAnPG91dGZpbGUubWFlPic=

> <r_lp_tautomer_probability>
1

> <r_epik_Ionization_Penalty>
2.17081e-08

> <r_epik_Ionization_Penalty_Charging>
8.1195e-11

> <r_epik_Ionization_Penalty_Neutral>
2.16269e-08

> <r_epik_State_Penalty>
-0

> <r_epik_Charging_Adjusted_Penalty>
8.1195e-11

> <i_epik_Tot_Q>
0

> <i_epik_Tot_abs_Q>
2

> <r_epik_Metal_State_Penalty>
-0

> <b_epik_Metal_Only>
0

> <s_lp_Force_Field>
OPLS_2005

> <r_lp_Energy>
62.1709

> <b_lp_Chiralities_Consistent>
1

> <s_lp_Variant>
AV-unprocessed.smi:334-8

> <Gold.Version>
5.8.1

> <Gold.Id.Protein>
6NUR|6NUR_protein|mol2

> <Gold.PLP.Fitness>
43.5774

> <Gold.PLP.PLP>
-38.4467

> <Gold.PLP.part.hbond>
-2.0000

> <Gold.PLP.part.metal>
0.0000

> <Gold.PLP.part.buried>
2.0786

> <Gold.PLP.part.nonpolar>
-38.1104

> <Gold.PLP.part.repulsive>
0.7139

> <Gold.PLP.ligand.clash>
0.0000

> <Gold.PLP.ligand.torsion>
0.4548

> <Gold.PLP.Chemscore.Hbond>
1.0000

> <Gold.PLP.Chemscore.CHOScore>
1.0000

> <Gold.PLP.Chemscore.Metal>
0.0000

> <Gold.Chemscore.Hbonds>
donor molecule, donor type, donor heavy atom, donor atom, acceptor molecule, acceptor atom, score
      L1  H     3    28       P1 10171  0.70
      L1  C     8    31       P1  7948  1.00

> <Gold.PLP.Chemscore.Internal.Correction>
0.0401

> <Gold.Rescore>
     Score         DG    S(hbond)    S(metal)    S(lipo)     H(rot)  DE(clash)    DE(int)     intcor
     10.49     -14.17       0.99        0.00      84.20       1.75       0.49       3.19       ----

> <Gold.Chemscore.Fitness>
10.4933

> <Gold.Chemscore.DG>
-14.1715

> <Gold.Chemscore.ZeroCoef>
-5.4800

> <Gold.Chemscore.Hbond>
0.9921

> <Gold.Chemscore.Metal>
0.0000

> <Gold.Chemscore.Lipo>
84.1995

> <Gold.Chemscore.Internal_Hbond>
0.0000

> <Gold.Chemscore.DEClash>
0.4881

> <Gold.Chemscore.DEInternal>
3.1901

> <Gold.Chemscore.Rot>
1.7474

> <Gold.Chemscore.Internal.Correction>
   9.000000E+99

> <Gold.Chemscore.Hbonds>
donor molecule, donor type, donor heavy atom, donor atom, acceptor molecule, acceptor atom, score
      L1  H     3    28       P1 10171  0.70

> <Gold.Chemscore.Hbond.Weighted>
-3.3135

> <Gold.Chemscore.Metal.Weighted>
-0.0000

> <Gold.Chemscore.Lipo.Weighted>
-9.8513

> <Gold.Chemscore.Internal_Hbond.Weighted>
0.0000

> <Gold.Chemscore.DEClash.Weighted>
0.4881

> <Gold.Chemscore.DEInternal.Weighted>
3.1901

> <Gold.Chemscore.Rot.Weighted>
4.4733

> <Gold.Chemscore.Internal.Correction.Weighted>
   9.000000E+99

> <Gold.Protein.RotatedTorsions>
[ 6907 6896 6895 6894 ] final  -59.70 input  -60.11 | X-H torsion
[ 7974 7965 7964 7962 ] final   34.66 input  175.53 | X-H torsion
[ 8008 7997 7996 7995 ] final   51.33 input   59.86 | X-H torsion
[ 10167 10162 10161 10158 ] final   73.35 input  -65.29 | X-H torsion
[ 10718 10713 10712 10709 ] final  156.08 input   66.30 | X-H torsion
[ 10763 10752 10751 10750 ] final   72.64 input  -60.55 | X-H torsion
[ 11005 11000 10999 10996 ] final  -78.59 input  -57.11 | X-H torsion

> <Gold.Protein.ActiveResidues>
 VAL166  LYS551  ARG553  GLY616  TRP617  ASP618  TYR619  PRO620  LYS621  CYS622 
 ASP623  PHE694  ASN695  SER759  ASP760  ASP761  ALA762  ILE779  LEU786  VAL792 
 PHE793  MET794  SER795  GLU796  ALA797  LYS798  CYS799  TRP800  GLU811  SER814 

> <Gold.Protein.RotatedAtoms>
  150.7910  134.6934  159.6509 H   0  0  0  0  0  0  0  0  0  0  0  0  # atno 6907 bound_to 6896
  152.4016  134.6274  160.0076 H   0  0  0  0  0  0  0  0  0  0  0  0  # atno 6908 bound_to 6896
  151.6543  133.3282  159.3195 H   0  0  0  0  0  0  0  0  0  0  0  0  # atno 6909 bound_to 6896
  146.1337  139.6241  142.9209 H   0  0  0  0  0  0  0  0  0  0  0  0  # atno 7974 bound_to 7965
  155.4336  140.3451  155.4282 H   0  0  0  0  0  0  0  0  0  0  0  0  # atno 8008 bound_to 7997
  156.1321  140.1517  156.9080 H   0  0  0  0  0  0  0  0  0  0  0  0  # atno 8009 bound_to 7997
  154.4903  140.0843  156.7559 H   0  0  0  0  0  0  0  0  0  0  0  0  # atno 8010 bound_to 7997
  140.0254  144.5508  150.7549 H   0  0  0  0  0  0  0  0  0  0  0  0  # atno 10167 bound_to 10162
  157.2098  131.0695  151.1976 H   0  0  0  0  0  0  0  0  0  0  0  0  # atno 10718 bound_to 10713
  153.0471  135.5092  154.7774 H   0  0  0  0  0  0  0  0  0  0  0  0  # atno 10763 bound_to 10752
  154.6665  135.2946  154.9800 H   0  0  0  0  0  0  0  0  0  0  0  0  # atno 10764 bound_to 10752
  154.0633  135.6688  153.4867 H   0  0  0  0  0  0  0  0  0  0  0  0  # atno 10765 bound_to 10752
  141.1665  133.7069  156.7994 H   0  0  0  0  0  0  0  0  0  0  0  0  # atno 11005 bound_to 11000
  145.5203  141.0432  143.2439 LP  0  0  0  0  0  0  0  0  0  0  0  0  # atno 17320 bound_to 7965
  144.7717  139.6719  143.7192 LP  0  0  0  0  0  0  0  0  0  0  0  0  # atno 17321 bound_to 7965
  140.7325  143.2706  151.3901 LP  0  0  0  0  0  0  0  0  0  0  0  0  # atno 17342 bound_to 10162
  139.6112  144.1095  152.2300 LP  0  0  0  0  0  0  0  0  0  0  0  0  # atno 17343 bound_to 10162
  157.3684  130.7168  149.6548 LP  0  0  0  0  0  0  0  0  0  0  0  0  # atno 17370 bound_to 10713
  155.9692  130.4206  150.4429 LP  0  0  0  0  0  0  0  0  0  0  0  0  # atno 17371 bound_to 10713
  140.2267  134.8716  157.3434 LP  0  0  0  0  0  0  0  0  0  0  0  0  # atno 17394 bound_to 11000
  140.1932  134.4345  155.7704 LP  0  0  0  0  0  0  0  0  0  0  0  0  # atno 17395 bound_to 11000

$$$$
