AV-unprocessed.smi:579|AV-procd|sdf|2987|dock9
  -GOLD-   2262023493D 1   1.00000     0.00000
 Structure written by MMmdl.
 26 27  0  0  0  0  0  0  0  0  1 V2000
  141.9352  138.4082  153.5957 N   0  0  0  0  0  0  0  0  0  0  0  0
  142.4553  137.1876  153.1681 C   0  0  0  0  0  0  0  0  0  0  0  0
  141.7976  135.9785  153.4682 C   0  0  0  0  0  0  0  0  0  0  0  0
  142.3602  134.7701  153.0147 C   0  0  0  0  0  0  0  0  0  0  0  0
  143.5621  134.8156  152.2773 C   0  0  0  0  0  0  0  0  0  0  0  0
  144.1249  133.6151  151.8218 N   0  0  0  0  0  0  0  0  0  0  0  0
  144.0855  133.4709  150.3719 C   0  0  0  0  0  0  0  0  0  0  0  0
  144.6042  132.0801  149.9672 C   0  0  0  0  0  0  0  0  0  0  0  0
  145.9125  131.8848  150.4971 O   0  0  0  0  0  0  0  0  0  0  0  0
  145.9301  131.9554  151.9203 C   0  0  0  0  0  0  0  0  0  0  0  0
  145.4465  133.3436  152.3737 C   0  0  0  0  0  0  0  0  0  0  0  0
  144.1976  135.9768  151.9870 N   0  0  0  0  0  0  0  0  0  0  0  0
  143.6519  137.1317  152.4248 C   0  0  0  0  0  0  0  0  0  0  0  0
  142.3980  139.2812  153.3864 H   0  0  0  0  0  0  0  0  0  0  0  0
  141.0744  138.4604  154.1218 H   0  0  0  0  0  0  0  0  0  0  0  0
  140.8780  135.9732  154.0352 H   0  0  0  0  0  0  0  0  0  0  0  0
  141.8775  133.8279  153.2298 H   0  0  0  0  0  0  0  0  0  0  0  0
  143.0647  133.6094  150.0137 H   0  0  0  0  0  0  0  0  0  0  0  0
  144.6993  134.2438  149.9068 H   0  0  0  0  0  0  0  0  0  0  0  0
  143.9346  131.2963  150.3252 H   0  0  0  0  0  0  0  0  0  0  0  0
  144.6438  131.9946  148.8813 H   0  0  0  0  0  0  0  0  0  0  0  0
  145.3030  131.1682  152.3418 H   0  0  0  0  0  0  0  0  0  0  0  0
  146.9460  131.7770  152.2727 H   0  0  0  0  0  0  0  0  0  0  0  0
  146.1510  134.1069  152.0405 H   0  0  0  0  0  0  0  0  0  0  0  0
  145.4091  133.3908  153.4628 H   0  0  0  0  0  0  0  0  0  0  0  0
  144.1878  138.0353  152.1729 H   0  0  0  0  0  0  0  0  0  0  0  0
  1  2  1  0  0  0  0
  1 14  1  0  0  0  0
  1 15  1  0  0  0  0
  2 13  1  0  0  0  0
  2  3  2  0  0  0  0
  3  4  1  0  0  0  0
  3 16  1  0  0  0  0
  4  5  2  0  0  0  0
  4 17  1  0  0  0  0
  5  6  1  0  0  0  0
  5 12  1  0  0  0  0
  6 11  1  0  0  0  0
  6  7  1  0  0  0  0
  7  8  1  0  0  0  0
  7 18  1  0  0  0  0
  7 19  1  0  0  0  0
  8  9  1  0  0  0  0
  8 20  1  0  0  0  0
  8 21  1  0  0  0  0
  9 10  1  0  0  0  0
 10 11  1  0  0  0  0
 10 22  1  0  0  0  0
 10 23  1  0  0  0  0
 11 24  1  0  0  0  0
 11 25  1  0  0  0  0
 12 13  2  0  0  0  0
 13 26  1  0  0  0  0
M  END
> <s_m_source_file>
AV-unprocessed.smi

> <i_m_source_file_index>
579

> <i_lp_mmshare_version>
43012

> <i_f3d_flags>
0

> <s_epik_input>
W05IMl1jMVtjSF1bY0hdYyhuW2NIXTEpTjJbQ0gyXVtDSDJdT1tDSDJdW0NIMl0y

> <s_epik_cmdline>
J2VwaWtfcHl0aG9uJywgJy1waCcsICc3LjAnLCAnLXRuJywgJzgnLCAnLW1hJywgJzIwMCcsICctbWV0YWxfYmluZGluZycsICctaW1hZScsICc8aW5maWxlLm1hZT4nLCAnLW9tYWUnLCAnPG91dGZpbGUubWFlPic=

> <r_lp_tautomer_probability>
1

> <r_epik_Ionization_Penalty>
0.00957298

> <r_epik_Ionization_Penalty_Charging>
0

> <r_epik_Ionization_Penalty_Neutral>
0.00957298

> <r_epik_State_Penalty>
0.00726246

> <r_epik_Charging_Adjusted_Penalty>
0.00726246

> <i_epik_Tot_Q>
0

> <i_epik_Tot_abs_Q>
0

> <r_epik_Metal_State_Penalty>
7.30711e-06

> <b_epik_Metal_Only>
0

> <s_lp_Force_Field>
OPLS_2005

> <r_lp_Energy>
21.013

> <b_lp_Chiralities_Consistent>
1

> <s_lp_Variant>
AV-unprocessed.smi:579-1

> <Gold.Version>
5.8.1

> <Gold.Id.Protein>
6NUR|6NUR_protein|mol2

> <Gold.PLP.Fitness>
30.0810

> <Gold.PLP.PLP>
-22.3528

> <Gold.PLP.part.hbond>
-1.0000

> <Gold.PLP.part.metal>
0.0000

> <Gold.PLP.part.buried>
-4.3039

> <Gold.PLP.part.nonpolar>
-17.3173

> <Gold.PLP.part.repulsive>
0.4207

> <Gold.PLP.ligand.clash>
0.0000

> <Gold.PLP.ligand.torsion>
0.0644

> <Gold.PLP.Chemscore.Hbond>
1.0000

> <Gold.PLP.Chemscore.CHOScore>
1.5850

> <Gold.PLP.Chemscore.Metal>
0.0000

> <Gold.Chemscore.Hbonds>
donor molecule, donor type, donor heavy atom, donor atom, acceptor molecule, acceptor atom, score
      L1  H     1    14       P1 10175  1.00
      L1  C    13    26       P1 10171  0.61
      L1  C    13    26       P1 10175  1.00

> <Gold.PLP.Chemscore.Internal.Correction>
0.1023

> <Gold.Rescore>
     Score         DG    S(hbond)    S(metal)    S(lipo)     H(rot)  DE(clash)    DE(int)     intcor
     11.84     -11.90       0.98        0.00      48.85       1.00       0.00       0.05       ----

> <Gold.Chemscore.Fitness>
11.8391

> <Gold.Chemscore.DG>
-11.8957

> <Gold.Chemscore.ZeroCoef>
-5.4800

> <Gold.Chemscore.Hbond>
0.9761

> <Gold.Chemscore.Metal>
0.0000

> <Gold.Chemscore.Lipo>
48.8507

> <Gold.Chemscore.Internal_Hbond>
0.0000

> <Gold.Chemscore.DEClash>
0.0042

> <Gold.Chemscore.DEInternal>
0.0524

> <Gold.Chemscore.Rot>
1.0000

> <Gold.Chemscore.Internal.Correction>
   9.000000E+99

> <Gold.Chemscore.Hbonds>
donor molecule, donor type, donor heavy atom, donor atom, acceptor molecule, acceptor atom, score
      L1  H     1    14       P1 10175  0.99

> <Gold.Chemscore.Hbond.Weighted>
-3.2602

> <Gold.Chemscore.Metal.Weighted>
-0.0000

> <Gold.Chemscore.Lipo.Weighted>
-5.7155

> <Gold.Chemscore.Internal_Hbond.Weighted>
0.0000

> <Gold.Chemscore.DEClash.Weighted>
0.0042

> <Gold.Chemscore.DEInternal.Weighted>
0.0524

> <Gold.Chemscore.Rot.Weighted>
2.5600

> <Gold.Chemscore.Internal.Correction.Weighted>
   9.000000E+99

> <Gold.Protein.RotatedTorsions>
[ 6907 6896 6895 6894 ] final   46.68 input  -60.11 | X-H torsion
[ 7974 7965 7964 7962 ] final  -70.88 input  175.53 | X-H torsion
[ 8008 7997 7996 7995 ] final   18.86 input   59.86 | X-H torsion
[ 10167 10162 10161 10158 ] final  -86.07 input  -65.29 | X-H torsion
[ 10718 10713 10712 10709 ] final -148.44 input   66.30 | X-H torsion
[ 10763 10752 10751 10750 ] final  -82.49 input  -60.55 | X-H torsion
[ 11005 11000 10999 10996 ] final  103.41 input  -57.11 | X-H torsion

> <Gold.Protein.ActiveResidues>
 VAL166  LYS551  ARG553  GLY616  TRP617  ASP618  TYR619  PRO620  LYS621  CYS622 
 ASP623  PHE694  ASN695  SER759  ASP760  ASP761  ALA762  ILE779  LEU786  VAL792 
 PHE793  MET794  SER795  GLU796  ALA797  LYS798  CYS799  TRP800  GLU811  SER814 

> <Gold.Protein.RotatedAtoms>
  152.2592  134.8052  160.0433 H   0  0  0  0  0  0  0  0  0  0  0  0  # atno 6907 bound_to 6896
  151.8704  133.3469  159.3741 H   0  0  0  0  0  0  0  0  0  0  0  0  # atno 6908 bound_to 6896
  150.7110  134.5045  159.5621 H   0  0  0  0  0  0  0  0  0  0  0  0  # atno 6909 bound_to 6896
  145.6852  140.9173  143.0811 H   0  0  0  0  0  0  0  0  0  0  0  0  # atno 7974 bound_to 7965
  154.9122  140.3015  155.5260 H   0  0  0  0  0  0  0  0  0  0  0  0  # atno 8008 bound_to 7997
  156.3014  140.2387  156.4098 H   0  0  0  0  0  0  0  0  0  0  0  0  # atno 8009 bound_to 7997
  154.8414  140.0413  157.1532 H   0  0  0  0  0  0  0  0  0  0  0  0  # atno 8010 bound_to 7997
  140.3976  143.2677  151.9184 H   0  0  0  0  0  0  0  0  0  0  0  0  # atno 10167 bound_to 10162
  156.4202  130.8025  151.2247 H   0  0  0  0  0  0  0  0  0  0  0  0  # atno 10718 bound_to 10713
  154.5764  135.5589  153.7144 H   0  0  0  0  0  0  0  0  0  0  0  0  # atno 10763 bound_to 10752
  153.0066  135.6309  154.2043 H   0  0  0  0  0  0  0  0  0  0  0  0  # atno 10764 bound_to 10752
  154.1983  135.2879  155.2979 H   0  0  0  0  0  0  0  0  0  0  0  0  # atno 10765 bound_to 10752
  139.8783  134.9262  156.5206 H   0  0  0  0  0  0  0  0  0  0  0  0  # atno 11005 bound_to 11000
  144.7013  139.8749  143.7443 LP  0  0  0  0  0  0  0  0  0  0  0  0  # atno 17320 bound_to 7965
  146.0929  139.3920  143.0394 LP  0  0  0  0  0  0  0  0  0  0  0  0  # atno 17321 bound_to 7965
  139.4786  144.5665  151.8156 LP  0  0  0  0  0  0  0  0  0  0  0  0  # atno 17342 bound_to 10162
  140.4774  144.1500  150.5927 LP  0  0  0  0  0  0  0  0  0  0  0  0  # atno 17343 bound_to 10162
  157.7508  131.0230  150.3817 LP  0  0  0  0  0  0  0  0  0  0  0  0  # atno 17370 bound_to 10713
  156.4133  130.3938  149.6876 LP  0  0  0  0  0  0  0  0  0  0  0  0  # atno 17371 bound_to 10713
  140.8453  133.8173  155.9115 LP  0  0  0  0  0  0  0  0  0  0  0  0  # atno 17394 bound_to 11000
  140.9197  134.2157  157.4934 LP  0  0  0  0  0  0  0  0  0  0  0  0  # atno 17395 bound_to 11000

$$$$
