AV-unprocessed.smi:2550|AV-procd|sdf|10011|dock6
  -GOLD-   2272014 53D 1   1.00000     0.00000
 Structure written by MMmdl.
 28 29  0  0  0  0  0  0  0  0  2 V2000
  147.4086  128.9470  154.1928 C   0  0  0  0  0  0  0  0  0  0  0  0
  146.6023  128.9079  152.8845 C   0  0  0  0  0  0  0  0  0  0  0  0
  147.1898  127.9108  151.8726 C   0  0  0  0  0  0  0  0  0  0  0  0
  145.3022  128.4532  153.2114 O   0  0  0  0  0  0  0  0  0  0  0  0
  146.4435  130.2846  152.2846 C   0  0  0  0  0  0  0  0  0  0  0  0
  145.6871  130.7078  151.2248 C   0  0  0  0  0  0  0  0  0  0  0  0
  145.9415  132.0609  151.1651 N   0  0  0  0  0  0  0  0  0  0  0  0
  145.4646  132.9997  150.1942 C   0  0  0  0  0  0  0  0  0  0  0  0
  144.6338  134.2157  150.6047 C   0  0  0  0  0  0  0  0  0  0  0  0
  143.9150  134.0722  149.3448 N   0  3  0  0  0  0  0  0  0  0  0  0
  144.2736  132.6600  149.3006 C   0  0  0  0  0  0  0  0  0  0  0  0
  146.8412  132.4408  152.1008 N   0  0  0  0  0  0  0  0  0  0  0  0
  147.1351  131.3867  152.7939 N   0  0  0  0  0  0  0  0  0  0  0  0
  148.4278  129.2933  154.0175 H   0  0  0  0  0  0  0  0  0  0  0  0
  147.4729  127.9595  154.6511 H   0  0  0  0  0  0  0  0  0  0  0  0
  146.9533  129.6205  154.9200 H   0  0  0  0  0  0  0  0  0  0  0  0
  148.1931  128.2066  151.5642 H   0  0  0  0  0  0  0  0  0  0  0  0
  146.5748  127.8483  150.9740 H   0  0  0  0  0  0  0  0  0  0  0  0
  147.2598  126.9084  152.2963 H   0  0  0  0  0  0  0  0  0  0  0  0
  144.8383  129.1566  153.6393 H   0  0  0  0  0  0  0  0  0  0  0  0
  145.0253  130.1886  150.5472 H   0  0  0  0  0  0  0  0  0  0  0  0
  146.3294  133.2987  149.5974 H   0  0  0  0  0  0  0  0  0  0  0  0
  143.9887  134.0364  151.4672 H   0  0  0  0  0  0  0  0  0  0  0  0
  145.1934  135.1471  150.6951 H   0  0  0  0  0  0  0  0  0  0  0  0
  142.9219  134.2426  149.4154 H   0  0  0  0  0  0  0  0  0  0  0  0
  144.5332  132.2970  148.3057 H   0  0  0  0  0  0  0  0  0  0  0  0
  143.5266  132.0299  149.7875 H   0  0  0  0  0  0  0  0  0  0  0  0
  144.3627  134.5908  148.6025 H   0  0  0  0  0  0  0  0  0  0  0  0
  1  2  1  0  0  0  0
  1 14  1  0  0  0  0
  1 15  1  0  0  0  0
  1 16  1  0  0  0  0
  2  3  1  0  0  0  0
  2  4  1  0  0  0  0
  2  5  1  0  0  0  0
  3 17  1  0  0  0  0
  3 18  1  0  0  0  0
  3 19  1  0  0  0  0
  4 20  1  0  0  0  0
  5 13  1  0  0  0  0
  5  6  2  0  0  0  0
  6  7  1  0  0  0  0
  6 21  1  0  0  0  0
  7  8  1  0  0  0  0
  7 12  1  0  0  0  0
  8 11  1  0  0  0  0
  8  9  1  0  0  0  0
  8 22  1  0  0  0  0
  9 10  1  0  0  0  0
  9 23  1  0  0  0  0
  9 24  1  0  0  0  0
 10 11  1  0  0  0  0
 10 25  1  0  0  0  0
 10 28  1  0  0  0  0
 11 26  1  0  0  0  0
 11 27  1  0  0  0  0
 12 13  2  0  0  0  0
M  CHG  1  10   1
M  END
> <s_m_source_file>
AV-unprocessed.smi

> <i_m_source_file_index>
2550

> <i_lp_mmshare_version>
43012

> <i_f3d_flags>
0

> <s_epik_input>
W0NIM11DKFtDSDNdKShbT0hdKWMxW2NIXW4obm4xKVtDSF0yW0NIMl1bTkhdW0NIMl0y

> <s_epik_cmdline>
J2VwaWtfcHl0aG9uJywgJy1waCcsICc3LjAnLCAnLXRuJywgJzgnLCAnLW1hJywgJzIwMCcsICctbWV0YWxfYmluZGluZycsICctaW1hZScsICc8aW5maWxlLm1hZT4nLCAnLW9tYWUnLCAnPG91dGZpbGUubWFlPic=

> <r_lp_tautomer_probability>
1

> <r_epik_Ionization_Penalty>
0.215038

> <r_epik_Ionization_Penalty_Charging>
0.215038

> <r_epik_Ionization_Penalty_Neutral>
3.71976e-07

> <r_epik_State_Penalty>
0.20523

> <r_epik_Charging_Adjusted_Penalty>
0.420268

> <i_epik_Tot_Q>
1

> <i_epik_Tot_abs_Q>
1

> <r_epik_Metal_State_Penalty>
0.20531

> <b_epik_Metal_Only>
0

> <s_lp_Force_Field>
OPLS_2005

> <r_lp_Energy>
9.80929

> <b_lp_Chiralities_Consistent>
1

> <s_lp_Variant>
AV-unprocessed.smi:2550-1

> <Gold.Version>
5.8.1

> <Gold.Id.Protein>
6NUR|6NUR_protein|mol2

> <Gold.PLP.Fitness>
37.3478

> <Gold.PLP.PLP>
-26.4091

> <Gold.PLP.part.hbond>
-3.0000

> <Gold.PLP.part.metal>
0.0000

> <Gold.PLP.part.buried>
-4.5409

> <Gold.PLP.part.nonpolar>
-19.2842

> <Gold.PLP.part.repulsive>
0.3466

> <Gold.PLP.ligand.clash>
0.0000

> <Gold.PLP.ligand.torsion>
0.2841

> <Gold.PLP.Chemscore.Hbond>
3.7280

> <Gold.PLP.Chemscore.CHOScore>
0.0000

> <Gold.PLP.Chemscore.Metal>
0.0000

> <Gold.Chemscore.Hbonds>
donor molecule, donor type, donor heavy atom, donor atom, acceptor molecule, acceptor atom, score
      L1  H     4    20       P1 10956  0.86
      L1  H    10    25       P1 10186  2.00
      L1  H    10    28       P1  7921  0.86

> <Gold.PLP.Chemscore.Internal.Correction>
0.3229

> <Gold.Rescore>
     Score         DG    S(hbond)    S(metal)    S(lipo)     H(rot)  DE(clash)    DE(int)     intcor
     17.20     -17.50       2.62        0.00      66.80       1.78       0.07       0.22       ----

> <Gold.Chemscore.Fitness>
17.2035

> <Gold.Chemscore.DG>
-17.4993

> <Gold.Chemscore.ZeroCoef>
-5.4800

> <Gold.Chemscore.Hbond>
2.6210

> <Gold.Chemscore.Metal>
0.0000

> <Gold.Chemscore.Lipo>
66.7980

> <Gold.Chemscore.Internal_Hbond>
0.0000

> <Gold.Chemscore.DEClash>
0.0727

> <Gold.Chemscore.DEInternal>
0.2230

> <Gold.Chemscore.Rot>
1.7775

> <Gold.Chemscore.Internal.Correction>
   9.000000E+99

> <Gold.Chemscore.Hbonds>
donor molecule, donor type, donor heavy atom, donor atom, acceptor molecule, acceptor atom, score
      L1  H     4    20       P1 10956  0.71
      L1  H    10    25       P1 10186  1.00
      L1  H    10    28       P1  7921  0.80

> <Gold.Chemscore.Hbond.Weighted>
-8.7542

> <Gold.Chemscore.Metal.Weighted>
-0.0000

> <Gold.Chemscore.Lipo.Weighted>
-7.8154

> <Gold.Chemscore.Internal_Hbond.Weighted>
0.0000

> <Gold.Chemscore.DEClash.Weighted>
0.0727

> <Gold.Chemscore.DEInternal.Weighted>
0.2230

> <Gold.Chemscore.Rot.Weighted>
4.5503

> <Gold.Chemscore.Internal.Correction.Weighted>
   9.000000E+99

> <Gold.Protein.RotatedTorsions>
[ 6907 6896 6895 6894 ] final -111.91 input  -60.11 | X-H torsion
[ 7974 7965 7964 7962 ] final -139.87 input  175.53 | X-H torsion
[ 8008 7997 7996 7995 ] final -155.85 input   59.86 | X-H torsion
[ 10167 10162 10161 10158 ] final -111.15 input  -65.29 | X-H torsion
[ 10718 10713 10712 10709 ] final -150.42 input   66.30 | X-H torsion
[ 10763 10752 10751 10750 ] final  -56.12 input  -60.55 | X-H torsion
[ 11005 11000 10999 10996 ] final -106.82 input  -57.11 | X-H torsion

> <Gold.Protein.ActiveResidues>
 VAL166  LYS551  ARG553  GLY616  TRP617  ASP618  TYR619  PRO620  LYS621  CYS622 
 ASP623  PHE694  ASN695  SER759  ASP760  ASP761  ALA762  ILE779  LEU786  VAL792 
 PHE793  MET794  SER795  GLU796  ALA797  LYS798  CYS799  TRP800  GLU811  SER814 

> <Gold.Protein.RotatedAtoms>
  150.7722  133.9166  159.3385 H   0  0  0  0  0  0  0  0  0  0  0  0  # atno 6907 bound_to 6896
  151.7050  135.0921  160.0267 H   0  0  0  0  0  0  0  0  0  0  0  0  # atno 6908 bound_to 6896
  152.3745  133.6424  159.6148 H   0  0  0  0  0  0  0  0  0  0  0  0  # atno 6909 bound_to 6896
  144.8642  140.6268  143.5308 H   0  0  0  0  0  0  0  0  0  0  0  0  # atno 7974 bound_to 7965
  155.7082  140.0775  157.2382 H   0  0  0  0  0  0  0  0  0  0  0  0  # atno 8008 bound_to 7997
  154.4062  140.1635  156.2319 H   0  0  0  0  0  0  0  0  0  0  0  0  # atno 8009 bound_to 7997
  155.9307  140.3391  155.6249 H   0  0  0  0  0  0  0  0  0  0  0  0  # atno 8010 bound_to 7997
  140.1368  143.4313  152.1590 H   0  0  0  0  0  0  0  0  0  0  0  0  # atno 10167 bound_to 10162
  156.4460  130.8144  151.2375 H   0  0  0  0  0  0  0  0  0  0  0  0  # atno 10718 bound_to 10713
  154.2016  135.6410  153.5088 H   0  0  0  0  0  0  0  0  0  0  0  0  # atno 10763 bound_to 10752
  153.0010  135.5452  154.6309 H   0  0  0  0  0  0  0  0  0  0  0  0  # atno 10764 bound_to 10752
  154.5724  135.2918  155.0787 H   0  0  0  0  0  0  0  0  0  0  0  0  # atno 10765 bound_to 10752
  141.0985  133.8926  157.1901 H   0  0  0  0  0  0  0  0  0  0  0  0  # atno 11005 bound_to 11000
  145.4253  139.1557  143.4052 LP  0  0  0  0  0  0  0  0  0  0  0  0  # atno 17320 bound_to 7965
  146.2883  140.4366  142.8749 LP  0  0  0  0  0  0  0  0  0  0  0  0  # atno 17321 bound_to 7965
  139.5492  144.7324  151.4488 LP  0  0  0  0  0  0  0  0  0  0  0  0  # atno 17342 bound_to 10162
  140.6784  143.8137  150.7089 LP  0  0  0  0  0  0  0  0  0  0  0  0  # atno 17343 bound_to 10162
  157.7505  131.0153  150.3499 LP  0  0  0  0  0  0  0  0  0  0  0  0  # atno 17370 bound_to 10713
  156.3867  130.3890  149.7060 LP  0  0  0  0  0  0  0  0  0  0  0  0  # atno 17371 bound_to 10713
  139.9829  135.0092  156.9794 LP  0  0  0  0  0  0  0  0  0  0  0  0  # atno 17394 bound_to 11000
  140.5080  134.1031  155.7264 LP  0  0  0  0  0  0  0  0  0  0  0  0  # atno 17395 bound_to 11000

$$$$
