AV-unprocessed.smi:1846|AV-procd|sdf|7514|dock4
  -GOLD-   22720 9223D 1   1.00000     0.00000
 Structure written by MMmdl.
 37 38  0  0  0  0  0  0  0  0  1 V2000
  153.6506  141.7095  160.6420 C   0  0  0  0  0  0  0  0  0  0  0  0
  152.6838  142.9016  160.6931 C   0  0  0  0  0  0  0  0  0  0  0  0
  152.1849  143.2581  159.3569 N   0  0  0  0  0  0  0  0  0  0  0  0
  152.3782  144.6682  158.9911 C   0  0  0  0  0  0  0  0  0  0  0  0
  151.6798  145.6129  159.9815 C   0  0  0  0  0  0  0  0  0  0  0  0
  151.6074  142.3295  158.5526 C   0  0  0  0  0  0  0  0  0  0  0  0
  151.4589  141.1600  158.9152 O   0  0  0  0  0  0  0  0  0  0  0  0
  151.1493  142.7402  157.1376 C   0  0  0  0  0  0  0  0  0  0  0  0
  150.8763  141.5489  156.2621 C   0  0  0  0  0  0  0  0  0  0  0  0
  151.7179  140.4901  156.0220 C   0  0  0  0  0  0  0  0  0  0  0  0
  151.0019  139.3160  154.9524 S   0  0  0  0  0  0  0  0  0  0  0  0
  149.5594  140.3307  154.8592 C   0  0  0  0  0  0  0  0  0  0  0  0
  148.3781  140.0566  154.1084 N   0  0  0  0  0  0  0  0  0  0  0  0
  148.0859  138.7202  153.5999 C   0  0  0  0  0  0  0  0  0  0  0  0
  146.7502  138.8859  152.8821 C   0  0  0  0  0  0  0  0  0  0  0  0
  146.4738  140.2899  153.0748 N   0  0  0  0  0  0  0  0  0  0  0  0
  147.4123  140.9343  153.7719 C   0  0  0  0  0  0  0  0  0  0  0  0
  147.3664  142.1331  154.0408 O   0  0  0  0  0  0  0  0  0  0  0  0
  149.6561  141.4493  155.5855 N   0  0  0  0  0  0  0  0  0  0  0  0
  154.0199  141.4694  161.6389 H   0  0  0  0  0  0  0  0  0  0  0  0
  154.5132  141.9304  160.0130 H   0  0  0  0  0  0  0  0  0  0  0  0
  153.1666  140.8163  160.2462 H   0  0  0  0  0  0  0  0  0  0  0  0
  151.8503  142.6739  161.3597 H   0  0  0  0  0  0  0  0  0  0  0  0
  153.1863  143.7551  161.1501 H   0  0  0  0  0  0  0  0  0  0  0  0
  153.4443  144.8992  158.9661 H   0  0  0  0  0  0  0  0  0  0  0  0
  152.0320  144.8641  157.9762 H   0  0  0  0  0  0  0  0  0  0  0  0
  151.8322  146.6533  159.6940 H   0  0  0  0  0  0  0  0  0  0  0  0
  152.0773  145.4880  160.9890 H   0  0  0  0  0  0  0  0  0  0  0  0
  150.6055  145.4375  160.0272 H   0  0  0  0  0  0  0  0  0  0  0  0
  150.2528  143.3560  157.1929 H   0  0  0  0  0  0  0  0  0  0  0  0
  151.9261  143.3617  156.6912 H   0  0  0  0  0  0  0  0  0  0  0  0
  152.7102  140.3265  156.4153 H   0  0  0  0  0  0  0  0  0  0  0  0
  148.8678  138.3885  152.9150 H   0  0  0  0  0  0  0  0  0  0  0  0
  148.0125  138.0030  154.4186 H   0  0  0  0  0  0  0  0  0  0  0  0
  146.8234  138.6504  151.8198 H   0  0  0  0  0  0  0  0  0  0  0  0
  145.9653  138.2749  153.3295 H   0  0  0  0  0  0  0  0  0  0  0  0
  145.6440  140.7333  152.7080 H   0  0  0  0  0  0  0  0  0  0  0  0
  1  2  1  0  0  0  0
  1 20  1  0  0  0  0
  1 21  1  0  0  0  0
  1 22  1  0  0  0  0
  2  3  1  0  0  0  0
  2 23  1  0  0  0  0
  2 24  1  0  0  0  0
  3  4  1  0  0  0  0
  3  6  1  0  0  0  0
  4  5  1  0  0  0  0
  4 25  1  0  0  0  0
  4 26  1  0  0  0  0
  5 27  1  0  0  0  0
  5 28  1  0  0  0  0
  5 29  1  0  0  0  0
  6  7  2  0  0  0  0
  6  8  1  0  0  0  0
  8  9  1  0  0  0  0
  8 30  1  0  0  0  0
  8 31  1  0  0  0  0
  9 19  1  0  0  0  0
  9 10  2  0  0  0  0
 10 11  1  0  0  0  0
 10 32  1  0  0  0  0
 11 12  1  0  0  0  0
 12 13  1  0  0  0  0
 12 19  2  0  0  0  0
 13 17  1  0  0  0  0
 13 14  1  0  0  0  0
 14 15  1  0  0  0  0
 14 33  1  0  0  0  0
 14 34  1  0  0  0  0
 15 16  1  0  0  0  0
 15 35  1  0  0  0  0
 15 36  1  0  0  0  0
 16 17  1  0  0  0  0
 16 37  1  0  0  0  0
 17 18  2  0  0  0  0
M  END
> <s_m_source_file>
AV-unprocessed.smi

> <i_m_source_file_index>
1846

> <i_lp_mmshare_version>
43012

> <i_f3d_flags>
0

> <s_epik_input>
W0NIM11bQ0gyXU4oW0NIMl1bQ0gzXSlDKD1PKVtDSDJdYzFbY0hdc2MobjEpTjJbQ0gyXVtDSDJdW05IXUMyPU8=

> <s_epik_cmdline>
J2VwaWtfcHl0aG9uJywgJy1waCcsICc3LjAnLCAnLXRuJywgJzgnLCAnLW1hJywgJzIwMCcsICctbWV0YWxfYmluZGluZycsICctaW1hZScsICc8aW5maWxlLm1hZT4nLCAnLW9tYWUnLCAnPG91dGZpbGUubWFlPic=

> <r_lp_tautomer_probability>
1

> <r_epik_Ionization_Penalty>
0.000125664

> <r_epik_Ionization_Penalty_Charging>
0

> <r_epik_Ionization_Penalty_Neutral>
0.000125664

> <r_epik_State_Penalty>
-0

> <r_epik_Charging_Adjusted_Penalty>
0

> <i_epik_Tot_Q>
0

> <i_epik_Tot_abs_Q>
0

> <r_epik_Metal_State_Penalty>
-0

> <b_epik_Metal_Only>
0

> <s_lp_Force_Field>
OPLS_2005

> <r_lp_Energy>
40.7708

> <b_lp_Chiralities_Consistent>
1

> <s_lp_Variant>
AV-unprocessed.smi:1846-1

> <Gold.Version>
5.8.1

> <Gold.Id.Protein>
6NUR|6NUR_protein|mol2

> <Gold.PLP.Fitness>
48.2661

> <Gold.PLP.PLP>
-46.6007

> <Gold.PLP.part.hbond>
-1.0000

> <Gold.PLP.part.metal>
0.0000

> <Gold.PLP.part.buried>
-3.6026

> <Gold.PLP.part.nonpolar>
-41.5317

> <Gold.PLP.part.repulsive>
0.2817

> <Gold.PLP.ligand.clash>
0.0000

> <Gold.PLP.ligand.torsion>
0.4031

> <Gold.PLP.Chemscore.Hbond>
0.8160

> <Gold.PLP.Chemscore.CHOScore>
0.0000

> <Gold.PLP.Chemscore.Metal>
0.0000

> <Gold.Chemscore.Hbonds>
donor molecule, donor type, donor heavy atom, donor atom, acceptor molecule, acceptor atom, score
      L1  H    16    37       P1 10175  0.88

> <Gold.PLP.Chemscore.Internal.Correction>
0.0236

> <Gold.Rescore>
     Score         DG    S(hbond)    S(metal)    S(lipo)     H(rot)  DE(clash)    DE(int)     intcor
     13.32     -15.12       0.98        0.00      90.67       1.66       0.07       1.73       ----

> <Gold.Chemscore.Fitness>
13.3229

> <Gold.Chemscore.DG>
-15.1220

> <Gold.Chemscore.ZeroCoef>
-5.4800

> <Gold.Chemscore.Hbond>
0.9814

> <Gold.Chemscore.Metal>
0.0000

> <Gold.Chemscore.Lipo>
90.6734

> <Gold.Chemscore.Internal_Hbond>
0.0000

> <Gold.Chemscore.DEClash>
0.0683

> <Gold.Chemscore.DEInternal>
1.7307

> <Gold.Chemscore.Rot>
1.6581

> <Gold.Chemscore.Internal.Correction>
   9.000000E+99

> <Gold.Chemscore.Hbonds>
donor molecule, donor type, donor heavy atom, donor atom, acceptor molecule, acceptor atom, score
      L1  H    16    37       P1 10175  0.34

> <Gold.Chemscore.Hbond.Weighted>
-3.2779

> <Gold.Chemscore.Metal.Weighted>
-0.0000

> <Gold.Chemscore.Lipo.Weighted>
-10.6088

> <Gold.Chemscore.Internal_Hbond.Weighted>
0.0000

> <Gold.Chemscore.DEClash.Weighted>
0.0683

> <Gold.Chemscore.DEInternal.Weighted>
1.7307

> <Gold.Chemscore.Rot.Weighted>
4.2447

> <Gold.Chemscore.Internal.Correction.Weighted>
   9.000000E+99

> <Gold.Protein.RotatedTorsions>
[ 6907 6896 6895 6894 ] final   20.17 input  -60.11 | X-H torsion
[ 7974 7965 7964 7962 ] final  101.37 input  175.53 | X-H torsion
[ 8008 7997 7996 7995 ] final   31.38 input   59.86 | X-H torsion
[ 10167 10162 10161 10158 ] final   78.18 input  -65.29 | X-H torsion
[ 10718 10713 10712 10709 ] final  139.73 input   66.30 | X-H torsion
[ 10763 10752 10751 10750 ] final -168.33 input  -60.55 | X-H torsion
[ 11005 11000 10999 10996 ] final  -27.25 input  -57.11 | X-H torsion

> <Gold.Protein.ActiveResidues>
 VAL166  LYS551  ARG553  GLY616  TRP617  ASP618  TYR619  PRO620  LYS621  CYS622 
 ASP623  PHE694  ASN695  SER759  ASP760  ASP761  ALA762  ILE779  LEU786  VAL792 
 PHE793  MET794  SER795  GLU796  ALA797  LYS798  CYS799  TRP800  GLU811  SER814 

> <Gold.Protein.RotatedAtoms>
  151.8922  135.0412  160.0498 H   0  0  0  0  0  0  0  0  0  0  0  0  # atno 6907 bound_to 6896
  152.2426  133.5144  159.5287 H   0  0  0  0  0  0  0  0  0  0  0  0  # atno 6908 bound_to 6896
  150.7058  134.0984  159.3999 H   0  0  0  0  0  0  0  0  0  0  0  0  # atno 6909 bound_to 6896
  145.3732  139.2394  143.3443 H   0  0  0  0  0  0  0  0  0  0  0  0  # atno 7974 bound_to 7965
  155.1056  140.3234  155.4535 H   0  0  0  0  0  0  0  0  0  0  0  0  # atno 8008 bound_to 7997
  156.2705  140.2053  156.6128 H   0  0  0  0  0  0  0  0  0  0  0  0  # atno 8009 bound_to 7997
  154.6796  140.0527  157.0238 H   0  0  0  0  0  0  0  0  0  0  0  0  # atno 8010 bound_to 7997
  139.9737  144.5876  150.7962 H   0  0  0  0  0  0  0  0  0  0  0  0  # atno 10167 bound_to 10162
  157.4112  131.1028  151.0452 H   0  0  0  0  0  0  0  0  0  0  0  0  # atno 10718 bound_to 10713
  154.6639  135.2929  154.9830 H   0  0  0  0  0  0  0  0  0  0  0  0  # atno 10763 bound_to 10752
  154.0880  135.6595  153.4852 H   0  0  0  0  0  0  0  0  0  0  0  0  # atno 10764 bound_to 10752
  153.0446  135.5213  154.7603 H   0  0  0  0  0  0  0  0  0  0  0  0  # atno 10765 bound_to 10752
  140.9103  133.7465  156.0661 H   0  0  0  0  0  0  0  0  0  0  0  0  # atno 11005 bound_to 11000
  146.2876  140.4387  142.8752 LP  0  0  0  0  0  0  0  0  0  0  0  0  # atno 17320 bound_to 7965
  144.8561  140.7072  143.6137 LP  0  0  0  0  0  0  0  0  0  0  0  0  # atno 17321 bound_to 7965
  140.7513  143.2970  151.3178 LP  0  0  0  0  0  0  0  0  0  0  0  0  # atno 17342 bound_to 10162
  139.6462  144.0447  152.2592 LP  0  0  0  0  0  0  0  0  0  0  0  0  # atno 17343 bound_to 10162
  157.1416  130.6145  149.5557 LP  0  0  0  0  0  0  0  0  0  0  0  0  # atno 17370 bound_to 10713
  155.9851  130.4879  150.7016 LP  0  0  0  0  0  0  0  0  0  0  0  0  # atno 17371 bound_to 10713
  140.8119  134.3390  157.5409 LP  0  0  0  0  0  0  0  0  0  0  0  0  # atno 17394 bound_to 11000
  139.8756  134.9259  156.3386 LP  0  0  0  0  0  0  0  0  0  0  0  0  # atno 17395 bound_to 11000

$$$$
