AV-unprocessed.smi:22|AV-procd|sdf|172|dock3
  -GOLD-   2262015423D 1   1.00000     0.00000
 Structure written by MMmdl.
 56 59  0  0  0  0  0  0  0  0  2 V2000
  143.3242  133.2101  151.6243 C   0  0  0  0  0  0  0  0  0  0  0  0
  144.2702  133.2918  152.7682 N   0  3  1  0  0  0  0  0  0  0  0  0
  145.4079  132.3337  152.6293 C   0  0  0  0  0  0  0  0  0  0  0  0
  146.3232  132.6106  151.4208 C   0  0  0  0  0  0  0  0  0  0  0  0
  146.4789  131.4400  150.6461 O   0  0  0  0  0  0  0  0  0  0  0  0
  144.6490  134.7135  153.0600 C   0  0  0  0  0  0  0  0  0  0  0  0
  145.2133  135.5058  151.8527 C   0  0  0  0  0  0  0  0  0  0  0  0
  145.6092  136.9381  152.2473 C   0  0  0  0  0  0  0  0  0  0  0  0
  146.5515  136.9334  153.3634 N   0  0  0  0  0  0  0  0  0  0  0  0
  147.2013  138.1100  153.5595 C   0  0  0  0  0  0  0  0  0  0  0  0
  146.7150  139.2535  153.0058 N   0  0  0  0  0  0  0  0  0  0  0  0
  147.3525  140.4145  153.1817 C   0  0  0  0  0  0  0  0  0  0  0  0
  148.4722  140.6556  153.8653 N   0  0  0  0  0  0  0  0  0  0  0  0
  148.9604  139.5163  154.4333 C   0  0  0  0  0  0  0  0  0  0  0  0
  148.3946  138.2137  154.3301 C   0  0  0  0  0  0  0  0  0  0  0  0
  149.1679  137.3062  155.0448 N   0  0  0  0  0  0  0  0  0  0  0  0
  150.1401  138.0284  155.5316 C   0  0  0  0  0  0  0  0  0  0  0  0
  150.0883  139.3688  155.2221 N   0  0  0  0  0  0  0  0  0  0  0  0
  151.0312  140.4000  155.6302 C   0  0  0  0  0  0  0  0  0  0  0  0
  150.4370  141.4325  156.6193 C   0  0  2  0  0  0  0  0  0  0  0  0
  149.3023  142.0387  156.0277 O   0  0  0  0  0  0  0  0  0  0  0  0
  151.4420  142.5230  156.9983 C   0  0  0  0  0  0  0  0  0  0  0  0
  151.7815  142.2126  158.4512 C   0  0  0  0  0  0  0  0  0  0  0  0
  150.5568  141.7127  158.9566 O   0  0  0  0  0  0  0  0  0  0  0  0
  150.0350  140.8254  157.9782 C   0  0  0  0  0  0  0  0  0  0  0  0
  146.0889  136.2100  154.5472 C   0  0  0  0  0  0  0  0  0  0  0  0
  145.7003  134.7660  154.1934 C   0  0  0  0  0  0  0  0  0  0  0  0
  143.8455  133.3635  150.6786 H   0  0  0  0  0  0  0  0  0  0  0  0
  142.5348  133.9569  151.6896 H   0  0  0  0  0  0  0  0  0  0  0  0
  142.8226  132.2439  151.5889 H   0  0  0  0  0  0  0  0  0  0  0  0
  145.9981  132.3418  153.5469 H   0  0  0  0  0  0  0  0  0  0  0  0
  145.0331  131.3189  152.5007 H   0  0  0  0  0  0  0  0  0  0  0  0
  145.9604  133.4286  150.7995 H   0  0  0  0  0  0  0  0  0  0  0  0
  147.3089  132.9135  151.7752 H   0  0  0  0  0  0  0  0  0  0  0  0
  147.3670  131.1294  150.7431 H   0  0  0  0  0  0  0  0  0  0  0  0
  143.7489  135.2367  153.3887 H   0  0  0  0  0  0  0  0  0  0  0  0
  146.0864  134.9954  151.4434 H   0  0  0  0  0  0  0  0  0  0  0  0
  144.4770  135.5749  151.0519 H   0  0  0  0  0  0  0  0  0  0  0  0
  146.0241  137.4455  151.3772 H   0  0  0  0  0  0  0  0  0  0  0  0
  144.7225  137.5015  152.5408 H   0  0  0  0  0  0  0  0  0  0  0  0
  146.9003  141.2731  152.7078 H   0  0  0  0  0  0  0  0  0  0  0  0
  150.9250  137.5983  156.1368 H   0  0  0  0  0  0  0  0  0  0  0  0
  151.8992  139.9109  156.0743 H   0  0  0  0  0  0  0  0  0  0  0  0
  151.3934  140.9044  154.7333 H   0  0  0  0  0  0  0  0  0  0  0  0
  149.5399  142.9093  155.7469 H   0  0  0  0  0  0  0  0  0  0  0  0
  152.3271  142.5398  156.3615 H   0  0  0  0  0  0  0  0  0  0  0  0
  150.9849  143.5128  156.9457 H   0  0  0  0  0  0  0  0  0  0  0  0
  152.5517  141.4423  158.5185 H   0  0  0  0  0  0  0  0  0  0  0  0
  152.1192  143.0903  159.0026 H   0  0  0  0  0  0  0  0  0  0  0  0
  148.9595  140.6856  158.0959 H   0  0  0  0  0  0  0  0  0  0  0  0
  150.5113  139.8566  158.1315 H   0  0  0  0  0  0  0  0  0  0  0  0
  146.8734  136.1958  155.3053 H   0  0  0  0  0  0  0  0  0  0  0  0
  145.2323  136.7302  154.9783 H   0  0  0  0  0  0  0  0  0  0  0  0
  145.3393  134.2765  155.0968 H   0  0  0  0  0  0  0  0  0  0  0  0
  146.5932  134.2180  153.8882 H   0  0  0  0  0  0  0  0  0  0  0  0
  143.7627  132.9762  153.5831 H   0  0  0  0  0  0  0  0  0  0  0  0
  1  2  1  0  0  0  0
  1 28  1  0  0  0  0
  1 29  1  0  0  0  0
  1 30  1  0  0  0  0
  2  3  1  0  0  0  0
  2  6  1  0  0  0  0
  2 56  1  0  0  0  0
  3  4  1  0  0  0  0
  3 31  1  0  0  0  0
  3 32  1  0  0  0  0
  4  5  1  0  0  0  0
  4 33  1  0  0  0  0
  4 34  1  0  0  0  0
  5 35  1  0  0  0  0
  6 27  1  0  0  0  0
  6  7  1  0  0  0  0
  6 36  1  0  0  0  0
  7  8  1  0  0  0  0
  7 37  1  0  0  0  0
  7 38  1  0  0  0  0
  8  9  1  0  0  0  0
  8 39  1  0  0  0  0
  8 40  1  0  0  0  0
  9 10  1  0  0  0  0
  9 26  1  0  0  0  0
 10 15  1  0  0  0  0
 10 11  2  0  0  0  0
 11 12  1  0  0  0  0
 12 13  2  0  0  0  0
 12 41  1  0  0  0  0
 13 14  1  0  0  0  0
 14 18  1  0  0  0  0
 14 15  2  0  0  0  0
 15 16  1  0  0  0  0
 16 17  2  0  0  0  0
 17 18  1  0  0  0  0
 17 42  1  0  0  0  0
 18 19  1  0  0  0  0
 19 20  1  0  0  0  0
 19 43  1  0  0  0  0
 19 44  1  0  0  0  0
 20 25  1  0  0  0  0
 20 21  1  0  0  0  0
 20 22  1  0  0  0  0
 21 45  1  0  0  0  0
 22 23  1  0  0  0  0
 22 46  1  0  0  0  0
 22 47  1  0  0  0  0
 23 24  1  0  0  0  0
 23 48  1  0  0  0  0
 23 49  1  0  0  0  0
 24 25  1  0  0  0  0
 25 50  1  0  0  0  0
 25 51  1  0  0  0  0
 26 27  1  0  0  0  0
 26 52  1  0  0  0  0
 26 53  1  0  0  0  0
 27 54  1  0  0  0  0
 27 55  1  0  0  0  0
M  CHG  1   2   1
M  END
> <s_m_source_file>
AV-unprocessed.smi

> <i_m_source_file_index>
22

> <i_lp_mmshare_version>
43012

> <i_f3d_flags>
0

> <s_epik_input>
W09IXVtDSDJdW0NIMl1OKFtDSDNdKVtDSF0xW0NIMl1bQ0gyXU4oW0NIMl1bQ0gyXTEpYyhuW2NIXW4yKWMoYzIzKW5bY0hdbjNbQ0gyXVtDQEBdNChbT0hdKVtDSDJdW0NIMl1PW0NIMl00

> <s_epik_cmdline>
J2VwaWtfcHl0aG9uJywgJy1waCcsICc3LjAnLCAnLXRuJywgJzgnLCAnLW1hJywgJzIwMCcsICctbWV0YWxfYmluZGluZycsICctaW1hZScsICc8aW5maWxlLm1hZT4nLCAnLW9tYWUnLCAnPG91dGZpbGUubWFlPic=

> <r_lp_tautomer_probability>
1

> <r_epik_Ionization_Penalty>
0.00317524

> <r_epik_Ionization_Penalty_Charging>
0.00191487

> <r_epik_Ionization_Penalty_Neutral>
0.00126037

> <r_epik_State_Penalty>
-0

> <r_epik_Charging_Adjusted_Penalty>
0.00191487

> <i_epik_Tot_Q>
1

> <i_epik_Tot_abs_Q>
1

> <r_epik_Metal_State_Penalty>
-0

> <b_epik_Metal_Only>
0

> <s_lp_Force_Field>
OPLS_2005

> <r_lp_Energy>
50.3895

> <b_lp_Chiralities_Consistent>
1

> <s_lp_Variant>
AV-unprocessed.smi:22-4

> <Gold.Version>
5.8.1

> <Gold.Id.Protein>
6NUR|6NUR_protein|mol2

> <Gold.PLP.Fitness>
45.2511

> <Gold.PLP.PLP>
-34.3888

> <Gold.PLP.part.hbond>
-3.5925

> <Gold.PLP.part.metal>
0.0000

> <Gold.PLP.part.buried>
-7.2510

> <Gold.PLP.part.nonpolar>
-26.8767

> <Gold.PLP.part.repulsive>
1.5613

> <Gold.PLP.ligand.clash>
0.0000

> <Gold.PLP.ligand.torsion>
0.7928

> <Gold.PLP.Chemscore.Hbond>
3.9500

> <Gold.PLP.Chemscore.CHOScore>
0.0000

> <Gold.PLP.Chemscore.Metal>
0.0000

> <Gold.Chemscore.Hbonds>
donor molecule, donor type, donor heavy atom, donor atom, acceptor molecule, acceptor atom, score
      L1  H     2    56       P1 10957  2.00
      L1  H     5    35       P1 10747  1.00
      L1  H    21    45       P1  8028  0.85

> <Gold.PLP.Chemscore.Internal.Correction>
0.5979

> <Gold.Rescore>
     Score         DG    S(hbond)    S(metal)    S(lipo)     H(rot)  DE(clash)    DE(int)     intcor
     12.51     -13.49       2.84        0.00      69.52       3.76       0.04       0.93       ----

> <Gold.Chemscore.Fitness>
12.5133

> <Gold.Chemscore.DG>
-13.4885

> <Gold.Chemscore.ZeroCoef>
-5.4800

> <Gold.Chemscore.Hbond>
2.8431

> <Gold.Chemscore.Metal>
0.0000

> <Gold.Chemscore.Lipo>
69.5184

> <Gold.Chemscore.Internal_Hbond>
0.0000

> <Gold.Chemscore.DEClash>
0.0433

> <Gold.Chemscore.DEInternal>
0.9319

> <Gold.Chemscore.Rot>
3.7583

> <Gold.Chemscore.Internal.Correction>
   9.000000E+99

> <Gold.Chemscore.Hbonds>
donor molecule, donor type, donor heavy atom, donor atom, acceptor molecule, acceptor atom, score
      L1  H     2    56       P1 10957  0.83
      L1  H     5    35       P1 10747  0.98
      L1  H    21    45       P1  8028  0.84

> <Gold.Chemscore.Hbond.Weighted>
-9.4961

> <Gold.Chemscore.Metal.Weighted>
-0.0000

> <Gold.Chemscore.Lipo.Weighted>
-8.1337

> <Gold.Chemscore.Internal_Hbond.Weighted>
0.0000

> <Gold.Chemscore.DEClash.Weighted>
0.0433

> <Gold.Chemscore.DEInternal.Weighted>
0.9319

> <Gold.Chemscore.Rot.Weighted>
9.6213

> <Gold.Chemscore.Internal.Correction.Weighted>
   9.000000E+99

> <Gold.Protein.RotatedTorsions>
[ 6907 6896 6895 6894 ] final  -50.76 input  -60.11 | X-H torsion
[ 7974 7965 7964 7962 ] final -172.65 input  175.53 | X-H torsion
[ 8008 7997 7996 7995 ] final   -7.75 input   59.86 | X-H torsion
[ 10167 10162 10161 10158 ] final -143.34 input  -65.29 | X-H torsion
[ 10718 10713 10712 10709 ] final  143.57 input   66.30 | X-H torsion
[ 10763 10752 10751 10750 ] final   39.31 input  -60.55 | X-H torsion
[ 11005 11000 10999 10996 ] final -123.10 input  -57.11 | X-H torsion

> <Gold.Protein.ActiveResidues>
 VAL166  LYS551  ARG553  GLY616  TRP617  ASP618  TYR619  PRO620  LYS621  CYS622 
 ASP623  PHE694  ASN695  SER759  ASP760  ASP761  ALA762  ILE779  LEU786  VAL792 
 PHE793  MET794  SER795  GLU796  ALA797  LYS798  CYS799  TRP800  GLU811  SER814 

> <Gold.Protein.RotatedAtoms>
  150.8676  134.8043  159.7130 H   0  0  0  0  0  0  0  0  0  0  0  0  # atno 6907 bound_to 6896
  152.4692  134.4998  159.9731 H   0  0  0  0  0  0  0  0  0  0  0  0  # atno 6908 bound_to 6896
  151.5091  133.3450  159.2917 H   0  0  0  0  0  0  0  0  0  0  0  0  # atno 6909 bound_to 6896
  144.7144  140.1740  143.6364 H   0  0  0  0  0  0  0  0  0  0  0  0  # atno 7974 bound_to 7965
  154.5808  140.2399  155.8057 H   0  0  0  0  0  0  0  0  0  0  0  0  # atno 8008 bound_to 7997
  156.2177  140.3007  155.9835 H   0  0  0  0  0  0  0  0  0  0  0  0  # atno 8009 bound_to 7997
  155.2545  140.0412  157.2981 H   0  0  0  0  0  0  0  0  0  0  0  0  # atno 8010 bound_to 7997
  139.8002  143.7844  152.2657 H   0  0  0  0  0  0  0  0  0  0  0  0  # atno 10167 bound_to 10162
  157.3674  131.0974  151.0859 H   0  0  0  0  0  0  0  0  0  0  0  0  # atno 10718 bound_to 10713
  152.9971  135.6224  154.2445 H   0  0  0  0  0  0  0  0  0  0  0  0  # atno 10763 bound_to 10752
  154.2185  135.2797  155.2935 H   0  0  0  0  0  0  0  0  0  0  0  0  # atno 10764 bound_to 10752
  154.5548  135.5722  153.7013 H   0  0  0  0  0  0  0  0  0  0  0  0  # atno 10765 bound_to 10752
  140.9945  134.0492  157.3614 H   0  0  0  0  0  0  0  0  0  0  0  0  # atno 11005 bound_to 11000
  145.8917  139.2379  143.1545 LP  0  0  0  0  0  0  0  0  0  0  0  0  # atno 17320 bound_to 7965
  145.9897  140.8613  143.0073 LP  0  0  0  0  0  0  0  0  0  0  0  0  # atno 17321 bound_to 7965
  139.7961  144.7392  150.9888 LP  0  0  0  0  0  0  0  0  0  0  0  0  # atno 17342 bound_to 10162
  140.7820  143.4392  151.0577 LP  0  0  0  0  0  0  0  0  0  0  0  0  # atno 17343 bound_to 10162
  157.1976  130.6380  149.5727 LP  0  0  0  0  0  0  0  0  0  0  0  0  # atno 17370 bound_to 10713
  155.9749  130.4701  150.6419 LP  0  0  0  0  0  0  0  0  0  0  0  0  # atno 17371 bound_to 10713
  139.9008  135.0163  156.7258 LP  0  0  0  0  0  0  0  0  0  0  0  0  # atno 17394 bound_to 11000
  140.6988  133.9325  155.8011 LP  0  0  0  0  0  0  0  0  0  0  0  0  # atno 17395 bound_to 11000

$$$$
