AV-unprocessed.smi:1674|AV-procd|sdf|6714|dock8
  -GOLD-   22720 7463D 1   1.00000     0.00000
 Structure written by MMmdl.
 47 48  0  0  0  0  0  0  0  0  1 V2000
  146.0671  143.4323  153.7349 C   0  0  0  0  0  0  0  0  0  0  0  0
  146.3952  142.4143  154.7931 C   0  0  0  0  0  0  0  0  0  0  0  0
  147.1516  141.4294  154.4359 N   0  0  0  0  0  0  0  0  0  0  0  0
  147.5272  140.4484  155.3332 N   0  0  0  0  0  0  0  0  0  0  0  0
  148.4409  139.4403  154.7768 C   0  0  0  0  0  0  0  0  0  0  0  0
  149.8234  140.0250  154.4034 C   0  0  1  0  0  0  0  0  0  0  0  0
  149.6388  141.0095  153.4069 O   0  0  0  0  0  0  0  0  0  0  0  0
  150.5839  140.5614  155.6099 C   0  0  0  0  0  0  0  0  0  0  0  0
  150.2881  141.8446  156.1169 C   0  0  0  0  0  0  0  0  0  0  0  0
  151.0104  142.3608  157.2095 C   0  0  0  0  0  0  0  0  0  0  0  0
  152.0336  141.5965  157.8078 C   0  0  0  0  0  0  0  0  0  0  0  0
  152.8143  142.1502  158.9876 C   0  0  0  0  0  0  0  0  0  0  0  0
  152.3644  143.5626  159.4147 C   0  0  0  0  0  0  0  0  0  0  0  0
  152.7704  144.6412  158.3959 C   0  0  0  0  0  0  0  0  0  0  0  0
  152.8973  143.9053  160.8138 C   0  0  0  0  0  0  0  0  0  0  0  0
  152.3313  140.3141  157.3028 C   0  0  0  0  0  0  0  0  0  0  0  0
  151.6105  139.7991  156.2085 C   0  0  0  0  0  0  0  0  0  0  0  0
  147.1359  140.3987  156.6380 C   0  0  0  0  0  0  0  0  0  0  0  0
  147.4926  139.5009  157.4023 O   0  0  0  0  0  0  0  0  0  0  0  0
  146.2724  141.5134  157.0343 C   0  0  0  0  0  0  0  0  0  0  0  0
  145.8453  141.5043  158.3963 C   0  0  0  0  0  0  0  0  0  0  0  0
  145.5157  141.4860  159.5060 N   0  0  0  0  0  0  0  0  0  0  0  0
  145.9090  142.4909  156.1668 C   0  0  0  0  0  0  0  0  0  0  0  0
  145.0206  143.6729  156.5289 C   0  0  0  0  0  0  0  0  0  0  0  0
  144.9905  143.4908  153.5750 H   0  0  0  0  0  0  0  0  0  0  0  0
  146.5293  143.1876  152.7772 H   0  0  0  0  0  0  0  0  0  0  0  0
  146.4212  144.4209  154.0274 H   0  0  0  0  0  0  0  0  0  0  0  0
  148.5581  138.6119  155.4779 H   0  0  0  0  0  0  0  0  0  0  0  0
  147.9866  138.9994  153.8868 H   0  0  0  0  0  0  0  0  0  0  0  0
  150.4250  139.2380  153.9473 H   0  0  0  0  0  0  0  0  0  0  0  0
  149.6694  140.5878  152.5616 H   0  0  0  0  0  0  0  0  0  0  0  0
  149.5123  142.4432  155.6622 H   0  0  0  0  0  0  0  0  0  0  0  0
  150.7749  143.3450  157.5873 H   0  0  0  0  0  0  0  0  0  0  0  0
  152.6947  141.4575  159.8218 H   0  0  0  0  0  0  0  0  0  0  0  0
  153.8791  142.1531  158.7501 H   0  0  0  0  0  0  0  0  0  0  0  0
  151.2755  143.5632  159.4799 H   0  0  0  0  0  0  0  0  0  0  0  0
  153.8521  144.6701  158.2606 H   0  0  0  0  0  0  0  0  0  0  0  0
  152.4497  145.6304  158.7236 H   0  0  0  0  0  0  0  0  0  0  0  0
  152.3170  144.4628  157.4208 H   0  0  0  0  0  0  0  0  0  0  0  0
  153.9876  143.9190  160.8301 H   0  0  0  0  0  0  0  0  0  0  0  0
  152.5625  143.1761  161.5523 H   0  0  0  0  0  0  0  0  0  0  0  0
  152.5471  144.8851  161.1398 H   0  0  0  0  0  0  0  0  0  0  0  0
  153.1153  139.7225  157.7528 H   0  0  0  0  0  0  0  0  0  0  0  0
  151.8542  138.8194  155.8242 H   0  0  0  0  0  0  0  0  0  0  0  0
  144.6991  143.6452  157.5695 H   0  0  0  0  0  0  0  0  0  0  0  0
  144.1232  143.6813  155.9095 H   0  0  0  0  0  0  0  0  0  0  0  0
  145.5532  144.6122  156.3759 H   0  0  0  0  0  0  0  0  0  0  0  0
  1  2  1  0  0  0  0
  1 25  1  0  0  0  0
  1 26  1  0  0  0  0
  1 27  1  0  0  0  0
  2 23  1  0  0  0  0
  2  3  2  0  0  0  0
  3  4  1  0  0  0  0
  4  5  1  0  0  0  0
  4 18  1  0  0  0  0
  5  6  1  0  0  0  0
  5 28  1  0  0  0  0
  5 29  1  0  0  0  0
  6  7  1  0  0  0  0
  6  8  1  0  0  0  0
  6 30  1  0  0  0  0
  7 31  1  0  0  0  0
  8 17  1  0  0  0  0
  8  9  2  0  0  0  0
  9 10  1  0  0  0  0
  9 32  1  0  0  0  0
 10 11  2  0  0  0  0
 10 33  1  0  0  0  0
 11 12  1  0  0  0  0
 11 16  1  0  0  0  0
 12 13  1  0  0  0  0
 12 34  1  0  0  0  0
 12 35  1  0  0  0  0
 13 14  1  0  0  0  0
 13 15  1  0  0  0  0
 13 36  1  0  0  0  0
 14 37  1  0  0  0  0
 14 38  1  0  0  0  0
 14 39  1  0  0  0  0
 15 40  1  0  0  0  0
 15 41  1  0  0  0  0
 15 42  1  0  0  0  0
 16 17  2  0  0  0  0
 16 43  1  0  0  0  0
 17 44  1  0  0  0  0
 18 19  2  0  0  0  0
 18 20  1  0  0  0  0
 20 21  1  0  0  0  0
 20 23  2  0  0  0  0
 21 22  3  0  0  0  0
 23 24  1  0  0  0  0
 24 45  1  0  0  0  0
 24 46  1  0  0  0  0
 24 47  1  0  0  0  0
M  END
> <s_m_source_file>
AV-unprocessed.smi

> <i_m_source_file_index>
1674

> <i_lp_mmshare_version>
43012

> <i_f3d_flags>
0

> <s_epik_input>
TiNDYyhjMVtDSDNdKWMoPU8pbihuYzFbQ0gzXSlbQ0gyXVtDQEhdKFtPSF0pYzJbY0hdW2NIXWMoW2NIXVtjSF0yKVtDSDJdW0NIXShbQ0gzXSlbQ0gzXQ==

> <s_epik_cmdline>
J2VwaWtfcHl0aG9uJywgJy1waCcsICc3LjAnLCAnLXRuJywgJzgnLCAnLW1hJywgJzIwMCcsICctbWV0YWxfYmluZGluZycsICctaW1hZScsICc8aW5maWxlLm1hZT4nLCAnLW9tYWUnLCAnPG91dGZpbGUubWFlPic=

> <r_lp_tautomer_probability>
1

> <r_epik_Ionization_Penalty>
4.60566e-08

> <r_epik_Ionization_Penalty_Charging>
1.40848e-10

> <r_epik_Ionization_Penalty_Neutral>
4.59158e-08

> <r_epik_State_Penalty>
-0

> <r_epik_Charging_Adjusted_Penalty>
1.40848e-10

> <i_epik_Tot_Q>
0

> <i_epik_Tot_abs_Q>
0

> <r_epik_Metal_State_Penalty>
-0

> <b_epik_Metal_Only>
0

> <s_lp_Force_Field>
OPLS_2005

> <r_lp_Energy>
26.1271

> <b_lp_Chiralities_Consistent>
1

> <s_lp_Variant>
AV-unprocessed.smi:1674-2

> <Gold.Version>
5.8.1

> <Gold.Id.Protein>
6NUR|6NUR_protein|mol2

> <Gold.PLP.Fitness>
49.4528

> <Gold.PLP.PLP>
-45.4216

> <Gold.PLP.part.hbond>
-3.9076

> <Gold.PLP.part.metal>
0.0000

> <Gold.PLP.part.buried>
-4.7488

> <Gold.PLP.part.nonpolar>
-36.9069

> <Gold.PLP.part.repulsive>
0.1347

> <Gold.PLP.ligand.clash>
0.0000

> <Gold.PLP.ligand.torsion>
0.6580

> <Gold.PLP.Chemscore.Hbond>
1.7435

> <Gold.PLP.Chemscore.CHOScore>
0.0000

> <Gold.PLP.Chemscore.Metal>
0.0000

> <Gold.Chemscore.Hbonds>
donor molecule, donor type, donor heavy atom, donor atom, acceptor molecule, acceptor atom, score
      L1  H     7    31       P1  7957  0.93
      P1  H  6934  6946       L1    22  0.98

> <Gold.PLP.Chemscore.Internal.Correction>
0.1167

> <Gold.Rescore>
     Score         DG    S(hbond)    S(metal)    S(lipo)     H(rot)  DE(clash)    DE(int)     intcor
     18.44     -19.48       1.75        0.00     116.20       2.13       0.02       1.02       ----

> <Gold.Chemscore.Fitness>
18.4407

> <Gold.Chemscore.DG>
-19.4784

> <Gold.Chemscore.ZeroCoef>
-5.4800

> <Gold.Chemscore.Hbond>
1.7530

> <Gold.Chemscore.Metal>
0.0000

> <Gold.Chemscore.Lipo>
116.2043

> <Gold.Chemscore.Internal_Hbond>
0.0000

> <Gold.Chemscore.DEClash>
0.0198

> <Gold.Chemscore.DEInternal>
1.0180

> <Gold.Chemscore.Rot>
2.1299

> <Gold.Chemscore.Internal.Correction>
   9.000000E+99

> <Gold.Chemscore.Hbonds>
donor molecule, donor type, donor heavy atom, donor atom, acceptor molecule, acceptor atom, score
      L1  H     7    31       P1  7957  0.89
      P1  H  6934  6946       L1    22  0.79

> <Gold.Chemscore.Hbond.Weighted>
-5.8551

> <Gold.Chemscore.Metal.Weighted>
-0.0000

> <Gold.Chemscore.Lipo.Weighted>
-13.5959

> <Gold.Chemscore.Internal_Hbond.Weighted>
0.0000

> <Gold.Chemscore.DEClash.Weighted>
0.0198

> <Gold.Chemscore.DEInternal.Weighted>
1.0180

> <Gold.Chemscore.Rot.Weighted>
5.4526

> <Gold.Chemscore.Internal.Correction.Weighted>
   9.000000E+99

> <Gold.Protein.RotatedTorsions>
[ 6907 6896 6895 6894 ] final -174.73 input  -60.11 | X-H torsion
[ 7974 7965 7964 7962 ] final   35.05 input  175.53 | X-H torsion
[ 8008 7997 7996 7995 ] final  106.43 input   59.86 | X-H torsion
[ 10167 10162 10161 10158 ] final   79.14 input  -65.29 | X-H torsion
[ 10718 10713 10712 10709 ] final -159.84 input   66.30 | X-H torsion
[ 10763 10752 10751 10750 ] final  153.93 input  -60.55 | X-H torsion
[ 11005 11000 10999 10996 ] final  131.21 input  -57.11 | X-H torsion

> <Gold.Protein.ActiveResidues>
 VAL166  LYS551  ARG553  GLY616  TRP617  ASP618  TYR619  PRO620  LYS621  CYS622 
 ASP623  PHE694  ASN695  SER759  ASP760  ASP761  ALA762  ILE779  LEU786  VAL792 
 PHE793  MET794  SER795  GLU796  ALA797  LYS798  CYS799  TRP800  GLU811  SER814 

> <Gold.Protein.RotatedAtoms>
  151.5771  133.3382  159.3000 H   0  0  0  0  0  0  0  0  0  0  0  0  # atno 6907 bound_to 6896
  150.8334  134.7601  159.6884 H   0  0  0  0  0  0  0  0  0  0  0  0  # atno 6908 bound_to 6896
  152.4415  134.5589  159.9940 H   0  0  0  0  0  0  0  0  0  0  0  0  # atno 6909 bound_to 6896
  146.1310  139.6191  142.9227 H   0  0  0  0  0  0  0  0  0  0  0  0  # atno 7974 bound_to 7965
  156.1742  140.3113  155.9029 H   0  0  0  0  0  0  0  0  0  0  0  0  # atno 8008 bound_to 7997
  155.3522  140.0471  157.3063 H   0  0  0  0  0  0  0  0  0  0  0  0  # atno 8009 bound_to 7997
  154.5273  140.2218  155.8878 H   0  0  0  0  0  0  0  0  0  0  0  0  # atno 8010 bound_to 7997
  139.9635  144.5944  150.8050 H   0  0  0  0  0  0  0  0  0  0  0  0  # atno 10167 bound_to 10162
  156.5737  130.8699  151.2845 H   0  0  0  0  0  0  0  0  0  0  0  0  # atno 10718 bound_to 10713
  154.1441  135.2819  155.3153 H   0  0  0  0  0  0  0  0  0  0  0  0  # atno 10763 bound_to 10752
  154.6265  135.5449  153.7636 H   0  0  0  0  0  0  0  0  0  0  0  0  # atno 10764 bound_to 10752
  153.0241  135.6452  154.1587 H   0  0  0  0  0  0  0  0  0  0  0  0  # atno 10765 bound_to 10752
  139.9717  134.9575  156.9405 H   0  0  0  0  0  0  0  0  0  0  0  0  # atno 11005 bound_to 11000
  145.5260  141.0429  143.2409 LP  0  0  0  0  0  0  0  0  0  0  0  0  # atno 17320 bound_to 7965
  144.7690  139.6777  143.7202 LP  0  0  0  0  0  0  0  0  0  0  0  0  # atno 17321 bound_to 7965
  140.7545  143.3029  151.3035 LP  0  0  0  0  0  0  0  0  0  0  0  0  # atno 17342 bound_to 10162
  139.6535  144.0318  152.2643 LP  0  0  0  0  0  0  0  0  0  0  0  0  # atno 17343 bound_to 10162
  157.7342  130.9743  150.2018 LP  0  0  0  0  0  0  0  0  0  0  0  0  # atno 17370 bound_to 10713
  156.2692  130.3720  149.8049 LP  0  0  0  0  0  0  0  0  0  0  0  0  # atno 17371 bound_to 10713
  140.5280  134.0842  155.7308 LP  0  0  0  0  0  0  0  0  0  0  0  0  # atno 17394 bound_to 11000
  141.1396  133.9161  157.2356 LP  0  0  0  0  0  0  0  0  0  0  0  0  # atno 17395 bound_to 11000

$$$$
