#       Name:                AV-unprocessed.smi:1005
#       Creating user name   scv26
#       Creation time:       Fri Mar 27 02:27:34 2020


#       File generated by GOLD software.
#

@<TRIPOS>MOLECULE
AV-unprocessed.smi:1005
    62    64     1
SMALL
NO_CHARGES


@<TRIPOS>ATOM
      1 ****        -5.9284   2.8988   4.6038 C.3            1 S1                 0.0000
      2 ****        -4.8548   2.5801   3.5782 C.ar           1 S1                 0.0000
      3 ****        -5.2421   2.1935   2.2754 C.ar           1 S1                 0.0000
      4 ****        -4.2749   1.8880   1.2931 C.ar           1 S1                 0.0000
      5 ****        -4.4256   1.4914  -0.0247 N.2            1 S1                 0.0000
      6 ****        -3.1607   1.3627  -0.4128 C.2            1 S1                 0.0000
      7 ****        -2.2057   1.6254   0.4998 N.pl3          1 S1                 0.0000
      8 ****        -0.7684   1.5489   0.3066 C.3            1 S1                 0.0000
      9 ****        -0.2269   0.1165   0.4768 C.3            1 S1                 0.0000
     10 ****        -0.5179  -0.3430   1.7827 O.3            1 S1                 0.0000
     11 ****         1.2987   0.0561   0.2655 C.3            1 S1                 0.0000
     12 ****         1.8238  -1.3355   0.3137 N.4            1 S1                 1.0000
     13 ****         3.2420  -1.4239   0.7376 C.3            1 S1                 0.0000
     14 ****         4.1902  -1.0669  -0.4194 C.3            1 S1                 0.0000
     15 ****         3.9293  -1.9269  -1.5222 O.3            1 S1                 0.0000
     16 ****         2.6086  -1.7776  -2.0339 C.3            1 S1                 0.0000
     17 ****         2.4621  -2.7139  -3.2487 C.3            1 S1                 0.0000
     18 ****         3.3748  -2.3604  -4.3665 N.4            1 S1                 1.0000
     19 ****         2.9471  -1.1592  -5.1211 C.3            1 S1                 0.0000
     20 ****         3.6167  -3.5078  -5.2695 C.3            1 S1                 0.0000
     21 ****         1.5972  -2.1336  -0.9193 C.3            1 S1                 0.0000
     22 ****        -2.8985   1.9816   1.6522 C.ar           1 S1                 0.0000
     23 ****        -2.5005   2.3647   2.9452 C.ar           1 S1                 0.0000
     24 ****        -3.4798   2.6663   3.9147 C.ar           1 S1                 0.0000
     25 ****        -3.0400   3.0789   5.3083 C.3            1 S1                 0.0000
     26 ****        -6.9279   2.7853   4.1828 H              1 S1                 0.0000
     27 ****        -5.8285   3.9260   4.9549 H              1 S1                 0.0000
     28 ****        -5.8490   2.2299   5.4608 H              1 S1                 0.0000
     29 ****        -6.2894   2.1277   2.0189 H              1 S1                 0.0000
     30 ****        -2.9130   1.0565  -1.4188 H              1 S1                 0.0000
     31 ****        -0.5402   1.9212  -0.6930 H              1 S1                 0.0000
     32 ****        -0.2844   2.2291   1.0089 H              1 S1                 0.0000
     33 ****        -0.7374  -0.5331  -0.2337 H              1 S1                 0.0000
     34 ****        -1.4509  -0.2784   1.9242 H              1 S1                 0.0000
     35 ****         1.5699   0.5263  -0.6795 H              1 S1                 0.0000
     36 ****         1.7740   0.6555   1.0437 H              1 S1                 0.0000
     37 ****         3.4280  -0.7890   1.6047 H              1 S1                 0.0000
     38 ****         3.4401  -2.4466   1.0616 H              1 S1                 0.0000
     39 ****         4.0800  -0.0228  -0.7162 H              1 S1                 0.0000
     40 ****         5.2263  -1.2000  -0.1078 H              1 S1                 0.0000
     41 ****         2.4546  -0.7452  -2.3461 H              1 S1                 0.0000
     42 ****         2.6710  -3.7332  -2.9199 H              1 S1                 0.0000
     43 ****         1.4328  -2.7147  -3.6109 H              1 S1                 0.0000
     44 ****         1.9691  -1.3127  -5.5792 H              1 S1                 0.0000
     45 ****         3.6595  -0.9325  -5.9151 H              1 S1                 0.0000
     46 ****         2.8906  -0.2795  -4.4812 H              1 S1                 0.0000
     47 ****         2.6920  -3.8280  -5.7519 H              1 S1                 0.0000
     48 ****         4.0278  -4.3554  -4.7199 H              1 S1                 0.0000
     49 ****         4.3339  -3.2434  -6.0474 H              1 S1                 0.0000
     50 ****         1.7056  -3.1869  -0.6566 H              1 S1                 0.0000
     51 ****         0.5748  -2.0159  -1.2769 H              1 S1                 0.0000
     52 ****        -1.4503   2.4248   3.1895 H              1 S1                 0.0000
     53 ****        -1.9530   3.1001   5.3925 H              1 S1                 0.0000
     54 ****        -3.4196   2.3774   6.0514 H              1 S1                 0.0000
     55 ****        -3.4133   4.0747   5.5481 H              1 S1                 0.0000
     56 ****         4.2699  -2.1439  -3.9502 H              1 S1                 0.0000
     57 ****         1.2921  -1.7802   1.0495 H              1 S1                 0.0000
     58 ****        -5.2650   1.3413  -0.5471 LP             1 S1                 0.0000
     59 ****        -0.0356   0.2205   2.4534 LP             1 S1                 0.0000
     60 ****        -0.2279  -1.2953   1.8772 LP             1 S1                 0.0000
     61 ****         4.0526  -2.8739  -1.2258 LP             1 S1                 0.0000
     62 ****         4.5807  -1.7185  -2.2518 LP             1 S1                 0.0000
@<TRIPOS>BOND
    1    1    2 1     
    2    1   26 1     
    3    1   27 1     
    4    1   28 1     
    5    2   24 ar    
    6    2    3 ar    
    7    3    4 ar    
    8    3   29 1     
    9    4   22 ar    
   10    4    5 1     
   11    5    6 2     
   12    6    7 1     
   13    6   30 1     
   14    7    8 1     
   15    7   22 1     
   16    8    9 1     
   17    8   31 1     
   18    8   32 1     
   19    9   10 1     
   20    9   11 1     
   21    9   33 1     
   22   10   34 1     
   23   11   12 1     
   24   11   35 1     
   25   11   36 1     
   26   12   21 1     
   27   12   13 1     
   28   12   57 1     
   29   13   14 1     
   30   13   37 1     
   31   13   38 1     
   32   14   15 1     
   33   14   39 1     
   34   14   40 1     
   35   15   16 1     
   36   16   17 1     
   37   16   21 1     
   38   16   41 1     
   39   17   18 1     
   40   17   42 1     
   41   17   43 1     
   42   18   19 1     
   43   18   20 1     
   44   18   56 1     
   45   19   44 1     
   46   19   45 1     
   47   19   46 1     
   48   20   47 1     
   49   20   48 1     
   50   20   49 1     
   51   21   50 1     
   52   21   51 1     
   53   22   23 ar    
   54   23   24 ar    
   55   23   52 1     
   56   24   25 1     
   57   25   53 1     
   58   25   54 1     
   59   25   55 1     
   60    5   58 1     
   61   10   59 1     
   62   10   60 1     
   63   15   61 1     
   64   15   62 1     
@<TRIPOS>SUBSTRUCTURE
      1 S1             1
@<TRIPOS>SET
LONE_PAIRS      STATIC     ATOMS    <user>   **** ""
5 58 59 60 61 62
DONOR_HYDROGENS      STATIC     ATOMS    <user>   **** ""
3 34 57 56
ATOM$BLUE        STATIC     ATOMS    COLORGROUP SYSTEM
5 58 59 60 61 62
ATOM$RED        STATIC     ATOMS    COLORGROUP SYSTEM
3 34 57 56
