AV-unprocessed.smi:1933|AV-procd|sdf|7816|dock10
  -GOLD-   22720 9563D 1   1.00000     0.00000
 Structure written by MMmdl.
 47 49  0  0  0  0  0  0  0  0  1 V2000
  144.8085  137.3156  152.1055 O   0  0  0  0  0  0  0  0  0  0  0  0
  145.9997  137.0247  151.9933 C   0  0  0  0  0  0  0  0  0  0  0  0
  146.9937  137.9191  152.0897 N   0  0  0  0  0  0  0  0  0  0  0  0
  146.8270  139.3518  152.3184 C   0  0  0  0  0  0  0  0  0  0  0  0
  147.2938  139.7617  153.7409 C   0  0  1  0  0  0  0  0  0  0  0  0
  148.8417  139.9484  153.8275 C   0  0  2  0  0  0  0  0  0  0  0  0
  149.6759  138.6918  154.0964 C   0  0  0  0  0  0  0  0  0  0  0  0
  150.5875  139.0959  155.2540 C   0  0  0  0  0  0  0  0  0  0  0  0
  150.6801  140.5063  155.1446 O   0  0  0  0  0  0  0  0  0  0  0  0
  149.3817  140.9827  154.8299 C   0  0  0  0  0  0  0  0  0  0  0  0
  146.4928  140.8296  154.3743 N   0  0  0  0  0  0  0  0  0  0  0  0
  146.7580  142.1571  153.8232 C   0  0  0  0  0  0  0  0  0  0  0  0
  145.8041  143.2153  154.4002 C   0  0  0  0  0  0  0  0  0  0  0  0
  145.9182  143.2277  155.8188 O   0  0  0  0  0  0  0  0  0  0  0  0
  145.6135  141.9657  156.4030 C   0  0  0  0  0  0  0  0  0  0  0  0
  146.5455  140.8809  155.8340 C   0  0  0  0  0  0  0  0  0  0  0  0
  146.4797  135.7910  151.7570 N   0  0  0  0  0  0  0  0  0  0  0  0
  145.7516  134.5862  151.5682 C   0  0  0  0  0  0  0  0  0  0  0  0
  146.5214  133.4033  151.6456 C   0  0  0  0  0  0  0  0  0  0  0  0
  145.8932  132.1549  151.4707 C   0  0  0  0  0  0  0  0  0  0  0  0
  144.5095  132.1213  151.2219 C   0  0  0  0  0  0  0  0  0  0  0  0
  143.8171  133.3447  151.1602 C   0  0  0  0  0  0  0  0  0  0  0  0
  144.4171  134.5421  151.3278 N   0  0  0  0  0  0  0  0  0  0  0  0
  147.9411  137.5865  151.9857 H   0  0  0  0  0  0  0  0  0  0  0  0
  147.3611  139.9334  151.5660 H   0  0  0  0  0  0  0  0  0  0  0  0
  145.7690  139.5663  152.1749 H   0  0  0  0  0  0  0  0  0  0  0  0
  147.1169  138.8796  154.3583 H   0  0  0  0  0  0  0  0  0  0  0  0
  149.1639  140.3057  152.8480 H   0  0  0  0  0  0  0  0  0  0  0  0
  149.0979  137.8014  154.3413 H   0  0  0  0  0  0  0  0  0  0  0  0
  150.2730  138.4523  153.2156 H   0  0  0  0  0  0  0  0  0  0  0  0
  150.1341  138.8373  156.2118 H   0  0  0  0  0  0  0  0  0  0  0  0
  151.5681  138.6227  155.2021 H   0  0  0  0  0  0  0  0  0  0  0  0
  149.4340  141.9850  154.4048 H   0  0  0  0  0  0  0  0  0  0  0  0
  148.7894  141.0465  155.7402 H   0  0  0  0  0  0  0  0  0  0  0  0
  147.7810  142.4620  154.0424 H   0  0  0  0  0  0  0  0  0  0  0  0
  146.6597  142.1370  152.7374 H   0  0  0  0  0  0  0  0  0  0  0  0
  146.0547  144.2032  154.0138 H   0  0  0  0  0  0  0  0  0  0  0  0
  144.7729  143.0082  154.1097 H   0  0  0  0  0  0  0  0  0  0  0  0
  145.7300  142.0355  157.4845 H   0  0  0  0  0  0  0  0  0  0  0  0
  144.5695  141.7135  156.2099 H   0  0  0  0  0  0  0  0  0  0  0  0
  146.2365  139.9295  156.2583 H   0  0  0  0  0  0  0  0  0  0  0  0
  147.5657  141.0705  156.1686 H   0  0  0  0  0  0  0  0  0  0  0  0
  147.4832  135.7045  151.6961 H   0  0  0  0  0  0  0  0  0  0  0  0
  147.5837  133.4472  151.8371 H   0  0  0  0  0  0  0  0  0  0  0  0
  146.4640  131.2397  151.5265 H   0  0  0  0  0  0  0  0  0  0  0  0
  143.9925  131.1835  151.0824 H   0  0  0  0  0  0  0  0  0  0  0  0
  142.7539  133.3631  150.9718 H   0  0  0  0  0  0  0  0  0  0  0  0
  1  2  2  0  0  0  0
  2  3  1  0  0  0  0
  2 17  1  0  0  0  0
  3  4  1  0  0  0  0
  3 24  1  0  0  0  0
  4  5  1  0  0  0  0
  4 25  1  0  0  0  0
  4 26  1  0  0  0  0
  5  6  1  0  0  0  0
  5 11  1  0  0  0  0
  5 27  1  0  0  0  0
  6 10  1  0  0  0  0
  6  7  1  0  0  0  0
  6 28  1  0  0  0  0
  7  8  1  0  0  0  0
  7 29  1  0  0  0  0
  7 30  1  0  0  0  0
  8  9  1  0  0  0  0
  8 31  1  0  0  0  0
  8 32  1  0  0  0  0
  9 10  1  0  0  0  0
 10 33  1  0  0  0  0
 10 34  1  0  0  0  0
 11 16  1  0  0  0  0
 11 12  1  0  0  0  0
 12 13  1  0  0  0  0
 12 35  1  0  0  0  0
 12 36  1  0  0  0  0
 13 14  1  0  0  0  0
 13 37  1  0  0  0  0
 13 38  1  0  0  0  0
 14 15  1  0  0  0  0
 15 16  1  0  0  0  0
 15 39  1  0  0  0  0
 15 40  1  0  0  0  0
 16 41  1  0  0  0  0
 16 42  1  0  0  0  0
 17 18  1  0  0  0  0
 17 43  1  0  0  0  0
 18 23  1  0  0  0  0
 18 19  2  0  0  0  0
 19 20  1  0  0  0  0
 19 44  1  0  0  0  0
 20 21  2  0  0  0  0
 20 45  1  0  0  0  0
 21 22  1  0  0  0  0
 21 46  1  0  0  0  0
 22 23  2  0  0  0  0
 22 47  1  0  0  0  0
M  END
> <s_m_source_file>
AV-unprocessed.smi

> <i_m_source_file_index>
1933

> <i_lp_mmshare_version>
43012

> <i_f3d_flags>
0

> <s_epik_input>
bjFbY0hdW2NIXVtjSF1bY0hdYzFbTkhdQyg9TylbTkhdW0NIMl1bQ0BIXShbQ0BASF0yW0NIMl1bQ0gyXU9bQ0gyXTIpTjNbQ0gyXVtDSDJdT1tDSDJdW0NIMl0z

> <s_epik_cmdline>
J2VwaWtfcHl0aG9uJywgJy1waCcsICc3LjAnLCAnLXRuJywgJzgnLCAnLW1hJywgJzIwMCcsICctbWV0YWxfYmluZGluZycsICctaW1hZScsICc8aW5maWxlLm1hZT4nLCAnLW9tYWUnLCAnPG91dGZpbGUubWFlPic=

> <r_epik_Ionization_Penalty>
0.125062

> <r_epik_Ionization_Penalty_Charging>
0

> <r_epik_Ionization_Penalty_Neutral>
0.125062

> <r_epik_State_Penalty>
0.114484

> <r_epik_Charging_Adjusted_Penalty>
0.114484

> <i_epik_Tot_Q>
0

> <i_epik_Tot_abs_Q>
0

> <r_epik_Metal_State_Penalty>
0.114484

> <b_epik_Metal_Only>
0

> <s_lp_Force_Field>
OPLS_2005

> <r_lp_Energy>
56.3046

> <b_lp_Chiralities_Consistent>
1

> <s_lp_Variant>
AV-unprocessed.smi:1933-2

> <Gold.Version>
5.8.1

> <Gold.Id.Protein>
6NUR|6NUR_protein|mol2

> <Gold.PLP.Fitness>
46.4435

> <Gold.PLP.PLP>
-37.4080

> <Gold.PLP.part.hbond>
-2.9135

> <Gold.PLP.part.metal>
0.0000

> <Gold.PLP.part.buried>
-2.6565

> <Gold.PLP.part.nonpolar>
-33.7728

> <Gold.PLP.part.repulsive>
2.6487

> <Gold.PLP.ligand.clash>
0.0000

> <Gold.PLP.ligand.torsion>
1.5873

> <Gold.PLP.Chemscore.Hbond>
2.9440

> <Gold.PLP.Chemscore.CHOScore>
1.0000

> <Gold.PLP.Chemscore.Metal>
0.0000

> <Gold.Chemscore.Hbonds>
donor molecule, donor type, donor heavy atom, donor atom, acceptor molecule, acceptor atom, score
      L1  H     3    24       P1  7948  0.94
      L1  H    17    43       P1  7948  1.00
      P1  H  7989  7998       L1     9  1.00
      L1  C    22    47       P1 10186  1.00

> <Gold.PLP.Chemscore.Internal.Correction>
0.3782

> <Gold.Rescore>
     Score         DG    S(hbond)    S(metal)    S(lipo)     H(rot)  DE(clash)    DE(int)     intcor
     13.25     -18.66       2.25        0.00      85.87       1.72       1.63       3.77       ----

> <Gold.Chemscore.Fitness>
13.2522

> <Gold.Chemscore.DG>
-18.6577

> <Gold.Chemscore.ZeroCoef>
-5.4800

> <Gold.Chemscore.Hbond>
2.2526

> <Gold.Chemscore.Metal>
0.0000

> <Gold.Chemscore.Lipo>
85.8744

> <Gold.Chemscore.Internal_Hbond>
0.0000

> <Gold.Chemscore.DEClash>
1.6319

> <Gold.Chemscore.DEInternal>
3.7737

> <Gold.Chemscore.Rot>
1.7161

> <Gold.Chemscore.Internal.Correction>
   9.000000E+99

> <Gold.Chemscore.Hbonds>
donor molecule, donor type, donor heavy atom, donor atom, acceptor molecule, acceptor atom, score
      L1  H     3    24       P1  7948  0.91
      L1  H    17    43       P1  7948  0.91
      P1  H  7989  7998       L1     9  0.17

> <Gold.Chemscore.Hbond.Weighted>
-7.5237

> <Gold.Chemscore.Metal.Weighted>
-0.0000

> <Gold.Chemscore.Lipo.Weighted>
-10.0473

> <Gold.Chemscore.Internal_Hbond.Weighted>
0.0000

> <Gold.Chemscore.DEClash.Weighted>
1.6319

> <Gold.Chemscore.DEInternal.Weighted>
3.7737

> <Gold.Chemscore.Rot.Weighted>
4.3932

> <Gold.Chemscore.Internal.Correction.Weighted>
   9.000000E+99

> <Gold.Protein.RotatedTorsions>
[ 6907 6896 6895 6894 ] final  116.14 input  -60.11 | X-H torsion
[ 7974 7965 7964 7962 ] final -145.00 input  175.53 | X-H torsion
[ 8008 7997 7996 7995 ] final   87.81 input   59.86 | X-H torsion
[ 10167 10162 10161 10158 ] final  125.51 input  -65.29 | X-H torsion
[ 10718 10713 10712 10709 ] final  103.05 input   66.30 | X-H torsion
[ 10763 10752 10751 10750 ] final   68.10 input  -60.55 | X-H torsion
[ 11005 11000 10999 10996 ] final   41.39 input  -57.11 | X-H torsion

> <Gold.Protein.ActiveResidues>
 VAL166  LYS551  ARG553  GLY616  TRP617  ASP618  TYR619  PRO620  LYS621  CYS622 
 ASP623  PHE694  ASN695  SER759  ASP760  ASP761  ALA762  ILE779  LEU786  VAL792 
 PHE793  MET794  SER795  GLU796  ALA797  LYS798  CYS799  TRP800  GLU811  SER814 

> <Gold.Protein.RotatedAtoms>
  152.4697  133.8001  159.6948 H   0  0  0  0  0  0  0  0  0  0  0  0  # atno 6907 bound_to 6896
  150.8679  133.7538  159.2977 H   0  0  0  0  0  0  0  0  0  0  0  0  # atno 6908 bound_to 6896
  151.5082  135.1067  159.9899 H   0  0  0  0  0  0  0  0  0  0  0  0  # atno 6909 bound_to 6896
  144.8258  140.5639  143.5548 H   0  0  0  0  0  0  0  0  0  0  0  0  # atno 7974 bound_to 7965
  155.9800  140.3378  155.6654 H   0  0  0  0  0  0  0  0  0  0  0  0  # atno 8008 bound_to 7997
  155.6561  140.0711  157.2588 H   0  0  0  0  0  0  0  0  0  0  0  0  # atno 8009 bound_to 7997
  154.4189  140.1717  156.1713 H   0  0  0  0  0  0  0  0  0  0  0  0  # atno 8010 bound_to 7997
  139.5682  144.6923  151.3852 H   0  0  0  0  0  0  0  0  0  0  0  0  # atno 10167 bound_to 10162
  157.6784  131.0769  150.5497 H   0  0  0  0  0  0  0  0  0  0  0  0  # atno 10718 bound_to 10713
  153.0218  135.5259  154.7082 H   0  0  0  0  0  0  0  0  0  0  0  0  # atno 10763 bound_to 10752
  154.6172  135.2885  155.0369 H   0  0  0  0  0  0  0  0  0  0  0  0  # atno 10764 bound_to 10752
  154.1369  135.6584  153.4986 H   0  0  0  0  0  0  0  0  0  0  0  0  # atno 10765 bound_to 10752
  140.1839  134.4070  155.8184 H   0  0  0  0  0  0  0  0  0  0  0  0  # atno 11005 bound_to 11000
  145.5004  139.1483  143.3660 LP  0  0  0  0  0  0  0  0  0  0  0  0  # atno 17320 bound_to 7965
  146.2563  140.5144  142.8872 LP  0  0  0  0  0  0  0  0  0  0  0  0  # atno 17321 bound_to 7965
  140.6966  143.7735  150.7336 LP  0  0  0  0  0  0  0  0  0  0  0  0  # atno 17342 bound_to 10162
  140.1233  143.4592  152.2300 LP  0  0  0  0  0  0  0  0  0  0  0  0  # atno 17343 bound_to 10162
  156.5802  130.4302  149.5980 LP  0  0  0  0  0  0  0  0  0  0  0  0  # atno 17370 bound_to 10713
  156.2668  130.6994  151.1779 LP  0  0  0  0  0  0  0  0  0  0  0  0  # atno 17371 bound_to 10713
  141.2224  133.7013  156.7978 LP  0  0  0  0  0  0  0  0  0  0  0  0  # atno 17394 bound_to 11000
  140.2236  134.8738  157.3403 LP  0  0  0  0  0  0  0  0  0  0  0  0  # atno 17395 bound_to 11000

$$$$
