AV-unprocessed.smi:2363|AV-procd|sdf|9416|dock10
  -GOLD-   2272013 53D 1   1.00000     0.00000
 Structure written by MMmdl.
 44 45  0  0  0  0  0  0  0  0  1 V2000
  150.8349  135.6634  154.8998 C   0  0  0  0  0  0  0  0  0  0  0  0
  150.3772  137.0630  155.3350 C   0  0  0  0  0  0  0  0  0  0  0  0
  150.9144  138.2027  154.4511 C   0  0  0  0  0  0  0  0  0  0  0  0
  150.0239  139.3518  154.4117 N   0  0  0  0  0  0  0  0  0  0  0  0
  150.4397  140.5360  154.9126 N   0  0  0  0  0  0  0  0  0  0  0  0
  149.4211  141.3655  154.7274 C   0  0  0  0  0  0  0  0  0  0  0  0
  148.3050  140.7462  154.0964 C   0  0  0  0  0  0  0  0  0  0  0  0
  148.7425  139.4628  153.9130 C   0  0  0  0  0  0  0  0  0  0  0  0
  148.0907  138.4130  153.3458 N   0  0  0  0  0  0  0  0  0  0  0  0
  146.8792  137.9144  153.6454 C   0  0  0  0  0  0  0  0  0  0  0  0
  146.1308  138.3412  154.5246 O   0  0  0  0  0  0  0  0  0  0  0  0
  146.5796  136.8723  152.8552 N   0  0  0  0  0  0  0  0  0  0  0  0
  145.3426  136.0909  152.8945 C   0  0  1  0  0  0  0  0  0  0  0  0
  144.1606  137.0713  152.8055 C   0  0  0  0  0  0  0  0  0  0  0  0
  145.3360  135.0172  151.7733 C   0  0  0  0  0  0  0  0  0  0  0  0
  144.0930  134.1061  151.8375 C   0  0  0  0  0  0  0  0  0  0  0  0
  144.1492  133.0025  150.7687 C   0  0  0  0  0  0  0  0  0  0  0  0
  145.3388  132.2380  150.9180 O   0  0  0  0  0  0  0  0  0  0  0  0
  146.5146  133.0155  150.7325 C   0  0  0  0  0  0  0  0  0  0  0  0
  146.5906  134.1172  151.8015 C   0  0  0  0  0  0  0  0  0  0  0  0
  150.3777  134.8959  155.5244 H   0  0  0  0  0  0  0  0  0  0  0  0
  151.9161  135.5510  154.9828 H   0  0  0  0  0  0  0  0  0  0  0  0
  150.5538  135.4621  153.8659 H   0  0  0  0  0  0  0  0  0  0  0  0
  149.2874  137.0976  155.3312 H   0  0  0  0  0  0  0  0  0  0  0  0
  150.6805  137.2326  156.3689 H   0  0  0  0  0  0  0  0  0  0  0  0
  151.8932  138.5253  154.8073 H   0  0  0  0  0  0  0  0  0  0  0  0
  151.0631  137.8441  153.4315 H   0  0  0  0  0  0  0  0  0  0  0  0
  149.5211  142.3893  155.0561 H   0  0  0  0  0  0  0  0  0  0  0  0
  147.3557  141.1874  153.8323 H   0  0  0  0  0  0  0  0  0  0  0  0
  148.5798  137.9646  152.5854 H   0  0  0  0  0  0  0  0  0  0  0  0
  147.2616  136.5958  152.1643 H   0  0  0  0  0  0  0  0  0  0  0  0
  145.2636  135.5772  153.8542 H   0  0  0  0  0  0  0  0  0  0  0  0
  143.2070  136.5717  152.9731 H   0  0  0  0  0  0  0  0  0  0  0  0
  144.1186  137.5572  151.8301 H   0  0  0  0  0  0  0  0  0  0  0  0
  144.2439  137.8527  153.5619 H   0  0  0  0  0  0  0  0  0  0  0  0
  145.3220  135.5334  150.8119 H   0  0  0  0  0  0  0  0  0  0  0  0
  144.0211  133.6482  152.8250 H   0  0  0  0  0  0  0  0  0  0  0  0
  143.1812  134.6848  151.6937 H   0  0  0  0  0  0  0  0  0  0  0  0
  143.2906  132.3387  150.8722 H   0  0  0  0  0  0  0  0  0  0  0  0
  144.1012  133.4288  149.7654 H   0  0  0  0  0  0  0  0  0  0  0  0
  147.3836  132.3614  150.8075 H   0  0  0  0  0  0  0  0  0  0  0  0
  146.5264  133.4452  149.7297 H   0  0  0  0  0  0  0  0  0  0  0  0
  147.4936  134.7048  151.6356 H   0  0  0  0  0  0  0  0  0  0  0  0
  146.6944  133.6597  152.7863 H   0  0  0  0  0  0  0  0  0  0  0  0
  1  2  1  0  0  0  0
  1 21  1  0  0  0  0
  1 22  1  0  0  0  0
  1 23  1  0  0  0  0
  2  3  1  0  0  0  0
  2 24  1  0  0  0  0
  2 25  1  0  0  0  0
  3  4  1  0  0  0  0
  3 26  1  0  0  0  0
  3 27  1  0  0  0  0
  4  8  1  0  0  0  0
  4  5  1  0  0  0  0
  5  6  2  0  0  0  0
  6  7  1  0  0  0  0
  6 28  1  0  0  0  0
  7  8  2  0  0  0  0
  7 29  1  0  0  0  0
  8  9  1  0  0  0  0
  9 10  1  0  0  0  0
  9 30  1  0  0  0  0
 10 11  2  0  0  0  0
 10 12  1  0  0  0  0
 12 13  1  0  0  0  0
 12 31  1  0  0  0  0
 13 14  1  0  0  0  0
 13 15  1  0  0  0  0
 13 32  1  0  0  0  0
 14 33  1  0  0  0  0
 14 34  1  0  0  0  0
 14 35  1  0  0  0  0
 15 20  1  0  0  0  0
 15 16  1  0  0  0  0
 15 36  1  0  0  0  0
 16 17  1  0  0  0  0
 16 37  1  0  0  0  0
 16 38  1  0  0  0  0
 17 18  1  0  0  0  0
 17 39  1  0  0  0  0
 17 40  1  0  0  0  0
 18 19  1  0  0  0  0
 19 20  1  0  0  0  0
 19 41  1  0  0  0  0
 19 42  1  0  0  0  0
 20 43  1  0  0  0  0
 20 44  1  0  0  0  0
M  END
> <s_m_source_file>
AV-unprocessed.smi

> <i_m_source_file_index>
2363

> <i_lp_mmshare_version>
43012

> <i_f3d_flags>
0

> <s_epik_input>
W0NIM11bQ0gyXVtDSDJdbjFuW2NIXVtjSF1jMVtOSF1DKD1PKVtOSF1bQ0BIXShbQ0gzXSlbQ0hdMltDSDJdW0NIMl1PW0NIMl1bQ0gyXTI=

> <s_epik_cmdline>
J2VwaWtfcHl0aG9uJywgJy1waCcsICc3LjAnLCAnLXRuJywgJzgnLCAnLW1hJywgJzIwMCcsICctbWV0YWxfYmluZGluZycsICctaW1hZScsICc8aW5maWxlLm1hZT4nLCAnLW9tYWUnLCAnPG91dGZpbGUubWFlPic=

> <r_lp_tautomer_probability>
1

> <r_epik_Ionization_Penalty>
3.26671e-05

> <r_epik_Ionization_Penalty_Charging>
0

> <r_epik_Ionization_Penalty_Neutral>
3.26671e-05

> <r_epik_State_Penalty>
-0

> <r_epik_Charging_Adjusted_Penalty>
0

> <i_epik_Tot_Q>
0

> <i_epik_Tot_abs_Q>
0

> <r_epik_Metal_State_Penalty>
-0

> <b_epik_Metal_Only>
0

> <s_lp_Force_Field>
OPLS_2005

> <r_lp_Energy>
15.2221

> <b_lp_Chiralities_Consistent>
1

> <s_lp_Variant>
AV-unprocessed.smi:2363-2

> <Gold.Version>
5.8.1

> <Gold.Id.Protein>
6NUR|6NUR_protein|mol2

> <Gold.PLP.Fitness>
44.5832

> <Gold.PLP.PLP>
-35.3680

> <Gold.PLP.part.hbond>
-3.8057

> <Gold.PLP.part.metal>
0.0000

> <Gold.PLP.part.buried>
-1.1178

> <Gold.PLP.part.nonpolar>
-30.1897

> <Gold.PLP.part.repulsive>
0.3493

> <Gold.PLP.ligand.clash>
0.0000

> <Gold.PLP.ligand.torsion>
0.7323

> <Gold.PLP.Chemscore.Hbond>
2.5440

> <Gold.PLP.Chemscore.CHOScore>
1.0000

> <Gold.PLP.Chemscore.Metal>
0.0000

> <Gold.Chemscore.Hbonds>
donor molecule, donor type, donor heavy atom, donor atom, acceptor molecule, acceptor atom, score
      L1  H     9    30       P1  7948  0.86
      L1  H    12    31       P1  7948  0.94
      P1  H  7989  7998       L1     5  0.73
      L1  C     6    28       P1  8028  1.00

> <Gold.PLP.Chemscore.Internal.Correction>
0.0479

> <Gold.Rescore>
     Score         DG    S(hbond)    S(metal)    S(lipo)     H(rot)  DE(clash)    DE(int)     intcor
     13.76     -16.12       1.88        0.00      70.48       1.52       0.10       2.25       ----

> <Gold.Chemscore.Fitness>
13.7643

> <Gold.Chemscore.DG>
-16.1157

> <Gold.Chemscore.ZeroCoef>
-5.4800

> <Gold.Chemscore.Hbond>
1.8787

> <Gold.Chemscore.Metal>
0.0000

> <Gold.Chemscore.Lipo>
70.4782

> <Gold.Chemscore.Internal_Hbond>
0.0000

> <Gold.Chemscore.DEClash>
0.0997

> <Gold.Chemscore.DEInternal>
2.2517

> <Gold.Chemscore.Rot>
1.5176

> <Gold.Chemscore.Internal.Correction>
   9.000000E+99

> <Gold.Chemscore.Hbonds>
donor molecule, donor type, donor heavy atom, donor atom, acceptor molecule, acceptor atom, score
      L1  H     9    30       P1  7948  0.85
      L1  H    12    31       P1  7948  0.91
      P1  H  7989  7998       L1     5  0.04

> <Gold.Chemscore.Hbond.Weighted>
-6.2748

> <Gold.Chemscore.Metal.Weighted>
-0.0000

> <Gold.Chemscore.Lipo.Weighted>
-8.2460

> <Gold.Chemscore.Internal_Hbond.Weighted>
0.0000

> <Gold.Chemscore.DEClash.Weighted>
0.0997

> <Gold.Chemscore.DEInternal.Weighted>
2.2517

> <Gold.Chemscore.Rot.Weighted>
3.8851

> <Gold.Chemscore.Internal.Correction.Weighted>
   9.000000E+99

> <Gold.Protein.RotatedTorsions>
[ 6907 6896 6895 6894 ] final -154.41 input  -60.11 | X-H torsion
[ 7974 7965 7964 7962 ] final  130.56 input  175.53 | X-H torsion
[ 8008 7997 7996 7995 ] final  -42.80 input   59.86 | X-H torsion
[ 10167 10162 10161 10158 ] final   37.44 input  -65.29 | X-H torsion
[ 10718 10713 10712 10709 ] final -151.72 input   66.30 | X-H torsion
[ 10763 10752 10751 10750 ] final   71.62 input  -60.55 | X-H torsion
[ 11005 11000 10999 10996 ] final  -93.30 input  -57.11 | X-H torsion

> <Gold.Protein.ActiveResidues>
 VAL166  LYS551  ARG553  GLY616  TRP617  ASP618  TYR619  PRO620  LYS621  CYS622 
 ASP623  PHE694  ASN695  SER759  ASP760  ASP761  ALA762  ILE779  LEU786  VAL792 
 PHE793  MET794  SER795  GLU796  ALA797  LYS798  CYS799  TRP800  GLU811  SER814 

> <Gold.Protein.RotatedAtoms>
  151.2570  133.4321  159.2613 H   0  0  0  0  0  0  0  0  0  0  0  0  # atno 6907 bound_to 6896
  151.0565  134.9708  159.8248 H   0  0  0  0  0  0  0  0  0  0  0  0  # atno 6908 bound_to 6896
  152.5391  134.2522  159.8956 H   0  0  0  0  0  0  0  0  0  0  0  0  # atno 6909 bound_to 6896
  145.0166  139.4170  143.5218 H   0  0  0  0  0  0  0  0  0  0  0  0  # atno 7974 bound_to 7965
  154.3998  140.1464  156.3414 H   0  0  0  0  0  0  0  0  0  0  0  0  # atno 8008 bound_to 7997
  155.8353  140.3464  155.5576 H   0  0  0  0  0  0  0  0  0  0  0  0  # atno 8009 bound_to 7997
  155.8145  140.0889  157.1875 H   0  0  0  0  0  0  0  0  0  0  0  0  # atno 8010 bound_to 7997
  140.4032  144.1694  150.6135 H   0  0  0  0  0  0  0  0  0  0  0  0  # atno 10167 bound_to 10162
  156.4630  130.8222  151.2453 H   0  0  0  0  0  0  0  0  0  0  0  0  # atno 10718 bound_to 10713
  153.0410  135.5130  154.7620 H   0  0  0  0  0  0  0  0  0  0  0  0  # atno 10763 bound_to 10752
  154.6558  135.2931  154.9931 H   0  0  0  0  0  0  0  0  0  0  0  0  # atno 10764 bound_to 10752
  154.0800  135.6665  153.4889 H   0  0  0  0  0  0  0  0  0  0  0  0  # atno 10765 bound_to 10752
  141.1500  133.7878  157.0140 H   0  0  0  0  0  0  0  0  0  0  0  0  # atno 11005 bound_to 11000
  146.3479  139.9641  142.8714 LP  0  0  0  0  0  0  0  0  0  0  0  0  # atno 17320 bound_to 7965
  145.1951  140.9829  143.4188 LP  0  0  0  0  0  0  0  0  0  0  0  0  # atno 17321 bound_to 7965
  140.4717  143.2410  151.9079 LP  0  0  0  0  0  0  0  0  0  0  0  0  # atno 17342 bound_to 10162
  139.4784  144.5362  151.8594 LP  0  0  0  0  0  0  0  0  0  0  0  0  # atno 17343 bound_to 10162
  157.7496  131.0101  150.3293 LP  0  0  0  0  0  0  0  0  0  0  0  0  # atno 17370 bound_to 10713
  156.3697  130.3861  149.7185 LP  0  0  0  0  0  0  0  0  0  0  0  0  # atno 17371 bound_to 10713
  140.0859  134.9621  157.1699 LP  0  0  0  0  0  0  0  0  0  0  0  0  # atno 17394 bound_to 11000
  140.3512  134.2596  155.7198 LP  0  0  0  0  0  0  0  0  0  0  0  0  # atno 17395 bound_to 11000

$$$$
