#       Name:                AV-unprocessed.smi:3151
#       Creating user name   scv26
#       Creation time:       Fri Mar 27 17:42:44 2020


#       File generated by GOLD software.
#

@<TRIPOS>MOLECULE
AV-unprocessed.smi:3151
    38    39     1
SMALL
NO_CHARGES


@<TRIPOS>ATOM
      1 ****         0.0180   1.3486   0.0488 O.2            1 S1                 0.0000
      2 ****        -0.3417   0.2224  -0.2952 C.2            1 S1                 0.0000
      3 ****        -1.8299  -0.1423  -0.3173 C.3            1 S1                 0.0000
      4 ****        -2.6049   0.3675   0.9159 C.3            1 S1                 0.0000
      5 ****        -2.1479  -0.2271   2.2535 C.3            1 S1                 0.0000
      6 ****        -3.3296  -0.0269   3.2101 C.3            1 S1                 0.0000
      7 ****        -4.5701   0.1836   2.3287 C.3            1 S1                 0.0000
      8 ****        -4.0966   0.0285   0.8802 C.3            1 S1                 0.0000
      9 ****         0.5149  -0.7395  -0.6713 N.am           1 S1                 0.0000
     10 ****         1.9653  -0.5962  -0.7141 C.3            1 S1                 0.0000
     11 ****         2.4240   0.1360  -1.9859 C.3            1 S1                 0.0000
     12 ****         3.8648   0.2815  -2.0219 N.pl3          1 S1                 0.0000
     13 ****         4.7832  -0.5959  -2.5832 C.2            1 S1                 0.0000
     14 ****         6.0284  -0.0474  -2.3741 C.2            1 S1                 0.0000
     15 ****         5.9005   1.1591  -1.6893 N.2            1 S1                 0.0000
     16 ****         4.5913   1.2874  -1.5159 C.2            1 S1                 0.0000
     17 ****        -2.2646   0.2825  -1.2227 H              1 S1                 0.0000
     18 ****        -1.9408  -1.2247  -0.4012 H              1 S1                 0.0000
     19 ****        -2.5144   1.4537   0.9758 H              1 S1                 0.0000
     20 ****        -1.9537  -1.2945   2.1373 H              1 S1                 0.0000
     21 ****        -1.2328   0.2344   2.6262 H              1 S1                 0.0000
     22 ****        -3.4458  -0.8826   3.8759 H              1 S1                 0.0000
     23 ****        -3.1665   0.8518   3.8352 H              1 S1                 0.0000
     24 ****        -5.3681  -0.5200   2.5675 H              1 S1                 0.0000
     25 ****        -4.9640   1.1885   2.4855 H              1 S1                 0.0000
     26 ****        -4.6535   0.6634   0.1903 H              1 S1                 0.0000
     27 ****        -4.2360  -1.0059   0.5626 H              1 S1                 0.0000
     28 ****         0.1356  -1.6358  -0.9402 H              1 S1                 0.0000
     29 ****         2.3146  -0.0722   0.1776 H              1 S1                 0.0000
     30 ****         2.4055  -1.5931  -0.6798 H              1 S1                 0.0000
     31 ****         2.1070  -0.4083  -2.8764 H              1 S1                 0.0000
     32 ****         1.9766   1.1293  -2.0444 H              1 S1                 0.0000
     33 ****         4.4836  -1.5121  -3.0705 H              1 S1                 0.0000
     34 ****         6.9988  -0.4254  -2.6605 H              1 S1                 0.0000
     35 ****         4.1502   2.1321  -1.0070 H              1 S1                 0.0000
     36 ****        -0.6625   2.0310   0.3157 LP             1 S1                 0.0000
     37 ****         0.9905   1.5808   0.0612 LP             1 S1                 0.0000
     38 ****         6.6256   1.7825  -1.3969 LP             1 S1                 0.0000
@<TRIPOS>BOND
    1    1    2 2     
    2    2    3 1     
    3    2    9 am    
    4    3    4 1     
    5    3   17 1     
    6    3   18 1     
    7    4    8 1     
    8    4    5 1     
    9    4   19 1     
   10    5    6 1     
   11    5   20 1     
   12    5   21 1     
   13    6    7 1     
   14    6   22 1     
   15    6   23 1     
   16    7    8 1     
   17    7   24 1     
   18    7   25 1     
   19    8   26 1     
   20    8   27 1     
   21    9   10 1     
   22    9   28 1     
   23   10   11 1     
   24   10   29 1     
   25   10   30 1     
   26   11   12 1     
   27   11   31 1     
   28   11   32 1     
   29   12   16 1     
   30   12   13 1     
   31   13   14 2     
   32   13   33 1     
   33   14   15 1     
   34   14   34 1     
   35   15   16 2     
   36   16   35 1     
   37    1   36 1     
   38    1   37 1     
   39   15   38 1     
@<TRIPOS>SUBSTRUCTURE
      1 S1             1
@<TRIPOS>SET
LONE_PAIRS      STATIC     ATOMS    <user>   **** ""
3 36 37 38
DONOR_HYDROGENS      STATIC     ATOMS    <user>   **** ""
1 28
ATOM$BLUE        STATIC     ATOMS    COLORGROUP SYSTEM
3 36 37 38
ATOM$RED        STATIC     ATOMS    COLORGROUP SYSTEM
1 28
