AV-unprocessed.smi:2061|AV-procd|sdf|8362|dock4
  -GOLD-   2272011 33D 1   1.00000     0.00000
 Structure written by MMmdl.
 45 46  0  0  0  0  0  0  0  0  1 V2000
  143.0490  134.9292  163.2011 C   0  0  0  0  0  0  0  0  0  0  0  0
  144.4009  134.7649  162.5949 C   0  0  0  0  0  0  0  0  0  0  0  0
  144.9880  135.2850  161.4757 C   0  0  0  0  0  0  0  0  0  0  0  0
  146.2837  134.7034  161.4942 C   0  0  0  0  0  0  0  0  0  0  0  0
  147.2271  134.9923  160.4751 N   0  0  0  0  0  0  0  0  0  0  0  0
  147.9143  136.1330  160.2956 C   0  0  0  0  0  0  0  0  0  0  0  0
  147.8236  137.1342  161.0066 O   0  0  0  0  0  0  0  0  0  0  0  0
  148.7229  136.0508  159.2293 N   0  0  0  0  0  0  0  0  0  0  0  0
  149.6024  137.1123  158.7427 C   0  0  0  0  0  0  0  0  0  0  0  0
  148.8814  138.0843  157.7713 C   0  0  2  0  0  0  0  0  0  0  0  0
  147.9760  137.2556  156.8320 C   0  0  0  0  0  0  0  0  0  0  0  0
  149.7906  139.0053  157.0539 N   0  0  0  0  0  0  0  0  0  0  0  0
  150.7609  138.2980  156.2156 C   0  0  0  0  0  0  0  0  0  0  0  0
  151.6862  139.2567  155.4448 C   0  0  2  0  0  0  0  0  0  0  0  0
  152.7486  138.5058  154.6354 C   0  0  0  0  0  0  0  0  0  0  0  0
  152.3566  140.1126  156.3647 O   0  0  0  0  0  0  0  0  0  0  0  0
  151.4986  140.8417  157.2403 C   0  0  1  0  0  0  0  0  0  0  0  0
  150.7856  141.9958  156.5148 C   0  0  0  0  0  0  0  0  0  0  0  0
  150.5310  139.8841  157.9640 C   0  0  0  0  0  0  0  0  0  0  0  0
  146.4713  133.9031  162.5324 N   0  0  0  0  0  0  0  0  0  0  0  0
  145.2655  133.9379  163.2426 O   0  0  0  0  0  0  0  0  0  0  0  0
  142.5918  135.8668  162.8844 H   0  0  0  0  0  0  0  0  0  0  0  0
  143.1078  134.9342  164.2896 H   0  0  0  0  0  0  0  0  0  0  0  0
  142.3914  134.1132  162.9012 H   0  0  0  0  0  0  0  0  0  0  0  0
  144.5562  135.9683  160.7598 H   0  0  0  0  0  0  0  0  0  0  0  0
  147.4006  134.2489  159.8150 H   0  0  0  0  0  0  0  0  0  0  0  0
  148.7222  135.1915  158.6995 H   0  0  0  0  0  0  0  0  0  0  0  0
  150.0357  137.6667  159.5768 H   0  0  0  0  0  0  0  0  0  0  0  0
  150.4593  136.6460  158.2579 H   0  0  0  0  0  0  0  0  0  0  0  0
  148.2117  138.6875  158.3865 H   0  0  0  0  0  0  0  0  0  0  0  0
  147.4163  136.5013  157.3855 H   0  0  0  0  0  0  0  0  0  0  0  0
  148.5576  136.7387  156.0680 H   0  0  0  0  0  0  0  0  0  0  0  0
  147.2332  137.8735  156.3285 H   0  0  0  0  0  0  0  0  0  0  0  0
  151.3597  137.6256  156.8319 H   0  0  0  0  0  0  0  0  0  0  0  0
  150.2504  137.6793  155.4798 H   0  0  0  0  0  0  0  0  0  0  0  0
  151.0936  139.8577  154.7546 H   0  0  0  0  0  0  0  0  0  0  0  0
  152.2884  137.8458  153.9000 H   0  0  0  0  0  0  0  0  0  0  0  0
  153.3815  137.8977  155.2822 H   0  0  0  0  0  0  0  0  0  0  0  0
  153.3932  139.2025  154.0989 H   0  0  0  0  0  0  0  0  0  0  0  0
  152.1454  141.2932  157.9930 H   0  0  0  0  0  0  0  0  0  0  0  0
  150.2299  142.6124  157.2215 H   0  0  0  0  0  0  0  0  0  0  0  0
  150.0759  141.6367  155.7699 H   0  0  0  0  0  0  0  0  0  0  0  0
  151.5050  142.6402  156.0093 H   0  0  0  0  0  0  0  0  0  0  0  0
  149.8482  140.4894  158.5580 H   0  0  0  0  0  0  0  0  0  0  0  0
  151.0993  139.2755  158.6691 H   0  0  0  0  0  0  0  0  0  0  0  0
  1  2  1  0  0  0  0
  1 22  1  0  0  0  0
  1 23  1  0  0  0  0
  1 24  1  0  0  0  0
  2 21  1  0  0  0  0
  2  3  2  0  0  0  0
  3  4  1  0  0  0  0
  3 25  1  0  0  0  0
  4  5  1  0  0  0  0
  4 20  2  0  0  0  0
  5  6  1  0  0  0  0
  5 26  1  0  0  0  0
  6  7  2  0  0  0  0
  6  8  1  0  0  0  0
  8  9  1  0  0  0  0
  8 27  1  0  0  0  0
  9 10  1  0  0  0  0
  9 28  1  0  0  0  0
  9 29  1  0  0  0  0
 10 11  1  0  0  0  0
 10 12  1  0  0  0  0
 10 30  1  0  0  0  0
 11 31  1  0  0  0  0
 11 32  1  0  0  0  0
 11 33  1  0  0  0  0
 12 19  1  0  0  0  0
 12 13  1  0  0  0  0
 13 14  1  0  0  0  0
 13 34  1  0  0  0  0
 13 35  1  0  0  0  0
 14 15  1  0  0  0  0
 14 16  1  0  0  0  0
 14 36  1  0  0  0  0
 15 37  1  0  0  0  0
 15 38  1  0  0  0  0
 15 39  1  0  0  0  0
 16 17  1  0  0  0  0
 17 18  1  0  0  0  0
 17 19  1  0  0  0  0
 17 40  1  0  0  0  0
 18 41  1  0  0  0  0
 18 42  1  0  0  0  0
 18 43  1  0  0  0  0
 19 44  1  0  0  0  0
 19 45  1  0  0  0  0
 20 21  1  0  0  0  0
M  END
> <s_m_source_file>
AV-unprocessed.smi

> <i_m_source_file_index>
2061

> <i_lp_mmshare_version>
43012

> <i_f3d_flags>
0

> <s_epik_input>
W0NIM11jMVtjSF1jKG5vMSlbTkhdQyg9TylbTkhdW0NIMl1bQ0BIXShbQ0gzXSlOMltDSDJdW0NAQEhdKFtDSDNdKU9bQ0BASF0oW0NIM10pW0NIMl0y

> <s_epik_cmdline>
J2VwaWtfcHl0aG9uJywgJy1waCcsICc3LjAnLCAnLXRuJywgJzgnLCAnLW1hJywgJzIwMCcsICctbWV0YWxfYmluZGluZycsICctaW1hZScsICc8aW5maWxlLm1hZT4nLCAnLW9tYWUnLCAnPG91dGZpbGUubWFlPic=

> <r_epik_Ionization_Penalty>
0.214073

> <r_epik_Ionization_Penalty_Charging>
0

> <r_epik_Ionization_Penalty_Neutral>
0.214073

> <r_epik_State_Penalty>
0.204211

> <r_epik_Charging_Adjusted_Penalty>
0.204211

> <i_epik_Tot_Q>
0

> <i_epik_Tot_abs_Q>
0

> <r_epik_Metal_State_Penalty>
0.217067

> <b_epik_Metal_Only>
0

> <s_lp_Force_Field>
OPLS_2005

> <r_lp_Energy>
31.3151

> <b_lp_Chiralities_Consistent>
1

> <s_lp_Variant>
AV-unprocessed.smi:2061-3

> <Gold.Version>
5.8.1

> <Gold.Id.Protein>
6NUR|6NUR_protein|mol2

> <Gold.PLP.Fitness>
38.0055

> <Gold.PLP.PLP>
-31.6471

> <Gold.PLP.part.hbond>
-4.1324

> <Gold.PLP.part.metal>
0.0000

> <Gold.PLP.part.buried>
-5.2286

> <Gold.PLP.part.nonpolar>
-22.9043

> <Gold.PLP.part.repulsive>
0.2769

> <Gold.PLP.ligand.clash>
0.0000

> <Gold.PLP.ligand.torsion>
1.0033

> <Gold.PLP.Chemscore.Hbond>
2.7760

> <Gold.PLP.Chemscore.CHOScore>
0.0000

> <Gold.PLP.Chemscore.Metal>
0.0000

> <Gold.Chemscore.Hbonds>
donor molecule, donor type, donor heavy atom, donor atom, acceptor molecule, acceptor atom, score
      P1  H  6931  6943       L1     7  0.94
      P1  H  6934  6947       L1     7  0.83
      P1  H  7997  8010       L1    16  1.00

> <Gold.PLP.Chemscore.Internal.Correction>
0.0369

> <Gold.Rescore>
     Score         DG    S(hbond)    S(metal)    S(lipo)     H(rot)  DE(clash)    DE(int)     intcor
     16.43     -17.42       2.69        0.00      59.28       1.55       0.02       0.97       ----

> <Gold.Chemscore.Fitness>
16.4342

> <Gold.Chemscore.DG>
-17.4237

> <Gold.Chemscore.ZeroCoef>
-5.4800

> <Gold.Chemscore.Hbond>
2.6853

> <Gold.Chemscore.Metal>
0.0000

> <Gold.Chemscore.Lipo>
59.2833

> <Gold.Chemscore.Internal_Hbond>
0.0000

> <Gold.Chemscore.DEClash>
0.0237

> <Gold.Chemscore.DEInternal>
0.9658

> <Gold.Chemscore.Rot>
1.5474

> <Gold.Chemscore.Internal.Correction>
   9.000000E+99

> <Gold.Chemscore.Hbonds>
donor molecule, donor type, donor heavy atom, donor atom, acceptor molecule, acceptor atom, score
      P1  H  6931  6943       L1     7  0.91
      P1  H  6934  6947       L1     7  0.80
      P1  H  7997  8010       L1    16  0.90

> <Gold.Chemscore.Hbond.Weighted>
-8.9688

> <Gold.Chemscore.Metal.Weighted>
-0.0000

> <Gold.Chemscore.Lipo.Weighted>
-6.9361

> <Gold.Chemscore.Internal_Hbond.Weighted>
0.0000

> <Gold.Chemscore.DEClash.Weighted>
0.0237

> <Gold.Chemscore.DEInternal.Weighted>
0.9658

> <Gold.Chemscore.Rot.Weighted>
3.9612

> <Gold.Chemscore.Internal.Correction.Weighted>
   9.000000E+99

> <Gold.Protein.RotatedTorsions>
[ 6907 6896 6895 6894 ] final -177.86 input  -60.11 | X-H torsion
[ 7974 7965 7964 7962 ] final   59.78 input  175.53 | X-H torsion
[ 8008 7997 7996 7995 ] final   82.73 input   59.86 | X-H torsion
[ 10167 10162 10161 10158 ] final   20.32 input  -65.29 | X-H torsion
[ 10718 10713 10712 10709 ] final  -90.58 input   66.30 | X-H torsion
[ 10763 10752 10751 10750 ] final -177.54 input  -60.55 | X-H torsion
[ 11005 11000 10999 10996 ] final   26.98 input  -57.11 | X-H torsion

> <Gold.Protein.ActiveResidues>
 VAL166  LYS551  ARG553  GLY616  TRP617  ASP618  TYR619  PRO620  LYS621  CYS622 
 ASP623  PHE694  ASN695  SER759  ASP760  ASP761  ALA762  ILE779  LEU786  VAL792 
 PHE793  MET794  SER795  GLU796  ALA797  LYS798  CYS799  TRP800  GLU811  SER814 

> <Gold.Protein.RotatedAtoms>
  151.6279  133.3334  159.3102 H   0  0  0  0  0  0  0  0  0  0  0  0  # atno 6907 bound_to 6896
  150.8072  134.7208  159.6666 H   0  0  0  0  0  0  0  0  0  0  0  0  # atno 6908 bound_to 6896
  152.4168  134.6032  160.0057 H   0  0  0  0  0  0  0  0  0  0  0  0  # atno 6909 bound_to 6896
  145.9033  139.3598  143.0579 H   0  0  0  0  0  0  0  0  0  0  0  0  # atno 7974 bound_to 7965
  155.9146  140.3425  155.6125 H   0  0  0  0  0  0  0  0  0  0  0  0  # atno 8008 bound_to 7997
  155.7347  140.0800  157.2292 H   0  0  0  0  0  0  0  0  0  0  0  0  # atno 8009 bound_to 7997
  154.4060  140.1581  156.2535 H   0  0  0  0  0  0  0  0  0  0  0  0  # atno 8010 bound_to 7997
  140.5512  143.9505  150.6579 H   0  0  0  0  0  0  0  0  0  0  0  0  # atno 10167 bound_to 10162
  155.9988  130.4915  150.5344 H   0  0  0  0  0  0  0  0  0  0  0  0  # atno 10718 bound_to 10713
  154.5589  135.2818  155.0938 H   0  0  0  0  0  0  0  0  0  0  0  0  # atno 10763 bound_to 10752
  154.2355  135.6366  153.5193 H   0  0  0  0  0  0  0  0  0  0  0  0  # atno 10764 bound_to 10752
  153.0023  135.5547  154.6177 H   0  0  0  0  0  0  0  0  0  0  0  0  # atno 10765 bound_to 10752
  140.3312  134.2435  155.7702 H   0  0  0  0  0  0  0  0  0  0  0  0  # atno 11005 bound_to 11000
  145.8763  140.9390  143.0624 LP  0  0  0  0  0  0  0  0  0  0  0  0  # atno 17320 bound_to 7965
  144.6737  140.0721  143.7472 LP  0  0  0  0  0  0  0  0  0  0  0  0  # atno 17321 bound_to 7965
  140.2931  143.3310  152.1043 LP  0  0  0  0  0  0  0  0  0  0  0  0  # atno 17342 bound_to 10162
  139.5028  144.6743  151.6167 LP  0  0  0  0  0  0  0  0  0  0  0  0  # atno 17343 bound_to 10162
  157.3289  131.0696  151.1876 LP  0  0  0  0  0  0  0  0  0  0  0  0  # atno 17370 bound_to 10713
  157.2764  130.6729  149.6044 LP  0  0  0  0  0  0  0  0  0  0  0  0  # atno 17371 bound_to 10713
  141.2063  133.7837  157.0186 LP  0  0  0  0  0  0  0  0  0  0  0  0  # atno 17394 bound_to 11000
  140.0859  134.9621  157.1699 LP  0  0  0  0  0  0  0  0  0  0  0  0  # atno 17395 bound_to 11000

$$$$
