AV-unprocessed.smi:2723|AV-procd|sdf|10506|dock1
  -GOLD-   2272014543D 1   1.00000     0.00000
 Structure written by MMmdl.
 35 36  0  0  0  0  0  0  0  0  1 V2000
  153.0733  135.5499  164.7496 C   0  0  0  0  0  0  0  0  0  0  0  0
  153.2586  137.0397  165.0570 C   0  0  0  0  0  0  0  0  0  0  0  0
  154.6743  137.5371  164.7223 C   0  0  0  0  0  0  0  0  0  0  0  0
  154.9167  138.8688  165.2641 N   0  0  0  0  0  0  0  0  0  0  0  0
  155.4356  139.8989  164.5767 C   0  0  0  0  0  0  0  0  0  0  0  0
  155.7823  139.8212  163.3981 O   0  0  0  0  0  0  0  0  0  0  0  0
  155.5915  141.2197  165.3330 C   0  0  0  0  0  0  0  0  0  0  0  0
  154.8287  142.3145  164.6435 C   0  0  0  0  0  0  0  0  0  0  0  0
  154.6435  143.6003  165.0911 C   0  0  0  0  0  0  0  0  0  0  0  0
  153.6958  144.5497  163.9798 S   0  0  0  0  0  0  0  0  0  0  0  0
  153.5749  143.1359  162.9280 C   0  0  0  0  0  0  0  0  0  0  0  0
  152.8802  143.0640  161.6840 N   0  0  0  0  0  0  0  0  0  0  0  0
  152.0640  144.1714  161.1949 C   0  0  0  0  0  0  0  0  0  0  0  0
  151.6887  143.8120  159.7533 C   0  0  0  0  0  0  0  0  0  0  0  0
  151.9957  142.3222  159.6155 C   0  0  0  0  0  0  0  0  0  0  0  0
  152.8497  142.0204  160.8361 C   0  0  0  0  0  0  0  0  0  0  0  0
  153.4106  140.9344  160.9751 O   0  0  0  0  0  0  0  0  0  0  0  0
  154.2111  142.0643  163.4133 N   0  0  0  0  0  0  0  0  0  0  0  0
  152.0631  135.2246  164.9994 H   0  0  0  0  0  0  0  0  0  0  0  0
  153.7712  134.9392  165.3231 H   0  0  0  0  0  0  0  0  0  0  0  0
  153.2368  135.3436  163.6915 H   0  0  0  0  0  0  0  0  0  0  0  0
  152.5206  137.6125  164.4942 H   0  0  0  0  0  0  0  0  0  0  0  0
  153.0472  137.2178  166.1121 H   0  0  0  0  0  0  0  0  0  0  0  0
  155.4154  136.8601  165.1478 H   0  0  0  0  0  0  0  0  0  0  0  0
  154.8364  137.5357  163.6430 H   0  0  0  0  0  0  0  0  0  0  0  0
  154.6596  139.0239  166.2283 H   0  0  0  0  0  0  0  0  0  0  0  0
  155.2460  141.0846  166.3592 H   0  0  0  0  0  0  0  0  0  0  0  0
  156.6493  141.4771  165.3969 H   0  0  0  0  0  0  0  0  0  0  0  0
  155.0114  144.0456  166.0036 H   0  0  0  0  0  0  0  0  0  0  0  0
  151.1718  144.2605  161.8164 H   0  0  0  0  0  0  0  0  0  0  0  0
  152.6037  145.1188  161.2379 H   0  0  0  0  0  0  0  0  0  0  0  0
  150.6441  144.0386  159.5377 H   0  0  0  0  0  0  0  0  0  0  0  0
  152.3012  144.3824  159.0533 H   0  0  0  0  0  0  0  0  0  0  0  0
  151.0852  141.7233  159.6543 H   0  0  0  0  0  0  0  0  0  0  0  0
  152.5259  142.0942  158.6904 H   0  0  0  0  0  0  0  0  0  0  0  0
  1  2  1  0  0  0  0
  1 19  1  0  0  0  0
  1 20  1  0  0  0  0
  1 21  1  0  0  0  0
  2  3  1  0  0  0  0
  2 22  1  0  0  0  0
  2 23  1  0  0  0  0
  3  4  1  0  0  0  0
  3 24  1  0  0  0  0
  3 25  1  0  0  0  0
  4  5  1  0  0  0  0
  4 26  1  0  0  0  0
  5  6  2  0  0  0  0
  5  7  1  0  0  0  0
  7  8  1  0  0  0  0
  7 27  1  0  0  0  0
  7 28  1  0  0  0  0
  8 18  1  0  0  0  0
  8  9  2  0  0  0  0
  9 10  1  0  0  0  0
  9 29  1  0  0  0  0
 10 11  1  0  0  0  0
 11 12  1  0  0  0  0
 11 18  2  0  0  0  0
 12 16  1  0  0  0  0
 12 13  1  0  0  0  0
 13 14  1  0  0  0  0
 13 30  1  0  0  0  0
 13 31  1  0  0  0  0
 14 15  1  0  0  0  0
 14 32  1  0  0  0  0
 14 33  1  0  0  0  0
 15 16  1  0  0  0  0
 15 34  1  0  0  0  0
 15 35  1  0  0  0  0
 16 17  2  0  0  0  0
M  END
> <s_m_source_file>
AV-unprocessed.smi

> <i_m_source_file_index>
2723

> <i_lp_mmshare_version>
43012

> <i_f3d_flags>
0

> <s_epik_input>
W0NIM11bQ0gyXVtDSDJdW05IXUMoPU8pW0NIMl1jMVtjSF1zYyhuMSlOMltDSDJdW0NIMl1bQ0gyXUMyPU8=

> <s_epik_cmdline>
J2VwaWtfcHl0aG9uJywgJy1waCcsICc3LjAnLCAnLXRuJywgJzgnLCAnLW1hJywgJzIwMCcsICctbWV0YWxfYmluZGluZycsICctaW1hZScsICc8aW5maWxlLm1hZT4nLCAnLW9tYWUnLCAnPG91dGZpbGUubWFlPic=

> <r_lp_tautomer_probability>
1

> <r_epik_Ionization_Penalty>
2.96769e-05

> <r_epik_Ionization_Penalty_Charging>
0

> <r_epik_Ionization_Penalty_Neutral>
2.96769e-05

> <r_epik_State_Penalty>
-0

> <r_epik_Charging_Adjusted_Penalty>
0

> <i_epik_Tot_Q>
0

> <i_epik_Tot_abs_Q>
0

> <r_epik_Metal_State_Penalty>
-0

> <b_epik_Metal_Only>
0

> <s_lp_Force_Field>
OPLS_2005

> <r_lp_Energy>
15.8709

> <b_lp_Chiralities_Consistent>
1

> <s_lp_Variant>
AV-unprocessed.smi:2723-1

> <Gold.Version>
5.8.1

> <Gold.Id.Protein>
6NUR|6NUR_protein|mol2

> <Gold.PLP.Fitness>
43.0484

> <Gold.PLP.PLP>
-43.2273

> <Gold.PLP.part.hbond>
-1.7279

> <Gold.PLP.part.metal>
0.0000

> <Gold.PLP.part.buried>
-6.0358

> <Gold.PLP.part.nonpolar>
-35.9395

> <Gold.PLP.part.repulsive>
0.0966

> <Gold.PLP.ligand.clash>
0.0000

> <Gold.PLP.ligand.torsion>
0.1424

> <Gold.PLP.Chemscore.Hbond>
0.0000

> <Gold.PLP.Chemscore.CHOScore>
0.0000

> <Gold.PLP.Chemscore.Metal>
0.0000

> <Gold.PLP.Chemscore.Internal.Correction>
0.1060

> <Gold.Rescore>
     Score         DG    S(hbond)    S(metal)    S(lipo)     H(rot)  DE(clash)    DE(int)     intcor
      8.40     -12.52       0.00        0.00      96.18       1.64       1.22       2.91       ----

> <Gold.Chemscore.Fitness>
8.3971

> <Gold.Chemscore.DG>
-12.5240

> <Gold.Chemscore.ZeroCoef>
-5.4800

> <Gold.Chemscore.Hbond>
0.0000

> <Gold.Chemscore.Metal>
0.0000

> <Gold.Chemscore.Lipo>
96.1840

> <Gold.Chemscore.Internal_Hbond>
0.0000

> <Gold.Chemscore.DEClash>
1.2177

> <Gold.Chemscore.DEInternal>
2.9091

> <Gold.Chemscore.Rot>
1.6444

> <Gold.Chemscore.Internal.Correction>
   9.000000E+99

> <Gold.Chemscore.Hbond.Weighted>
-0.0000

> <Gold.Chemscore.Metal.Weighted>
-0.0000

> <Gold.Chemscore.Lipo.Weighted>
-11.2535

> <Gold.Chemscore.Internal_Hbond.Weighted>
0.0000

> <Gold.Chemscore.DEClash.Weighted>
1.2177

> <Gold.Chemscore.DEInternal.Weighted>
2.9091

> <Gold.Chemscore.Rot.Weighted>
4.2096

> <Gold.Chemscore.Internal.Correction.Weighted>
   9.000000E+99

> <Gold.Protein.RotatedTorsions>
[ 6907 6896 6895 6894 ] final   49.63 input  -60.11 | X-H torsion
[ 7974 7965 7964 7962 ] final   69.54 input  175.53 | X-H torsion
[ 8008 7997 7996 7995 ] final   96.18 input   59.86 | X-H torsion
[ 10167 10162 10161 10158 ] final  104.05 input  -65.29 | X-H torsion
[ 10718 10713 10712 10709 ] final   88.35 input   66.30 | X-H torsion
[ 10763 10752 10751 10750 ] final -142.90 input  -60.55 | X-H torsion
[ 11005 11000 10999 10996 ] final  114.82 input  -57.11 | X-H torsion

> <Gold.Protein.ActiveResidues>
 VAL166  LYS551  ARG553  GLY616  TRP617  ASP618  TYR619  PRO620  LYS621  CYS622 
 ASP623  PHE694  ASN695  SER759  ASP760  ASP761  ALA762  ILE779  LEU786  VAL792 
 PHE793  MET794  SER795  GLU796  ALA797  LYS798  CYS799  TRP800  GLU811  SER814 

> <Gold.Protein.RotatedAtoms>
  152.2929  134.7700  160.0373 H   0  0  0  0  0  0  0  0  0  0  0  0  # atno 6907 bound_to 6896
  151.8240  133.3393  159.3601 H   0  0  0  0  0  0  0  0  0  0  0  0  # atno 6908 bound_to 6896
  150.7238  134.5476  159.5822 H   0  0  0  0  0  0  0  0  0  0  0  0  # atno 6909 bound_to 6896
  145.7891  139.2925  143.1221 H   0  0  0  0  0  0  0  0  0  0  0  0  # atno 7974 bound_to 7965
  156.0768  140.3276  155.7644 H   0  0  0  0  0  0  0  0  0  0  0  0  # atno 8008 bound_to 7997
  155.5217  140.0585  157.2923 H   0  0  0  0  0  0  0  0  0  0  0  0  # atno 8009 bound_to 7997
  154.4560  140.1943  156.0396 H   0  0  0  0  0  0  0  0  0  0  0  0  # atno 8010 bound_to 7997
  139.7210  144.7058  151.0872 H   0  0  0  0  0  0  0  0  0  0  0  0  # atno 10167 bound_to 10162
  157.6948  131.0291  150.3261 H   0  0  0  0  0  0  0  0  0  0  0  0  # atno 10718 bound_to 10713
  154.8491  135.3483  154.6102 H   0  0  0  0  0  0  0  0  0  0  0  0  # atno 10763 bound_to 10752
  153.6711  135.6985  153.5151 H   0  0  0  0  0  0  0  0  0  0  0  0  # atno 10764 bound_to 10752
  153.2742  135.4283  155.0973 H   0  0  0  0  0  0  0  0  0  0  0  0  # atno 10765 bound_to 10752
  139.8991  134.9574  156.6950 H   0  0  0  0  0  0  0  0  0  0  0  0  # atno 11005 bound_to 11000
  145.9995  140.8532  143.0026 LP  0  0  0  0  0  0  0  0  0  0  0  0  # atno 17320 bound_to 7965
  144.6784  140.2332  143.7353 LP  0  0  0  0  0  0  0  0  0  0  0  0  # atno 17321 bound_to 7965
  140.7753  143.5166  150.9587 LP  0  0  0  0  0  0  0  0  0  0  0  0  # atno 17342 bound_to 10162
  139.8853  143.7021  152.3152 LP  0  0  0  0  0  0  0  0  0  0  0  0  # atno 17343 bound_to 10162
  156.3741  130.3869  149.7152 LP  0  0  0  0  0  0  0  0  0  0  0  0  # atno 17370 bound_to 10713
  156.4557  130.7928  151.2948 LP  0  0  0  0  0  0  0  0  0  0  0  0  # atno 17371 bound_to 10713
  140.7195  133.9153  155.8137 LP  0  0  0  0  0  0  0  0  0  0  0  0  # atno 17394 bound_to 11000
  141.0238  134.0852  157.4091 LP  0  0  0  0  0  0  0  0  0  0  0  0  # atno 17395 bound_to 11000

$$$$
