AV-unprocessed.smi:3052|AV-procd|sdf|11636|dock4
  -GOLD-   2272017 33D 1   1.00000     0.00000
 Structure written by MMmdl.
 41 43  0  0  0  0  0  0  0  0  1 V2000
  147.0133  141.2216  153.8889 C   0  0  0  0  0  0  0  0  0  0  0  0
  148.3751  140.6145  154.0823 C   0  0  0  0  0  0  0  0  0  0  0  0
  149.3627  141.3761  154.5292 N   0  0  0  0  0  0  0  0  0  0  0  0
  150.4810  140.5410  154.6753 O   0  0  0  0  0  0  0  0  0  0  0  0
  150.1423  139.2795  154.3010 C   0  0  0  0  0  0  0  0  0  0  0  0
  151.2086  138.2388  154.4078 C   0  0  0  0  0  0  0  0  0  0  0  0
  151.8069  137.8760  155.7437 C   0  0  0  0  0  0  0  0  0  0  0  0
  152.6456  138.5933  154.7086 C   0  0  0  0  0  0  0  0  0  0  0  0
  148.8373  139.2780  153.9027 C   0  0  0  0  0  0  0  0  0  0  0  0
  148.1211  138.1297  153.4833 N   0  0  0  0  0  0  0  0  0  0  0  0
  146.8341  137.8504  153.7369 C   0  0  0  0  0  0  0  0  0  0  0  0
  146.0850  138.5575  154.4095 O   0  0  0  0  0  0  0  0  0  0  0  0
  146.4634  136.7063  153.1386 N   0  0  0  0  0  0  0  0  0  0  0  0
  145.1512  136.0481  153.1554 C   0  0  2  0  0  0  0  0  0  0  0  0
  144.1405  137.1923  152.8964 C   0  0  0  0  0  0  0  0  0  0  0  0
  144.9044  135.4695  154.5753 C   0  0  0  0  0  0  0  0  0  0  0  0
  143.6590  134.8073  154.6743 O   0  0  0  0  0  0  0  0  0  0  0  0
  145.0555  134.9207  152.1122 C   0  0  0  0  0  0  0  0  0  0  0  0
  144.7160  135.1502  150.6581 C   0  0  0  0  0  0  0  0  0  0  0  0
  143.7559  134.3885  151.5514 C   0  0  0  0  0  0  0  0  0  0  0  0
  146.2249  140.4963  154.0893 H   0  0  0  0  0  0  0  0  0  0  0  0
  146.8874  141.5819  152.8679 H   0  0  0  0  0  0  0  0  0  0  0  0
  146.8537  142.0667  154.5594 H   0  0  0  0  0  0  0  0  0  0  0  0
  151.0334  137.4281  153.7035 H   0  0  0  0  0  0  0  0  0  0  0  0
  151.4879  138.4476  156.6131 H   0  0  0  0  0  0  0  0  0  0  0  0
  152.0232  136.8259  155.9288 H   0  0  0  0  0  0  0  0  0  0  0  0
  153.4202  138.0197  154.2041 H   0  0  0  0  0  0  0  0  0  0  0  0
  152.8922  139.6340  154.9088 H   0  0  0  0  0  0  0  0  0  0  0  0
  148.5937  137.5292  152.8239 H   0  0  0  0  0  0  0  0  0  0  0  0
  147.1755  136.2263  152.6082 H   0  0  0  0  0  0  0  0  0  0  0  0
  143.1059  136.8510  152.9047 H   0  0  0  0  0  0  0  0  0  0  0  0
  144.3170  137.6864  151.9411 H   0  0  0  0  0  0  0  0  0  0  0  0
  144.2186  137.9615  153.6660 H   0  0  0  0  0  0  0  0  0  0  0  0
  145.6821  134.7577  154.8533 H   0  0  0  0  0  0  0  0  0  0  0  0
  144.9245  136.2640  155.3225 H   0  0  0  0  0  0  0  0  0  0  0  0
  143.8152  133.8758  154.7015 H   0  0  0  0  0  0  0  0  0  0  0  0
  145.7988  134.1441  152.2803 H   0  0  0  0  0  0  0  0  0  0  0  0
  144.4186  136.1457  150.3380 H   0  0  0  0  0  0  0  0  0  0  0  0
  145.2768  134.5784  149.9216 H   0  0  0  0  0  0  0  0  0  0  0  0
  143.6822  133.3131  151.4036 H   0  0  0  0  0  0  0  0  0  0  0  0
  142.8224  134.8798  151.8130 H   0  0  0  0  0  0  0  0  0  0  0  0
  1  2  1  0  0  0  0
  1 21  1  0  0  0  0
  1 22  1  0  0  0  0
  1 23  1  0  0  0  0
  2  9  1  0  0  0  0
  2  3  2  0  0  0  0
  3  4  1  0  0  0  0
  4  5  1  0  0  0  0
  5  6  1  0  0  0  0
  5  9  2  0  0  0  0
  6  8  1  0  0  0  0
  6  7  1  0  0  0  0
  6 24  1  0  0  0  0
  7  8  1  0  0  0  0
  7 25  1  0  0  0  0
  7 26  1  0  0  0  0
  8 27  1  0  0  0  0
  8 28  1  0  0  0  0
  9 10  1  0  0  0  0
 10 11  1  0  0  0  0
 10 29  1  0  0  0  0
 11 12  2  0  0  0  0
 11 13  1  0  0  0  0
 13 14  1  0  0  0  0
 13 30  1  0  0  0  0
 14 15  1  0  0  0  0
 14 16  1  0  0  0  0
 14 18  1  0  0  0  0
 15 31  1  0  0  0  0
 15 32  1  0  0  0  0
 15 33  1  0  0  0  0
 16 17  1  0  0  0  0
 16 34  1  0  0  0  0
 16 35  1  0  0  0  0
 17 36  1  0  0  0  0
 18 20  1  0  0  0  0
 18 19  1  0  0  0  0
 18 37  1  0  0  0  0
 19 20  1  0  0  0  0
 19 38  1  0  0  0  0
 19 39  1  0  0  0  0
 20 40  1  0  0  0  0
 20 41  1  0  0  0  0
M  END
> <s_m_source_file>
AV-unprocessed.smi

> <i_m_source_file_index>
3052

> <i_lp_mmshare_version>
43012

> <i_f3d_flags>
0

> <s_epik_input>
W0NIM11jMW5vYyhbQ0hdMltDSDJdW0NIMl0yKWMxW05IXUMoPU8pW05IXVtDQEBdKFtDSDNdKShbQ0gyXVtPSF0pW0NIXTNbQ0gyXVtDSDJdMw==

> <s_epik_cmdline>
J2VwaWtfcHl0aG9uJywgJy1waCcsICc3LjAnLCAnLXRuJywgJzgnLCAnLW1hJywgJzIwMCcsICctbWV0YWxfYmluZGluZycsICctaW1hZScsICc8aW5maWxlLm1hZT4nLCAnLW9tYWUnLCAnPG91dGZpbGUubWFlPic=

> <r_lp_tautomer_probability>
1

> <r_epik_Ionization_Penalty>
3.5887e-05

> <r_epik_Ionization_Penalty_Charging>
0

> <r_epik_Ionization_Penalty_Neutral>
3.5887e-05

> <r_epik_State_Penalty>
-0

> <r_epik_Charging_Adjusted_Penalty>
0

> <i_epik_Tot_Q>
0

> <i_epik_Tot_abs_Q>
0

> <r_epik_Metal_State_Penalty>
-0

> <b_epik_Metal_Only>
0

> <s_lp_Force_Field>
OPLS_2005

> <r_lp_Energy>
28.1978

> <b_lp_Chiralities_Consistent>
1

> <s_lp_Variant>
AV-unprocessed.smi:3052-2

> <Gold.Version>
5.8.1

> <Gold.Id.Protein>
6NUR|6NUR_protein|mol2

> <Gold.PLP.Fitness>
41.3097

> <Gold.PLP.PLP>
-32.5207

> <Gold.PLP.part.hbond>
-4.2810

> <Gold.PLP.part.metal>
0.0000

> <Gold.PLP.part.buried>
-3.6628

> <Gold.PLP.part.nonpolar>
-25.3229

> <Gold.PLP.part.repulsive>
0.3793

> <Gold.PLP.ligand.clash>
0.0000

> <Gold.PLP.ligand.torsion>
1.2749

> <Gold.PLP.Chemscore.Hbond>
3.1002

> <Gold.PLP.Chemscore.CHOScore>
0.0000

> <Gold.PLP.Chemscore.Metal>
0.0000

> <Gold.Chemscore.Hbonds>
donor molecule, donor type, donor heavy atom, donor atom, acceptor molecule, acceptor atom, score
      L1  H    10    29       P1  7948  1.00
      L1  H    13    30       P1  7948  0.99
      L1  H    17    36       P1 10957  0.05
      P1  H  7989  7998       L1     4  0.99

> <Gold.PLP.Chemscore.Internal.Correction>
2.0383

> <Gold.Rescore>
     Score         DG    S(hbond)    S(metal)    S(lipo)     H(rot)  DE(clash)    DE(int)     intcor
     13.16     -16.96       2.54        0.00      72.79       2.16       0.09       3.72       ----

> <Gold.Chemscore.Fitness>
13.1553

> <Gold.Chemscore.DG>
-16.9645

> <Gold.Chemscore.ZeroCoef>
-5.4800

> <Gold.Chemscore.Hbond>
2.5418

> <Gold.Chemscore.Metal>
0.0000

> <Gold.Chemscore.Lipo>
72.7906

> <Gold.Chemscore.Internal_Hbond>
0.0000

> <Gold.Chemscore.DEClash>
0.0917

> <Gold.Chemscore.DEInternal>
3.7175

> <Gold.Chemscore.Rot>
2.1569

> <Gold.Chemscore.Internal.Correction>
   9.000000E+99

> <Gold.Chemscore.Hbonds>
donor molecule, donor type, donor heavy atom, donor atom, acceptor molecule, acceptor atom, score
      L1  H    10    29       P1  7948  0.99
      L1  H    13    30       P1  7948  0.93
      L1  H    17    36       P1 10957  0.09
      P1  H  7989  7998       L1     4  0.18

> <Gold.Chemscore.Hbond.Weighted>
-8.4898

> <Gold.Chemscore.Metal.Weighted>
-0.0000

> <Gold.Chemscore.Lipo.Weighted>
-8.5165

> <Gold.Chemscore.Internal_Hbond.Weighted>
0.0000

> <Gold.Chemscore.DEClash.Weighted>
0.0917

> <Gold.Chemscore.DEInternal.Weighted>
3.7175

> <Gold.Chemscore.Rot.Weighted>
5.5218

> <Gold.Chemscore.Internal.Correction.Weighted>
   9.000000E+99

> <Gold.Protein.RotatedTorsions>
[ 6907 6896 6895 6894 ] final   50.79 input  -60.11 | X-H torsion
[ 7974 7965 7964 7962 ] final -172.15 input  175.53 | X-H torsion
[ 8008 7997 7996 7995 ] final  -25.43 input   59.86 | X-H torsion
[ 10167 10162 10161 10158 ] final   98.80 input  -65.29 | X-H torsion
[ 10718 10713 10712 10709 ] final   11.19 input   66.30 | X-H torsion
[ 10763 10752 10751 10750 ] final  -88.00 input  -60.55 | X-H torsion
[ 11005 11000 10999 10996 ] final   28.60 input  -57.11 | X-H torsion

> <Gold.Protein.ActiveResidues>
 VAL166  LYS551  ARG553  GLY616  TRP617  ASP618  TYR619  PRO620  LYS621  CYS622 
 ASP623  PHE694  ASN695  SER759  ASP760  ASP761  ALA762  ILE779  LEU786  VAL792 
 PHE793  MET794  SER795  GLU796  ALA797  LYS798  CYS799  TRP800  GLU811  SER814 

> <Gold.Protein.RotatedAtoms>
  152.3056  134.7559  160.0347 H   0  0  0  0  0  0  0  0  0  0  0  0  # atno 6907 bound_to 6896
  151.8057  133.3370  159.3548 H   0  0  0  0  0  0  0  0  0  0  0  0  # atno 6908 bound_to 6896
  150.7295  134.5642  159.5902 H   0  0  0  0  0  0  0  0  0  0  0  0  # atno 6909 bound_to 6896
  144.7149  140.1816  143.6357 H   0  0  0  0  0  0  0  0  0  0  0  0  # atno 7974 bound_to 7965
  154.4476  140.1926  156.0619 H   0  0  0  0  0  0  0  0  0  0  0  0  # atno 8008 bound_to 7997
  156.0576  140.3301  155.7397 H   0  0  0  0  0  0  0  0  0  0  0  0  # atno 8009 bound_to 7997
  155.5461  140.0590  157.2851 H   0  0  0  0  0  0  0  0  0  0  0  0  # atno 8010 bound_to 7997
  139.7675  144.6934  151.0203 H   0  0  0  0  0  0  0  0  0  0  0  0  # atno 10167 bound_to 10162
  156.9919  130.6046  149.5687 H   0  0  0  0  0  0  0  0  0  0  0  0  # atno 10718 bound_to 10713
  154.6397  135.5393  153.7775 H   0  0  0  0  0  0  0  0  0  0  0  0  # atno 10763 bound_to 10752
  153.0327  135.6456  154.1178 H   0  0  0  0  0  0  0  0  0  0  0  0  # atno 10764 bound_to 10752
  154.1103  135.2927  155.3212 H   0  0  0  0  0  0  0  0  0  0  0  0  # atno 10765 bound_to 10752
  140.3139  134.2619  155.7729 H   0  0  0  0  0  0  0  0  0  0  0  0  # atno 11005 bound_to 11000
  145.8851  139.2344  143.1582 LP  0  0  0  0  0  0  0  0  0  0  0  0  # atno 17320 bound_to 7965
  145.9957  140.8564  143.0044 LP  0  0  0  0  0  0  0  0  0  0  0  0  # atno 17321 bound_to 7965
  140.7812  143.4626  151.0256 LP  0  0  0  0  0  0  0  0  0  0  0  0  # atno 17342 bound_to 10162
  139.8311  143.7690  152.3180 LP  0  0  0  0  0  0  0  0  0  0  0  0  # atno 17343 bound_to 10162
  156.0204  130.5298  150.8258 LP  0  0  0  0  0  0  0  0  0  0  0  0  # atno 17370 bound_to 10713
  157.5452  131.0942  150.9772 LP  0  0  0  0  0  0  0  0  0  0  0  0  # atno 17371 bound_to 10713
  141.2102  133.7726  156.9948 LP  0  0  0  0  0  0  0  0  0  0  0  0  # atno 17394 bound_to 11000
  140.1000  134.9541  157.1909 LP  0  0  0  0  0  0  0  0  0  0  0  0  # atno 17395 bound_to 11000

$$$$
