AV-unprocessed.smi:2822|AV-procd|sdf|10872|dock6
  -GOLD-   2272015313D 1   1.00000     0.00000
 Structure written by MMmdl.
 40 42  0  0  0  0  0  0  0  0  2 V2000
  151.7311  144.4028  161.0626 Cl  0  0  0  0  0  0  0  0  0  0  0  0
  152.6250  142.9224  161.0384 C   0  0  0  0  0  0  0  0  0  0  0  0
  153.3971  142.5533  162.1591 C   0  0  0  0  0  0  0  0  0  0  0  0
  154.1239  141.4179  162.2207 N   0  0  0  0  0  0  0  0  0  0  0  0
  154.1029  140.6001  161.1480 C   0  0  0  0  0  0  0  0  0  0  0  0
  153.3661  140.8731  159.9783 C   0  0  0  0  0  0  0  0  0  0  0  0
  152.6055  142.0646  159.9144 C   0  0  0  0  0  0  0  0  0  0  0  0
  151.8433  142.4142  158.7889 N   0  0  0  0  0  0  0  0  0  0  0  0
  151.6175  141.4524  157.7208 C   0  0  0  0  0  0  0  0  0  0  0  0
  150.5005  141.9095  156.7722 C   0  0  2  0  0  0  0  0  0  0  0  0
  149.1359  141.9531  157.4842 C   0  0  0  0  0  0  0  0  0  0  0  0
  148.0584  142.3125  156.5290 N   0  3  2  0  0  0  0  0  0  0  0  0
  146.7151  142.4318  157.1541 C   0  0  0  0  0  0  0  0  0  0  0  0
  146.0990  141.0576  157.4793 C   0  0  0  0  0  0  0  0  0  0  0  0
  146.0670  140.1586  156.2358 C   0  0  0  0  0  0  0  0  0  0  0  0
  147.4685  140.0483  155.6186 C   0  0  0  0  0  0  0  0  0  0  0  0
  148.0571  141.4448  155.3189 C   0  0  2  0  0  0  0  0  0  0  0  0
  149.4726  141.3758  154.7120 C   0  0  0  0  0  0  0  0  0  0  0  0
  150.4145  140.9765  155.7001 O   0  0  0  0  0  0  0  0  0  0  0  0
  153.4328  143.1884  163.0321 H   0  0  0  0  0  0  0  0  0  0  0  0
  154.6912  139.6976  161.2234 H   0  0  0  0  0  0  0  0  0  0  0  0
  153.3956  140.1686  159.1607 H   0  0  0  0  0  0  0  0  0  0  0  0
  151.6920  143.3938  158.5934 H   0  0  0  0  0  0  0  0  0  0  0  0
  152.5417  141.2924  157.1639 H   0  0  0  0  0  0  0  0  0  0  0  0
  151.3404  140.4991  158.1723 H   0  0  0  0  0  0  0  0  0  0  0  0
  150.7419  142.9013  156.3843 H   0  0  0  0  0  0  0  0  0  0  0  0
  148.9292  140.9872  157.9457 H   0  0  0  0  0  0  0  0  0  0  0  0
  149.1629  142.6882  158.2897 H   0  0  0  0  0  0  0  0  0  0  0  0
  146.7749  143.0465  158.0530 H   0  0  0  0  0  0  0  0  0  0  0  0
  146.0626  142.9646  156.4614 H   0  0  0  0  0  0  0  0  0  0  0  0
  146.6656  140.5691  158.2724 H   0  0  0  0  0  0  0  0  0  0  0  0
  145.0883  141.1883  157.8666 H   0  0  0  0  0  0  0  0  0  0  0  0
  145.6915  139.1688  156.4969 H   0  0  0  0  0  0  0  0  0  0  0  0
  145.3735  140.5719  155.5023 H   0  0  0  0  0  0  0  0  0  0  0  0
  148.1235  139.4953  156.2929 H   0  0  0  0  0  0  0  0  0  0  0  0
  147.4157  139.4627  154.7000 H   0  0  0  0  0  0  0  0  0  0  0  0
  147.4082  141.9217  154.5827 H   0  0  0  0  0  0  0  0  0  0  0  0
  149.4996  140.6651  153.8854 H   0  0  0  0  0  0  0  0  0  0  0  0
  149.7618  142.3439  154.2993 H   0  0  0  0  0  0  0  0  0  0  0  0
  148.2937  143.2394  156.2037 H   0  0  0  0  0  0  0  0  0  0  0  0
  1  2  1  0  0  0  0
  2  7  1  0  0  0  0
  2  3  2  0  0  0  0
  3  4  1  0  0  0  0
  3 20  1  0  0  0  0
  4  5  2  0  0  0  0
  5  6  1  0  0  0  0
  5 21  1  0  0  0  0
  6  7  2  0  0  0  0
  6 22  1  0  0  0  0
  7  8  1  0  0  0  0
  8  9  1  0  0  0  0
  8 23  1  0  0  0  0
  9 10  1  0  0  0  0
  9 24  1  0  0  0  0
  9 25  1  0  0  0  0
 10 19  1  0  0  0  0
 10 11  1  0  0  0  0
 10 26  1  0  0  0  0
 11 12  1  0  0  0  0
 11 27  1  0  0  0  0
 11 28  1  0  0  0  0
 12 17  1  0  0  0  0
 12 13  1  0  0  0  0
 12 40  1  0  0  0  0
 13 14  1  0  0  0  0
 13 29  1  0  0  0  0
 13 30  1  0  0  0  0
 14 15  1  0  0  0  0
 14 31  1  0  0  0  0
 14 32  1  0  0  0  0
 15 16  1  0  0  0  0
 15 33  1  0  0  0  0
 15 34  1  0  0  0  0
 16 17  1  0  0  0  0
 16 35  1  0  0  0  0
 16 36  1  0  0  0  0
 17 18  1  0  0  0  0
 17 37  1  0  0  0  0
 18 19  1  0  0  0  0
 18 38  1  0  0  0  0
 18 39  1  0  0  0  0
M  CHG  1  12   1
M  END
> <s_m_source_file>
AV-unprocessed.smi

> <i_m_source_file_index>
2822

> <i_lp_mmshare_version>
43012

> <i_f3d_flags>
0

> <s_epik_input>
Q2xjMVtjSF1uW2NIXVtjSF1jMVtOSF1bQ0gyXVtDQEhdKFtDSDJdMilPW0NIMl1bQ0BASF0oTjIzKVtDSDJdW0NIMl1bQ0gyXVtDSDJdMw==

> <s_epik_cmdline>
J2VwaWtfcHl0aG9uJywgJy1waCcsICc3LjAnLCAnLXRuJywgJzgnLCAnLW1hJywgJzIwMCcsICctbWV0YWxfYmluZGluZycsICctaW1hZScsICc8aW5maWxlLm1hZT4nLCAnLW9tYWUnLCAnPG91dGZpbGUubWFlPic=

> <r_lp_tautomer_probability>
0.999999

> <r_epik_Ionization_Penalty>
0.88937

> <r_epik_Ionization_Penalty_Charging>
0.0803403

> <r_epik_Ionization_Penalty_Neutral>
0.80903

> <r_epik_State_Penalty>
0.931884

> <r_epik_Charging_Adjusted_Penalty>
1.01222

> <i_epik_Tot_Q>
1

> <i_epik_Tot_abs_Q>
1

> <r_epik_Metal_State_Penalty>
0.0782275

> <b_epik_Metal_Only>
0

> <s_lp_Force_Field>
OPLS_2005

> <r_lp_Energy>
31.6827

> <b_lp_Chiralities_Consistent>
1

> <s_lp_Variant>
AV-unprocessed.smi:2822-13

> <Gold.Version>
5.8.1

> <Gold.Id.Protein>
6NUR|6NUR_protein|mol2

> <Gold.PLP.Fitness>
41.9287

> <Gold.PLP.PLP>
-36.1706

> <Gold.PLP.part.hbond>
-1.8898

> <Gold.PLP.part.metal>
0.0000

> <Gold.PLP.part.buried>
-5.0128

> <Gold.PLP.part.nonpolar>
-28.9939

> <Gold.PLP.part.repulsive>
0.1376

> <Gold.PLP.ligand.clash>
0.0000

> <Gold.PLP.ligand.torsion>
0.1217

> <Gold.PLP.Chemscore.Hbond>
2.0000

> <Gold.PLP.Chemscore.CHOScore>
0.0000

> <Gold.PLP.Chemscore.Metal>
0.0000

> <Gold.Chemscore.Hbonds>
donor molecule, donor type, donor heavy atom, donor atom, acceptor molecule, acceptor atom, score
      L1  H    12    40       P1  8028  2.00

> <Gold.PLP.Chemscore.Internal.Correction>
0.0015

> <Gold.Rescore>
     Score         DG    S(hbond)    S(metal)    S(lipo)     H(rot)  DE(clash)    DE(int)     intcor
     17.15     -17.36       0.96        0.00      99.82       1.17       0.10       0.11       ----

> <Gold.Chemscore.Fitness>
17.1525

> <Gold.Chemscore.DG>
-17.3632

> <Gold.Chemscore.ZeroCoef>
-5.4800

> <Gold.Chemscore.Hbond>
0.9573

> <Gold.Chemscore.Metal>
0.0000

> <Gold.Chemscore.Lipo>
99.8209

> <Gold.Chemscore.Internal_Hbond>
0.0000

> <Gold.Chemscore.DEClash>
0.0964

> <Gold.Chemscore.DEInternal>
0.1144

> <Gold.Chemscore.Rot>
1.1693

> <Gold.Chemscore.Internal.Correction>
   9.000000E+99

> <Gold.Chemscore.Hbonds>
donor molecule, donor type, donor heavy atom, donor atom, acceptor molecule, acceptor atom, score
      L1  H    12    40       P1  8028  0.65

> <Gold.Chemscore.Hbond.Weighted>
-3.1975

> <Gold.Chemscore.Metal.Weighted>
-0.0000

> <Gold.Chemscore.Lipo.Weighted>
-11.6790

> <Gold.Chemscore.Internal_Hbond.Weighted>
0.0000

> <Gold.Chemscore.DEClash.Weighted>
0.0964

> <Gold.Chemscore.DEInternal.Weighted>
0.1144

> <Gold.Chemscore.Rot.Weighted>
2.9934

> <Gold.Chemscore.Internal.Correction.Weighted>
   9.000000E+99

> <Gold.Protein.RotatedTorsions>
[ 6907 6896 6895 6894 ] final   15.45 input  -60.11 | X-H torsion
[ 7974 7965 7964 7962 ] final -151.41 input  175.53 | X-H torsion
[ 8008 7997 7996 7995 ] final  -73.02 input   59.86 | X-H torsion
[ 10167 10162 10161 10158 ] final  -14.38 input  -65.29 | X-H torsion
[ 10718 10713 10712 10709 ] final  -13.13 input   66.30 | X-H torsion
[ 10763 10752 10751 10750 ] final   22.47 input  -60.55 | X-H torsion
[ 11005 11000 10999 10996 ] final -109.04 input  -57.11 | X-H torsion

> <Gold.Protein.ActiveResidues>
 VAL166  LYS551  ARG553  GLY616  TRP617  ASP618  TYR619  PRO620  LYS621  CYS622 
 ASP623  PHE694  ASN695  SER759  ASP760  ASP761  ALA762  ILE779  LEU786  VAL792 
 PHE793  MET794  SER795  GLU796  ALA797  LYS798  CYS799  TRP800  GLU811  SER814 

> <Gold.Protein.RotatedAtoms>
  151.8183  135.0659  160.0421 H   0  0  0  0  0  0  0  0  0  0  0  0  # atno 6907 bound_to 6896
  152.2970  133.5612  159.5602 H   0  0  0  0  0  0  0  0  0  0  0  0  # atno 6908 bound_to 6896
  150.7255  134.0263  159.3760 H   0  0  0  0  0  0  0  0  0  0  0  0  # atno 6909 bound_to 6896
  144.7851  140.4801  143.5812 H   0  0  0  0  0  0  0  0  0  0  0  0  # atno 7974 bound_to 7965
  154.5213  140.0786  156.8177 H   0  0  0  0  0  0  0  0  0  0  0  0  # atno 8008 bound_to 7997
  155.3570  140.3416  155.4222 H   0  0  0  0  0  0  0  0  0  0  0  0  # atno 8009 bound_to 7997
  156.1684  140.1611  156.8477 H   0  0  0  0  0  0  0  0  0  0  0  0  # atno 8010 bound_to 7997
  140.7200  143.5328  150.9500 H   0  0  0  0  0  0  0  0  0  0  0  0  # atno 10167 bound_to 10162
  156.6346  130.4911  149.6116 H   0  0  0  0  0  0  0  0  0  0  0  0  # atno 10718 bound_to 10713
  153.0913  135.6647  153.9849 H   0  0  0  0  0  0  0  0  0  0  0  0  # atno 10763 bound_to 10752
  153.9445  135.2990  155.3442 H   0  0  0  0  0  0  0  0  0  0  0  0  # atno 10764 bound_to 10752
  154.7328  135.5115  153.9064 H   0  0  0  0  0  0  0  0  0  0  0  0  # atno 10765 bound_to 10752
  141.0869  133.9123  157.2165 H   0  0  0  0  0  0  0  0  0  0  0  0  # atno 11005 bound_to 11000
  145.5943  139.1498  143.3165 LP  0  0  0  0  0  0  0  0  0  0  0  0  # atno 17320 bound_to 7965
  146.2079  140.6067  142.9073 LP  0  0  0  0  0  0  0  0  0  0  0  0  # atno 17321 bound_to 7965
  139.9048  143.6791  152.3125 LP  0  0  0  0  0  0  0  0  0  0  0  0  # atno 17342 bound_to 10162
  139.7154  144.7613  151.1043 LP  0  0  0  0  0  0  0  0  0  0  0  0  # atno 17343 bound_to 10162
  156.2207  130.6735  151.1365 LP  0  0  0  0  0  0  0  0  0  0  0  0  # atno 17370 bound_to 10713
  157.7189  131.0693  150.6215 LP  0  0  0  0  0  0  0  0  0  0  0  0  # atno 17371 bound_to 10713
  139.9688  135.0134  156.9459 LP  0  0  0  0  0  0  0  0  0  0  0  0  # atno 17394 bound_to 11000
  140.5342  134.0783  155.7324 LP  0  0  0  0  0  0  0  0  0  0  0  0  # atno 17395 bound_to 11000

$$$$
