AV-unprocessed.smi:153|AV-procd|sdf|1265|dock6
  -GOLD-   2262018523D 1   1.00000     0.00000
 Structure written by MMmdl.
 59 62  0  0  0  0  0  0  0  0  1 V2000
  152.1616  140.7279  158.2713 C   0  0  0  0  0  0  0  0  0  0  0  0
  151.0637  141.7620  158.5692 C   0  0  1  0  0  0  0  0  0  0  0  0
  151.6149  142.5980  159.5892 O   0  0  0  0  0  0  0  0  0  0  0  0
  151.4382  143.9683  159.2672 C   0  0  0  0  0  0  0  0  0  0  0  0
  151.4341  143.9840  157.7457 C   0  0  0  0  0  0  0  0  0  0  0  0
  150.6689  142.7134  157.4047 C   0  0  2  0  0  0  0  0  0  0  0  0
  149.2881  143.0088  157.5319 O   0  0  0  0  0  0  0  0  0  0  0  0
  150.9229  142.2423  155.9457 C   0  0  0  0  0  0  0  0  0  0  0  0
  150.1865  141.0544  155.5238 N   0  0  0  0  0  0  0  0  0  0  0  0
  150.4967  139.7335  155.7645 C   0  0  0  0  0  0  0  0  0  0  0  0
  149.6492  138.8657  155.2860 N   0  0  0  0  0  0  0  0  0  0  0  0
  148.6609  139.6374  154.6868 C   0  0  0  0  0  0  0  0  0  0  0  0
  147.4523  139.3475  153.9842 C   0  0  0  0  0  0  0  0  0  0  0  0
  147.0152  138.0880  153.7020 N   0  0  0  0  0  0  0  0  0  0  0  0
  146.9392  137.1231  154.7967 C   0  0  0  0  0  0  0  0  0  0  0  0
  146.0733  137.9198  152.5949 C   0  0  0  0  0  0  0  0  0  0  0  0
  144.7963  137.1417  152.9874 C   0  0  1  0  0  0  0  0  0  0  0  0
  143.7735  138.0240  153.4055 O   0  0  0  0  0  0  0  0  0  0  0  0
  144.2479  136.2451  151.8542 C   0  0  0  0  0  0  0  0  0  0  0  0
  145.1457  135.2068  151.3380 N   0  0  0  0  0  0  0  0  0  0  0  0
  144.4397  134.1294  150.6472 C   0  0  0  0  0  0  0  0  0  0  0  0
  145.4035  133.0411  150.1428 C   0  0  0  0  0  0  0  0  0  0  0  0
  146.1659  132.5320  151.2319 O   0  0  0  0  0  0  0  0  0  0  0  0
  146.9075  133.5457  151.9016 C   0  0  0  0  0  0  0  0  0  0  0  0
  145.9458  134.6312  152.4141 C   0  0  0  0  0  0  0  0  0  0  0  0
  146.7092  140.4107  153.5734 N   0  0  0  0  0  0  0  0  0  0  0  0
  147.1172  141.6602  153.8071 C   0  0  0  0  0  0  0  0  0  0  0  0
  148.2226  142.0727  154.4266 N   0  0  0  0  0  0  0  0  0  0  0  0
  148.9730  141.0177  154.8550 C   0  0  0  0  0  0  0  0  0  0  0  0
  151.8013  139.9271  157.6295 H   0  0  0  0  0  0  0  0  0  0  0  0
  152.5019  140.2558  159.1930 H   0  0  0  0  0  0  0  0  0  0  0  0
  153.0287  141.1882  157.7971 H   0  0  0  0  0  0  0  0  0  0  0  0
  150.1897  141.2419  158.9649 H   0  0  0  0  0  0  0  0  0  0  0  0
  150.4824  144.3126  159.6644 H   0  0  0  0  0  0  0  0  0  0  0  0
  152.2287  144.5858  159.6941 H   0  0  0  0  0  0  0  0  0  0  0  0
  150.9928  144.8898  157.3278 H   0  0  0  0  0  0  0  0  0  0  0  0
  152.4611  143.9158  157.3841 H   0  0  0  0  0  0  0  0  0  0  0  0
  148.9851  143.3819  156.7184 H   0  0  0  0  0  0  0  0  0  0  0  0
  150.6846  143.0457  155.2476 H   0  0  0  0  0  0  0  0  0  0  0  0
  151.9872  142.0467  155.8127 H   0  0  0  0  0  0  0  0  0  0  0  0
  151.3730  139.4176  156.3096 H   0  0  0  0  0  0  0  0  0  0  0  0
  147.8802  137.0847  155.3470 H   0  0  0  0  0  0  0  0  0  0  0  0
  146.7413  136.1213  154.4154 H   0  0  0  0  0  0  0  0  0  0  0  0
  146.1403  137.3843  155.4915 H   0  0  0  0  0  0  0  0  0  0  0  0
  145.8306  138.8638  152.1122 H   0  0  0  0  0  0  0  0  0  0  0  0
  146.5990  137.3490  151.8285 H   0  0  0  0  0  0  0  0  0  0  0  0
  145.0124  136.4911  153.8355 H   0  0  0  0  0  0  0  0  0  0  0  0
  143.8025  138.7940  152.8586 H   0  0  0  0  0  0  0  0  0  0  0  0
  143.3674  135.7469  152.2623 H   0  0  0  0  0  0  0  0  0  0  0  0
  143.8734  136.8620  151.0356 H   0  0  0  0  0  0  0  0  0  0  0  0
  143.7035  133.6802  151.3155 H   0  0  0  0  0  0  0  0  0  0  0  0
  143.8907  134.5221  149.7926 H   0  0  0  0  0  0  0  0  0  0  0  0
  144.8467  132.2235  149.6848 H   0  0  0  0  0  0  0  0  0  0  0  0
  146.0709  133.4424  149.3784 H   0  0  0  0  0  0  0  0  0  0  0  0
  147.4527  133.0989  152.7330 H   0  0  0  0  0  0  0  0  0  0  0  0
  147.6484  133.9736  151.2242 H   0  0  0  0  0  0  0  0  0  0  0  0
  146.5219  135.4148  152.9077 H   0  0  0  0  0  0  0  0  0  0  0  0
  145.2905  134.2016  153.1735 H   0  0  0  0  0  0  0  0  0  0  0  0
  146.4670  142.4406  153.4401 H   0  0  0  0  0  0  0  0  0  0  0  0
  1  2  1  0  0  0  0
  1 30  1  0  0  0  0
  1 31  1  0  0  0  0
  1 32  1  0  0  0  0
  2  6  1  0  0  0  0
  2  3  1  0  0  0  0
  2 33  1  0  0  0  0
  3  4  1  0  0  0  0
  4  5  1  0  0  0  0
  4 34  1  0  0  0  0
  4 35  1  0  0  0  0
  5  6  1  0  0  0  0
  5 36  1  0  0  0  0
  5 37  1  0  0  0  0
  6  7  1  0  0  0  0
  6  8  1  0  0  0  0
  7 38  1  0  0  0  0
  8  9  1  0  0  0  0
  8 39  1  0  0  0  0
  8 40  1  0  0  0  0
  9 29  1  0  0  0  0
  9 10  1  0  0  0  0
 10 11  2  0  0  0  0
 10 41  1  0  0  0  0
 11 12  1  0  0  0  0
 12 29  2  0  0  0  0
 12 13  1  0  0  0  0
 13 14  1  0  0  0  0
 13 26  2  0  0  0  0
 14 15  1  0  0  0  0
 14 16  1  0  0  0  0
 15 42  1  0  0  0  0
 15 43  1  0  0  0  0
 15 44  1  0  0  0  0
 16 17  1  0  0  0  0
 16 45  1  0  0  0  0
 16 46  1  0  0  0  0
 17 18  1  0  0  0  0
 17 19  1  0  0  0  0
 17 47  1  0  0  0  0
 18 48  1  0  0  0  0
 19 20  1  0  0  0  0
 19 49  1  0  0  0  0
 19 50  1  0  0  0  0
 20 25  1  0  0  0  0
 20 21  1  0  0  0  0
 21 22  1  0  0  0  0
 21 51  1  0  0  0  0
 21 52  1  0  0  0  0
 22 23  1  0  0  0  0
 22 53  1  0  0  0  0
 22 54  1  0  0  0  0
 23 24  1  0  0  0  0
 24 25  1  0  0  0  0
 24 55  1  0  0  0  0
 24 56  1  0  0  0  0
 25 57  1  0  0  0  0
 25 58  1  0  0  0  0
 26 27  1  0  0  0  0
 27 28  2  0  0  0  0
 27 59  1  0  0  0  0
 28 29  1  0  0  0  0
M  END
> <s_m_source_file>
AV-unprocessed.smi

> <i_m_source_file_index>
153

> <i_lp_mmshare_version>
43012

> <i_f3d_flags>
0

> <s_epik_input>
W0NIMl0xW0NIMl1PW0NAQEhdKFtDSDNdKVtDQEBdMShbT0hdKVtDSDJdbihbY0hdbjIpYyhjMjMpbltjSF1uYzNOKFtDSDNdKVtDSDJdW0NASF0oW09IXSlbQ0gyXU40W0NIMl1bQ0gyXU9bQ0gyXVtDSDJdNA==

> <s_epik_cmdline>
J2VwaWtfcHl0aG9uJywgJy1waCcsICc3LjAnLCAnLXRuJywgJzgnLCAnLW1hJywgJzIwMCcsICctbWV0YWxfYmluZGluZycsICctaW1hZScsICc8aW5maWxlLm1hZT4nLCAnLW9tYWUnLCAnPG91dGZpbGUubWFlPic=

> <r_lp_tautomer_probability>
1

> <r_epik_Ionization_Penalty>
0.424123

> <r_epik_Ionization_Penalty_Charging>
0

> <r_epik_Ionization_Penalty_Neutral>
0.424123

> <r_epik_State_Penalty>
0.421495

> <r_epik_Charging_Adjusted_Penalty>
0.421495

> <i_epik_Tot_Q>
0

> <i_epik_Tot_abs_Q>
0

> <r_epik_Metal_State_Penalty>
0.421223

> <b_epik_Metal_Only>
0

> <s_lp_Force_Field>
OPLS_2005

> <r_lp_Energy>
59.9447

> <b_lp_Chiralities_Consistent>
1

> <s_lp_Variant>
AV-unprocessed.smi:153-16

> <Gold.Version>
5.8.1

> <Gold.Id.Protein>
6NUR|6NUR_protein|mol2

> <Gold.PLP.Fitness>
47.1733

> <Gold.PLP.PLP>
-43.9803

> <Gold.PLP.part.hbond>
-2.3811

> <Gold.PLP.part.metal>
0.0000

> <Gold.PLP.part.buried>
-8.1702

> <Gold.PLP.part.nonpolar>
-35.3342

> <Gold.PLP.part.repulsive>
1.6195

> <Gold.PLP.ligand.clash>
0.0000

> <Gold.PLP.ligand.torsion>
1.7465

> <Gold.PLP.Chemscore.Hbond>
2.0000

> <Gold.PLP.Chemscore.CHOScore>
0.0000

> <Gold.PLP.Chemscore.Metal>
0.0000

> <Gold.Chemscore.Hbonds>
donor molecule, donor type, donor heavy atom, donor atom, acceptor molecule, acceptor atom, score
      L1  H     7    38       P1  8028  0.98
      L1  H    18    48       P1 10175  1.00

> <Gold.PLP.Chemscore.Internal.Correction>
0.6861

> <Gold.Rescore>
     Score         DG    S(hbond)    S(metal)    S(lipo)     H(rot)  DE(clash)    DE(int)     intcor
     11.23     -14.18       1.87        0.00      97.92       3.52       1.19       1.76       ----

> <Gold.Chemscore.Fitness>
11.2318

> <Gold.Chemscore.DG>
-14.1824

> <Gold.Chemscore.ZeroCoef>
-5.4800

> <Gold.Chemscore.Hbond>
1.8712

> <Gold.Chemscore.Metal>
0.0000

> <Gold.Chemscore.Lipo>
97.9172

> <Gold.Chemscore.Internal_Hbond>
0.0000

> <Gold.Chemscore.DEClash>
1.1869

> <Gold.Chemscore.DEInternal>
1.7638

> <Gold.Chemscore.Rot>
3.5170

> <Gold.Chemscore.Internal.Correction>
   9.000000E+99

> <Gold.Chemscore.Hbonds>
donor molecule, donor type, donor heavy atom, donor atom, acceptor molecule, acceptor atom, score
      L1  H     7    38       P1  8028  0.82
      L1  H    18    48       P1 10175  0.99

> <Gold.Chemscore.Hbond.Weighted>
-6.2497

> <Gold.Chemscore.Metal.Weighted>
-0.0000

> <Gold.Chemscore.Lipo.Weighted>
-11.4563

> <Gold.Chemscore.Internal_Hbond.Weighted>
0.0000

> <Gold.Chemscore.DEClash.Weighted>
1.1869

> <Gold.Chemscore.DEInternal.Weighted>
1.7638

> <Gold.Chemscore.Rot.Weighted>
9.0036

> <Gold.Chemscore.Internal.Correction.Weighted>
   9.000000E+99

> <Gold.Protein.RotatedTorsions>
[ 6907 6896 6895 6894 ] final  -46.81 input  -60.11 | X-H torsion
[ 7974 7965 7964 7962 ] final -105.27 input  175.53 | X-H torsion
[ 8008 7997 7996 7995 ] final  -92.76 input   59.86 | X-H torsion
[ 10167 10162 10161 10158 ] final  109.38 input  -65.29 | X-H torsion
[ 10718 10713 10712 10709 ] final -102.81 input   66.30 | X-H torsion
[ 10763 10752 10751 10750 ] final  -10.91 input  -60.55 | X-H torsion
[ 11005 11000 10999 10996 ] final -110.98 input  -57.11 | X-H torsion

> <Gold.Protein.ActiveResidues>
 VAL166  LYS551  ARG553  GLY616  TRP617  ASP618  TYR619  PRO620  LYS621  CYS622 
 ASP623  PHE694  ASN695  SER759  ASP760  ASP761  ALA762  ILE779  LEU786  VAL792 
 PHE793  MET794  SER795  GLU796  ALA797  LYS798  CYS799  TRP800  GLU811  SER814 

> <Gold.Protein.RotatedAtoms>
  150.9073  134.8488  159.7400 H   0  0  0  0  0  0  0  0  0  0  0  0  # atno 6907 bound_to 6896
  152.4925  134.4412  159.9554 H   0  0  0  0  0  0  0  0  0  0  0  0  # atno 6908 bound_to 6896
  151.4458  133.3591  159.2823 H   0  0  0  0  0  0  0  0  0  0  0  0  # atno 6909 bound_to 6896
  145.2325  140.9176  143.3196 H   0  0  0  0  0  0  0  0  0  0  0  0  # atno 7974 bound_to 7965
  154.7272  140.0505  157.0694 H   0  0  0  0  0  0  0  0  0  0  0  0  # atno 8008 bound_to 7997
  155.0349  140.3162  155.4726 H   0  0  0  0  0  0  0  0  0  0  0  0  # atno 8009 bound_to 7997
  156.2832  140.2143  156.5471 H   0  0  0  0  0  0  0  0  0  0  0  0  # atno 8010 bound_to 7997
  139.6771  144.7121  151.1582 H   0  0  0  0  0  0  0  0  0  0  0  0  # atno 10167 bound_to 10162
  156.0242  130.5438  150.7163 H   0  0  0  0  0  0  0  0  0  0  0  0  # atno 10718 bound_to 10713
  153.4760  135.7017  153.5965 H   0  0  0  0  0  0  0  0  0  0  0  0  # atno 10763 bound_to 10752
  153.4199  135.3828  155.2104 H   0  0  0  0  0  0  0  0  0  0  0  0  # atno 10764 bound_to 10752
  154.8723  135.3925  154.4204 H   0  0  0  0  0  0  0  0  0  0  0  0  # atno 10765 bound_to 10752
  141.0761  133.9299  157.2387 H   0  0  0  0  0  0  0  0  0  0  0  0  # atno 11005 bound_to 11000
  144.9663  139.3927  143.6331 LP  0  0  0  0  0  0  0  0  0  0  0  0  # atno 17320 bound_to 7965
  146.3349  139.8740  142.8835 LP  0  0  0  0  0  0  0  0  0  0  0  0  # atno 17321 bound_to 7965
  140.7639  143.5755  150.8950 LP  0  0  0  0  0  0  0  0  0  0  0  0  # atno 17342 bound_to 10162
  139.9425  143.6366  152.3050 LP  0  0  0  0  0  0  0  0  0  0  0  0  # atno 17343 bound_to 10162
  157.4789  131.0900  151.0558 LP  0  0  0  0  0  0  0  0  0  0  0  0  # atno 17370 bound_to 10713
  157.0997  130.5977  149.5457 LP  0  0  0  0  0  0  0  0  0  0  0  0  # atno 17371 bound_to 10713
  139.9573  135.0162  156.9164 LP  0  0  0  0  0  0  0  0  0  0  0  0  # atno 17394 bound_to 11000
  140.5570  134.0571  155.7387 LP  0  0  0  0  0  0  0  0  0  0  0  0  # atno 17395 bound_to 11000

$$$$
