AV-unprocessed.smi:2604|AV-procd|sdf|10190|dock9
  -GOLD-   2272014203D 1   1.00000     0.00000
 Structure written by MMmdl.
 26 27  0  0  0  0  0  0  0  0  2 V2000
  150.9454  141.4662  157.8246 C   0  0  0  0  0  0  0  0  0  0  0  0
  152.1463  140.7314  157.7728 C   0  0  0  0  0  0  0  0  0  0  0  0
  152.4821  139.9338  156.7364 N   0  0  0  0  0  0  0  0  0  0  0  0
  151.6205  139.8455  155.7007 C   0  0  0  0  0  0  0  0  0  0  0  0
  150.3938  140.5426  155.6463 C   0  0  0  0  0  0  0  0  0  0  0  0
  149.4700  140.3822  154.4499 C   0  0  1  0  0  0  0  0  0  0  0  0
  149.2187  138.8898  154.1353 C   0  0  0  0  0  0  0  0  0  0  0  0
  148.3545  138.7496  152.9457 N   0  3  0  0  0  0  0  0  0  0  0  0
  147.0905  139.4928  153.1161 C   0  0  0  0  0  0  0  0  0  0  0  0
  147.3877  140.9687  153.4372 C   0  0  0  0  0  0  0  0  0  0  0  0
  148.1883  141.0577  154.6544 N   0  0  0  0  0  0  0  0  0  0  0  0
  150.0522  141.3678  156.7407 C   0  0  0  0  0  0  0  0  0  0  0  0
  150.7158  142.0897  158.6761 H   0  0  0  0  0  0  0  0  0  0  0  0
  152.8547  140.7843  158.5863 H   0  0  0  0  0  0  0  0  0  0  0  0
  151.9207  139.1968  154.8908 H   0  0  0  0  0  0  0  0  0  0  0  0
  149.9603  140.8492  153.5939 H   0  0  0  0  0  0  0  0  0  0  0  0
  150.1619  138.3780  153.9422 H   0  0  0  0  0  0  0  0  0  0  0  0
  148.7496  138.3867  154.9823 H   0  0  0  0  0  0  0  0  0  0  0  0
  148.8433  139.1214  152.1441 H   0  0  0  0  0  0  0  0  0  0  0  0
  146.5042  139.4135  152.2004 H   0  0  0  0  0  0  0  0  0  0  0  0
  146.5027  139.0365  153.9140 H   0  0  0  0  0  0  0  0  0  0  0  0
  147.9109  141.4507  152.6100 H   0  0  0  0  0  0  0  0  0  0  0  0
  146.4557  141.5139  153.5874 H   0  0  0  0  0  0  0  0  0  0  0  0
  148.3501  142.0284  154.8851 H   0  0  0  0  0  0  0  0  0  0  0  0
  149.1216  141.9163  156.7532 H   0  0  0  0  0  0  0  0  0  0  0  0
  148.1532  137.7725  152.7885 H   0  0  0  0  0  0  0  0  0  0  0  0
  1 12  1  0  0  0  0
  1  2  2  0  0  0  0
  1 13  1  0  0  0  0
  2  3  1  0  0  0  0
  2 14  1  0  0  0  0
  3  4  2  0  0  0  0
  4  5  1  0  0  0  0
  4 15  1  0  0  0  0
  5  6  1  0  0  0  0
  5 12  2  0  0  0  0
  6 11  1  0  0  0  0
  6  7  1  0  0  0  0
  6 16  1  0  0  0  0
  7  8  1  0  0  0  0
  7 17  1  0  0  0  0
  7 18  1  0  0  0  0
  8  9  1  0  0  0  0
  8 19  1  0  0  0  0
  8 26  1  0  0  0  0
  9 10  1  0  0  0  0
  9 20  1  0  0  0  0
  9 21  1  0  0  0  0
 10 11  1  0  0  0  0
 10 22  1  0  0  0  0
 10 23  1  0  0  0  0
 11 24  1  0  0  0  0
 12 25  1  0  0  0  0
M  CHG  1   8   1
M  END
> <s_m_source_file>
AV-unprocessed.smi

> <i_m_source_file_index>
2604

> <i_lp_mmshare_version>
43012

> <i_f3d_flags>
0

> <s_epik_input>
W2NIXTFbY0hdW2NIXW5bY0hdYzFbQ0BASF0yW0NIMl1bTkhdW0NIMl1bQ0gyXVtOSF0y

> <s_epik_cmdline>
J2VwaWtfcHl0aG9uJywgJy1waCcsICc3LjAnLCAnLXRuJywgJzgnLCAnLW1hJywgJzIwMCcsICctbWV0YWxfYmluZGluZycsICctaW1hZScsICc8aW5maWxlLm1hZT4nLCAnLW9tYWUnLCAnPG91dGZpbGUubWFlPic=

> <r_epik_Ionization_Penalty>
0.0181456

> <r_epik_Ionization_Penalty_Charging>
0.010317

> <r_epik_Ionization_Penalty_Neutral>
0.00782861

> <r_epik_State_Penalty>
0.306622

> <r_epik_Charging_Adjusted_Penalty>
0.316939

> <i_epik_Tot_Q>
1

> <i_epik_Tot_abs_Q>
1

> <r_epik_Metal_State_Penalty>
0.302658

> <b_epik_Metal_Only>
0

> <s_lp_Force_Field>
OPLS_2005

> <r_lp_Energy>
10.6943

> <b_lp_Chiralities_Consistent>
1

> <s_lp_Variant>
AV-unprocessed.smi:2604-2

> <Gold.Version>
5.8.1

> <Gold.Id.Protein>
6NUR|6NUR_protein|mol2

> <Gold.PLP.Fitness>
35.5365

> <Gold.PLP.PLP>
-25.2451

> <Gold.PLP.part.hbond>
-2.9673

> <Gold.PLP.part.metal>
0.0000

> <Gold.PLP.part.buried>
-1.3185

> <Gold.PLP.part.nonpolar>
-19.7708

> <Gold.PLP.part.repulsive>
0.0729

> <Gold.PLP.ligand.clash>
0.0000

> <Gold.PLP.ligand.torsion>
0.1144

> <Gold.PLP.Chemscore.Hbond>
3.5040

> <Gold.PLP.Chemscore.CHOScore>
0.0000

> <Gold.PLP.Chemscore.Metal>
0.0000

> <Gold.Chemscore.Hbonds>
donor molecule, donor type, donor heavy atom, donor atom, acceptor molecule, acceptor atom, score
      L1  H     8    19       P1  7957  1.00
      L1  H     8    26       P1  7948  1.50
      P1  H  7997  8008       L1     3  1.00

> <Gold.PLP.Chemscore.Internal.Correction>
0.0081

> <Gold.Rescore>
     Score         DG    S(hbond)    S(metal)    S(lipo)     H(rot)  DE(clash)    DE(int)     intcor
     18.73     -18.78       2.66        0.00      59.71       1.00       0.01       0.04       ----

> <Gold.Chemscore.Fitness>
18.7348

> <Gold.Chemscore.DG>
-18.7821

> <Gold.Chemscore.ZeroCoef>
-5.4800

> <Gold.Chemscore.Hbond>
2.6575

> <Gold.Chemscore.Metal>
0.0000

> <Gold.Chemscore.Lipo>
59.7106

> <Gold.Chemscore.Internal_Hbond>
0.0000

> <Gold.Chemscore.DEClash>
0.0086

> <Gold.Chemscore.DEInternal>
0.0387

> <Gold.Chemscore.Rot>
1.0000

> <Gold.Chemscore.Internal.Correction>
   9.000000E+99

> <Gold.Chemscore.Hbonds>
donor molecule, donor type, donor heavy atom, donor atom, acceptor molecule, acceptor atom, score
      L1  H     8    19       P1  7957  0.92
      L1  H     8    26       P1  7948  0.73
      P1  H  7997  8008       L1     3  0.44

> <Gold.Chemscore.Hbond.Weighted>
-8.8760

> <Gold.Chemscore.Metal.Weighted>
-0.0000

> <Gold.Chemscore.Lipo.Weighted>
-6.9861

> <Gold.Chemscore.Internal_Hbond.Weighted>
0.0000

> <Gold.Chemscore.DEClash.Weighted>
0.0086

> <Gold.Chemscore.DEInternal.Weighted>
0.0387

> <Gold.Chemscore.Rot.Weighted>
2.5600

> <Gold.Chemscore.Internal.Correction.Weighted>
   9.000000E+99

> <Gold.Protein.RotatedTorsions>
[ 6907 6896 6895 6894 ] final  165.87 input  -60.11 | X-H torsion
[ 7974 7965 7964 7962 ] final  -62.22 input  175.53 | X-H torsion
[ 8008 7997 7996 7995 ] final  -58.29 input   59.86 | X-H torsion
[ 10167 10162 10161 10158 ] final   67.83 input  -65.29 | X-H torsion
[ 10718 10713 10712 10709 ] final -121.20 input   66.30 | X-H torsion
[ 10763 10752 10751 10750 ] final  -49.60 input  -60.55 | X-H torsion
[ 11005 11000 10999 10996 ] final   89.16 input  -57.11 | X-H torsion

> <Gold.Protein.ActiveResidues>
 VAL166  LYS551  ARG553  GLY616  TRP617  ASP618  TYR619  PRO620  LYS621  CYS622 
 ASP623  PHE694  ASN695  SER759  ASP760  ASP761  ALA762  ILE779  LEU786  VAL792 
 PHE793  MET794  SER795  GLU796  ALA797  LYS798  CYS799  TRP800  GLU811  SER814 

> <Gold.Protein.RotatedAtoms>
  151.8877  133.3509  159.3787 H   0  0  0  0  0  0  0  0  0  0  0  0  # atno 6907 bound_to 6896
  150.7111  134.4955  159.5545 H   0  0  0  0  0  0  0  0  0  0  0  0  # atno 6908 bound_to 6896
  152.2519  134.8124  160.0495 H   0  0  0  0  0  0  0  0  0  0  0  0  # atno 6909 bound_to 6896
  145.7939  140.8694  143.0266 H   0  0  0  0  0  0  0  0  0  0  0  0  # atno 7974 bound_to 7965
  154.4303  140.1087  156.5934 H   0  0  0  0  0  0  0  0  0  0  0  0  # atno 8008 bound_to 7997
  155.5988  140.3493  155.4569 H   0  0  0  0  0  0  0  0  0  0  0  0  # atno 8009 bound_to 7997
  156.0190  140.1235  157.0366 H   0  0  0  0  0  0  0  0  0  0  0  0  # atno 8010 bound_to 7997
  140.0853  144.5035  150.7134 H   0  0  0  0  0  0  0  0  0  0  0  0  # atno 10167 bound_to 10162
  156.1318  130.6401  150.9633 H   0  0  0  0  0  0  0  0  0  0  0  0  # atno 10718 bound_to 10713
  154.0967  135.6569  153.4861 H   0  0  0  0  0  0  0  0  0  0  0  0  # atno 10763 bound_to 10752
  153.0303  135.5215  154.7327 H   0  0  0  0  0  0  0  0  0  0  0  0  # atno 10764 bound_to 10752
  154.6467  135.2995  155.0006 H   0  0  0  0  0  0  0  0  0  0  0  0  # atno 10765 bound_to 10752
  139.8881  134.8534  156.3103 H   0  0  0  0  0  0  0  0  0  0  0  0  # atno 11005 bound_to 11000
  144.6778  140.0163  143.7484 LP  0  0  0  0  0  0  0  0  0  0  0  0  # atno 17320 bound_to 7965
  145.9948  139.3043  143.0963 LP  0  0  0  0  0  0  0  0  0  0  0  0  # atno 17321 bound_to 7965
  140.7057  143.2466  151.4734 LP  0  0  0  0  0  0  0  0  0  0  0  0  # atno 17342 bound_to 10162
  139.5756  144.1827  152.1898 LP  0  0  0  0  0  0  0  0  0  0  0  0  # atno 17343 bound_to 10162
  157.6495  131.0899  150.8081 LP  0  0  0  0  0  0  0  0  0  0  0  0  # atno 17370 bound_to 10713
  156.8165  130.4970  149.5349 LP  0  0  0  0  0  0  0  0  0  0  0  0  # atno 17371 bound_to 10713
  140.9855  133.7241  156.0735 LP  0  0  0  0  0  0  0  0  0  0  0  0  # atno 17394 bound_to 11000
  140.7694  134.3849  157.5510 LP  0  0  0  0  0  0  0  0  0  0  0  0  # atno 17395 bound_to 11000

$$$$
