AV-unprocessed.smi:3348|AV-procd|sdf|12919|dock5
  -GOLD-   2272019333D 1   1.00000     0.00000
 Structure written by MMmdl.
 47 48  0  0  0  0  0  0  0  0  2 V2000
  151.5757  145.0603  159.1322 C   0  0  0  0  0  0  0  0  0  0  0  0
  151.2391  143.6462  158.6282 C   0  0  2  0  0  0  0  0  0  0  0  0
  152.3663  142.6256  158.9095 C   0  0  0  0  0  0  0  0  0  0  0  0
  152.6907  142.5163  160.3210 N   0  0  0  0  0  0  0  0  0  0  0  0
  153.6103  141.6855  160.9259 C   0  0  0  0  0  0  0  0  0  0  0  0
  153.5633  141.9356  162.2675 C   0  0  0  0  0  0  0  0  0  0  0  0
  152.5746  142.9518  162.3875 C   0  0  0  0  0  0  0  0  0  0  0  0
  152.0549  143.2979  161.2205 N   0  0  0  0  0  0  0  0  0  0  0  0
  150.9231  143.7105  157.1837 N   0  3  0  0  0  0  0  0  0  0  0  0
  150.9716  142.4220  156.4597 C   0  0  0  0  0  0  0  0  0  0  0  0
  149.6961  141.6114  156.7087 C   0  0  0  0  0  0  0  0  0  0  0  0
  149.7821  140.4030  155.9695 O   0  0  0  0  0  0  0  0  0  0  0  0
  149.9048  140.5746  154.5615 C   0  0  2  0  0  0  0  0  0  0  0  0
  148.7407  141.4301  154.0183 C   0  0  0  0  0  0  0  0  0  0  0  0
  147.3869  140.7200  154.1819 C   0  0  0  0  0  0  0  0  0  0  0  0
  147.4040  139.3316  153.5247 C   0  0  0  0  0  0  0  0  0  0  0  0
  148.5564  138.4712  154.0671 C   0  0  0  0  0  0  0  0  0  0  0  0
  149.9167  139.1779  153.9009 C   0  0  2  0  0  0  0  0  0  0  0  0
  151.0779  138.3095  154.4109 C   0  0  0  0  0  0  0  0  0  0  0  0
  151.7043  145.0827  160.2146 H   0  0  0  0  0  0  0  0  0  0  0  0
  150.7779  145.7637  158.8910 H   0  0  0  0  0  0  0  0  0  0  0  0
  152.4957  145.4334  158.6803 H   0  0  0  0  0  0  0  0  0  0  0  0
  150.3375  143.3243  159.1515 H   0  0  0  0  0  0  0  0  0  0  0  0
  152.0849  141.6317  158.5615 H   0  0  0  0  0  0  0  0  0  0  0  0
  153.2695  142.9009  158.3617 H   0  0  0  0  0  0  0  0  0  0  0  0
  154.2131  140.9917  160.3585 H   0  0  0  0  0  0  0  0  0  0  0  0
  154.1471  141.4661  163.0452 H   0  0  0  0  0  0  0  0  0  0  0  0
  152.2221  143.4446  163.2817 H   0  0  0  0  0  0  0  0  0  0  0  0
  149.9834  144.0696  157.0943 H   0  0  0  0  0  0  0  0  0  0  0  0
  151.0992  142.5883  155.3901 H   0  0  0  0  0  0  0  0  0  0  0  0
  151.8351  141.8520  156.8045 H   0  0  0  0  0  0  0  0  0  0  0  0
  149.5999  141.3974  157.7730 H   0  0  0  0  0  0  0  0  0  0  0  0
  148.8189  142.1869  156.4086 H   0  0  0  0  0  0  0  0  0  0  0  0
  150.8518  141.0663  154.3305 H   0  0  0  0  0  0  0  0  0  0  0  0
  148.7112  142.4036  154.5068 H   0  0  0  0  0  0  0  0  0  0  0  0
  148.9101  141.6327  152.9601 H   0  0  0  0  0  0  0  0  0  0  0  0
  147.1491  140.6211  155.2417 H   0  0  0  0  0  0  0  0  0  0  0  0
  146.5945  141.3277  153.7440 H   0  0  0  0  0  0  0  0  0  0  0  0
  146.4522  138.8275  153.6949 H   0  0  0  0  0  0  0  0  0  0  0  0
  147.5063  139.4403  152.4443 H   0  0  0  0  0  0  0  0  0  0  0  0
  148.3798  138.2472  155.1199 H   0  0  0  0  0  0  0  0  0  0  0  0
  148.5696  137.5123  153.5479 H   0  0  0  0  0  0  0  0  0  0  0  0
  150.0781  139.3252  152.8318 H   0  0  0  0  0  0  0  0  0  0  0  0
  150.9772  138.0903  155.4743 H   0  0  0  0  0  0  0  0  0  0  0  0
  152.0362  138.8083  154.2628 H   0  0  0  0  0  0  0  0  0  0  0  0
  151.1169  137.3581  153.8801 H   0  0  0  0  0  0  0  0  0  0  0  0
  151.5548  144.3612  156.7383 H   0  0  0  0  0  0  0  0  0  0  0  0
  1  2  1  0  0  0  0
  1 20  1  0  0  0  0
  1 21  1  0  0  0  0
  1 22  1  0  0  0  0
  2  3  1  0  0  0  0
  2  9  1  0  0  0  0
  2 23  1  0  0  0  0
  3  4  1  0  0  0  0
  3 24  1  0  0  0  0
  3 25  1  0  0  0  0
  4  8  1  0  0  0  0
  4  5  1  0  0  0  0
  5  6  2  0  0  0  0
  5 26  1  0  0  0  0
  6  7  1  0  0  0  0
  6 27  1  0  0  0  0
  7  8  2  0  0  0  0
  7 28  1  0  0  0  0
  9 10  1  0  0  0  0
  9 29  1  0  0  0  0
  9 47  1  0  0  0  0
 10 11  1  0  0  0  0
 10 30  1  0  0  0  0
 10 31  1  0  0  0  0
 11 12  1  0  0  0  0
 11 32  1  0  0  0  0
 11 33  1  0  0  0  0
 12 13  1  0  0  0  0
 13 18  1  0  0  0  0
 13 14  1  0  0  0  0
 13 34  1  0  0  0  0
 14 15  1  0  0  0  0
 14 35  1  0  0  0  0
 14 36  1  0  0  0  0
 15 16  1  0  0  0  0
 15 37  1  0  0  0  0
 15 38  1  0  0  0  0
 16 17  1  0  0  0  0
 16 39  1  0  0  0  0
 16 40  1  0  0  0  0
 17 18  1  0  0  0  0
 17 41  1  0  0  0  0
 17 42  1  0  0  0  0
 18 19  1  0  0  0  0
 18 43  1  0  0  0  0
 19 44  1  0  0  0  0
 19 45  1  0  0  0  0
 19 46  1  0  0  0  0
M  CHG  1   9   1
M  END
> <s_m_source_file>
AV-unprocessed.smi

> <i_m_source_file_index>
3348

> <i_lp_mmshare_version>
43012

> <i_f3d_flags>
0

> <s_epik_input>
bjFbY0hdW2NIXVtjSF1uMVtDSDJdW0NAQEhdKFtDSDNdKVtOSF1bQ0gyXVtDSDJdT1tDQEBIXTJbQ0gyXVtDSDJdW0NIMl1bQ0gyXVtDQEhdMltDSDNd

> <s_epik_cmdline>
J2VwaWtfcHl0aG9uJywgJy1waCcsICc3LjAnLCAnLXRuJywgJzgnLCAnLW1hJywgJzIwMCcsICctbWV0YWxfYmluZGluZycsICctaW1hZScsICc8aW5maWxlLm1hZT4nLCAnLW9tYWUnLCAnPG91dGZpbGUubWFlPic=

> <r_lp_tautomer_probability>
1

> <r_epik_Ionization_Penalty>
0.00925088

> <r_epik_Ionization_Penalty_Charging>
0.00924645

> <r_epik_Ionization_Penalty_Neutral>
4.42413e-06

> <r_epik_State_Penalty>
0.0070118

> <r_epik_Charging_Adjusted_Penalty>
0.0162583

> <i_epik_Tot_Q>
1

> <i_epik_Tot_abs_Q>
1

> <r_epik_Metal_State_Penalty>
0.00701222

> <b_epik_Metal_Only>
0

> <s_lp_Force_Field>
OPLS_2005

> <r_lp_Energy>
17.0128

> <b_lp_Chiralities_Consistent>
1

> <s_lp_Variant>
AV-unprocessed.smi:3348-5

> <Gold.Version>
5.8.1

> <Gold.Id.Protein>
6NUR|6NUR_protein|mol2

> <Gold.PLP.Fitness>
52.9668

> <Gold.PLP.PLP>
-47.7840

> <Gold.PLP.part.hbond>
-1.0000

> <Gold.PLP.part.metal>
0.0000

> <Gold.PLP.part.buried>
-4.4676

> <Gold.PLP.part.nonpolar>
-41.6405

> <Gold.PLP.part.repulsive>
0.1368

> <Gold.PLP.ligand.clash>
0.0000

> <Gold.PLP.ligand.torsion>
0.2880

> <Gold.PLP.Chemscore.Hbond>
1.8880

> <Gold.PLP.Chemscore.CHOScore>
0.0000

> <Gold.PLP.Chemscore.Metal>
0.0000

> <Gold.Chemscore.Hbonds>
donor molecule, donor type, donor heavy atom, donor atom, acceptor molecule, acceptor atom, score
      L1  H     9    29       P1  8028  1.44

> <Gold.PLP.Chemscore.Internal.Correction>
0.0947

> <Gold.Rescore>
     Score         DG    S(hbond)    S(metal)    S(lipo)     H(rot)  DE(clash)    DE(int)     intcor
     17.51     -19.19       1.00        0.00     128.40       1.82       0.26       1.42       ----

> <Gold.Chemscore.Fitness>
17.5129

> <Gold.Chemscore.DG>
-19.1855

> <Gold.Chemscore.ZeroCoef>
-5.4800

> <Gold.Chemscore.Hbond>
0.9978

> <Gold.Chemscore.Metal>
0.0000

> <Gold.Chemscore.Lipo>
128.3972

> <Gold.Chemscore.Internal_Hbond>
0.0000

> <Gold.Chemscore.DEClash>
0.2560

> <Gold.Chemscore.DEInternal>
1.4166

> <Gold.Chemscore.Rot>
1.8163

> <Gold.Chemscore.Internal.Correction>
   9.000000E+99

> <Gold.Chemscore.Hbonds>
donor molecule, donor type, donor heavy atom, donor atom, acceptor molecule, acceptor atom, score
      L1  H     9    29       P1  8028  0.61

> <Gold.Chemscore.Hbond.Weighted>
-3.3327

> <Gold.Chemscore.Metal.Weighted>
-0.0000

> <Gold.Chemscore.Lipo.Weighted>
-15.0225

> <Gold.Chemscore.Internal_Hbond.Weighted>
0.0000

> <Gold.Chemscore.DEClash.Weighted>
0.2560

> <Gold.Chemscore.DEInternal.Weighted>
1.4166

> <Gold.Chemscore.Rot.Weighted>
4.6497

> <Gold.Chemscore.Internal.Correction.Weighted>
   9.000000E+99

> <Gold.Protein.RotatedTorsions>
[ 6907 6896 6895 6894 ] final  -57.76 input  -60.11 | X-H torsion
[ 7974 7965 7964 7962 ] final   74.75 input  175.53 | X-H torsion
[ 8008 7997 7996 7995 ] final  151.41 input   59.86 | X-H torsion
[ 10167 10162 10161 10158 ] final  121.21 input  -65.29 | X-H torsion
[ 10718 10713 10712 10709 ] final  157.38 input   66.30 | X-H torsion
[ 10763 10752 10751 10750 ] final -169.79 input  -60.55 | X-H torsion
[ 11005 11000 10999 10996 ] final  105.46 input  -57.11 | X-H torsion

> <Gold.Protein.ActiveResidues>
 VAL166  LYS551  ARG553  GLY616  TRP617  ASP618  TYR619  PRO620  LYS621  CYS622 
 ASP623  PHE694  ASN695  SER759  ASP760  ASP761  ALA762  ILE779  LEU786  VAL792 
 PHE793  MET794  SER795  GLU796  ALA797  LYS798  CYS799  TRP800  GLU811  SER814 

> <Gold.Protein.RotatedAtoms>
  150.8060  134.7186  159.6644 H   0  0  0  0  0  0  0  0  0  0  0  0  # atno 6907 bound_to 6896
  152.4180  134.6004  160.0008 H   0  0  0  0  0  0  0  0  0  0  0  0  # atno 6908 bound_to 6896
  151.6227  133.3301  159.3127 H   0  0  0  0  0  0  0  0  0  0  0  0  # atno 6909 bound_to 6896
  145.7243  139.2660  143.1578 H   0  0  0  0  0  0  0  0  0  0  0  0  # atno 7974 bound_to 7965
  156.2675  140.2048  156.6172 H   0  0  0  0  0  0  0  0  0  0  0  0  # atno 8008 bound_to 7997
  154.6785  140.0542  157.0265 H   0  0  0  0  0  0  0  0  0  0  0  0  # atno 8009 bound_to 7997
  155.1034  140.3208  155.4544 H   0  0  0  0  0  0  0  0  0  0  0  0  # atno 8010 bound_to 7997
  139.5934  144.7033  151.3235 H   0  0  0  0  0  0  0  0  0  0  0  0  # atno 10167 bound_to 10162
  157.1923  131.0657  151.2072 H   0  0  0  0  0  0  0  0  0  0  0  0  # atno 10718 bound_to 10713
  154.6485  135.2908  155.0016 H   0  0  0  0  0  0  0  0  0  0  0  0  # atno 10763 bound_to 10752
  154.1117  135.6561  153.4890 H   0  0  0  0  0  0  0  0  0  0  0  0  # atno 10764 bound_to 10752
  153.0364  135.5266  154.7383 H   0  0  0  0  0  0  0  0  0  0  0  0  # atno 10765 bound_to 10752
  139.8802  134.9336  156.5517 H   0  0  0  0  0  0  0  0  0  0  0  0  # atno 11005 bound_to 11000
  146.0596  140.7984  142.9741 LP  0  0  0  0  0  0  0  0  0  0  0  0  # atno 17320 bound_to 7965
  144.6908  140.3177  143.7237 LP  0  0  0  0  0  0  0  0  0  0  0  0  # atno 17321 bound_to 7965
  140.7192  143.7183  150.7715 LP  0  0  0  0  0  0  0  0  0  0  0  0  # atno 17342 bound_to 10162
  140.0744  143.5030  152.2563 LP  0  0  0  0  0  0  0  0  0  0  0  0  # atno 17343 bound_to 10162
  157.3848  130.7250  149.6655 LP  0  0  0  0  0  0  0  0  0  0  0  0  # atno 17370 bound_to 10713
  155.9710  130.4162  150.4221 LP  0  0  0  0  0  0  0  0  0  0  0  0  # atno 17371 bound_to 10713
  140.8235  133.8335  155.8917 LP  0  0  0  0  0  0  0  0  0  0  0  0  # atno 17394 bound_to 11000
  140.9396  134.1918  157.4807 LP  0  0  0  0  0  0  0  0  0  0  0  0  # atno 17395 bound_to 11000

$$$$
