AV-unprocessed.smi:1944|AV-procd|sdf|7856|dock6
  -GOLD-   2272010 03D 1   1.00000     0.00000
 Structure written by MMmdl.
 46 47  0  0  0  0  0  0  0  0  2 V2000
  151.7446  138.1429  154.2596 C   0  0  0  0  0  0  0  0  0  0  0  0
  150.3342  138.1173  154.0694 O   0  0  0  0  0  0  0  0  0  0  0  0
  149.6184  139.2799  154.2840 C   0  0  0  0  0  0  0  0  0  0  0  0
  150.2929  140.3893  154.6778 N   0  0  0  0  0  0  0  0  0  0  0  0
  149.5953  141.5232  154.8937 C   0  0  0  0  0  0  0  0  0  0  0  0
  148.2000  141.6103  154.7372 C   0  0  0  0  0  0  0  0  0  0  0  0
  147.4982  140.4613  154.3278 C   0  0  0  0  0  0  0  0  0  0  0  0
  148.2184  139.2668  154.0822 C   0  0  0  0  0  0  0  0  0  0  0  0
  147.6104  138.0443  153.6830 N   0  0  0  0  0  0  0  0  0  0  0  0
  146.3112  137.7032  153.7120 C   0  0  0  0  0  0  0  0  0  0  0  0
  145.3909  138.4247  154.0958 O   0  0  0  0  0  0  0  0  0  0  0  0
  146.1254  136.4591  153.2484 N   0  0  0  0  0  0  0  0  0  0  0  0
  144.8298  135.8006  153.1258 C   0  0  0  0  0  0  0  0  0  0  0  0
  144.8589  134.3764  153.7186 C   0  0  0  0  0  0  0  0  0  0  0  0
  144.5525  133.3249  152.7064 N   0  3  1  0  0  0  0  0  0  0  0  0
  143.3293  133.6682  151.9245 C   0  0  0  0  0  0  0  0  0  0  0  0
  142.9177  132.5413  150.9678 C   0  0  0  0  0  0  0  0  0  0  0  0
  144.0605  132.2156  150.0077 C   0  0  0  0  0  0  0  0  0  0  0  0
  145.3093  131.8579  150.8163 C   0  0  0  0  0  0  0  0  0  0  0  0
  145.7048  132.9733  151.8109 C   0  0  2  0  0  0  0  0  0  0  0  0
  146.9576  132.5073  152.5839 C   0  0  0  0  0  0  0  0  0  0  0  0
  152.1541  137.1538  154.0551 H   0  0  0  0  0  0  0  0  0  0  0  0
  152.0047  138.4020  155.2870 H   0  0  0  0  0  0  0  0  0  0  0  0
  152.2260  138.8471  153.5796 H   0  0  0  0  0  0  0  0  0  0  0  0
  150.1659  142.3850  155.2068 H   0  0  0  0  0  0  0  0  0  0  0  0
  147.6790  142.5362  154.9313 H   0  0  0  0  0  0  0  0  0  0  0  0
  146.4257  140.5172  154.2263 H   0  0  0  0  0  0  0  0  0  0  0  0
  148.2369  137.3730  153.2626 H   0  0  0  0  0  0  0  0  0  0  0  0
  146.9356  135.9371  152.9468 H   0  0  0  0  0  0  0  0  0  0  0  0
  144.0605  136.4021  153.6133 H   0  0  0  0  0  0  0  0  0  0  0  0
  144.5850  135.7839  152.0650 H   0  0  0  0  0  0  0  0  0  0  0  0
  145.8245  134.1710  154.1833 H   0  0  0  0  0  0  0  0  0  0  0  0
  144.1311  134.3600  154.5246 H   0  0  0  0  0  0  0  0  0  0  0  0
  142.4902  133.8667  152.5888 H   0  0  0  0  0  0  0  0  0  0  0  0
  143.5046  134.5860  151.3609 H   0  0  0  0  0  0  0  0  0  0  0  0
  142.6448  131.6520  151.5375 H   0  0  0  0  0  0  0  0  0  0  0  0
  142.0308  132.8347  150.4053 H   0  0  0  0  0  0  0  0  0  0  0  0
  143.7824  131.3875  149.3549 H   0  0  0  0  0  0  0  0  0  0  0  0
  144.2643  133.0713  149.3626 H   0  0  0  0  0  0  0  0  0  0  0  0
  145.1321  130.9277  151.3584 H   0  0  0  0  0  0  0  0  0  0  0  0
  146.1335  131.6588  150.1300 H   0  0  0  0  0  0  0  0  0  0  0  0
  145.9690  133.8636  151.2378 H   0  0  0  0  0  0  0  0  0  0  0  0
  147.6970  132.0806  151.9053 H   0  0  0  0  0  0  0  0  0  0  0  0
  146.7105  131.7414  153.3199 H   0  0  0  0  0  0  0  0  0  0  0  0
  147.4646  133.3241  153.0958 H   0  0  0  0  0  0  0  0  0  0  0  0
  144.3419  132.4846  153.2259 H   0  0  0  0  0  0  0  0  0  0  0  0
  1  2  1  0  0  0  0
  1 22  1  0  0  0  0
  1 23  1  0  0  0  0
  1 24  1  0  0  0  0
  2  3  1  0  0  0  0
  3  8  1  0  0  0  0
  3  4  2  0  0  0  0
  4  5  1  0  0  0  0
  5  6  2  0  0  0  0
  5 25  1  0  0  0  0
  6  7  1  0  0  0  0
  6 26  1  0  0  0  0
  7  8  2  0  0  0  0
  7 27  1  0  0  0  0
  8  9  1  0  0  0  0
  9 10  1  0  0  0  0
  9 28  1  0  0  0  0
 10 11  2  0  0  0  0
 10 12  1  0  0  0  0
 12 13  1  0  0  0  0
 12 29  1  0  0  0  0
 13 14  1  0  0  0  0
 13 30  1  0  0  0  0
 13 31  1  0  0  0  0
 14 15  1  0  0  0  0
 14 32  1  0  0  0  0
 14 33  1  0  0  0  0
 15 20  1  0  0  0  0
 15 16  1  0  0  0  0
 15 46  1  0  0  0  0
 16 17  1  0  0  0  0
 16 34  1  0  0  0  0
 16 35  1  0  0  0  0
 17 18  1  0  0  0  0
 17 36  1  0  0  0  0
 17 37  1  0  0  0  0
 18 19  1  0  0  0  0
 18 38  1  0  0  0  0
 18 39  1  0  0  0  0
 19 20  1  0  0  0  0
 19 40  1  0  0  0  0
 19 41  1  0  0  0  0
 20 21  1  0  0  0  0
 20 42  1  0  0  0  0
 21 43  1  0  0  0  0
 21 44  1  0  0  0  0
 21 45  1  0  0  0  0
M  CHG  1  15   1
M  END
> <s_m_source_file>
AV-unprocessed.smi

> <i_m_source_file_index>
1944

> <i_lp_mmshare_version>
43012

> <i_f3d_flags>
0

> <s_epik_input>
W0NIM11PYzFuW2NIXVtjSF1bY0hdYzFbTkhdQyg9TylbTkhdW0NIMl1bQ0gyXU4yW0NIMl1bQ0gyXVtDSDJdW0NIMl1bQ0BIXTJbQ0gzXQ==

> <s_epik_cmdline>
J2VwaWtfcHl0aG9uJywgJy1waCcsICc3LjAnLCAnLXRuJywgJzgnLCAnLW1hJywgJzIwMCcsICctbWV0YWxfYmluZGluZycsICctaW1hZScsICc8aW5maWxlLm1hZT4nLCAnLW9tYWUnLCAnPG91dGZpbGUubWFlPic=

> <r_lp_tautomer_probability>
1

> <r_epik_Ionization_Penalty>
0.00219525

> <r_epik_Ionization_Penalty_Charging>
0.00211816

> <r_epik_Ionization_Penalty_Neutral>
7.7088e-05

> <r_epik_State_Penalty>
0.00145254

> <r_epik_Charging_Adjusted_Penalty>
0.0035707

> <i_epik_Tot_Q>
1

> <i_epik_Tot_abs_Q>
1

> <r_epik_Metal_State_Penalty>
-0

> <b_epik_Metal_Only>
0

> <s_lp_Force_Field>
OPLS_2005

> <r_lp_Energy>
21.9876

> <b_lp_Chiralities_Consistent>
1

> <s_lp_Variant>
AV-unprocessed.smi:1944-4

> <Gold.Version>
5.8.1

> <Gold.Id.Protein>
6NUR|6NUR_protein|mol2

> <Gold.PLP.Fitness>
46.5943

> <Gold.PLP.PLP>
-37.1318

> <Gold.PLP.part.hbond>
-3.0000

> <Gold.PLP.part.metal>
0.0000

> <Gold.PLP.part.buried>
-5.1262

> <Gold.PLP.part.nonpolar>
-29.4751

> <Gold.PLP.part.repulsive>
0.4791

> <Gold.PLP.ligand.clash>
0.0000

> <Gold.PLP.ligand.torsion>
0.6088

> <Gold.PLP.Chemscore.Hbond>
2.7200

> <Gold.PLP.Chemscore.CHOScore>
0.8221

> <Gold.PLP.Chemscore.Metal>
0.0000

> <Gold.Chemscore.Hbonds>
donor molecule, donor type, donor heavy atom, donor atom, acceptor molecule, acceptor atom, score
      L1  H     9    28       P1  7948  1.00
      L1  H    12    29       P1  7948  0.27
      L1  H    15    46       P1 10957  0.17
      P1  H  7989  7998       L1     4  1.00
      L1  C     5    25       P1  8028  0.46

> <Gold.PLP.Chemscore.Internal.Correction>
0.0539

> <Gold.Rescore>
     Score         DG    S(hbond)    S(metal)    S(lipo)     H(rot)  DE(clash)    DE(int)     intcor
     15.87     -18.17       2.00        0.00      88.80       1.71       0.44       1.86       ----

> <Gold.Chemscore.Fitness>
15.8736

> <Gold.Chemscore.DG>
-18.1686

> <Gold.Chemscore.ZeroCoef>
-5.4800

> <Gold.Chemscore.Hbond>
1.9994

> <Gold.Chemscore.Metal>
0.0000

> <Gold.Chemscore.Lipo>
88.8036

> <Gold.Chemscore.Internal_Hbond>
0.0000

> <Gold.Chemscore.DEClash>
0.4354

> <Gold.Chemscore.DEInternal>
1.8597

> <Gold.Chemscore.Rot>
1.7107

> <Gold.Chemscore.Internal.Correction>
   9.000000E+99

> <Gold.Chemscore.Hbonds>
donor molecule, donor type, donor heavy atom, donor atom, acceptor molecule, acceptor atom, score
      L1  H     9    28       P1  7948  0.98
      L1  H    12    29       P1  7948  0.27
      L1  H    15    46       P1 10957  0.02
      P1  H  7989  7998       L1     4  0.36

> <Gold.Chemscore.Hbond.Weighted>
-6.6780

> <Gold.Chemscore.Metal.Weighted>
-0.0000

> <Gold.Chemscore.Lipo.Weighted>
-10.3900

> <Gold.Chemscore.Internal_Hbond.Weighted>
0.0000

> <Gold.Chemscore.DEClash.Weighted>
0.4354

> <Gold.Chemscore.DEInternal.Weighted>
1.8597

> <Gold.Chemscore.Rot.Weighted>
4.3794

> <Gold.Chemscore.Internal.Correction.Weighted>
   9.000000E+99

> <Gold.Protein.RotatedTorsions>
[ 6907 6896 6895 6894 ] final -155.12 input  -60.11 | X-H torsion
[ 7974 7965 7964 7962 ] final -137.93 input  175.53 | X-H torsion
[ 8008 7997 7996 7995 ] final   89.86 input   59.86 | X-H torsion
[ 10167 10162 10161 10158 ] final   42.15 input  -65.29 | X-H torsion
[ 10718 10713 10712 10709 ] final  -84.50 input   66.30 | X-H torsion
[ 10763 10752 10751 10750 ] final -109.15 input  -60.55 | X-H torsion
[ 11005 11000 10999 10996 ] final   59.50 input  -57.11 | X-H torsion

> <Gold.Protein.ActiveResidues>
 VAL166  LYS551  ARG553  GLY616  TRP617  ASP618  TYR619  PRO620  LYS621  CYS622 
 ASP623  PHE694  ASN695  SER759  ASP760  ASP761  ALA762  ILE779  LEU786  VAL792 
 PHE793  MET794  SER795  GLU796  ALA797  LYS798  CYS799  TRP800  GLU811  SER814 

> <Gold.Protein.RotatedAtoms>
  151.2677  133.4270  159.2619 H   0  0  0  0  0  0  0  0  0  0  0  0  # atno 6907 bound_to 6896
  151.0473  134.9649  159.8203 H   0  0  0  0  0  0  0  0  0  0  0  0  # atno 6908 bound_to 6896
  152.5376  134.2633  159.8996 H   0  0  0  0  0  0  0  0  0  0  0  0  # atno 6909 bound_to 6896
  144.8800  140.6494  143.5212 H   0  0  0  0  0  0  0  0  0  0  0  0  # atno 7974 bound_to 7965
  156.0051  140.3356  155.6884 H   0  0  0  0  0  0  0  0  0  0  0  0  # atno 8008 bound_to 7997
  155.6237  140.0677  157.2688 H   0  0  0  0  0  0  0  0  0  0  0  0  # atno 8009 bound_to 7997
  154.4262  140.1772  156.1386 H   0  0  0  0  0  0  0  0  0  0  0  0  # atno 8010 bound_to 7997
  140.3572  144.2274  150.6141 H   0  0  0  0  0  0  0  0  0  0  0  0  # atno 10167 bound_to 10162
  156.0006  130.4700  150.4419 H   0  0  0  0  0  0  0  0  0  0  0  0  # atno 10718 bound_to 10713
  154.8177  135.4611  154.0689 H   0  0  0  0  0  0  0  0  0  0  0  0  # atno 10763 bound_to 10752
  153.2069  135.6876  153.8169 H   0  0  0  0  0  0  0  0  0  0  0  0  # atno 10764 bound_to 10752
  153.7634  135.3281  155.3317 H   0  0  0  0  0  0  0  0  0  0  0  0  # atno 10765 bound_to 10752
  140.0300  134.6027  155.9521 H   0  0  0  0  0  0  0  0  0  0  0  0  # atno 11005 bound_to 11000
  145.3971  139.1605  143.4197 LP  0  0  0  0  0  0  0  0  0  0  0  0  # atno 17320 bound_to 7965
  146.2988  140.4065  142.8711 LP  0  0  0  0  0  0  0  0  0  0  0  0  # atno 17321 bound_to 7965
  140.5162  143.2277  151.8460 LP  0  0  0  0  0  0  0  0  0  0  0  0  # atno 17342 bound_to 10162
  139.4818  144.4892  151.9207 LP  0  0  0  0  0  0  0  0  0  0  0  0  # atno 17343 bound_to 10162
  157.2459  131.0536  151.2408 LP  0  0  0  0  0  0  0  0  0  0  0  0  # atno 17370 bound_to 10713
  157.3575  130.7114  149.6480 LP  0  0  0  0  0  0  0  0  0  0  0  0  # atno 17371 bound_to 10713
  141.1825  133.6549  156.5079 LP  0  0  0  0  0  0  0  0  0  0  0  0  # atno 17394 bound_to 11000
  140.4242  134.7160  157.4907 LP  0  0  0  0  0  0  0  0  0  0  0  0  # atno 17395 bound_to 11000

$$$$
