AV-unprocessed.smi:1785|AV-procd|sdf|7201|dock4
  -GOLD-   22720 8443D 1   1.00000     0.00000
 Structure written by MMmdl.
 27 28  0  0  0  0  0  0  0  0  2 V2000
  154.0959  141.5143  160.5045 C   0  0  0  0  0  0  0  0  0  0  0  0
  153.0583  142.1436  159.5886 C   0  0  0  0  0  0  0  0  0  0  0  0
  152.6178  143.4589  159.8462 C   0  0  0  0  0  0  0  0  0  0  0  0
  151.6540  144.0373  159.0030 C   0  0  0  0  0  0  0  0  0  0  0  0
  151.1679  143.2672  157.9327 C   0  0  0  0  0  0  0  0  0  0  0  0
  151.5833  142.0094  157.6795 N   0  0  0  0  0  0  0  0  0  0  0  0
  152.5201  141.4392  158.4758 C   0  0  0  0  0  0  0  0  0  0  0  0
  152.8980  140.1807  158.1924 N   0  5  0  0  0  0  0  0  0  0  0  0
  151.9786  139.1907  158.0509 C   0  0  0  0  0  0  0  0  0  0  0  0
  151.5449  138.5108  158.9856 O   0  0  0  0  0  0  0  0  0  0  0  0
  151.5052  138.9626  156.6883 C   0  0  0  0  0  0  0  0  0  0  0  0
  151.5012  139.9776  155.7912 C   0  0  0  0  0  0  0  0  0  0  0  0
  151.0376  139.8575  154.5047 O   0  0  0  0  0  0  0  0  0  0  0  0
  150.3203  138.6576  154.2433 C   0  0  0  0  0  0  0  0  0  0  0  0
  151.0104  137.4664  154.9226 C   0  0  0  0  0  0  0  0  0  0  0  0
  151.1112  137.6936  156.3235 O   0  0  0  0  0  0  0  0  0  0  0  0
  154.3420  142.1713  161.3388 H   0  0  0  0  0  0  0  0  0  0  0  0
  155.0136  141.3100  159.9524 H   0  0  0  0  0  0  0  0  0  0  0  0
  153.7237  140.5752  160.9148 H   0  0  0  0  0  0  0  0  0  0  0  0
  153.0112  144.0199  160.6811 H   0  0  0  0  0  0  0  0  0  0  0  0
  151.2958  145.0416  159.1732 H   0  0  0  0  0  0  0  0  0  0  0  0
  150.4236  143.6705  157.2621 H   0  0  0  0  0  0  0  0  0  0  0  0
  151.8196  140.9885  156.0016 H   0  0  0  0  0  0  0  0  0  0  0  0
  149.2975  138.7631  154.6078 H   0  0  0  0  0  0  0  0  0  0  0  0
  150.2634  138.5028  153.1659 H   0  0  0  0  0  0  0  0  0  0  0  0
  150.4485  136.5485  154.7496 H   0  0  0  0  0  0  0  0  0  0  0  0
  152.0087  137.3159  154.5095 H   0  0  0  0  0  0  0  0  0  0  0  0
  1  2  1  0  0  0  0
  1 17  1  0  0  0  0
  1 18  1  0  0  0  0
  1 19  1  0  0  0  0
  2  7  1  0  0  0  0
  2  3  2  0  0  0  0
  3  4  1  0  0  0  0
  3 20  1  0  0  0  0
  4  5  2  0  0  0  0
  4 21  1  0  0  0  0
  5  6  1  0  0  0  0
  5 22  1  0  0  0  0
  6  7  2  0  0  0  0
  7  8  1  0  0  0  0
  8  9  1  0  0  0  0
  9 10  2  0  0  0  0
  9 11  1  0  0  0  0
 11 16  1  0  0  0  0
 11 12  2  0  0  0  0
 12 13  1  0  0  0  0
 12 23  1  0  0  0  0
 13 14  1  0  0  0  0
 14 15  1  0  0  0  0
 14 24  1  0  0  0  0
 14 25  1  0  0  0  0
 15 16  1  0  0  0  0
 15 26  1  0  0  0  0
 15 27  1  0  0  0  0
M  CHG  1   8  -1
M  END
> <s_m_source_file>
AV-unprocessed.smi

> <i_m_source_file_index>
1785

> <i_lp_mmshare_version>
43012

> <i_f3d_flags>
0

> <s_epik_input>
W0NIM11jMVtjSF1bY0hdW2NIXW5jMVtOSF1DKD1PKUMyPVtDSF1PW0NIMl1bQ0gyXU8y

> <s_epik_cmdline>
J2VwaWtfcHl0aG9uJywgJy1waCcsICc3LjAnLCAnLXRuJywgJzgnLCAnLW1hJywgJzIwMCcsICctbWV0YWxfYmluZGluZycsICctaW1hZScsICc8aW5maWxlLm1hZT4nLCAnLW9tYWUnLCAnPG91dGZpbGUubWFlPic=

> <r_lp_tautomer_probability>
1

> <r_epik_Ionization_Penalty>
11.0036

> <r_epik_Ionization_Penalty_Charging>
5.9985

> <r_epik_Ionization_Penalty_Neutral>
5.00509

> <r_epik_State_Penalty>
5.99847

> <r_epik_Charging_Adjusted_Penalty>
11.997

> <i_epik_Tot_Q>
-1

> <i_epik_Tot_abs_Q>
1

> <r_epik_Metal_State_Penalty>
1.95147

> <b_epik_Metal_Only>
1

> <s_lp_Force_Field>
OPLS_2005

> <r_lp_Energy>
4.89912

> <b_lp_Chiralities_Consistent>
1

> <s_lp_Variant>
AV-unprocessed.smi:1785-2

> <Gold.Version>
5.8.1

> <Gold.Id.Protein>
6NUR|6NUR_protein|mol2

> <Gold.PLP.Fitness>
41.2010

> <Gold.PLP.PLP>
-32.2411

> <Gold.PLP.part.hbond>
-2.0000

> <Gold.PLP.part.metal>
0.0000

> <Gold.PLP.part.buried>
-3.9093

> <Gold.PLP.part.nonpolar>
-26.7055

> <Gold.PLP.part.repulsive>
0.1252

> <Gold.PLP.ligand.clash>
0.0000

> <Gold.PLP.ligand.torsion>
1.5828

> <Gold.PLP.Chemscore.Hbond>
2.9840

> <Gold.PLP.Chemscore.CHOScore>
1.0000

> <Gold.PLP.Chemscore.Metal>
0.0000

> <Gold.Chemscore.Hbonds>
donor molecule, donor type, donor heavy atom, donor atom, acceptor molecule, acceptor atom, score
      P1  H  7989  7998       L1    13  1.00
      P1  H  7997  8009       L1     8  1.90
      L1  C     5    22       P1  8028  1.00

> <Gold.PLP.Chemscore.Internal.Correction>
0.1736

> <Gold.Rescore>
     Score         DG    S(hbond)    S(metal)    S(lipo)     H(rot)  DE(clash)    DE(int)     intcor
     19.28     -20.57       1.75        0.00      79.03       0.00       0.01       1.28       ----

> <Gold.Chemscore.Fitness>
19.2778

> <Gold.Chemscore.DG>
-20.5662

> <Gold.Chemscore.ZeroCoef>
-5.4800

> <Gold.Chemscore.Hbond>
1.7484

> <Gold.Chemscore.Metal>
0.0000

> <Gold.Chemscore.Lipo>
79.0298

> <Gold.Chemscore.Internal_Hbond>
0.0000

> <Gold.Chemscore.DEClash>
0.0069

> <Gold.Chemscore.DEInternal>
1.2815

> <Gold.Chemscore.Rot>
0.0000

> <Gold.Chemscore.Internal.Correction>
   9.000000E+99

> <Gold.Chemscore.Hbonds>
donor molecule, donor type, donor heavy atom, donor atom, acceptor molecule, acceptor atom, score
      P1  H  7989  7998       L1    13  0.86
      P1  H  7997  8009       L1     8  0.70

> <Gold.Chemscore.Hbond.Weighted>
-5.8397

> <Gold.Chemscore.Metal.Weighted>
-0.0000

> <Gold.Chemscore.Lipo.Weighted>
-9.2465

> <Gold.Chemscore.Internal_Hbond.Weighted>
0.0000

> <Gold.Chemscore.DEClash.Weighted>
0.0069

> <Gold.Chemscore.DEInternal.Weighted>
1.2815

> <Gold.Chemscore.Rot.Weighted>
0.0000

> <Gold.Chemscore.Internal.Correction.Weighted>
   9.000000E+99

> <Gold.Protein.RotatedTorsions>
[ 6907 6896 6895 6894 ] final -156.11 input  -60.11 | X-H torsion
[ 7974 7965 7964 7962 ] final  -72.19 input  175.53 | X-H torsion
[ 8008 7997 7996 7995 ] final  158.91 input   59.86 | X-H torsion
[ 10167 10162 10161 10158 ] final -148.56 input  -65.29 | X-H torsion
[ 10718 10713 10712 10709 ] final  142.49 input   66.30 | X-H torsion
[ 10763 10752 10751 10750 ] final   61.75 input  -60.55 | X-H torsion
[ 11005 11000 10999 10996 ] final  -42.92 input  -57.11 | X-H torsion

> <Gold.Protein.ActiveResidues>
 VAL166  LYS551  ARG553  GLY616  TRP617  ASP618  TYR619  PRO620  LYS621  CYS622 
 ASP623  PHE694  ASN695  SER759  ASP760  ASP761  ALA762  ILE779  LEU786  VAL792 
 PHE793  MET794  SER795  GLU796  ALA797  LYS798  CYS799  TRP800  GLU811  SER814 

> <Gold.Protein.RotatedAtoms>
  151.2827  133.4202  159.2627 H   0  0  0  0  0  0  0  0  0  0  0  0  # atno 6907 bound_to 6896
  151.0347  134.9565  159.8140 H   0  0  0  0  0  0  0  0  0  0  0  0  # atno 6908 bound_to 6896
  152.5353  134.2786  159.9051 H   0  0  0  0  0  0  0  0  0  0  0  0  # atno 6909 bound_to 6896
  145.6684  140.9229  143.0896 H   0  0  0  0  0  0  0  0  0  0  0  0  # atno 7974 bound_to 7965
  156.2272  140.1845  156.7332 H   0  0  0  0  0  0  0  0  0  0  0  0  # atno 8008 bound_to 7997
  154.5962  140.0643  156.9334 H   0  0  0  0  0  0  0  0  0  0  0  0  # atno 8009 bound_to 7997
  155.2252  140.3310  155.4313 H   0  0  0  0  0  0  0  0  0  0  0  0  # atno 8010 bound_to 7997
  139.7521  143.8503  152.2589 H   0  0  0  0  0  0  0  0  0  0  0  0  # atno 10167 bound_to 10162
  157.3800  131.0991  151.0748 H   0  0  0  0  0  0  0  0  0  0  0  0  # atno 10718 bound_to 10713
  152.9960  135.5489  154.6084 H   0  0  0  0  0  0  0  0  0  0  0  0  # atno 10763 bound_to 10752
  154.5410  135.2820  155.1097 H   0  0  0  0  0  0  0  0  0  0  0  0  # atno 10764 bound_to 10752
  154.2375  135.6422  153.5248 H   0  0  0  0  0  0  0  0  0  0  0  0  # atno 10765 bound_to 10752
  141.0349  133.6804  156.2661 H   0  0  0  0  0  0  0  0  0  0  0  0  # atno 11005 bound_to 11000
  144.7065  139.8539  143.7428 LP  0  0  0  0  0  0  0  0  0  0  0  0  # atno 17320 bound_to 7965
  146.1067  139.4067  143.0313 LP  0  0  0  0  0  0  0  0  0  0  0  0  # atno 17321 bound_to 7965
  139.8484  144.7176  150.9244 LP  0  0  0  0  0  0  0  0  0  0  0  0  # atno 17342 bound_to 10162
  140.7799  143.3921  151.1292 LP  0  0  0  0  0  0  0  0  0  0  0  0  # atno 17343 bound_to 10162
  157.1820  130.6314  149.5675 LP  0  0  0  0  0  0  0  0  0  0  0  0  # atno 17370 bound_to 10713
  155.9773  130.4750  150.6588 LP  0  0  0  0  0  0  0  0  0  0  0  0  # atno 17371 bound_to 10713
  140.6341  134.5234  157.5563 LP  0  0  0  0  0  0  0  0  0  0  0  0  # atno 17394 bound_to 11000
  139.9233  134.8105  156.1144 LP  0  0  0  0  0  0  0  0  0  0  0  0  # atno 17395 bound_to 11000

$$$$
