AV-unprocessed.smi:2869|AV-procd|sdf|11028|dock7
  -GOLD-   2272015493D 1   1.00000     0.00000
 Structure written by MMmdl.
 49 51  0  0  0  0  0  0  0  0  1 V2000
  148.3191  136.4014  160.6242 N   0  0  0  0  0  0  0  0  0  0  0  0
  148.8177  136.3666  159.5802 C   0  0  0  0  0  0  0  0  0  0  0  0
  149.4053  136.3309  158.2819 C   0  0  0  0  0  0  0  0  0  0  0  0
  149.7940  137.4551  157.6460 C   0  0  0  0  0  0  0  0  0  0  0  0
  150.3739  137.4368  156.3963 N   0  0  0  0  0  0  0  0  0  0  0  0
  150.6496  138.6520  155.6825 C   0  0  0  0  0  0  0  0  0  0  0  0
  152.0078  138.8810  155.0480 C   0  0  0  0  0  0  0  0  0  0  0  0
  151.6132  139.6513  156.2843 C   0  0  0  0  0  0  0  0  0  0  0  0
  150.5055  136.2199  155.6919 C   0  0  0  0  0  0  0  0  0  0  0  0
  150.9479  136.1934  154.5407 O   0  0  0  0  0  0  0  0  0  0  0  0
  150.1106  135.0288  156.3481 N   0  0  0  0  0  0  0  0  0  0  0  0
  150.2936  133.7377  155.6488 C   0  0  0  0  0  0  0  0  0  0  0  0
  148.9731  133.0648  155.2440 C   0  0  0  0  0  0  0  0  0  0  0  0
  148.1460  132.7243  156.0913 O   0  0  0  0  0  0  0  0  0  0  0  0
  148.7945  132.8843  153.9263 N   0  0  0  0  0  0  0  0  0  0  0  0
  147.6210  132.2802  153.2947 C   0  0  0  0  0  0  0  0  0  0  0  0
  148.0390  130.8770  152.7975 C   0  0  0  0  0  0  0  0  0  0  0  0
  146.9478  129.7851  152.7525 C   0  0  0  0  0  0  0  0  0  0  0  0
  145.6791  130.0566  151.9239 C   0  0  0  0  0  0  0  0  0  0  0  0
  145.9213  130.7623  150.5777 C   0  0  0  0  0  0  0  0  0  0  0  0
  145.3964  132.2070  150.5189 C   0  0  0  0  0  0  0  0  0  0  0  0
  145.6679  133.0964  151.7486 C   0  0  0  0  0  0  0  0  0  0  0  0
  147.1387  133.2405  152.1745 C   0  0  0  0  0  0  0  0  0  0  0  0
  149.5659  135.0195  157.6578 C   0  0  0  0  0  0  0  0  0  0  0  0
  149.2558  133.9619  158.2092 O   0  0  0  0  0  0  0  0  0  0  0  0
  149.6540  138.4080  158.1360 H   0  0  0  0  0  0  0  0  0  0  0  0
  149.8014  139.0764  155.1479 H   0  0  0  0  0  0  0  0  0  0  0  0
  152.7686  138.1113  155.1650 H   0  0  0  0  0  0  0  0  0  0  0  0
  152.0346  139.4219  154.1043 H   0  0  0  0  0  0  0  0  0  0  0  0
  151.3797  140.7073  156.1657 H   0  0  0  0  0  0  0  0  0  0  0  0
  152.1136  139.3870  157.2142 H   0  0  0  0  0  0  0  0  0  0  0  0
  150.9062  133.8662  154.7549 H   0  0  0  0  0  0  0  0  0  0  0  0
  150.8643  133.0349  156.2577 H   0  0  0  0  0  0  0  0  0  0  0  0
  149.5287  133.1956  153.3071 H   0  0  0  0  0  0  0  0  0  0  0  0
  146.8422  132.1668  154.0511 H   0  0  0  0  0  0  0  0  0  0  0  0
  148.5439  130.9609  151.8355 H   0  0  0  0  0  0  0  0  0  0  0  0
  148.8073  130.4861  153.4672 H   0  0  0  0  0  0  0  0  0  0  0  0
  147.4139  128.8782  152.3655 H   0  0  0  0  0  0  0  0  0  0  0  0
  146.6468  129.5403  153.7717 H   0  0  0  0  0  0  0  0  0  0  0  0
  145.2005  129.0958  151.7305 H   0  0  0  0  0  0  0  0  0  0  0  0
  144.9510  130.5984  152.5255 H   0  0  0  0  0  0  0  0  0  0  0  0
  146.9744  130.7355  150.3024 H   0  0  0  0  0  0  0  0  0  0  0  0
  145.4224  130.1958  149.7904 H   0  0  0  0  0  0  0  0  0  0  0  0
  145.8040  132.6889  149.6294 H   0  0  0  0  0  0  0  0  0  0  0  0
  144.3174  132.1756  150.3646 H   0  0  0  0  0  0  0  0  0  0  0  0
  145.2991  134.0911  151.4949 H   0  0  0  0  0  0  0  0  0  0  0  0
  145.0586  132.7939  152.5997 H   0  0  0  0  0  0  0  0  0  0  0  0
  147.2395  134.2622  152.5448 H   0  0  0  0  0  0  0  0  0  0  0  0
  147.7976  133.1917  151.3067 H   0  0  0  0  0  0  0  0  0  0  0  0
  1  2  3  0  0  0  0
  2  3  1  0  0  0  0
  3 24  1  0  0  0  0
  3  4  2  0  0  0  0
  4  5  1  0  0  0  0
  4 26  1  0  0  0  0
  5  6  1  0  0  0  0
  5  9  1  0  0  0  0
  6  8  1  0  0  0  0
  6  7  1  0  0  0  0
  6 27  1  0  0  0  0
  7  8  1  0  0  0  0
  7 28  1  0  0  0  0
  7 29  1  0  0  0  0
  8 30  1  0  0  0  0
  8 31  1  0  0  0  0
  9 10  2  0  0  0  0
  9 11  1  0  0  0  0
 11 12  1  0  0  0  0
 11 24  1  0  0  0  0
 12 13  1  0  0  0  0
 12 32  1  0  0  0  0
 12 33  1  0  0  0  0
 13 14  2  0  0  0  0
 13 15  1  0  0  0  0
 15 16  1  0  0  0  0
 15 34  1  0  0  0  0
 16 23  1  0  0  0  0
 16 17  1  0  0  0  0
 16 35  1  0  0  0  0
 17 18  1  0  0  0  0
 17 36  1  0  0  0  0
 17 37  1  0  0  0  0
 18 19  1  0  0  0  0
 18 38  1  0  0  0  0
 18 39  1  0  0  0  0
 19 20  1  0  0  0  0
 19 40  1  0  0  0  0
 19 41  1  0  0  0  0
 20 21  1  0  0  0  0
 20 42  1  0  0  0  0
 20 43  1  0  0  0  0
 21 22  1  0  0  0  0
 21 44  1  0  0  0  0
 21 45  1  0  0  0  0
 22 23  1  0  0  0  0
 22 46  1  0  0  0  0
 22 47  1  0  0  0  0
 23 48  1  0  0  0  0
 23 49  1  0  0  0  0
 24 25  2  0  0  0  0
M  END
> <s_m_source_file>
AV-unprocessed.smi

> <i_m_source_file_index>
2869

> <i_lp_mmshare_version>
43012

> <i_f3d_flags>
0

> <s_epik_input>
TiNDYzFbY0hdbihbQ0hdMltDSDJdW0NIMl0yKWMoPU8pbihjMT1PKVtDSDJdQyg9TylbTkhdW0NIXTNbQ0gyXVtDSDJdW0NIMl1bQ0gyXVtDSDJdW0NIMl1bQ0gyXTM=

> <s_epik_cmdline>
J2VwaWtfcHl0aG9uJywgJy1waCcsICc3LjAnLCAnLXRuJywgJzgnLCAnLW1hJywgJzIwMCcsICctbWV0YWxfYmluZGluZycsICctaW1hZScsICc8aW5maWxlLm1hZT4nLCAnLW9tYWUnLCAnPG91dGZpbGUubWFlPic=

> <r_lp_tautomer_probability>
1

> <r_epik_Ionization_Penalty>
2.03018e-08

> <r_epik_Ionization_Penalty_Charging>
8.701e-11

> <r_epik_Ionization_Penalty_Neutral>
2.02148e-08

> <r_epik_State_Penalty>
-0

> <r_epik_Charging_Adjusted_Penalty>
8.701e-11

> <i_epik_Tot_Q>
0

> <i_epik_Tot_abs_Q>
0

> <r_epik_Metal_State_Penalty>
-0

> <b_epik_Metal_Only>
0

> <s_lp_Force_Field>
OPLS_2005

> <r_lp_Energy>
47.5685

> <b_lp_Chiralities_Consistent>
1

> <s_lp_Variant>
AV-unprocessed.smi:2869-1

> <Gold.Version>
5.8.1

> <Gold.Id.Protein>
6NUR|6NUR_protein|mol2

> <Gold.PLP.Fitness>
45.3921

> <Gold.PLP.PLP>
-35.5102

> <Gold.PLP.part.hbond>
-4.0000

> <Gold.PLP.part.metal>
0.0000

> <Gold.PLP.part.buried>
-3.7127

> <Gold.PLP.part.nonpolar>
-29.4952

> <Gold.PLP.part.repulsive>
0.4652

> <Gold.PLP.ligand.clash>
0.0000

> <Gold.PLP.ligand.torsion>
0.2951

> <Gold.PLP.Chemscore.Hbond>
3.4177

> <Gold.PLP.Chemscore.CHOScore>
0.0000

> <Gold.PLP.Chemscore.Metal>
0.0000

> <Gold.Chemscore.Hbonds>
donor molecule, donor type, donor heavy atom, donor atom, acceptor molecule, acceptor atom, score
      P1  H  6896  6908       L1    25  0.65
      P1  H  6931  6943       L1     1  0.19
      P1  H 10752 10765       L1    10  0.94

> <Gold.PLP.Chemscore.Internal.Correction>
0.2189

> <Gold.Rescore>
     Score         DG    S(hbond)    S(metal)    S(lipo)     H(rot)  DE(clash)    DE(int)     intcor
     16.50     -19.65       2.55        0.00      85.15       1.68       0.17       2.98       ----

> <Gold.Chemscore.Fitness>
16.4969

> <Gold.Chemscore.DG>
-19.6530

> <Gold.Chemscore.ZeroCoef>
-5.4800

> <Gold.Chemscore.Hbond>
2.5503

> <Gold.Chemscore.Metal>
0.0000

> <Gold.Chemscore.Lipo>
85.1507

> <Gold.Chemscore.Internal_Hbond>
0.0000

> <Gold.Chemscore.DEClash>
0.1744

> <Gold.Chemscore.DEInternal>
2.9817

> <Gold.Chemscore.Rot>
1.6826

> <Gold.Chemscore.Internal.Correction>
   9.000000E+99

> <Gold.Chemscore.Hbonds>
donor molecule, donor type, donor heavy atom, donor atom, acceptor molecule, acceptor atom, score
      P1  H  6896  6908       L1    25  0.06
      P1  H  6931  6943       L1     1  0.15
      P1  H 10752 10765       L1    10  0.79

> <Gold.Chemscore.Hbond.Weighted>
-8.5179

> <Gold.Chemscore.Metal.Weighted>
-0.0000

> <Gold.Chemscore.Lipo.Weighted>
-9.9626

> <Gold.Chemscore.Internal_Hbond.Weighted>
0.0000

> <Gold.Chemscore.DEClash.Weighted>
0.1744

> <Gold.Chemscore.DEInternal.Weighted>
2.9817

> <Gold.Chemscore.Rot.Weighted>
4.3076

> <Gold.Chemscore.Internal.Correction.Weighted>
   9.000000E+99

> <Gold.Protein.RotatedTorsions>
[ 6907 6896 6895 6894 ] final  135.54 input  -60.11 | X-H torsion
[ 7974 7965 7964 7962 ] final   -6.67 input  175.53 | X-H torsion
[ 8008 7997 7996 7995 ] final -145.76 input   59.86 | X-H torsion
[ 10167 10162 10161 10158 ] final  -91.13 input  -65.29 | X-H torsion
[ 10718 10713 10712 10709 ] final   24.81 input   66.30 | X-H torsion
[ 10763 10752 10751 10750 ] final  169.89 input  -60.55 | X-H torsion
[ 11005 11000 10999 10996 ] final  159.69 input  -57.11 | X-H torsion

> <Gold.Protein.ActiveResidues>
 VAL166  LYS551  ARG553  GLY616  TRP617  ASP618  TYR619  PRO620  LYS621  CYS622 
 ASP623  PHE694  ASN695  SER759  ASP760  ASP761  ALA762  ILE779  LEU786  VAL792 
 PHE793  MET794  SER795  GLU796  ALA797  LYS798  CYS799  TRP800  GLU811  SER814 

> <Gold.Protein.RotatedAtoms>
  152.2993  133.5639  159.5607 H   0  0  0  0  0  0  0  0  0  0  0  0  # atno 6907 bound_to 6896
  150.7270  134.0315  159.3744 H   0  0  0  0  0  0  0  0  0  0  0  0  # atno 6908 bound_to 6896
  151.8216  135.0650  160.0476 H   0  0  0  0  0  0  0  0  0  0  0  0  # atno 6909 bound_to 6896
  146.2325  140.2204  142.8337 H   0  0  0  0  0  0  0  0  0  0  0  0  # atno 7974 bound_to 7965
  155.5483  140.0614  157.2855 H   0  0  0  0  0  0  0  0  0  0  0  0  # atno 8008 bound_to 7997
  154.4429  140.1907  156.0705 H   0  0  0  0  0  0  0  0  0  0  0  0  # atno 8009 bound_to 7997
  156.0534  140.3281  155.7381 H   0  0  0  0  0  0  0  0  0  0  0  0  # atno 8010 bound_to 7997
  140.3480  143.2906  151.9759 H   0  0  0  0  0  0  0  0  0  0  0  0  # atno 10167 bound_to 10162
  157.1849  130.6819  149.6127 H   0  0  0  0  0  0  0  0  0  0  0  0  # atno 10718 bound_to 10713
  154.3897  135.2754  155.2162 H   0  0  0  0  0  0  0  0  0  0  0  0  # atno 10763 bound_to 10752
  154.4233  135.5995  153.6027 H   0  0  0  0  0  0  0  0  0  0  0  0  # atno 10764 bound_to 10752
  152.9832  135.5978  154.4150 H   0  0  0  0  0  0  0  0  0  0  0  0  # atno 10765 bound_to 10752
  140.1986  134.8354  157.2993 H   0  0  0  0  0  0  0  0  0  0  0  0  # atno 11005 bound_to 11000
  144.9636  140.8300  143.5498 LP  0  0  0  0  0  0  0  0  0  0  0  0  # atno 17320 bound_to 7965
  145.2178  139.2173  143.5109 LP  0  0  0  0  0  0  0  0  0  0  0  0  # atno 17321 bound_to 7965
  139.4830  144.6101  151.7450 LP  0  0  0  0  0  0  0  0  0  0  0  0  # atno 17342 bound_to 10162
  140.5246  144.0825  150.6033 LP  0  0  0  0  0  0  0  0  0  0  0  0  # atno 17343 bound_to 10162
  155.9719  130.4634  150.6181 LP  0  0  0  0  0  0  0  0  0  0  0  0  # atno 17370 bound_to 10713
  157.3917  131.0796  151.1388 LP  0  0  0  0  0  0  0  0  0  0  0  0  # atno 17371 bound_to 10713
  140.2079  134.4174  155.7628 LP  0  0  0  0  0  0  0  0  0  0  0  0  # atno 17394 bound_to 11000
  141.2227  133.7104  156.8290 LP  0  0  0  0  0  0  0  0  0  0  0  0  # atno 17395 bound_to 11000

$$$$
