AV-unprocessed.smi:937|AV-procd|sdf|4216|dock6
  -GOLD-   22720 2123D 1   1.00000     0.00000
 Structure written by MMmdl.
 46 47  0  0  0  0  0  0  0  0  2 V2000
  151.2708  143.5423  157.9262 C   0  0  0  0  0  0  0  0  0  0  0  0
  150.9853  142.3215  157.0776 C   0  0  0  0  0  0  0  0  0  0  0  0
  151.6261  141.0829  157.2961 C   0  0  0  0  0  0  0  0  0  0  0  0
  151.3138  139.9893  156.4617 C   0  0  0  0  0  0  0  0  0  0  0  0
  150.3668  140.1554  155.4273 C   0  0  0  0  0  0  0  0  0  0  0  0
  150.0168  139.0044  154.5042 C   0  0  0  0  0  0  0  0  0  0  0  0
  148.5034  138.8895  154.2783 C   0  0  0  0  0  0  0  0  0  0  0  0
  148.1478  137.5454  153.8454 N   0  0  0  0  0  0  0  0  0  0  0  0
  147.1582  136.8110  154.3789 C   0  0  0  0  0  0  0  0  0  0  0  0
  146.4382  137.2096  155.2921 O   0  0  0  0  0  0  0  0  0  0  0  0
  147.0142  135.5845  153.8459 N   0  0  0  0  0  0  0  0  0  0  0  0
  146.0428  134.5424  154.1944 C   0  0  1  0  0  0  0  0  0  0  0  0
  144.6783  135.1409  154.6005 C   0  0  0  0  0  0  0  0  0  0  0  0
  143.9446  135.7698  153.4052 C   0  0  0  0  0  0  0  0  0  0  0  0
  143.7821  134.7613  152.2576 C   0  0  0  0  0  0  0  0  0  0  0  0
  145.1408  134.1832  151.8096 C   0  0  2  0  0  0  0  0  0  0  0  0
  144.9876  133.1796  150.6480 C   0  0  0  0  0  0  0  0  0  0  0  0
  146.1784  132.7394  150.2400 F   0  0  0  0  0  0  0  0  0  0  0  0
  144.2536  132.1373  151.0379 F   0  0  0  0  0  0  0  0  0  0  0  0
  144.3687  133.7625  149.6211 F   0  0  0  0  0  0  0  0  0  0  0  0
  145.8792  133.5597  153.0172 C   0  0  0  0  0  0  0  0  0  0  0  0
  149.7569  141.4167  155.2576 C   0  0  0  0  0  0  0  0  0  0  0  0
  150.0839  142.4397  156.0770 N   0  3  0  0  0  0  0  0  0  0  0  0
  152.0058  143.3202  158.7005 H   0  0  0  0  0  0  0  0  0  0  0  0
  150.3588  143.8901  158.4120 H   0  0  0  0  0  0  0  0  0  0  0  0
  151.6622  144.3506  157.3078 H   0  0  0  0  0  0  0  0  0  0  0  0
  152.3502  140.9699  158.0901 H   0  0  0  0  0  0  0  0  0  0  0  0
  151.7995  139.0363  156.6144 H   0  0  0  0  0  0  0  0  0  0  0  0
  150.5299  139.1383  153.5508 H   0  0  0  0  0  0  0  0  0  0  0  0
  150.4024  138.0791  154.9347 H   0  0  0  0  0  0  0  0  0  0  0  0
  147.9741  139.1337  155.2011 H   0  0  0  0  0  0  0  0  0  0  0  0
  148.1775  139.6035  153.5207 H   0  0  0  0  0  0  0  0  0  0  0  0
  148.6924  137.1403  153.0979 H   0  0  0  0  0  0  0  0  0  0  0  0
  147.6770  135.3342  153.1262 H   0  0  0  0  0  0  0  0  0  0  0  0
  146.4400  133.9735  155.0367 H   0  0  0  0  0  0  0  0  0  0  0  0
  144.0558  134.3498  155.0206 H   0  0  0  0  0  0  0  0  0  0  0  0
  144.7970  135.8795  155.3937 H   0  0  0  0  0  0  0  0  0  0  0  0
  142.9653  136.1301  153.7214 H   0  0  0  0  0  0  0  0  0  0  0  0
  144.4931  136.6441  153.0523 H   0  0  0  0  0  0  0  0  0  0  0  0
  143.1229  133.9528  152.5761 H   0  0  0  0  0  0  0  0  0  0  0  0
  143.2864  135.2489  151.4178 H   0  0  0  0  0  0  0  0  0  0  0  0
  145.7449  135.0125  151.4383 H   0  0  0  0  0  0  0  0  0  0  0  0
  146.8582  133.1900  152.7095 H   0  0  0  0  0  0  0  0  0  0  0  0
  145.3251  132.6861  153.3626 H   0  0  0  0  0  0  0  0  0  0  0  0
  149.0263  141.6388  154.4934 H   0  0  0  0  0  0  0  0  0  0  0  0
  149.6320  143.3429  155.9323 H   0  0  0  0  0  0  0  0  0  0  0  0
  1  2  1  0  0  0  0
  1 24  1  0  0  0  0
  1 25  1  0  0  0  0
  1 26  1  0  0  0  0
  2 23  1  0  0  0  0
  2  3  2  0  0  0  0
  3  4  1  0  0  0  0
  3 27  1  0  0  0  0
  4  5  2  0  0  0  0
  4 28  1  0  0  0  0
  5  6  1  0  0  0  0
  5 22  1  0  0  0  0
  6  7  1  0  0  0  0
  6 29  1  0  0  0  0
  6 30  1  0  0  0  0
  7  8  1  0  0  0  0
  7 31  1  0  0  0  0
  7 32  1  0  0  0  0
  8  9  1  0  0  0  0
  8 33  1  0  0  0  0
  9 10  2  0  0  0  0
  9 11  1  0  0  0  0
 11 12  1  0  0  0  0
 11 34  1  0  0  0  0
 12 21  1  0  0  0  0
 12 13  1  0  0  0  0
 12 35  1  0  0  0  0
 13 14  1  0  0  0  0
 13 36  1  0  0  0  0
 13 37  1  0  0  0  0
 14 15  1  0  0  0  0
 14 38  1  0  0  0  0
 14 39  1  0  0  0  0
 15 16  1  0  0  0  0
 15 40  1  0  0  0  0
 15 41  1  0  0  0  0
 16 17  1  0  0  0  0
 16 21  1  0  0  0  0
 16 42  1  0  0  0  0
 17 18  1  0  0  0  0
 17 19  1  0  0  0  0
 17 20  1  0  0  0  0
 21 43  1  0  0  0  0
 21 44  1  0  0  0  0
 22 23  2  0  0  0  0
 22 45  1  0  0  0  0
 23 46  1  0  0  0  0
M  CHG  1  23   1
M  END
> <s_m_source_file>
AV-unprocessed.smi

> <i_m_source_file_index>
937

> <i_lp_mmshare_version>
43012

> <i_f3d_flags>
0

> <s_epik_input>
W0NIM11jMVtjSF1bY0hdYyhbY0hdbjEpW0NIMl1bQ0gyXVtOSF1DKD1PKVtOSF1bQ0BASF0yW0NIMl1bQ0gyXVtDSDJdW0NAQEhdKEMoRikoRilGKVtDSDJdMg==

> <s_epik_cmdline>
J2VwaWtfcHl0aG9uJywgJy1waCcsICc3LjAnLCAnLXRuJywgJzgnLCAnLW1hJywgJzIwMCcsICctbWV0YWxfYmluZGluZycsICctaW1hZScsICc8aW5maWxlLm1hZT4nLCAnLW9tYWUnLCAnPG91dGZpbGUubWFlPic=

> <r_epik_Ionization_Penalty>
1.4226

> <r_epik_Ionization_Penalty_Charging>
1.42255

> <r_epik_Ionization_Penalty_Neutral>
5.16456e-05

> <r_epik_State_Penalty>
1.50646

> <r_epik_Charging_Adjusted_Penalty>
2.92901

> <i_epik_Tot_Q>
1

> <i_epik_Tot_abs_Q>
1

> <r_epik_Metal_State_Penalty>
1.55846

> <b_epik_Metal_Only>
0

> <s_lp_Force_Field>
OPLS_2005

> <r_lp_Energy>
25.1059

> <b_lp_Chiralities_Consistent>
1

> <s_lp_Variant>
AV-unprocessed.smi:937-8

> <Gold.Version>
5.8.1

> <Gold.Id.Protein>
6NUR|6NUR_protein|mol2

> <Gold.PLP.Fitness>
48.1785

> <Gold.PLP.PLP>
-38.1770

> <Gold.PLP.part.hbond>
-2.8453

> <Gold.PLP.part.metal>
0.0000

> <Gold.PLP.part.buried>
-3.2701

> <Gold.PLP.part.nonpolar>
-31.8378

> <Gold.PLP.part.repulsive>
0.1762

> <Gold.PLP.ligand.clash>
0.0000

> <Gold.PLP.ligand.torsion>
0.7020

> <Gold.PLP.Chemscore.Hbond>
3.7913

> <Gold.PLP.Chemscore.CHOScore>
0.0000

> <Gold.PLP.Chemscore.Metal>
0.0000

> <Gold.Chemscore.Hbonds>
donor molecule, donor type, donor heavy atom, donor atom, acceptor molecule, acceptor atom, score
      L1  H     8    33       P1  7948  1.00
      L1  H    11    34       P1  7948  0.80
      L1  H    23    46       P1  8028  2.00

> <Gold.PLP.Chemscore.Internal.Correction>
0.0318

> <Gold.Rescore>
     Score         DG    S(hbond)    S(metal)    S(lipo)     H(rot)  DE(clash)    DE(int)     intcor
     17.84     -20.43       2.81        0.00      83.71       1.66       0.56       2.03       ----

> <Gold.Chemscore.Fitness>
17.8358

> <Gold.Chemscore.DG>
-20.4263

> <Gold.Chemscore.ZeroCoef>
-5.4800

> <Gold.Chemscore.Hbond>
2.8138

> <Gold.Chemscore.Metal>
0.0000

> <Gold.Chemscore.Lipo>
83.7096

> <Gold.Chemscore.Internal_Hbond>
0.0000

> <Gold.Chemscore.DEClash>
0.5615

> <Gold.Chemscore.DEInternal>
2.0290

> <Gold.Chemscore.Rot>
1.6585

> <Gold.Chemscore.Internal.Correction>
   9.000000E+99

> <Gold.Chemscore.Hbonds>
donor molecule, donor type, donor heavy atom, donor atom, acceptor molecule, acceptor atom, score
      L1  H     8    33       P1  7948  0.93
      L1  H    11    34       P1  7948  0.77
      L1  H    23    46       P1  8028  0.98

> <Gold.Chemscore.Hbond.Weighted>
-9.3980

> <Gold.Chemscore.Metal.Weighted>
-0.0000

> <Gold.Chemscore.Lipo.Weighted>
-9.7940

> <Gold.Chemscore.Internal_Hbond.Weighted>
0.0000

> <Gold.Chemscore.DEClash.Weighted>
0.5615

> <Gold.Chemscore.DEInternal.Weighted>
2.0290

> <Gold.Chemscore.Rot.Weighted>
4.2457

> <Gold.Chemscore.Internal.Correction.Weighted>
   9.000000E+99

> <Gold.Protein.RotatedTorsions>
[ 6907 6896 6895 6894 ] final  -99.23 input  -60.11 | X-H torsion
[ 7974 7965 7964 7962 ] final  129.46 input  175.53 | X-H torsion
[ 8008 7997 7996 7995 ] final -128.68 input   59.86 | X-H torsion
[ 10167 10162 10161 10158 ] final  -21.74 input  -65.29 | X-H torsion
[ 10718 10713 10712 10709 ] final   61.38 input   66.30 | X-H torsion
[ 10763 10752 10751 10750 ] final   15.54 input  -60.55 | X-H torsion
[ 11005 11000 10999 10996 ] final -138.10 input  -57.11 | X-H torsion

> <Gold.Protein.ActiveResidues>
 VAL166  LYS551  ARG553  GLY616  TRP617  ASP618  TYR619  PRO620  LYS621  CYS622 
 ASP623  PHE694  ASN695  SER759  ASP760  ASP761  ALA762  ILE779  LEU786  VAL792 
 PHE793  MET794  SER795  GLU796  ALA797  LYS798  CYS799  TRP800  GLU811  SER814 

> <Gold.Protein.RotatedAtoms>
  150.7073  134.1073  159.3987 H   0  0  0  0  0  0  0  0  0  0  0  0  # atno 6907 bound_to 6896
  151.9059  135.0356  160.0519 H   0  0  0  0  0  0  0  0  0  0  0  0  # atno 6908 bound_to 6896
  152.2375  133.5073  159.5288 H   0  0  0  0  0  0  0  0  0  0  0  0  # atno 6909 bound_to 6896
  145.0285  139.4068  143.5162 H   0  0  0  0  0  0  0  0  0  0  0  0  # atno 7974 bound_to 7965
  155.2667  140.0438  157.3003 H   0  0  0  0  0  0  0  0  0  0  0  0  # atno 8008 bound_to 7997
  154.5678  140.2365  155.8206 H   0  0  0  0  0  0  0  0  0  0  0  0  # atno 8009 bound_to 7997
  156.2099  140.3002  155.9716 H   0  0  0  0  0  0  0  0  0  0  0  0  # atno 8010 bound_to 7997
  140.7283  143.4599  151.0394 H   0  0  0  0  0  0  0  0  0  0  0  0  # atno 10167 bound_to 10162
  157.5823  130.8991  149.9453 H   0  0  0  0  0  0  0  0  0  0  0  0  # atno 10718 bound_to 10713
  153.1515  135.6779  153.8875 H   0  0  0  0  0  0  0  0  0  0  0  0  # atno 10763 bound_to 10752
  153.8299  135.3119  155.3419 H   0  0  0  0  0  0  0  0  0  0  0  0  # atno 10764 bound_to 10752
  154.7866  135.4859  154.0046 H   0  0  0  0  0  0  0  0  0  0  0  0  # atno 10765 bound_to 10752
  140.8648  134.2123  157.4686 H   0  0  0  0  0  0  0  0  0  0  0  0  # atno 11005 bound_to 11000
  146.3495  139.9821  142.8694 LP  0  0  0  0  0  0  0  0  0  0  0  0  # atno 17320 bound_to 7965
  145.1802  140.9763  143.4271 LP  0  0  0  0  0  0  0  0  0  0  0  0  # atno 17321 bound_to 7965
  139.8283  143.7726  152.3179 LP  0  0  0  0  0  0  0  0  0  0  0  0  # atno 17342 bound_to 10162
  139.7833  144.7437  151.0058 LP  0  0  0  0  0  0  0  0  0  0  0  0  # atno 17343 bound_to 10162
  156.0870  130.3667  150.0468 LP  0  0  0  0  0  0  0  0  0  0  0  0  # atno 17370 bound_to 10713
  156.8606  130.9490  151.3618 LP  0  0  0  0  0  0  0  0  0  0  0  0  # atno 17371 bound_to 10713
  139.8709  134.9747  156.4855 LP  0  0  0  0  0  0  0  0  0  0  0  0  # atno 17394 bound_to 11000
  140.8641  133.8038  155.9295 LP  0  0  0  0  0  0  0  0  0  0  0  0  # atno 17395 bound_to 11000

$$$$
