AV-unprocessed.smi:1055|AV-procd|sdf|4625|dock5
  -GOLD-   22720 3123D 1   1.00000     0.00000
 Structure written by MMmdl.
 52 53  0  0  0  0  0  0  0  0  3 V2000
  144.9285  143.5014  157.6152 C   0  0  0  0  0  0  0  0  0  0  0  0
  144.1393  143.6600  156.5399 C   0  0  0  0  0  0  0  0  0  0  0  0
  143.5557  145.0089  156.1637 C   0  0  0  0  0  0  0  0  0  0  0  0
  143.7713  142.4983  155.6304 C   0  0  0  0  0  0  0  0  0  0  0  0
  144.9600  141.9368  154.9412 N   0  3  2  0  0  0  0  0  0  0  0  0
  145.7951  141.1102  155.8490 C   0  0  0  0  0  0  0  0  0  0  0  0
  146.9311  140.4118  155.0799 C   0  0  0  0  0  0  0  0  0  0  0  0
  147.7995  141.4096  154.2941 C   0  0  2  0  0  0  0  0  0  0  0  0
  148.6364  142.1926  155.2036 N   0  0  0  0  0  0  0  0  0  0  0  0
  149.4100  141.6818  156.1727 C   0  0  0  0  0  0  0  0  0  0  0  0
  149.5204  140.4748  156.3850 O   0  0  0  0  0  0  0  0  0  0  0  0
  150.0480  142.6515  156.8511 N   0  0  0  0  0  0  0  0  0  0  0  0
  150.9225  142.5230  157.9648 C   0  0  0  0  0  0  0  0  0  0  0  0
  151.5107  141.2627  158.1990 C   0  0  0  0  0  0  0  0  0  0  0  0
  152.3971  141.0911  159.2820 C   0  0  0  0  0  0  0  0  0  0  0  0
  152.7013  142.1881  160.1248 C   0  0  0  0  0  0  0  0  0  0  0  0
  153.5799  142.0968  161.2260 N   0  0  0  0  0  0  0  0  0  0  0  0
  153.4347  143.0179  162.3477 C   0  0  0  0  0  0  0  0  0  0  0  0
  154.6137  141.0704  161.2459 C   0  0  0  0  0  0  0  0  0  0  0  0
  152.1210  143.3823  159.8523 N   0  3  0  0  0  0  0  0  0  0  0  0
  151.2655  143.5905  158.8284 C   0  0  0  0  0  0  0  0  0  0  0  0
  146.9028  142.3099  153.4210 C   0  0  0  0  0  0  0  0  0  0  0  0
  145.7705  142.9628  154.2332 C   0  0  0  0  0  0  0  0  0  0  0  0
  145.1798  144.3353  158.2546 H   0  0  0  0  0  0  0  0  0  0  0  0
  145.3365  142.5353  157.8743 H   0  0  0  0  0  0  0  0  0  0  0  0
  142.4668  144.9581  156.1431 H   0  0  0  0  0  0  0  0  0  0  0  0
  143.9042  145.3178  155.1780 H   0  0  0  0  0  0  0  0  0  0  0  0
  143.8444  145.7798  156.8792 H   0  0  0  0  0  0  0  0  0  0  0  0
  143.2650  141.7117  156.1926 H   0  0  0  0  0  0  0  0  0  0  0  0
  143.0548  142.8697  154.8963 H   0  0  0  0  0  0  0  0  0  0  0  0
  146.2021  141.7373  156.6438 H   0  0  0  0  0  0  0  0  0  0  0  0
  145.1744  140.3540  156.3311 H   0  0  0  0  0  0  0  0  0  0  0  0
  147.5479  139.8305  155.7664 H   0  0  0  0  0  0  0  0  0  0  0  0
  146.4964  139.6934  154.3834 H   0  0  0  0  0  0  0  0  0  0  0  0
  148.4594  140.8350  153.6414 H   0  0  0  0  0  0  0  0  0  0  0  0
  148.6074  143.1963  155.0996 H   0  0  0  0  0  0  0  0  0  0  0  0
  149.9179  143.5923  156.5093 H   0  0  0  0  0  0  0  0  0  0  0  0
  151.2831  140.4251  157.5558 H   0  0  0  0  0  0  0  0  0  0  0  0
  152.8315  140.1165  159.4468 H   0  0  0  0  0  0  0  0  0  0  0  0
  153.5302  144.0510  162.0119 H   0  0  0  0  0  0  0  0  0  0  0  0
  154.1979  142.8434  163.1064 H   0  0  0  0  0  0  0  0  0  0  0  0
  152.4596  142.8944  162.8197 H   0  0  0  0  0  0  0  0  0  0  0  0
  155.2942  141.1961  160.4033 H   0  0  0  0  0  0  0  0  0  0  0  0
  154.1689  140.0765  161.1905 H   0  0  0  0  0  0  0  0  0  0  0  0
  155.2043  141.1197  162.1608 H   0  0  0  0  0  0  0  0  0  0  0  0
  150.9056  144.6043  158.7409 H   0  0  0  0  0  0  0  0  0  0  0  0
  147.4965  143.0768  152.9224 H   0  0  0  0  0  0  0  0  0  0  0  0
  146.4635  141.7077  152.6247 H   0  0  0  0  0  0  0  0  0  0  0  0
  145.1408  143.5393  153.5554 H   0  0  0  0  0  0  0  0  0  0  0  0
  146.1810  143.6689  154.9565 H   0  0  0  0  0  0  0  0  0  0  0  0
  144.6042  141.3081  154.2349 H   0  0  0  0  0  0  0  0  0  0  0  0
  152.3457  144.1741  160.4550 H   0  0  0  0  0  0  0  0  0  0  0  0
  1  2  2  0  0  0  0
  1 24  1  0  0  0  0
  1 25  1  0  0  0  0
  2  3  1  0  0  0  0
  2  4  1  0  0  0  0
  3 26  1  0  0  0  0
  3 27  1  0  0  0  0
  3 28  1  0  0  0  0
  4  5  1  0  0  0  0
  4 29  1  0  0  0  0
  4 30  1  0  0  0  0
  5 23  1  0  0  0  0
  5  6  1  0  0  0  0
  5 51  1  0  0  0  0
  6  7  1  0  0  0  0
  6 31  1  0  0  0  0
  6 32  1  0  0  0  0
  7  8  1  0  0  0  0
  7 33  1  0  0  0  0
  7 34  1  0  0  0  0
  8  9  1  0  0  0  0
  8 22  1  0  0  0  0
  8 35  1  0  0  0  0
  9 10  1  0  0  0  0
  9 36  1  0  0  0  0
 10 11  2  0  0  0  0
 10 12  1  0  0  0  0
 12 13  1  0  0  0  0
 12 37  1  0  0  0  0
 13 21  1  0  0  0  0
 13 14  2  0  0  0  0
 14 15  1  0  0  0  0
 14 38  1  0  0  0  0
 15 16  2  0  0  0  0
 15 39  1  0  0  0  0
 16 17  1  0  0  0  0
 16 20  1  0  0  0  0
 17 18  1  0  0  0  0
 17 19  1  0  0  0  0
 18 40  1  0  0  0  0
 18 41  1  0  0  0  0
 18 42  1  0  0  0  0
 19 43  1  0  0  0  0
 19 44  1  0  0  0  0
 19 45  1  0  0  0  0
 20 21  2  0  0  0  0
 20 52  1  0  0  0  0
 21 46  1  0  0  0  0
 22 23  1  0  0  0  0
 22 47  1  0  0  0  0
 22 48  1  0  0  0  0
 23 49  1  0  0  0  0
 23 50  1  0  0  0  0
M  CHG  1   5   1
M  CHG  1  20   1
M  END
> <s_m_source_file>
AV-unprocessed.smi

> <i_m_source_file_index>
1055

> <i_lp_mmshare_version>
43012

> <i_f3d_flags>
0

> <s_epik_input>
W0NIMl09QyhbQ0gzXSlbQ0gyXU4xW0NIMl1bQ0gyXVtDSF0oW0NIMl1bQ0gyXTEpW05IXUMoPU8pW05IXWMyW2NIXVtjSF1jKE4oW0NIM10pW0NIM10pbltjSF0y

> <s_epik_cmdline>
J2VwaWtfcHl0aG9uJywgJy1waCcsICc3LjAnLCAnLXRuJywgJzgnLCAnLW1hJywgJzIwMCcsICctbWV0YWxfYmluZGluZycsICctaW1hZScsICc8aW5maWxlLm1hZT4nLCAnLW9tYWUnLCAnPG91dGZpbGUubWFlPic=

> <r_lp_tautomer_probability>
0.999994

> <r_epik_Ionization_Penalty>
0.344238

> <r_epik_Ionization_Penalty_Charging>
0.344219

> <r_epik_Ionization_Penalty_Neutral>
1.87459e-05

> <r_epik_State_Penalty>
0.320654

> <r_epik_Charging_Adjusted_Penalty>
0.664873

> <i_epik_Tot_Q>
2

> <i_epik_Tot_abs_Q>
2

> <r_epik_Metal_State_Penalty>
0.58246

> <b_epik_Metal_Only>
0

> <s_lp_Force_Field>
OPLS_2005

> <r_lp_Energy>
26.4869

> <b_lp_Chiralities_Consistent>
1

> <s_lp_Variant>
AV-unprocessed.smi:1055-2

> <Gold.Version>
5.8.1

> <Gold.Id.Protein>
6NUR|6NUR_protein|mol2

> <Gold.PLP.Fitness>
53.1395

> <Gold.PLP.PLP>
-42.3331

> <Gold.PLP.part.hbond>
-3.0000

> <Gold.PLP.part.metal>
0.0000

> <Gold.PLP.part.buried>
-7.2330

> <Gold.PLP.part.nonpolar>
-32.1299

> <Gold.PLP.part.repulsive>
0.2962

> <Gold.PLP.ligand.clash>
0.0000

> <Gold.PLP.ligand.torsion>
0.5160

> <Gold.PLP.Chemscore.Hbond>
3.9280

> <Gold.PLP.Chemscore.CHOScore>
0.0000

> <Gold.PLP.Chemscore.Metal>
0.0000

> <Gold.Chemscore.Hbonds>
donor molecule, donor type, donor heavy atom, donor atom, acceptor molecule, acceptor atom, score
      L1  H     5    51       P1 10175  1.53
      L1  H     9    36       P1  8028  1.00
      L1  H    12    37       P1  8028  0.96

> <Gold.PLP.Chemscore.Internal.Correction>
0.0544

> <Gold.Rescore>
     Score         DG    S(hbond)    S(metal)    S(lipo)     H(rot)  DE(clash)    DE(int)     intcor
     17.23     -21.71       2.82        0.00      87.68       1.35       1.29       3.19       ----

> <Gold.Chemscore.Fitness>
17.2334

> <Gold.Chemscore.DG>
-21.7124

> <Gold.Chemscore.ZeroCoef>
-5.4800

> <Gold.Chemscore.Hbond>
2.8207

> <Gold.Chemscore.Metal>
0.0000

> <Gold.Chemscore.Lipo>
87.6777

> <Gold.Chemscore.Internal_Hbond>
0.0000

> <Gold.Chemscore.DEClash>
1.2915

> <Gold.Chemscore.DEInternal>
3.1874

> <Gold.Chemscore.Rot>
1.3465

> <Gold.Chemscore.Internal.Correction>
   9.000000E+99

> <Gold.Chemscore.Hbonds>
donor molecule, donor type, donor heavy atom, donor atom, acceptor molecule, acceptor atom, score
      L1  H     5    51       P1 10175  0.45
      L1  H     9    36       P1  8028  0.96
      L1  H    12    37       P1  8028  0.92

> <Gold.Chemscore.Hbond.Weighted>
-9.4211

> <Gold.Chemscore.Metal.Weighted>
-0.0000

> <Gold.Chemscore.Lipo.Weighted>
-10.2583

> <Gold.Chemscore.Internal_Hbond.Weighted>
0.0000

> <Gold.Chemscore.DEClash.Weighted>
1.2915

> <Gold.Chemscore.DEInternal.Weighted>
3.1874

> <Gold.Chemscore.Rot.Weighted>
3.4470

> <Gold.Chemscore.Internal.Correction.Weighted>
   9.000000E+99

> <Gold.Protein.RotatedTorsions>
[ 6907 6896 6895 6894 ] final  -30.28 input  -60.11 | X-H torsion
[ 7974 7965 7964 7962 ] final    0.92 input  175.53 | X-H torsion
[ 8008 7997 7996 7995 ] final -140.88 input   59.86 | X-H torsion
[ 10167 10162 10161 10158 ] final  -97.18 input  -65.29 | X-H torsion
[ 10718 10713 10712 10709 ] final  -73.73 input   66.30 | X-H torsion
[ 10763 10752 10751 10750 ] final -122.00 input  -60.55 | X-H torsion
[ 11005 11000 10999 10996 ] final  145.12 input  -57.11 | X-H torsion

> <Gold.Protein.ActiveResidues>
 VAL166  LYS551  ARG553  GLY616  TRP617  ASP618  TYR619  PRO620  LYS621  CYS622 
 ASP623  PHE694  ASN695  SER759  ASP760  ASP761  ALA762  ILE779  LEU786  VAL792 
 PHE793  MET794  SER795  GLU796  ALA797  LYS798  CYS799  TRP800  GLU811  SER814 

> <Gold.Protein.RotatedAtoms>
  151.1076  135.0008  159.8478 H   0  0  0  0  0  0  0  0  0  0  0  0  # atno 6907 bound_to 6896
  152.5441  134.1874  159.8670 H   0  0  0  0  0  0  0  0  0  0  0  0  # atno 6908 bound_to 6896
  151.1922  133.4616  159.2628 H   0  0  0  0  0  0  0  0  0  0  0  0  # atno 6909 bound_to 6896
  146.2437  140.1064  142.8345 H   0  0  0  0  0  0  0  0  0  0  0  0  # atno 7974 bound_to 7965
  155.4687  140.0551  157.2982 H   0  0  0  0  0  0  0  0  0  0  0  0  # atno 8008 bound_to 7997
  154.4707  140.2039  155.9955 H   0  0  0  0  0  0  0  0  0  0  0  0  # atno 8009 bound_to 7997
  156.1051  140.3213  155.8000 H   0  0  0  0  0  0  0  0  0  0  0  0  # atno 8010 bound_to 7997
  140.2861  143.3251  152.0393 H   0  0  0  0  0  0  0  0  0  0  0  0  # atno 10167 bound_to 10162
  156.0269  130.4400  150.2785 H   0  0  0  0  0  0  0  0  0  0  0  0  # atno 10718 bound_to 10713
  154.8680  135.4148  154.2711 H   0  0  0  0  0  0  0  0  0  0  0  0  # atno 10763 bound_to 10752
  153.3621  135.7004  153.6709 H   0  0  0  0  0  0  0  0  0  0  0  0  # atno 10764 bound_to 10752
  153.5606  135.3611  155.2770 H   0  0  0  0  0  0  0  0  0  0  0  0  # atno 10765 bound_to 10752
  140.0687  134.9164  157.1308 H   0  0  0  0  0  0  0  0  0  0  0  0  # atno 11005 bound_to 11000
  145.0524  140.9027  143.4987 LP  0  0  0  0  0  0  0  0  0  0  0  0  # atno 17320 bound_to 7965
  145.1165  139.2722  143.5611 LP  0  0  0  0  0  0  0  0  0  0  0  0  # atno 17321 bound_to 7965
  139.4950  144.6558  151.6576 LP  0  0  0  0  0  0  0  0  0  0  0  0  # atno 17342 bound_to 10162
  140.5771  144.0009  150.6248 LP  0  0  0  0  0  0  0  0  0  0  0  0  # atno 17343 bound_to 10162
  157.0889  131.0164  151.3129 LP  0  0  0  0  0  0  0  0  0  0  0  0  # atno 17370 bound_to 10713
  157.4870  130.7799  149.7469 LP  0  0  0  0  0  0  0  0  0  0  0  0  # atno 17371 bound_to 10713
  140.3660  134.2442  155.7182 LP  0  0  0  0  0  0  0  0  0  0  0  0  # atno 17394 bound_to 11000
  141.2003  133.7990  157.0495 LP  0  0  0  0  0  0  0  0  0  0  0  0  # atno 17395 bound_to 11000

$$$$
