#       Name:                AV-unprocessed.smi:1875
#       Creating user name   scv26
#       Creation time:       Fri Mar 27 09:33:59 2020


#       File generated by GOLD software.
#

@<TRIPOS>MOLECULE
AV-unprocessed.smi:1875
    53    55     1
SMALL
NO_CHARGES


@<TRIPOS>ATOM
      1 ****        -5.5066   5.2780  -3.1381 C.3            1 S1                 0.0000
      2 ****        -4.9661   4.6624  -1.8640 C.ar           1 S1                 0.0000
      3 ****        -4.9507   5.4420  -0.7781 N.ar           1 S1                 0.0000
      4 ****        -4.4593   4.8984   0.3569 C.ar           1 S1                 0.0000
      5 ****        -3.9838   3.5724   0.3993 C.ar           1 S1                 0.0000
      6 ****        -4.0518   2.8475  -0.8093 C.ar           1 S1                 0.0000
      7 ****        -3.5640   1.4160  -0.8945 C.3            1 S1                 0.0000
      8 ****        -2.1142   1.3266  -0.7613 N.3            1 S1                 0.0000
      9 ****        -1.6105  -0.0421  -0.8064 C.3            1 S1                 0.0000
     10 ****        -0.0846  -0.0781  -0.6195 C.3            1 S1                 0.0000
     11 ****         0.2017   0.0632   0.7591 O.3            1 S1                 0.0000
     12 ****         0.5206  -1.4012  -1.1269 C.3            1 S1                 0.0000
     13 ****         1.9639  -1.4479  -0.9739 N.pl3          1 S1                 0.0000
     14 ****         2.8814  -0.9111  -1.8007 C.2            1 S1                 0.0000
     15 ****         4.1612  -1.0695  -1.4754 N.2            1 S1                 0.0000
     16 ****         4.0622  -1.7916  -0.2985 C.ar           1 S1                 0.0000
     17 ****         5.0681  -2.2843   0.5615 C.ar           1 S1                 0.0000
     18 ****         4.7337  -3.0062   1.7292 C.ar           1 S1                 0.0000
     19 ****         5.8478  -3.5179   2.6255 C.3            1 S1                 0.0000
     20 ****         3.3735  -3.2448   2.0520 C.ar           1 S1                 0.0000
     21 ****         2.9904  -4.0153   3.3032 C.3            1 S1                 0.0000
     22 ****         2.3561  -2.7613   1.2028 C.ar           1 S1                 0.0000
     23 ****         2.7014  -2.0447   0.0432 C.ar           1 S1                 0.0000
     24 ****        -4.5432   3.3969  -1.9423 N.ar           1 S1                 0.0000
     25 ****        -6.2118   6.0807  -2.9187 H              1 S1                 0.0000
     26 ****        -6.0244   4.5315  -3.7415 H              1 S1                 0.0000
     27 ****        -4.6893   5.6916  -3.7298 H              1 S1                 0.0000
     28 ****        -4.4462   5.5252   1.2362 H              1 S1                 0.0000
     29 ****        -3.5895   3.1384   1.3064 H              1 S1                 0.0000
     30 ****        -4.0505   0.8424  -0.1047 H              1 S1                 0.0000
     31 ****        -3.8831   0.9783  -1.8417 H              1 S1                 0.0000
     32 ****        -1.8264   1.7633   0.1088 H              1 S1                 0.0000
     33 ****        -2.0987  -0.6614  -0.0525 H              1 S1                 0.0000
     34 ****        -1.8650  -0.4769  -1.7738 H              1 S1                 0.0000
     35 ****         0.3762   0.7500  -1.1609 H              1 S1                 0.0000
     36 ****        -0.1813  -0.6660   1.2221 H              1 S1                 0.0000
     37 ****         0.0839  -2.2511  -0.6009 H              1 S1                 0.0000
     38 ****         0.2887  -1.5387  -2.1839 H              1 S1                 0.0000
     39 ****         2.5927  -0.3733  -2.6920 H              1 S1                 0.0000
     40 ****         6.1036  -2.1016   0.3155 H              1 S1                 0.0000
     41 ****         5.7983  -4.6032   2.7146 H              1 S1                 0.0000
     42 ****         5.7663  -3.0831   3.6221 H              1 S1                 0.0000
     43 ****         6.8297  -3.2603   2.2274 H              1 S1                 0.0000
     44 ****         1.9079  -4.0990   3.4032 H              1 S1                 0.0000
     45 ****         3.3705  -3.5127   4.1929 H              1 S1                 0.0000
     46 ****         3.4024  -5.0241   3.2717 H              1 S1                 0.0000
     47 ****         1.3167  -2.9356   1.4376 H              1 S1                 0.0000
     48 ****        -5.2871   6.3833  -0.8047 LP             1 S1                 0.0000
     49 ****        -1.7232   1.8046  -1.5479 LP             1 S1                 0.0000
     50 ****        -0.1875   0.9196   1.0981 LP             1 S1                 0.0000
     51 ****         1.1919   0.0686   0.8989 LP             1 S1                 0.0000
     52 ****         4.9792  -0.7511  -1.9546 LP             1 S1                 0.0000
     53 ****        -4.5881   2.8813  -2.7980 LP             1 S1                 0.0000
@<TRIPOS>BOND
    1    1    2 1     
    2    1   25 1     
    3    1   26 1     
    4    1   27 1     
    5    2   24 ar    
    6    2    3 ar    
    7    3    4 ar    
    8    4    5 ar    
    9    4   28 1     
   10    5    6 ar    
   11    5   29 1     
   12    6    7 1     
   13    6   24 ar    
   14    7    8 1     
   15    7   30 1     
   16    7   31 1     
   17    8    9 1     
   18    8   32 1     
   19    9   10 1     
   20    9   33 1     
   21    9   34 1     
   22   10   11 1     
   23   10   12 1     
   24   10   35 1     
   25   11   36 1     
   26   12   13 1     
   27   12   37 1     
   28   12   38 1     
   29   13   23 1     
   30   13   14 1     
   31   14   15 2     
   32   14   39 1     
   33   15   16 1     
   34   16   23 ar    
   35   16   17 ar    
   36   17   18 ar    
   37   17   40 1     
   38   18   19 1     
   39   18   20 ar    
   40   19   41 1     
   41   19   42 1     
   42   19   43 1     
   43   20   21 1     
   44   20   22 ar    
   45   21   44 1     
   46   21   45 1     
   47   21   46 1     
   48   22   23 ar    
   49   22   47 1     
   50    3   48 1     
   51    8   49 1     
   52   11   50 1     
   53   11   51 1     
   54   15   52 1     
   55   24   53 1     
@<TRIPOS>SUBSTRUCTURE
      1 S1             1
@<TRIPOS>SET
LONE_PAIRS      STATIC     ATOMS    <user>   **** ""
6 48 49 50 51 52 53
DONOR_HYDROGENS      STATIC     ATOMS    <user>   **** ""
2 32 36
ATOM$BLUE        STATIC     ATOMS    COLORGROUP SYSTEM
6 48 49 50 51 52 53
ATOM$RED        STATIC     ATOMS    COLORGROUP SYSTEM
2 32 36
