AV-unprocessed.smi:1041|AV-procd|sdf|4528|dock3
  -GOLD-   22720 2543D 1   1.00000     0.00000
 Structure written by MMmdl.
 53 54  0  0  0  0  0  0  0  0  2 V2000
  152.5447  142.8698  159.6968 C   0  0  0  0  0  0  0  0  0  0  0  0
  151.8955  143.8545  158.9108 O   0  0  0  0  0  0  0  0  0  0  0  0
  151.4198  143.3389  157.6786 C   0  0  0  0  0  0  0  0  0  0  0  0
  150.0840  142.6182  157.9201 C   0  0  0  0  0  0  0  0  0  0  0  0
  149.3978  142.2424  156.6573 N   0  3  2  0  0  0  0  0  0  0  0  0
  148.0458  141.6779  156.9030 C   0  0  0  0  0  0  0  0  0  0  0  0
  147.2972  141.4199  155.5846 C   0  0  0  0  0  0  0  0  0  0  0  0
  148.1027  140.4936  154.6516 C   0  0  1  0  0  0  0  0  0  0  0  0
  147.3985  140.2487  153.3038 C   0  0  0  0  0  0  0  0  0  0  0  0
  146.1524  139.5189  153.4885 N   0  0  0  0  0  0  0  0  0  0  0  0
  146.0515  138.2868  154.0060 C   0  0  0  0  0  0  0  0  0  0  0  0
  147.0134  137.6469  154.4292 O   0  0  0  0  0  0  0  0  0  0  0  0
  144.6462  137.6853  154.0446 C   0  0  0  0  0  0  0  0  0  0  0  0
  144.4740  136.3856  153.2597 C   0  0  0  0  0  0  0  0  0  0  0  0
  144.8971  136.2357  151.9703 C   0  0  0  0  0  0  0  0  0  0  0  0
  145.5864  137.3455  151.1958 C   0  0  0  0  0  0  0  0  0  0  0  0
  144.7197  135.0318  151.2744 N   0  0  0  0  0  0  0  0  0  0  0  0
  144.1429  134.0444  151.8763 C   0  0  0  0  0  0  0  0  0  0  0  0
  143.8951  132.6942  151.2378 C   0  0  0  0  0  0  0  0  0  0  0  0
  143.6852  134.1326  153.1898 N   0  0  0  0  0  0  0  0  0  0  0  0
  143.8049  135.2552  153.9330 C   0  0  0  0  0  0  0  0  0  0  0  0
  143.3599  135.2920  155.0792 O   0  0  0  0  0  0  0  0  0  0  0  0
  149.5051  141.0904  154.4463 C   0  0  0  0  0  0  0  0  0  0  0  0
  150.2090  141.3488  155.7886 C   0  0  0  0  0  0  0  0  0  0  0  0
  143.2381  133.3293  153.6071 H   0  0  0  0  0  0  0  0  0  0  0  0
  152.8880  143.3136  160.6312 H   0  0  0  0  0  0  0  0  0  0  0  0
  153.4139  142.4619  159.1789 H   0  0  0  0  0  0  0  0  0  0  0  0
  151.8678  142.0507  159.9430 H   0  0  0  0  0  0  0  0  0  0  0  0
  151.3214  144.1340  156.9396 H   0  0  0  0  0  0  0  0  0  0  0  0
  152.1447  142.6263  157.2819 H   0  0  0  0  0  0  0  0  0  0  0  0
  150.2370  141.7278  158.5316 H   0  0  0  0  0  0  0  0  0  0  0  0
  149.4449  143.2830  158.5033 H   0  0  0  0  0  0  0  0  0  0  0  0
  148.1351  140.7513  157.4723 H   0  0  0  0  0  0  0  0  0  0  0  0
  147.4628  142.3698  157.5124 H   0  0  0  0  0  0  0  0  0  0  0  0
  146.3227  140.9840  155.8077 H   0  0  0  0  0  0  0  0  0  0  0  0
  147.1009  142.3693  155.0843 H   0  0  0  0  0  0  0  0  0  0  0  0
  148.2188  139.5289  155.1487 H   0  0  0  0  0  0  0  0  0  0  0  0
  147.2013  141.2008  152.8077 H   0  0  0  0  0  0  0  0  0  0  0  0
  148.0438  139.6712  152.6406 H   0  0  0  0  0  0  0  0  0  0  0  0
  145.3047  139.9719  153.1778 H   0  0  0  0  0  0  0  0  0  0  0  0
  144.3733  137.5108  155.0856 H   0  0  0  0  0  0  0  0  0  0  0  0
  143.9364  138.4375  153.6980 H   0  0  0  0  0  0  0  0  0  0  0  0
  146.5397  137.5992  151.6597 H   0  0  0  0  0  0  0  0  0  0  0  0
  144.9649  138.2407  151.1662 H   0  0  0  0  0  0  0  0  0  0  0  0
  145.7864  137.0454  150.1666 H   0  0  0  0  0  0  0  0  0  0  0  0
  143.2412  132.8029  150.3724 H   0  0  0  0  0  0  0  0  0  0  0  0
  143.4269  131.9981  151.9351 H   0  0  0  0  0  0  0  0  0  0  0  0
  144.8372  132.2592  150.9033 H   0  0  0  0  0  0  0  0  0  0  0  0
  150.1118  140.4151  153.8419 H   0  0  0  0  0  0  0  0  0  0  0  0
  149.4329  142.0243  153.8869 H   0  0  0  0  0  0  0  0  0  0  0  0
  151.1845  141.7910  155.5911 H   0  0  0  0  0  0  0  0  0  0  0  0
  150.3899  140.4039  156.3037 H   0  0  0  0  0  0  0  0  0  0  0  0
  149.2543  143.1022  156.1464 H   0  0  0  0  0  0  0  0  0  0  0  0
  1  2  1  0  0  0  0
  1 26  1  0  0  0  0
  1 27  1  0  0  0  0
  1 28  1  0  0  0  0
  2  3  1  0  0  0  0
  3  4  1  0  0  0  0
  3 29  1  0  0  0  0
  3 30  1  0  0  0  0
  4  5  1  0  0  0  0
  4 31  1  0  0  0  0
  4 32  1  0  0  0  0
  5 24  1  0  0  0  0
  5  6  1  0  0  0  0
  5 53  1  0  0  0  0
  6  7  1  0  0  0  0
  6 33  1  0  0  0  0
  6 34  1  0  0  0  0
  7  8  1  0  0  0  0
  7 35  1  0  0  0  0
  7 36  1  0  0  0  0
  8  9  1  0  0  0  0
  8 23  1  0  0  0  0
  8 37  1  0  0  0  0
  9 10  1  0  0  0  0
  9 38  1  0  0  0  0
  9 39  1  0  0  0  0
 10 11  1  0  0  0  0
 10 40  1  0  0  0  0
 11 12  2  0  0  0  0
 11 13  1  0  0  0  0
 13 14  1  0  0  0  0
 13 41  1  0  0  0  0
 13 42  1  0  0  0  0
 14 21  1  0  0  0  0
 14 15  2  0  0  0  0
 15 16  1  0  0  0  0
 15 17  1  0  0  0  0
 16 43  1  0  0  0  0
 16 44  1  0  0  0  0
 16 45  1  0  0  0  0
 17 18  2  0  0  0  0
 18 19  1  0  0  0  0
 18 20  1  0  0  0  0
 19 46  1  0  0  0  0
 19 47  1  0  0  0  0
 19 48  1  0  0  0  0
 20 25  1  0  0  0  0
 20 21  1  0  0  0  0
 21 22  2  0  0  0  0
 23 24  1  0  0  0  0
 23 49  1  0  0  0  0
 23 50  1  0  0  0  0
 24 51  1  0  0  0  0
 24 52  1  0  0  0  0
M  CHG  1   5   1
M  END
> <s_m_source_file>
AV-unprocessed.smi

> <i_m_source_file_index>
1041

> <i_lp_mmshare_version>
43012

> <i_f3d_flags>
0

> <s_epik_input>
W0NIM11PW0NIMl1bQ0gyXU4xW0NIMl1bQ0gyXVtDSF0oW0NIMl1bQ0gyXTEpW0NIMl1bTkhdQyg9TylbQ0gyXWMyYyhbQ0gzXSluYyhbQ0gzXSlbbkhdYzI9Tw==

> <s_epik_cmdline>
J2VwaWtfcHl0aG9uJywgJy1waCcsICc3LjAnLCAnLXRuJywgJzgnLCAnLW1hJywgJzIwMCcsICctbWV0YWxfYmluZGluZycsICctaW1hZScsICc8aW5maWxlLm1hZT4nLCAnLW9tYWUnLCAnPG91dGZpbGUubWFlPic=

> <r_lp_tautomer_probability>
0.839158

> <r_epik_Ionization_Penalty>
0.00964357

> <r_epik_Ionization_Penalty_Charging>
0.00961423

> <r_epik_Ionization_Penalty_Neutral>
2.93415e-05

> <r_epik_State_Penalty>
0.0972512

> <r_epik_Charging_Adjusted_Penalty>
0.106865

> <i_epik_Tot_Q>
1

> <i_epik_Tot_abs_Q>
1

> <r_epik_Metal_State_Penalty>
0.270886

> <b_epik_Metal_Only>
0

> <s_lp_Force_Field>
OPLS_2005

> <r_lp_Energy>
21.4676

> <b_lp_Chiralities_Consistent>
1

> <s_lp_Variant>
AV-unprocessed.smi:1041-1

> <Gold.Version>
5.8.1

> <Gold.Id.Protein>
6NUR|6NUR_protein|mol2

> <Gold.PLP.Fitness>
45.0785

> <Gold.PLP.PLP>
-33.4762

> <Gold.PLP.part.hbond>
-3.0000

> <Gold.PLP.part.metal>
0.0000

> <Gold.PLP.part.buried>
-0.9882

> <Gold.PLP.part.nonpolar>
-30.4423

> <Gold.PLP.part.repulsive>
0.4035

> <Gold.PLP.ligand.clash>
0.0034

> <Gold.PLP.ligand.torsion>
0.2702

> <Gold.PLP.Chemscore.Hbond>
4.0000

> <Gold.PLP.Chemscore.CHOScore>
0.0000

> <Gold.PLP.Chemscore.Metal>
0.0000

> <Gold.Chemscore.Hbonds>
donor molecule, donor type, donor heavy atom, donor atom, acceptor molecule, acceptor atom, score
      L1  H     5    53       P1  8028  2.00
      L1  H    10    40       P1 10175  1.00
      L1  H    20    25       P1 10957  0.99

> <Gold.PLP.Chemscore.Internal.Correction>
0.1461

> <Gold.Rescore>
     Score         DG    S(hbond)    S(metal)    S(lipo)     H(rot)  DE(clash)    DE(int)     intcor
     16.38     -19.15       3.00        0.00      84.44       2.43       1.54       1.22       ----

> <Gold.Chemscore.Fitness>
16.3843

> <Gold.Chemscore.DG>
-19.1457

> <Gold.Chemscore.ZeroCoef>
-5.4800

> <Gold.Chemscore.Hbond>
2.9956

> <Gold.Chemscore.Metal>
0.0000

> <Gold.Chemscore.Lipo>
84.4365

> <Gold.Chemscore.Internal_Hbond>
0.0000

> <Gold.Chemscore.DEClash>
1.5431

> <Gold.Chemscore.DEInternal>
1.2183

> <Gold.Chemscore.Rot>
2.4291

> <Gold.Chemscore.Internal.Correction>
   9.000000E+99

> <Gold.Chemscore.Hbonds>
donor molecule, donor type, donor heavy atom, donor atom, acceptor molecule, acceptor atom, score
      L1  H     5    53       P1  8028  1.00
      L1  H    10    40       P1 10175  1.00
      L1  H    20    25       P1 10957  0.92

> <Gold.Chemscore.Hbond.Weighted>
-10.0053

> <Gold.Chemscore.Metal.Weighted>
-0.0000

> <Gold.Chemscore.Lipo.Weighted>
-9.8791

> <Gold.Chemscore.Internal_Hbond.Weighted>
0.0000

> <Gold.Chemscore.DEClash.Weighted>
1.5431

> <Gold.Chemscore.DEInternal.Weighted>
1.2183

> <Gold.Chemscore.Rot.Weighted>
6.2186

> <Gold.Chemscore.Internal.Correction.Weighted>
   9.000000E+99

> <Gold.Protein.RotatedTorsions>
[ 6907 6896 6895 6894 ] final  124.40 input  -60.11 | X-H torsion
[ 7974 7965 7964 7962 ] final -142.84 input  175.53 | X-H torsion
[ 8008 7997 7996 7995 ] final  120.11 input   59.86 | X-H torsion
[ 10167 10162 10161 10158 ] final  -48.46 input  -65.29 | X-H torsion
[ 10718 10713 10712 10709 ] final   87.01 input   66.30 | X-H torsion
[ 10763 10752 10751 10750 ] final  -86.49 input  -60.55 | X-H torsion
[ 11005 11000 10999 10996 ] final  -89.12 input  -57.11 | X-H torsion

> <Gold.Protein.ActiveResidues>
 VAL166  LYS551  ARG553  GLY616  TRP617  ASP618  TYR619  PRO620  LYS621  CYS622 
 ASP623  PHE694  ASN695  SER759  ASP760  ASP761  ALA762  ILE779  LEU786  VAL792 
 PHE793  MET794  SER795  GLU796  ALA797  LYS798  CYS799  TRP800  GLU811  SER814 

> <Gold.Protein.RotatedAtoms>
  152.4081  133.6920  159.6373 H   0  0  0  0  0  0  0  0  0  0  0  0  # atno 6907 bound_to 6896
  150.7964  133.8673  159.3257 H   0  0  0  0  0  0  0  0  0  0  0  0  # atno 6908 bound_to 6896
  151.6422  135.1013  160.0195 H   0  0  0  0  0  0  0  0  0  0  0  0  # atno 6909 bound_to 6896
  144.8414  140.5909  143.5450 H   0  0  0  0  0  0  0  0  0  0  0  0  # atno 7974 bound_to 7965
  156.2627  140.2838  156.1097 H   0  0  0  0  0  0  0  0  0  0  0  0  # atno 8008 bound_to 7997
  155.1270  140.0393  157.2782 H   0  0  0  0  0  0  0  0  0  0  0  0  # atno 8009 bound_to 7997
  154.6628  140.2570  155.7097 H   0  0  0  0  0  0  0  0  0  0  0  0  # atno 8010 bound_to 7997
  140.6730  143.2739  151.4075 H   0  0  0  0  0  0  0  0  0  0  0  0  # atno 10167 bound_to 10162
  157.6935  131.0238  150.3060 H   0  0  0  0  0  0  0  0  0  0  0  0  # atno 10718 bound_to 10713
  154.6231  135.5447  153.7597 H   0  0  0  0  0  0  0  0  0  0  0  0  # atno 10763 bound_to 10752
  153.0248  135.6417  154.1411 H   0  0  0  0  0  0  0  0  0  0  0  0  # atno 10764 bound_to 10752
  154.1345  135.2912  155.3157 H   0  0  0  0  0  0  0  0  0  0  0  0  # atno 10765 bound_to 10752
  141.1590  133.7611  156.9549 H   0  0  0  0  0  0  0  0  0  0  0  0  # atno 11005 bound_to 11000
  145.4687  139.1505  143.3826 LP  0  0  0  0  0  0  0  0  0  0  0  0  # atno 17320 bound_to 7965
  146.2705  140.4820  142.8816 LP  0  0  0  0  0  0  0  0  0  0  0  0  # atno 17321 bound_to 7965
  139.6007  144.1302  152.2195 LP  0  0  0  0  0  0  0  0  0  0  0  0  # atno 17342 bound_to 10162
  140.0685  144.5799  150.7209 LP  0  0  0  0  0  0  0  0  0  0  0  0  # atno 17343 bound_to 10162
  156.3568  130.3840  149.7284 LP  0  0  0  0  0  0  0  0  0  0  0  0  # atno 17370 bound_to 10713
  156.4743  130.8011  151.3028 LP  0  0  0  0  0  0  0  0  0  0  0  0  # atno 17371 bound_to 10713
  140.1232  134.9403  157.2233 LP  0  0  0  0  0  0  0  0  0  0  0  0  # atno 17394 bound_to 11000
  140.3045  134.3093  155.7281 LP  0  0  0  0  0  0  0  0  0  0  0  0  # atno 17395 bound_to 11000

$$$$
