AV-unprocessed.smi:2784|AV-procd|sdf|10730|dock5
  -GOLD-   2272015163D 1   1.00000     0.00000
 Structure written by MMmdl.
 32 33  0  0  0  0  0  0  0  0  2 V2000
  150.5258  131.4420  155.4264 C   0  0  0  0  0  0  0  0  0  0  0  0
  149.3745  132.2709  155.4489 O   0  0  0  0  0  0  0  0  0  0  0  0
  149.5385  133.4946  154.7458 C   0  0  2  0  0  0  0  0  0  0  0  0
  150.5812  134.3577  155.4621 C   0  0  0  0  0  0  0  0  0  0  0  0
  150.1775  135.7912  155.1355 C   0  0  0  0  0  0  0  0  0  0  0  0
  148.6502  135.7589  155.1744 C   0  0  0  0  0  0  0  0  0  0  0  0
  148.2479  134.3460  154.7102 C   0  0  1  0  0  0  0  0  0  0  0  0
  147.6964  134.3842  153.3574 N   0  0  0  0  0  0  0  0  0  0  0  0
  146.6851  133.6244  152.9127 C   0  0  0  0  0  0  0  0  0  0  0  0
  146.0876  132.8032  153.6086 O   0  0  0  0  0  0  0  0  0  0  0  0
  146.4114  133.8735  151.6231 N   0  0  0  0  0  0  0  0  0  0  0  0
  145.4290  133.2172  150.8463 C   0  0  0  0  0  0  0  0  0  0  0  0
  145.2193  133.4565  149.5528 N   0  3  0  0  0  0  0  0  0  0  0  0
  144.2032  132.6445  149.1136 C   0  0  0  0  0  0  0  0  0  0  0  0
  143.8148  131.9078  150.2067 C   0  0  0  0  0  0  0  0  0  0  0  0
  144.5763  132.2568  151.3040 O   0  0  0  0  0  0  0  0  0  0  0  0
  150.3327  130.5351  155.9994 H   0  0  0  0  0  0  0  0  0  0  0  0
  151.3828  131.9458  155.8746 H   0  0  0  0  0  0  0  0  0  0  0  0
  150.7882  131.1437  154.4110 H   0  0  0  0  0  0  0  0  0  0  0  0
  149.9044  133.3008  153.7349 H   0  0  0  0  0  0  0  0  0  0  0  0
  150.5163  134.2035  156.5403 H   0  0  0  0  0  0  0  0  0  0  0  0
  151.6012  134.1249  155.1547 H   0  0  0  0  0  0  0  0  0  0  0  0
  150.6005  136.5168  155.8309 H   0  0  0  0  0  0  0  0  0  0  0  0
  150.5170  136.0507  154.1320 H   0  0  0  0  0  0  0  0  0  0  0  0
  148.3157  135.9066  156.2022 H   0  0  0  0  0  0  0  0  0  0  0  0
  148.2071  136.5573  154.5774 H   0  0  0  0  0  0  0  0  0  0  0  0
  147.5162  133.9400  155.4114 H   0  0  0  0  0  0  0  0  0  0  0  0
  148.1249  135.0357  152.7161 H   0  0  0  0  0  0  0  0  0  0  0  0
  145.7050  134.1156  148.9574 H   0  0  0  0  0  0  0  0  0  0  0  0
  143.8645  132.6702  148.0876 H   0  0  0  0  0  0  0  0  0  0  0  0
  143.0658  131.1454  150.3647 H   0  0  0  0  0  0  0  0  0  0  0  0
  146.9600  134.5793  151.1550 H   0  0  0  0  0  0  0  0  0  0  0  0
  1  2  1  0  0  0  0
  1 17  1  0  0  0  0
  1 18  1  0  0  0  0
  1 19  1  0  0  0  0
  2  3  1  0  0  0  0
  3  7  1  0  0  0  0
  3  4  1  0  0  0  0
  3 20  1  0  0  0  0
  4  5  1  0  0  0  0
  4 21  1  0  0  0  0
  4 22  1  0  0  0  0
  5  6  1  0  0  0  0
  5 23  1  0  0  0  0
  5 24  1  0  0  0  0
  6  7  1  0  0  0  0
  6 25  1  0  0  0  0
  6 26  1  0  0  0  0
  7  8  1  0  0  0  0
  7 27  1  0  0  0  0
  8 28  1  0  0  0  0
  8  9  1  0  0  0  0
  9 11  1  0  0  0  0
  9 10  2  0  0  0  0
 11 12  1  0  0  0  0
 11 32  1  0  0  0  0
 12 16  1  0  0  0  0
 12 13  2  0  0  0  0
 13 29  1  0  0  0  0
 13 14  1  0  0  0  0
 14 30  1  0  0  0  0
 14 15  2  0  0  0  0
 15 31  1  0  0  0  0
 15 16  1  0  0  0  0
M  CHG  1  13   1
M  END
> <s_m_source_file>
AV-unprocessed.smi

> <i_m_source_file_index>
2784

> <i_lp_mmshare_version>
43012

> <i_f3d_flags>
0

> <s_epik_input>
W0NIM11PW0NAQEhdMVtDSDJdW0NIMl1bQ0gyXVtDQEhdMVtOSF1DKD1PKVtOSF1jMm5bY0hdW2NIXW8y

> <s_epik_cmdline>
J2VwaWtfcHl0aG9uJywgJy1waCcsICc3LjAnLCAnLXRuJywgJzgnLCAnLW1hJywgJzIwMCcsICctbWV0YWxfYmluZGluZycsICctaW1hZScsICc8aW5maWxlLm1hZT4nLCAnLW9tYWUnLCAnPG91dGZpbGUubWFlPic=

> <r_epik_Ionization_Penalty>
6.73843

> <r_epik_Ionization_Penalty_Charging>
6.66704

> <r_epik_Ionization_Penalty_Neutral>
0.0713889

> <r_epik_State_Penalty>
1.94951

> <r_epik_Charging_Adjusted_Penalty>
8.61656

> <i_epik_Tot_Q>
1

> <i_epik_Tot_abs_Q>
1

> <r_epik_Metal_State_Penalty>
1.97013

> <b_epik_Metal_Only>
0

> <s_lp_Force_Field>
OPLS_2005

> <r_lp_Energy>
26.9129

> <b_lp_Chiralities_Consistent>
1

> <s_lp_Variant>
AV-unprocessed.smi:2784-5

> <Gold.Version>
5.8.1

> <Gold.Id.Protein>
6NUR|6NUR_protein|mol2

> <Gold.PLP.Fitness>
32.4561

> <Gold.PLP.PLP>
-24.1020

> <Gold.PLP.part.hbond>
-2.0000

> <Gold.PLP.part.metal>
0.0000

> <Gold.PLP.part.buried>
-4.1772

> <Gold.PLP.part.nonpolar>
-17.5090

> <Gold.PLP.part.repulsive>
0.4230

> <Gold.PLP.ligand.clash>
0.0000

> <Gold.PLP.ligand.torsion>
0.3259

> <Gold.PLP.Chemscore.Hbond>
2.0000

> <Gold.PLP.Chemscore.CHOScore>
1.0000

> <Gold.PLP.Chemscore.Metal>
0.0000

> <Gold.Chemscore.Hbonds>
donor molecule, donor type, donor heavy atom, donor atom, acceptor molecule, acceptor atom, score
      L1  H     8    28       P1  7948  1.00
      L1  H    13    29       P1  7921  1.00
      L1  C    15    31       P1 10952  1.00

> <Gold.PLP.Chemscore.Internal.Correction>
0.0059

> <Gold.Rescore>
     Score         DG    S(hbond)    S(metal)    S(lipo)     H(rot)  DE(clash)    DE(int)     intcor
     12.97     -14.72       1.91        0.00      53.76       1.34       0.02       1.73       ----

> <Gold.Chemscore.Fitness>
12.9667

> <Gold.Chemscore.DG>
-14.7161

> <Gold.Chemscore.ZeroCoef>
-5.4800

> <Gold.Chemscore.Hbond>
1.9052

> <Gold.Chemscore.Metal>
0.0000

> <Gold.Chemscore.Lipo>
53.7642

> <Gold.Chemscore.Internal_Hbond>
0.0000

> <Gold.Chemscore.DEClash>
0.0176

> <Gold.Chemscore.DEInternal>
1.7318

> <Gold.Chemscore.Rot>
1.3351

> <Gold.Chemscore.Internal.Correction>
   9.000000E+99

> <Gold.Chemscore.Hbonds>
donor molecule, donor type, donor heavy atom, donor atom, acceptor molecule, acceptor atom, score
      L1  H     8    28       P1  7948  0.88
      L1  H    13    29       P1  7921  0.57

> <Gold.Chemscore.Hbond.Weighted>
-6.3634

> <Gold.Chemscore.Metal.Weighted>
-0.0000

> <Gold.Chemscore.Lipo.Weighted>
-6.2904

> <Gold.Chemscore.Internal_Hbond.Weighted>
0.0000

> <Gold.Chemscore.DEClash.Weighted>
0.0176

> <Gold.Chemscore.DEInternal.Weighted>
1.7318

> <Gold.Chemscore.Rot.Weighted>
3.4177

> <Gold.Chemscore.Internal.Correction.Weighted>
   9.000000E+99

> <Gold.Protein.RotatedTorsions>
[ 6907 6896 6895 6894 ] final  160.10 input  -60.11 | X-H torsion
[ 7974 7965 7964 7962 ] final   -6.72 input  175.53 | X-H torsion
[ 8008 7997 7996 7995 ] final -109.64 input   59.86 | X-H torsion
[ 10167 10162 10161 10158 ] final -155.40 input  -65.29 | X-H torsion
[ 10718 10713 10712 10709 ] final  -74.49 input   66.30 | X-H torsion
[ 10763 10752 10751 10750 ] final   41.45 input  -60.55 | X-H torsion
[ 11005 11000 10999 10996 ] final  121.96 input  -57.11 | X-H torsion

> <Gold.Protein.ActiveResidues>
 VAL166  LYS551  ARG553  GLY616  TRP617  ASP618  TYR619  PRO620  LYS621  CYS622 
 ASP623  PHE694  ASN695  SER759  ASP760  ASP761  ALA762  ILE779  LEU786  VAL792 
 PHE793  MET794  SER795  GLU796  ALA797  LYS798  CYS799  TRP800  GLU811  SER814 

> <Gold.Protein.RotatedAtoms>
  151.9757  133.3741  159.4088 H   0  0  0  0  0  0  0  0  0  0  0  0  # atno 6907 bound_to 6896
  150.6942  134.4092  159.5163 H   0  0  0  0  0  0  0  0  0  0  0  0  # atno 6908 bound_to 6896
  152.1803  134.8759  160.0577 H   0  0  0  0  0  0  0  0  0  0  0  0  # atno 6909 bound_to 6896
  146.2324  140.2212  142.8337 H   0  0  0  0  0  0  0  0  0  0  0  0  # atno 7974 bound_to 7965
  154.9624  140.0399  157.2196 H   0  0  0  0  0  0  0  0  0  0  0  0  # atno 8008 bound_to 7997
  154.7877  140.2830  155.5993 H   0  0  0  0  0  0  0  0  0  0  0  0  # atno 8009 bound_to 7997
  156.2945  140.2579  156.2717 H   0  0  0  0  0  0  0  0  0  0  0  0  # atno 8010 bound_to 7997
  139.6934  143.9382  152.2396 H   0  0  0  0  0  0  0  0  0  0  0  0  # atno 10167 bound_to 10162
  156.0241  130.4418  150.2900 H   0  0  0  0  0  0  0  0  0  0  0  0  # atno 10718 bound_to 10713
  152.9908  135.6161  154.2790 H   0  0  0  0  0  0  0  0  0  0  0  0  # atno 10763 bound_to 10752
  154.2520  135.2785  155.2814 H   0  0  0  0  0  0  0  0  0  0  0  0  # atno 10764 bound_to 10752
  154.5280  135.5796  153.6792 H   0  0  0  0  0  0  0  0  0  0  0  0  # atno 10765 bound_to 10752
  139.9248  134.9640  156.8037 H   0  0  0  0  0  0  0  0  0  0  0  0  # atno 11005 bound_to 11000
  144.9630  140.8294  143.5501 LP  0  0  0  0  0  0  0  0  0  0  0  0  # atno 17320 bound_to 7965
  145.2185  139.2170  143.5105 LP  0  0  0  0  0  0  0  0  0  0  0  0  # atno 17321 bound_to 7965
  139.9204  144.6803  150.8467 LP  0  0  0  0  0  0  0  0  0  0  0  0  # atno 17342 bound_to 10162
  140.7689  143.3379  151.2270 LP  0  0  0  0  0  0  0  0  0  0  0  0  # atno 17343 bound_to 10162
  157.1004  131.0194  151.3088 LP  0  0  0  0  0  0  0  0  0  0  0  0  # atno 17370 bound_to 10713
  157.4784  130.7750  149.7390 LP  0  0  0  0  0  0  0  0  0  0  0  0  # atno 17371 bound_to 10713
  140.6369  133.9854  155.7688 LP  0  0  0  0  0  0  0  0  0  0  0  0  # atno 17394 bound_to 11000
  141.0797  134.0081  157.3405 LP  0  0  0  0  0  0  0  0  0  0  0  0  # atno 17395 bound_to 11000

$$$$
