AV-unprocessed.smi:1403|AV-procd|sdf|5701|dock8
  -GOLD-   22720 5333D 1   1.00000     0.00000
 Structure written by MMmdl.
 35 36  0  0  0  0  0  0  0  0  2 V2000
  151.0353  145.1313  159.3228 C   0  0  0  0  0  0  0  0  0  0  0  0
  152.1392  144.0689  159.2258 C   0  0  2  0  0  0  0  0  0  0  0  0
  151.9574  143.2896  158.0032 N   0  0  0  0  0  0  0  0  0  0  0  0
  150.8760  142.5628  157.6832 C   0  0  0  0  0  0  0  0  0  0  0  0
  149.9256  142.3816  158.4437 O   0  0  0  0  0  0  0  0  0  0  0  0
  150.8627  141.9673  156.2731 C   0  0  0  0  0  0  0  0  0  0  0  0
  151.4114  140.6029  156.2845 N   0  0  0  0  0  0  0  0  0  0  0  0
  152.2052  140.2423  157.3881 C   0  0  0  0  0  0  0  0  0  0  0  0
  152.7921  139.0343  157.4790 C   0  0  0  0  0  0  0  0  0  0  0  0
  152.5848  138.0843  156.3936 C   0  0  0  0  0  0  0  0  0  0  0  0
  153.1123  136.9758  156.4596 O   0  0  0  0  0  0  0  0  0  0  0  0
  151.8053  138.4794  155.3447 N   0  5  0  0  0  0  0  0  0  0  0  0
  151.2197  139.7149  155.2626 C   0  0  0  0  0  0  0  0  0  0  0  0
  150.5294  140.0525  154.3009 O   0  0  0  0  0  0  0  0  0  0  0  0
  152.1623  143.1414  160.4611 C   0  0  2  0  0  0  0  0  0  0  0  0
  152.5132  143.8175  161.7932 C   0  0  0  0  0  0  0  0  0  0  0  0
  153.1154  142.6730  162.5748 C   0  0  0  0  0  0  0  0  0  0  0  0
  153.8891  141.9385  161.4864 C   0  0  0  0  0  0  0  0  0  0  0  0
  153.1166  142.0907  160.2994 O   0  0  0  0  0  0  0  0  0  0  0  0
  151.1574  145.7429  160.2172 H   0  0  0  0  0  0  0  0  0  0  0  0
  150.0454  144.6754  159.3641 H   0  0  0  0  0  0  0  0  0  0  0  0
  151.0585  145.8003  158.4620 H   0  0  0  0  0  0  0  0  0  0  0  0
  153.0911  144.6014  159.1914 H   0  0  0  0  0  0  0  0  0  0  0  0
  152.6851  143.3722  157.3082 H   0  0  0  0  0  0  0  0  0  0  0  0
  149.8448  141.9592  155.8793 H   0  0  0  0  0  0  0  0  0  0  0  0
  151.4234  142.6212  155.6034 H   0  0  0  0  0  0  0  0  0  0  0  0
  152.3142  141.0070  158.1433 H   0  0  0  0  0  0  0  0  0  0  0  0
  153.4042  138.7771  158.3308 H   0  0  0  0  0  0  0  0  0  0  0  0
  151.1865  142.6665  160.5730 H   0  0  0  0  0  0  0  0  0  0  0  0
  153.2633  144.5980  161.6688 H   0  0  0  0  0  0  0  0  0  0  0  0
  151.6465  144.2612  162.2836 H   0  0  0  0  0  0  0  0  0  0  0  0
  153.7487  143.0019  163.3995 H   0  0  0  0  0  0  0  0  0  0  0  0
  152.3275  142.0348  162.9766 H   0  0  0  0  0  0  0  0  0  0  0  0
  154.8610  142.4077  161.3306 H   0  0  0  0  0  0  0  0  0  0  0  0
  154.0546  140.8879  161.7252 H   0  0  0  0  0  0  0  0  0  0  0  0
  1  2  1  0  0  0  0
  1 20  1  0  0  0  0
  1 21  1  0  0  0  0
  1 22  1  0  0  0  0
  2  3  1  0  0  0  0
  2 15  1  0  0  0  0
  2 23  1  0  0  0  0
  3  4  1  0  0  0  0
  3 24  1  0  0  0  0
  4  5  2  0  0  0  0
  4  6  1  0  0  0  0
  6  7  1  0  0  0  0
  6 25  1  0  0  0  0
  6 26  1  0  0  0  0
  7 13  1  0  0  0  0
  7  8  1  0  0  0  0
  8  9  2  0  0  0  0
  8 27  1  0  0  0  0
  9 10  1  0  0  0  0
  9 28  1  0  0  0  0
 10 11  2  0  0  0  0
 10 12  1  0  0  0  0
 12 13  1  0  0  0  0
 13 14  2  0  0  0  0
 15 19  1  0  0  0  0
 15 16  1  0  0  0  0
 15 29  1  0  0  0  0
 16 17  1  0  0  0  0
 16 30  1  0  0  0  0
 16 31  1  0  0  0  0
 17 18  1  0  0  0  0
 17 32  1  0  0  0  0
 17 33  1  0  0  0  0
 18 19  1  0  0  0  0
 18 34  1  0  0  0  0
 18 35  1  0  0  0  0
M  CHG  1  12  -1
M  END
> <s_m_source_file>
AV-unprocessed.smi

> <i_m_source_file_index>
1403

> <i_lp_mmshare_version>
43012

> <i_f3d_flags>
0

> <s_epik_input>
TzFbQ0gyXVtDSDJdW0NIMl1bQ0BIXTFbQ0BIXShbQ0gzXSlbTkhdQyg9TylbQ0gyXW4yW2NIXVtjSF1jKD1PKVtuSF1jMj1P

> <s_epik_cmdline>
J2VwaWtfcHl0aG9uJywgJy1waCcsICc3LjAnLCAnLXRuJywgJzgnLCAnLW1hJywgJzIwMCcsICctbWV0YWxfYmluZGluZycsICctaW1hZScsICc8aW5maWxlLm1hZT4nLCAnLW9tYWUnLCAnPG91dGZpbGUubWFlPic=

> <r_lp_tautomer_probability>
0.999537

> <r_epik_Ionization_Penalty>
3.07438

> <r_epik_Ionization_Penalty_Charging>
2.82466e-08

> <r_epik_Ionization_Penalty_Neutral>
3.07438

> <r_epik_State_Penalty>
3.07341

> <r_epik_Charging_Adjusted_Penalty>
3.07341

> <i_epik_Tot_Q>
-1

> <i_epik_Tot_abs_Q>
1

> <r_epik_Metal_State_Penalty>
0.45947

> <b_epik_Metal_Only>
1

> <s_lp_Force_Field>
OPLS_2005

> <r_lp_Energy>
29.4252

> <b_lp_Chiralities_Consistent>
1

> <s_lp_Variant>
AV-unprocessed.smi:1403-5

> <Gold.Version>
5.8.1

> <Gold.Id.Protein>
6NUR|6NUR_protein|mol2

> <Gold.PLP.Fitness>
45.0024

> <Gold.PLP.PLP>
-42.4736

> <Gold.PLP.part.hbond>
-2.0000

> <Gold.PLP.part.metal>
0.0000

> <Gold.PLP.part.buried>
-5.5728

> <Gold.PLP.part.nonpolar>
-34.8024

> <Gold.PLP.part.repulsive>
0.2876

> <Gold.PLP.ligand.clash>
2.1408

> <Gold.PLP.ligand.torsion>
0.6637

> <Gold.PLP.Chemscore.Hbond>
1.9920

> <Gold.PLP.Chemscore.CHOScore>
0.0000

> <Gold.PLP.Chemscore.Metal>
0.0000

> <Gold.Chemscore.Hbonds>
donor molecule, donor type, donor heavy atom, donor atom, acceptor molecule, acceptor atom, score
      P1  H  7989  7998       L1    14  0.95
      P1  H 10752 10765       L1    11  0.80

> <Gold.PLP.Chemscore.Internal.Correction>
0.0210

> <Gold.Rescore>
     Score         DG    S(hbond)    S(metal)    S(lipo)     H(rot)  DE(clash)    DE(int)     intcor
     15.49     -16.76       1.82        0.00      88.03       1.99       0.18       1.09       ----

> <Gold.Chemscore.Fitness>
15.4929

> <Gold.Chemscore.DG>
-16.7637

> <Gold.Chemscore.ZeroCoef>
-5.4800

> <Gold.Chemscore.Hbond>
1.8229

> <Gold.Chemscore.Metal>
0.0000

> <Gold.Chemscore.Lipo>
88.0332

> <Gold.Chemscore.Internal_Hbond>
0.0000

> <Gold.Chemscore.DEClash>
0.1768

> <Gold.Chemscore.DEInternal>
1.0940

> <Gold.Chemscore.Rot>
1.9940

> <Gold.Chemscore.Internal.Correction>
   9.000000E+99

> <Gold.Chemscore.Hbonds>
donor molecule, donor type, donor heavy atom, donor atom, acceptor molecule, acceptor atom, score
      P1  H  7989  7998       L1    14  0.21
      P1  H 10752 10765       L1    11  0.78

> <Gold.Chemscore.Hbond.Weighted>
-6.0885

> <Gold.Chemscore.Metal.Weighted>
-0.0000

> <Gold.Chemscore.Lipo.Weighted>
-10.2999

> <Gold.Chemscore.Internal_Hbond.Weighted>
0.0000

> <Gold.Chemscore.DEClash.Weighted>
0.1768

> <Gold.Chemscore.DEInternal.Weighted>
1.0940

> <Gold.Chemscore.Rot.Weighted>
5.1047

> <Gold.Chemscore.Internal.Correction.Weighted>
   9.000000E+99

> <Gold.Protein.RotatedTorsions>
[ 6907 6896 6895 6894 ] final -152.34 input  -60.11 | X-H torsion
[ 7974 7965 7964 7962 ] final -178.79 input  175.53 | X-H torsion
[ 8008 7997 7996 7995 ] final  -32.47 input   59.86 | X-H torsion
[ 10167 10162 10161 10158 ] final   58.59 input  -65.29 | X-H torsion
[ 10718 10713 10712 10709 ] final  109.03 input   66.30 | X-H torsion
[ 10763 10752 10751 10750 ] final -133.96 input  -60.55 | X-H torsion
[ 11005 11000 10999 10996 ] final  167.35 input  -57.11 | X-H torsion

> <Gold.Protein.ActiveResidues>
 VAL166  LYS551  ARG553  GLY616  TRP617  ASP618  TYR619  PRO620  LYS621  CYS622 
 ASP623  PHE694  ASN695  SER759  ASP760  ASP761  ALA762  ILE779  LEU786  VAL792 
 PHE793  MET794  SER795  GLU796  ALA797  LYS798  CYS799  TRP800  GLU811  SER814 

> <Gold.Protein.RotatedAtoms>
  151.2263  133.4475  159.2602 H   0  0  0  0  0  0  0  0  0  0  0  0  # atno 6907 bound_to 6896
  151.0837  134.9874  159.8379 H   0  0  0  0  0  0  0  0  0  0  0  0  # atno 6908 bound_to 6896
  152.5427  134.2201  159.8837 H   0  0  0  0  0  0  0  0  0  0  0  0  # atno 6909 bound_to 6896
  144.7133  140.0815  143.6425 H   0  0  0  0  0  0  0  0  0  0  0  0  # atno 7974 bound_to 7965
  154.4179  140.1736  156.1733 H   0  0  0  0  0  0  0  0  0  0  0  0  # atno 8008 bound_to 7997
  155.9742  140.3383  155.6580 H   0  0  0  0  0  0  0  0  0  0  0  0  # atno 8009 bound_to 7997
  155.6585  140.0698  157.2553 H   0  0  0  0  0  0  0  0  0  0  0  0  # atno 8010 bound_to 7997
  140.1856  144.4138  150.6595 H   0  0  0  0  0  0  0  0  0  0  0  0  # atno 10167 bound_to 10162
  157.6560  131.0905  150.6394 H   0  0  0  0  0  0  0  0  0  0  0  0  # atno 10718 bound_to 10713
  154.8726  135.3750  154.4657 H   0  0  0  0  0  0  0  0  0  0  0  0  # atno 10763 bound_to 10752
  153.5321  135.7027  153.5683 H   0  0  0  0  0  0  0  0  0  0  0  0  # atno 10764 bound_to 10752
  153.3882  135.3979  155.1870 H   0  0  0  0  0  0  0  0  0  0  0  0  # atno 10765 bound_to 10752
  140.2759  134.7789  157.3716 H   0  0  0  0  0  0  0  0  0  0  0  0  # atno 11005 bound_to 11000
  145.9698  139.2861  143.1105 LP  0  0  0  0  0  0  0  0  0  0  0  0  # atno 17320 bound_to 7965
  145.9129  140.9168  143.0445 LP  0  0  0  0  0  0  0  0  0  0  0  0  # atno 17321 bound_to 7965
  140.6491  143.2220  151.6119 LP  0  0  0  0  0  0  0  0  0  0  0  0  # atno 17342 bound_to 10162
  139.5278  144.3008  152.1075 LP  0  0  0  0  0  0  0  0  0  0  0  0  # atno 17343 bound_to 10162
  156.6700  130.4537  149.5660 LP  0  0  0  0  0  0  0  0  0  0  0  0  # atno 17370 bound_to 10713
  156.2004  130.6616  151.1161 LP  0  0  0  0  0  0  0  0  0  0  0  0  # atno 17371 bound_to 10713
  140.1329  134.5072  155.8091 LP  0  0  0  0  0  0  0  0  0  0  0  0  # atno 17394 bound_to 11000
  141.2170  133.6796  156.7071 LP  0  0  0  0  0  0  0  0  0  0  0  0  # atno 17395 bound_to 11000

$$$$
