AV-unprocessed.smi:1346|AV-procd|sdf|5514|dock3
  -GOLD-   22720 5 93D 1   1.00000     0.00000
 Structure written by MMmdl.
 47 48  0  0  0  0  0  0  0  0  1 V2000
  148.4687  136.1587  155.9526 C   0  0  0  0  0  0  0  0  0  0  0  0
  149.8931  136.6170  155.8231 C   0  0  0  0  0  0  0  0  0  0  0  0
  150.8519  135.9558  156.4495 N   0  0  0  0  0  0  0  0  0  0  0  0
  152.0419  136.6196  156.1372 O   0  0  0  0  0  0  0  0  0  0  0  0
  151.7496  137.6673  155.3256 C   0  0  0  0  0  0  0  0  0  0  0  0
  152.8993  138.5064  154.8803 C   0  0  0  0  0  0  0  0  0  0  0  0
  150.4035  137.7252  155.0877 C   0  0  0  0  0  0  0  0  0  0  0  0
  149.6335  138.7162  154.2535 C   0  0  0  0  0  0  0  0  0  0  0  0
  149.7657  140.1133  154.8593 C   0  0  0  0  0  0  0  0  0  0  0  0
  149.8280  141.0993  154.1253 O   0  0  0  0  0  0  0  0  0  0  0  0
  149.8054  140.1840  156.1985 N   0  0  0  0  0  0  0  0  0  0  0  0
  149.9170  141.4139  156.9746 C   0  0  0  0  0  0  0  0  0  0  0  0
  151.2588  141.4985  157.7154 C   0  0  0  0  0  0  0  0  0  0  0  0
  151.2823  142.6822  158.4987 O   0  0  0  0  0  0  0  0  0  0  0  0
  152.5877  143.1845  158.7631 C   0  0  2  0  0  0  0  0  0  0  0  0
  153.3977  142.0642  159.4420 C   0  0  0  0  0  0  0  0  0  0  0  0
  152.8515  141.7220  160.8387 C   0  0  0  0  0  0  0  0  0  0  0  0
  152.7713  142.9713  161.7285 C   0  0  0  0  0  0  0  0  0  0  0  0
  151.9428  144.0794  161.0593 C   0  0  0  0  0  0  0  0  0  0  0  0
  152.4996  144.4371  159.6669 C   0  0  2  0  0  0  0  0  0  0  0  0
  151.7100  145.5830  159.0161 C   0  0  0  0  0  0  0  0  0  0  0  0
  147.9700  136.1553  154.9835 H   0  0  0  0  0  0  0  0  0  0  0  0
  147.9068  136.8192  156.6130 H   0  0  0  0  0  0  0  0  0  0  0  0
  148.4040  135.1486  156.3587 H   0  0  0  0  0  0  0  0  0  0  0  0
  152.6884  138.9815  153.9225 H   0  0  0  0  0  0  0  0  0  0  0  0
  153.7995  137.9029  154.7636 H   0  0  0  0  0  0  0  0  0  0  0  0
  153.1087  139.2903  155.6081 H   0  0  0  0  0  0  0  0  0  0  0  0
  150.0042  138.7451  153.2283 H   0  0  0  0  0  0  0  0  0  0  0  0
  148.5796  138.4435  154.1833 H   0  0  0  0  0  0  0  0  0  0  0  0
  149.7410  139.3221  156.7206 H   0  0  0  0  0  0  0  0  0  0  0  0
  149.8131  142.2610  156.2963 H   0  0  0  0  0  0  0  0  0  0  0  0
  149.0903  141.4801  157.6838 H   0  0  0  0  0  0  0  0  0  0  0  0
  151.3788  140.6313  158.3661 H   0  0  0  0  0  0  0  0  0  0  0  0
  152.0866  141.4868  157.0050 H   0  0  0  0  0  0  0  0  0  0  0  0
  153.0978  143.4495  157.8344 H   0  0  0  0  0  0  0  0  0  0  0  0
  153.3996  141.1727  158.8141 H   0  0  0  0  0  0  0  0  0  0  0  0
  154.4388  142.3769  159.5316 H   0  0  0  0  0  0  0  0  0  0  0  0
  151.8606  141.2751  160.7466 H   0  0  0  0  0  0  0  0  0  0  0  0
  153.4850  140.9704  161.3104 H   0  0  0  0  0  0  0  0  0  0  0  0
  152.3362  142.7127  162.6941 H   0  0  0  0  0  0  0  0  0  0  0  0
  153.7773  143.3404  161.9320 H   0  0  0  0  0  0  0  0  0  0  0  0
  150.9040  143.7576  160.9722 H   0  0  0  0  0  0  0  0  0  0  0  0
  151.9376  144.9638  161.6973 H   0  0  0  0  0  0  0  0  0  0  0  0
  153.5179  144.8017  159.8095 H   0  0  0  0  0  0  0  0  0  0  0  0
  150.6617  145.3180  158.8801 H   0  0  0  0  0  0  0  0  0  0  0  0
  152.1201  145.8385  158.0387 H   0  0  0  0  0  0  0  0  0  0  0  0
  151.7444  146.4816  159.6324 H   0  0  0  0  0  0  0  0  0  0  0  0
  1  2  1  0  0  0  0
  1 22  1  0  0  0  0
  1 23  1  0  0  0  0
  1 24  1  0  0  0  0
  2  7  1  0  0  0  0
  2  3  2  0  0  0  0
  3  4  1  0  0  0  0
  4  5  1  0  0  0  0
  5  6  1  0  0  0  0
  5  7  2  0  0  0  0
  6 25  1  0  0  0  0
  6 26  1  0  0  0  0
  6 27  1  0  0  0  0
  7  8  1  0  0  0  0
  8  9  1  0  0  0  0
  8 28  1  0  0  0  0
  8 29  1  0  0  0  0
  9 10  2  0  0  0  0
  9 11  1  0  0  0  0
 11 12  1  0  0  0  0
 11 30  1  0  0  0  0
 12 13  1  0  0  0  0
 12 31  1  0  0  0  0
 12 32  1  0  0  0  0
 13 14  1  0  0  0  0
 13 33  1  0  0  0  0
 13 34  1  0  0  0  0
 14 15  1  0  0  0  0
 15 20  1  0  0  0  0
 15 16  1  0  0  0  0
 15 35  1  0  0  0  0
 16 17  1  0  0  0  0
 16 36  1  0  0  0  0
 16 37  1  0  0  0  0
 17 18  1  0  0  0  0
 17 38  1  0  0  0  0
 17 39  1  0  0  0  0
 18 19  1  0  0  0  0
 18 40  1  0  0  0  0
 18 41  1  0  0  0  0
 19 20  1  0  0  0  0
 19 42  1  0  0  0  0
 19 43  1  0  0  0  0
 20 21  1  0  0  0  0
 20 44  1  0  0  0  0
 21 45  1  0  0  0  0
 21 46  1  0  0  0  0
 21 47  1  0  0  0  0
M  END
> <s_m_source_file>
AV-unprocessed.smi

> <i_m_source_file_index>
1346

> <i_lp_mmshare_version>
43012

> <i_f3d_flags>
0

> <s_epik_input>
W0NIM11jMW5vYyhbQ0gzXSljMVtDSDJdQyg9TylbTkhdW0NIMl1bQ0gyXU9bQ0BASF0yW0NIMl1bQ0gyXVtDSDJdW0NIMl1bQ0BIXTJbQ0gzXQ==

> <s_epik_cmdline>
J2VwaWtfcHl0aG9uJywgJy1waCcsICc3LjAnLCAnLXRuJywgJzgnLCAnLW1hJywgJzIwMCcsICctbWV0YWxfYmluZGluZycsICctaW1hZScsICc8aW5maWxlLm1hZT4nLCAnLW9tYWUnLCAnPG91dGZpbGUubWFlPic=

> <r_lp_tautomer_probability>
1

> <r_epik_Ionization_Penalty>
3.26154e-08

> <r_epik_Ionization_Penalty_Charging>
0

> <r_epik_Ionization_Penalty_Neutral>
3.26154e-08

> <r_epik_State_Penalty>
-0

> <r_epik_Charging_Adjusted_Penalty>
0

> <i_epik_Tot_Q>
0

> <i_epik_Tot_abs_Q>
0

> <r_epik_Metal_State_Penalty>
-0

> <b_epik_Metal_Only>
0

> <s_lp_Force_Field>
OPLS_2005

> <r_lp_Energy>
6.35262

> <b_lp_Chiralities_Consistent>
1

> <s_lp_Variant>
AV-unprocessed.smi:1346-3

> <Gold.Version>
5.8.1

> <Gold.Id.Protein>
6NUR|6NUR_protein|mol2

> <Gold.PLP.Fitness>
51.4335

> <Gold.PLP.PLP>
-47.0176

> <Gold.PLP.part.hbond>
-3.0000

> <Gold.PLP.part.metal>
0.0000

> <Gold.PLP.part.buried>
-3.2847

> <Gold.PLP.part.nonpolar>
-40.3654

> <Gold.PLP.part.repulsive>
0.3209

> <Gold.PLP.ligand.clash>
0.0000

> <Gold.PLP.ligand.torsion>
0.5312

> <Gold.PLP.Chemscore.Hbond>
1.7681

> <Gold.PLP.Chemscore.CHOScore>
0.0000

> <Gold.PLP.Chemscore.Metal>
0.0000

> <Gold.Chemscore.Hbonds>
donor molecule, donor type, donor heavy atom, donor atom, acceptor molecule, acceptor atom, score
      P1  H  7989  7998       L1    10  0.45
      P1  H  8011  8017       L1    10  0.41
      P1  H 10752 10765       L1     4  1.00

> <Gold.PLP.Chemscore.Internal.Correction>
0.1740

> <Gold.Rescore>
     Score         DG    S(hbond)    S(metal)    S(lipo)     H(rot)  DE(clash)    DE(int)     intcor
     19.95     -21.09       1.59        0.00     125.87       1.74       0.66       0.48       ----

> <Gold.Chemscore.Fitness>
19.9480

> <Gold.Chemscore.DG>
-21.0892

> <Gold.Chemscore.ZeroCoef>
-5.4800

> <Gold.Chemscore.Hbond>
1.5941

> <Gold.Chemscore.Metal>
0.0000

> <Gold.Chemscore.Lipo>
125.8710

> <Gold.Chemscore.Internal_Hbond>
0.0000

> <Gold.Chemscore.DEClash>
0.6583

> <Gold.Chemscore.DEInternal>
0.4830

> <Gold.Chemscore.Rot>
1.7352

> <Gold.Chemscore.Internal.Correction>
   9.000000E+99

> <Gold.Chemscore.Hbonds>
donor molecule, donor type, donor heavy atom, donor atom, acceptor molecule, acceptor atom, score
      P1  H  7989  7998       L1    10  0.11
      P1  H  8011  8017       L1    10  0.39
      P1  H 10752 10765       L1     4  0.37

> <Gold.Chemscore.Hbond.Weighted>
-5.3244

> <Gold.Chemscore.Metal.Weighted>
-0.0000

> <Gold.Chemscore.Lipo.Weighted>
-14.7269

> <Gold.Chemscore.Internal_Hbond.Weighted>
0.0000

> <Gold.Chemscore.DEClash.Weighted>
0.6583

> <Gold.Chemscore.DEInternal.Weighted>
0.4830

> <Gold.Chemscore.Rot.Weighted>
4.4420

> <Gold.Chemscore.Internal.Correction.Weighted>
   9.000000E+99

> <Gold.Protein.RotatedTorsions>
[ 6907 6896 6895 6894 ] final  113.27 input  -60.11 | X-H torsion
[ 7974 7965 7964 7962 ] final   -4.14 input  175.53 | X-H torsion
[ 8008 7997 7996 7995 ] final -155.37 input   59.86 | X-H torsion
[ 10167 10162 10161 10158 ] final  133.48 input  -65.29 | X-H torsion
[ 10718 10713 10712 10709 ] final   -1.10 input   66.30 | X-H torsion
[ 10763 10752 10751 10750 ] final -146.44 input  -60.55 | X-H torsion
[ 11005 11000 10999 10996 ] final  -10.96 input  -57.11 | X-H torsion

> <Gold.Protein.ActiveResidues>
 VAL166  LYS551  ARG553  GLY616  TRP617  ASP618  TYR619  PRO620  LYS621  CYS622 
 ASP623  PHE694  ASN695  SER759  ASP760  ASP761  ALA762  ILE779  LEU786  VAL792 
 PHE793  MET794  SER795  GLU796  ALA797  LYS798  CYS799  TRP800  GLU811  SER814 

> <Gold.Protein.RotatedAtoms>
  152.4870  133.8400  159.7147 H   0  0  0  0  0  0  0  0  0  0  0  0  # atno 6907 bound_to 6896
  150.8966  133.7164  159.2897 H   0  0  0  0  0  0  0  0  0  0  0  0  # atno 6908 bound_to 6896
  151.4619  135.1043  159.9779 H   0  0  0  0  0  0  0  0  0  0  0  0  # atno 6909 bound_to 6896
  146.2377  140.1827  142.8332 H   0  0  0  0  0  0  0  0  0  0  0  0  # atno 7974 bound_to 7965
  155.7008  140.0766  157.2411 H   0  0  0  0  0  0  0  0  0  0  0  0  # atno 8008 bound_to 7997
  154.4073  140.1648  156.2242 H   0  0  0  0  0  0  0  0  0  0  0  0  # atno 8009 bound_to 7997
  155.9370  140.3387  155.6298 H   0  0  0  0  0  0  0  0  0  0  0  0  # atno 8010 bound_to 7997
  139.5295  144.6613  151.5003 H   0  0  0  0  0  0  0  0  0  0  0  0  # atno 10167 bound_to 10162
  156.8106  130.5423  149.5709 H   0  0  0  0  0  0  0  0  0  0  0  0  # atno 10718 bound_to 10713
  154.8335  135.3386  154.6662 H   0  0  0  0  0  0  0  0  0  0  0  0  # atno 10763 bound_to 10752
  153.7280  135.6954  153.5001 H   0  0  0  0  0  0  0  0  0  0  0  0  # atno 10764 bound_to 10752
  153.2333  135.4409  155.0571 H   0  0  0  0  0  0  0  0  0  0  0  0  # atno 10765 bound_to 10752
  140.7502  133.8598  155.9039 H   0  0  0  0  0  0  0  0  0  0  0  0  # atno 11005 bound_to 11000
  144.9921  140.8557  143.5333 LP  0  0  0  0  0  0  0  0  0  0  0  0  # atno 17320 bound_to 7965
  145.1834  139.2339  143.5280 LP  0  0  0  0  0  0  0  0  0  0  0  0  # atno 17321 bound_to 7965
  140.6463  143.8787  150.6740 LP  0  0  0  0  0  0  0  0  0  0  0  0  # atno 17342 bound_to 10162
  140.2138  143.3862  152.1697 LP  0  0  0  0  0  0  0  0  0  0  0  0  # atno 17343 bound_to 10162
  156.1047  130.5995  150.9951 LP  0  0  0  0  0  0  0  0  0  0  0  0  # atno 17370 bound_to 10713
  157.6508  131.0897  150.8055 LP  0  0  0  0  0  0  0  0  0  0  0  0  # atno 17371 bound_to 10713
  140.9757  134.1472  157.4538 LP  0  0  0  0  0  0  0  0  0  0  0  0  # atno 17394 bound_to 11000
  139.8789  134.9994  156.5951 LP  0  0  0  0  0  0  0  0  0  0  0  0  # atno 17395 bound_to 11000

$$$$
