AV-unprocessed.smi:3078|AV-procd|sdf|11731|dock8
  -GOLD-   2272017133D 1   1.00000     0.00000
 Structure written by MMmdl.
 23 23  0  0  0  0  0  0  0  0  2 V2000
  153.4809  143.0174  163.1498 C   0  0  0  0  0  0  0  0  0  0  0  0
  152.9235  143.1175  161.8180 N   0  0  0  0  0  0  0  0  0  0  0  0
  152.2254  144.1624  161.2526 C   0  0  0  0  0  0  0  0  0  0  0  0
  151.9040  143.7989  159.9732 C   0  0  0  0  0  0  0  0  0  0  0  0
  151.1367  144.5634  158.9267 C   0  0  2  0  0  0  0  0  0  0  0  0
  149.7923  144.0310  158.7920 N   0  0  0  0  0  0  0  0  0  0  0  0
  151.8446  144.4791  157.5624 C   0  0  0  0  0  0  0  0  0  0  0  0
  151.1708  143.5357  156.6534 N   0  3  0  0  0  0  0  0  0  0  0  0
  152.4565  142.4910  159.8567 C   0  0  0  0  0  0  0  0  0  0  0  0
  153.0664  142.0880  160.9590 N   0  0  0  0  0  0  0  0  0  0  0  0
  153.2075  143.8942  163.7374 H   0  0  0  0  0  0  0  0  0  0  0  0
  154.5677  142.9546  163.0900 H   0  0  0  0  0  0  0  0  0  0  0  0
  153.0970  142.1252  163.6457 H   0  0  0  0  0  0  0  0  0  0  0  0
  152.0156  145.0691  161.8011 H   0  0  0  0  0  0  0  0  0  0  0  0
  151.0490  145.6103  159.2207 H   0  0  0  0  0  0  0  0  0  0  0  0
  149.2523  144.6284  158.1815 H   0  0  0  0  0  0  0  0  0  0  0  0
  149.8259  143.1250  158.3459 H   0  0  0  0  0  0  0  0  0  0  0  0
  151.8401  145.4578  157.0811 H   0  0  0  0  0  0  0  0  0  0  0  0
  152.8898  144.1883  157.6791 H   0  0  0  0  0  0  0  0  0  0  0  0
  150.9435  142.6885  157.1537 H   0  0  0  0  0  0  0  0  0  0  0  0
  151.7814  143.3183  155.8790 H   0  0  0  0  0  0  0  0  0  0  0  0
  152.4323  141.8255  159.0063 H   0  0  0  0  0  0  0  0  0  0  0  0
  150.3228  143.9604  156.3054 H   0  0  0  0  0  0  0  0  0  0  0  0
  1  2  1  0  0  0  0
  1 11  1  0  0  0  0
  1 12  1  0  0  0  0
  1 13  1  0  0  0  0
  2 10  1  0  0  0  0
  2  3  1  0  0  0  0
  3  4  2  0  0  0  0
  3 14  1  0  0  0  0
  4  5  1  0  0  0  0
  4  9  1  0  0  0  0
  5  6  1  0  0  0  0
  5  7  1  0  0  0  0
  5 15  1  0  0  0  0
  6 16  1  0  0  0  0
  6 17  1  0  0  0  0
  7  8  1  0  0  0  0
  7 18  1  0  0  0  0
  7 19  1  0  0  0  0
  8 20  1  0  0  0  0
  8 21  1  0  0  0  0
  8 23  1  0  0  0  0
  9 10  2  0  0  0  0
  9 22  1  0  0  0  0
M  CHG  1   8   1
M  END
> <s_m_source_file>
AV-unprocessed.smi

> <i_m_source_file_index>
3078

> <i_lp_mmshare_version>
43012

> <i_f3d_flags>
0

> <s_epik_input>
W0NIM11uMVtjSF1jKFtjSF1uMSlbQ0BIXShbTkgyXSlbQ0gyXVtOSDJd

> <s_epik_cmdline>
J2VwaWtfcHl0aG9uJywgJy1waCcsICc3LjAnLCAnLXRuJywgJzgnLCAnLW1hJywgJzIwMCcsICctbWV0YWxfYmluZGluZycsICctaW1hZScsICc8aW5maWxlLm1hZT4nLCAnLW9tYWUnLCAnPG91dGZpbGUubWFlPic=

> <r_lp_tautomer_probability>
1

> <r_epik_Ionization_Penalty>
0.0498714

> <r_epik_Ionization_Penalty_Charging>
0.00651912

> <r_epik_Ionization_Penalty_Neutral>
0.0433523

> <r_epik_State_Penalty>
0.141593

> <r_epik_Charging_Adjusted_Penalty>
0.148112

> <i_epik_Tot_Q>
1

> <i_epik_Tot_abs_Q>
1

> <r_epik_Metal_State_Penalty>
0.141584

> <b_epik_Metal_Only>
0

> <s_lp_Force_Field>
OPLS_2005

> <r_lp_Energy>
-1.23343

> <b_lp_Chiralities_Consistent>
1

> <s_lp_Variant>
AV-unprocessed.smi:3078-1

> <Gold.Version>
5.8.1

> <Gold.Id.Protein>
6NUR|6NUR_protein|mol2

> <Gold.PLP.Fitness>
38.3942

> <Gold.PLP.PLP>
-31.3434

> <Gold.PLP.part.hbond>
-2.4788

> <Gold.PLP.part.metal>
0.0000

> <Gold.PLP.part.buried>
-4.9152

> <Gold.PLP.part.nonpolar>
-23.9321

> <Gold.PLP.part.repulsive>
0.0746

> <Gold.PLP.ligand.clash>
0.0000

> <Gold.PLP.ligand.torsion>
0.9758

> <Gold.PLP.Chemscore.Hbond>
3.0000

> <Gold.PLP.Chemscore.CHOScore>
0.0000

> <Gold.PLP.Chemscore.Metal>
0.0000

> <Gold.Chemscore.Hbonds>
donor molecule, donor type, donor heavy atom, donor atom, acceptor molecule, acceptor atom, score
      L1  H     6    16       P1  8029  0.80
      L1  H     8    23       P1  8028  2.00

> <Gold.PLP.Chemscore.Internal.Correction>
0.0025

> <Gold.Rescore>
     Score         DG    S(hbond)    S(metal)    S(lipo)     H(rot)  DE(clash)    DE(int)     intcor
     15.08     -16.31       1.80        0.00      72.24       1.41       0.78       0.45       ----

> <Gold.Chemscore.Fitness>
15.0834

> <Gold.Chemscore.DG>
-16.3128

> <Gold.Chemscore.ZeroCoef>
-5.4800

> <Gold.Chemscore.Hbond>
1.7951

> <Gold.Chemscore.Metal>
0.0000

> <Gold.Chemscore.Lipo>
72.2436

> <Gold.Chemscore.Internal_Hbond>
0.0000

> <Gold.Chemscore.DEClash>
0.7800

> <Gold.Chemscore.DEInternal>
0.4494

> <Gold.Chemscore.Rot>
1.4123

> <Gold.Chemscore.Internal.Correction>
   9.000000E+99

> <Gold.Chemscore.Hbonds>
donor molecule, donor type, donor heavy atom, donor atom, acceptor molecule, acceptor atom, score
      L1  H     6    16       P1  8029  0.18
      L1  H     8    23       P1  8028  1.00

> <Gold.Chemscore.Hbond.Weighted>
-5.9957

> <Gold.Chemscore.Metal.Weighted>
-0.0000

> <Gold.Chemscore.Lipo.Weighted>
-8.4525

> <Gold.Chemscore.Internal_Hbond.Weighted>
0.0000

> <Gold.Chemscore.DEClash.Weighted>
0.7800

> <Gold.Chemscore.DEInternal.Weighted>
0.4494

> <Gold.Chemscore.Rot.Weighted>
3.6154

> <Gold.Chemscore.Internal.Correction.Weighted>
   9.000000E+99

> <Gold.Protein.RotatedTorsions>
[ 6907 6896 6895 6894 ] final -120.99 input  -60.11 | X-H torsion
[ 7974 7965 7964 7962 ] final  -45.46 input  175.53 | X-H torsion
[ 8008 7997 7996 7995 ] final -179.98 input   59.86 | X-H torsion
[ 10167 10162 10161 10158 ] final -164.40 input  -65.29 | X-H torsion
[ 10718 10713 10712 10709 ] final   72.38 input   66.30 | X-H torsion
[ 10763 10752 10751 10750 ] final  -54.33 input  -60.55 | X-H torsion
[ 11005 11000 10999 10996 ] final   79.14 input  -57.11 | X-H torsion

> <Gold.Protein.ActiveResidues>
 VAL166  LYS551  ARG553  GLY616  TRP617  ASP618  TYR619  PRO620  LYS621  CYS622 
 ASP623  PHE694  ASN695  SER759  ASP760  ASP761  ALA762  ILE779  LEU786  VAL792 
 PHE793  MET794  SER795  GLU796  ALA797  LYS798  CYS799  TRP800  GLU811  SER814 

> <Gold.Protein.RotatedAtoms>
  150.8443  133.7887  159.3048 H   0  0  0  0  0  0  0  0  0  0  0  0  # atno 6907 bound_to 6896
  151.5579  135.1064  159.9975 H   0  0  0  0  0  0  0  0  0  0  0  0  # atno 6908 bound_to 6896
  152.4500  133.7568  159.6780 H   0  0  0  0  0  0  0  0  0  0  0  0  # atno 6909 bound_to 6896
  145.9818  140.7275  142.9359 H   0  0  0  0  0  0  0  0  0  0  0  0  # atno 7974 bound_to 7965
  156.0367  140.1294  157.0200 H   0  0  0  0  0  0  0  0  0  0  0  0  # atno 8008 bound_to 7997
  154.4373  140.1038  156.6248 H   0  0  0  0  0  0  0  0  0  0  0  0  # atno 8009 bound_to 7997
  155.5727  140.3467  155.4521 H   0  0  0  0  0  0  0  0  0  0  0  0  # atno 8010 bound_to 7997
  139.6253  144.0544  152.1969 H   0  0  0  0  0  0  0  0  0  0  0  0  # atno 10167 bound_to 10162
  157.6498  130.9576  150.0921 H   0  0  0  0  0  0  0  0  0  0  0  0  # atno 10718 bound_to 10713
  154.1730  135.6456  153.5014 H   0  0  0  0  0  0  0  0  0  0  0  0  # atno 10763 bound_to 10752
  153.0079  135.5388  154.6593 H   0  0  0  0  0  0  0  0  0  0  0  0  # atno 10764 bound_to 10752
  154.5937  135.2936  155.0581 H   0  0  0  0  0  0  0  0  0  0  0  0  # atno 10765 bound_to 10752
  139.9184  134.7819  156.1740 H   0  0  0  0  0  0  0  0  0  0  0  0  # atno 11005 bound_to 11000
  144.6864  140.2922  143.7276 LP  0  0  0  0  0  0  0  0  0  0  0  0  # atno 17320 bound_to 7965
  145.7758  139.1873  143.2186 LP  0  0  0  0  0  0  0  0  0  0  0  0  # atno 17321 bound_to 7965
  140.0196  144.6163  150.7578 LP  0  0  0  0  0  0  0  0  0  0  0  0  # atno 17342 bound_to 10162
  140.7407  143.2808  151.3604 LP  0  0  0  0  0  0  0  0  0  0  0  0  # atno 17343 bound_to 10162
  156.1867  130.3652  149.8963 LP  0  0  0  0  0  0  0  0  0  0  0  0  # atno 17370 bound_to 10713
  156.6902  130.8892  151.3587 LP  0  0  0  0  0  0  0  0  0  0  0  0  # atno 17371 bound_to 10713
  141.0683  133.6809  156.2089 LP  0  0  0  0  0  0  0  0  0  0  0  0  # atno 17394 bound_to 11000
  140.6549  134.5028  157.5580 LP  0  0  0  0  0  0  0  0  0  0  0  0  # atno 17395 bound_to 11000

$$$$
