AV-unprocessed.smi:2471|AV-procd|sdf|9740|dock3
  -GOLD-   2272013383D 1   1.00000     0.00000
 Structure written by MMmdl.
 40 41  0  0  0  0  0  0  0  0  1 V2000
  153.3759  141.8860  160.7543 C   0  0  0  0  0  0  0  0  0  0  0  0
  152.5659  142.9517  160.0461 C   0  0  0  0  0  0  0  0  0  0  0  0
  152.5223  144.2722  160.5342 C   0  0  0  0  0  0  0  0  0  0  0  0
  151.7552  145.2149  159.8266 C   0  0  0  0  0  0  0  0  0  0  0  0
  151.0680  144.8014  158.6689 C   0  0  0  0  0  0  0  0  0  0  0  0
  151.1645  143.4563  158.2464 C   0  0  0  0  0  0  0  0  0  0  0  0
  150.4358  143.1400  157.0687 N   0  0  0  0  0  0  0  0  0  0  0  0
  150.3953  141.9701  156.4065 C   0  0  0  0  0  0  0  0  0  0  0  0
  150.9966  140.9457  156.7316 O   0  0  0  0  0  0  0  0  0  0  0  0
  149.6037  142.0488  155.3271 N   0  0  0  0  0  0  0  0  0  0  0  0
  149.3412  140.9492  154.4031 C   0  0  0  0  0  0  0  0  0  0  0  0
  148.1729  140.0463  154.8669 C   0  0  1  0  0  0  0  0  0  0  0  0
  147.1730  140.8320  155.7482 C   0  0  0  0  0  0  0  0  0  0  0  0
  145.9838  139.9664  156.1920 C   0  0  0  0  0  0  0  0  0  0  0  0
  145.2608  139.3583  154.9830 C   0  0  0  0  0  0  0  0  0  0  0  0
  146.2357  138.5481  154.1183 C   0  0  0  0  0  0  0  0  0  0  0  0
  147.4345  139.4034  153.6664 C   0  0  2  0  0  0  0  0  0  0  0  0
  148.3111  138.5620  152.9432 O   0  0  0  0  0  0  0  0  0  0  0  0
  151.9081  142.5552  158.9354 N   0  0  0  0  0  0  0  0  0  0  0  0
  153.6965  142.2240  161.7401 H   0  0  0  0  0  0  0  0  0  0  0  0
  154.2639  141.6388  160.1721 H   0  0  0  0  0  0  0  0  0  0  0  0
  152.7852  140.9783  160.8832 H   0  0  0  0  0  0  0  0  0  0  0  0
  153.0616  144.5578  161.4253 H   0  0  0  0  0  0  0  0  0  0  0  0
  151.6942  146.2386  160.1654 H   0  0  0  0  0  0  0  0  0  0  0  0
  150.4740  145.5136  158.1144 H   0  0  0  0  0  0  0  0  0  0  0  0
  149.8849  143.8929  156.6844 H   0  0  0  0  0  0  0  0  0  0  0  0
  149.1472  142.9278  155.1313 H   0  0  0  0  0  0  0  0  0  0  0  0
  149.1154  141.3760  153.4256 H   0  0  0  0  0  0  0  0  0  0  0  0
  150.2560  140.3685  154.2750 H   0  0  0  0  0  0  0  0  0  0  0  0
  148.5847  139.2378  155.4736 H   0  0  0  0  0  0  0  0  0  0  0  0
  147.6731  141.2232  156.6345 H   0  0  0  0  0  0  0  0  0  0  0  0
  146.8021  141.6980  155.1981 H   0  0  0  0  0  0  0  0  0  0  0  0
  146.3357  139.1696  156.8487 H   0  0  0  0  0  0  0  0  0  0  0  0
  145.2866  140.5656  156.7782 H   0  0  0  0  0  0  0  0  0  0  0  0
  144.4430  138.7208  155.3199 H   0  0  0  0  0  0  0  0  0  0  0  0
  144.8106  140.1518  154.3851 H   0  0  0  0  0  0  0  0  0  0  0  0
  146.5893  137.6869  154.6880 H   0  0  0  0  0  0  0  0  0  0  0  0
  145.7114  138.1486  153.2495 H   0  0  0  0  0  0  0  0  0  0  0  0
  147.0834  140.1864  152.9927 H   0  0  0  0  0  0  0  0  0  0  0  0
  148.7762  139.0851  152.3083 H   0  0  0  0  0  0  0  0  0  0  0  0
  1  2  1  0  0  0  0
  1 20  1  0  0  0  0
  1 21  1  0  0  0  0
  1 22  1  0  0  0  0
  2 19  1  0  0  0  0
  2  3  2  0  0  0  0
  3  4  1  0  0  0  0
  3 23  1  0  0  0  0
  4  5  2  0  0  0  0
  4 24  1  0  0  0  0
  5  6  1  0  0  0  0
  5 25  1  0  0  0  0
  6  7  1  0  0  0  0
  6 19  2  0  0  0  0
  7  8  1  0  0  0  0
  7 26  1  0  0  0  0
  8  9  2  0  0  0  0
  8 10  1  0  0  0  0
 10 11  1  0  0  0  0
 10 27  1  0  0  0  0
 11 12  1  0  0  0  0
 11 28  1  0  0  0  0
 11 29  1  0  0  0  0
 12 17  1  0  0  0  0
 12 13  1  0  0  0  0
 12 30  1  0  0  0  0
 13 14  1  0  0  0  0
 13 31  1  0  0  0  0
 13 32  1  0  0  0  0
 14 15  1  0  0  0  0
 14 33  1  0  0  0  0
 14 34  1  0  0  0  0
 15 16  1  0  0  0  0
 15 35  1  0  0  0  0
 15 36  1  0  0  0  0
 16 17  1  0  0  0  0
 16 37  1  0  0  0  0
 16 38  1  0  0  0  0
 17 18  1  0  0  0  0
 17 39  1  0  0  0  0
 18 40  1  0  0  0  0
M  END
> <s_m_source_file>
AV-unprocessed.smi

> <i_m_source_file_index>
2471

> <i_lp_mmshare_version>
43012

> <i_f3d_flags>
0

> <s_epik_input>
W0NIM11jMVtjSF1bY0hdW2NIXWMobjEpW05IXUMoPU8pW05IXVtDSDJdW0NAQEhdMltDSDJdW0NIMl1bQ0gyXVtDSDJdW0NASF0yW09IXQ==

> <s_epik_cmdline>
J2VwaWtfcHl0aG9uJywgJy1waCcsICc3LjAnLCAnLXRuJywgJzgnLCAnLW1hJywgJzIwMCcsICctbWV0YWxfYmluZGluZycsICctaW1hZScsICc8aW5maWxlLm1hZT4nLCAnLW9tYWUnLCAnPG91dGZpbGUubWFlPic=

> <r_lp_tautomer_probability>
1

> <r_epik_Ionization_Penalty>
8.52237e-05

> <r_epik_Ionization_Penalty_Charging>
0

> <r_epik_Ionization_Penalty_Neutral>
8.52237e-05

> <r_epik_State_Penalty>
-0

> <r_epik_Charging_Adjusted_Penalty>
0

> <i_epik_Tot_Q>
0

> <i_epik_Tot_abs_Q>
0

> <r_epik_Metal_State_Penalty>
-0

> <b_epik_Metal_Only>
0

> <s_lp_Force_Field>
OPLS_2005

> <r_lp_Energy>
14.0215

> <b_lp_Chiralities_Consistent>
1

> <s_lp_Variant>
AV-unprocessed.smi:2471-4

> <Gold.Version>
5.8.1

> <Gold.Id.Protein>
6NUR|6NUR_protein|mol2

> <Gold.PLP.Fitness>
43.6892

> <Gold.PLP.PLP>
-35.9703

> <Gold.PLP.part.hbond>
-4.0000

> <Gold.PLP.part.metal>
0.0000

> <Gold.PLP.part.buried>
-5.2719

> <Gold.PLP.part.nonpolar>
-27.1259

> <Gold.PLP.part.repulsive>
0.2266

> <Gold.PLP.ligand.clash>
0.0000

> <Gold.PLP.ligand.torsion>
0.5833

> <Gold.PLP.Chemscore.Hbond>
2.9600

> <Gold.PLP.Chemscore.CHOScore>
0.0000

> <Gold.PLP.Chemscore.Metal>
0.0000

> <Gold.Chemscore.Hbonds>
donor molecule, donor type, donor heavy atom, donor atom, acceptor molecule, acceptor atom, score
      L1  H     7    26       P1  8028  1.00
      L1  H    10    27       P1  8028  0.96
      L1  H    18    40       P1  7957  1.00

> <Gold.PLP.Chemscore.Internal.Correction>
0.0056

> <Gold.Rescore>
     Score         DG    S(hbond)    S(metal)    S(lipo)     H(rot)  DE(clash)    DE(int)     intcor
     18.67     -20.50       2.94        0.00      82.41       1.73       0.02       1.81       ----

> <Gold.Chemscore.Fitness>
18.6681

> <Gold.Chemscore.DG>
-20.5005

> <Gold.Chemscore.ZeroCoef>
-5.4800

> <Gold.Chemscore.Hbond>
2.9393

> <Gold.Chemscore.Metal>
0.0000

> <Gold.Chemscore.Lipo>
82.4099

> <Gold.Chemscore.Internal_Hbond>
0.0000

> <Gold.Chemscore.DEClash>
0.0197

> <Gold.Chemscore.DEInternal>
1.8127

> <Gold.Chemscore.Rot>
1.7339

> <Gold.Chemscore.Internal.Correction>
   9.000000E+99

> <Gold.Chemscore.Hbonds>
donor molecule, donor type, donor heavy atom, donor atom, acceptor molecule, acceptor atom, score
      L1  H     7    26       P1  8028  0.99
      L1  H    10    27       P1  8028  0.92
      L1  H    18    40       P1  7957  1.00

> <Gold.Chemscore.Hbond.Weighted>
-9.8172

> <Gold.Chemscore.Metal.Weighted>
-0.0000

> <Gold.Chemscore.Lipo.Weighted>
-9.6420

> <Gold.Chemscore.Internal_Hbond.Weighted>
0.0000

> <Gold.Chemscore.DEClash.Weighted>
0.0197

> <Gold.Chemscore.DEInternal.Weighted>
1.8127

> <Gold.Chemscore.Rot.Weighted>
4.4387

> <Gold.Chemscore.Internal.Correction.Weighted>
   9.000000E+99

> <Gold.Protein.RotatedTorsions>
[ 6907 6896 6895 6894 ] final  143.14 input  -60.11 | X-H torsion
[ 7974 7965 7964 7962 ] final   28.35 input  175.53 | X-H torsion
[ 8008 7997 7996 7995 ] final  163.65 input   59.86 | X-H torsion
[ 10167 10162 10161 10158 ] final -176.76 input  -65.29 | X-H torsion
[ 10718 10713 10712 10709 ] final   69.93 input   66.30 | X-H torsion
[ 10763 10752 10751 10750 ] final  -85.74 input  -60.55 | X-H torsion
[ 11005 11000 10999 10996 ] final -159.96 input  -57.11 | X-H torsion

> <Gold.Protein.ActiveResidues>
 VAL166  LYS551  ARG553  GLY616  TRP617  ASP618  TYR619  PRO620  LYS621  CYS622 
 ASP623  PHE694  ASN695  SER759  ASP760  ASP761  ALA762  ILE779  LEU786  VAL792 
 PHE793  MET794  SER795  GLU796  ALA797  LYS798  CYS799  TRP800  GLU811  SER814 

> <Gold.Protein.RotatedAtoms>
  152.2099  133.4903  159.5104 H   0  0  0  0  0  0  0  0  0  0  0  0  # atno 6907 bound_to 6896
  150.6988  134.1480  159.4139 H   0  0  0  0  0  0  0  0  0  0  0  0  # atno 6908 bound_to 6896
  151.9399  135.0218  160.0586 H   0  0  0  0  0  0  0  0  0  0  0  0  # atno 6909 bound_to 6896
  146.1733  139.7067  142.8952 H   0  0  0  0  0  0  0  0  0  0  0  0  # atno 7974 bound_to 7965
  156.1940  140.1717  156.8035 H   0  0  0  0  0  0  0  0  0  0  0  0  # atno 8008 bound_to 7997
  154.5507  140.0718  156.8694 H   0  0  0  0  0  0  0  0  0  0  0  0  # atno 8009 bound_to 7997
  155.3035  140.3363  155.4249 H   0  0  0  0  0  0  0  0  0  0  0  0  # atno 8010 bound_to 7997
  139.5514  144.2100  152.1083 H   0  0  0  0  0  0  0  0  0  0  0  0  # atno 10167 bound_to 10162
  157.6373  130.9451  150.0582 H   0  0  0  0  0  0  0  0  0  0  0  0  # atno 10718 bound_to 10713
  154.6145  135.5474  153.7509 H   0  0  0  0  0  0  0  0  0  0  0  0  # atno 10763 bound_to 10752
  153.0210  135.6398  154.1529 H   0  0  0  0  0  0  0  0  0  0  0  0  # atno 10764 bound_to 10752
  154.1466  135.2905  155.3126 H   0  0  0  0  0  0  0  0  0  0  0  0  # atno 10765 bound_to 10752
  140.6368  134.4593  157.5232 H   0  0  0  0  0  0  0  0  0  0  0  0  # atno 11005 bound_to 11000
  145.4279  141.0412  143.2927 LP  0  0  0  0  0  0  0  0  0  0  0  0  # atno 17320 bound_to 7965
  144.8197  139.5813  143.6992 LP  0  0  0  0  0  0  0  0  0  0  0  0  # atno 17321 bound_to 7965
  140.1596  144.5038  150.6640 LP  0  0  0  0  0  0  0  0  0  0  0  0  # atno 17342 bound_to 10162
  140.6777  143.2312  151.5465 LP  0  0  0  0  0  0  0  0  0  0  0  0  # atno 17343 bound_to 10162
  156.1622  130.3644  149.9282 LP  0  0  0  0  0  0  0  0  0  0  0  0  # atno 17370 bound_to 10713
  156.7278  130.9031  151.3623 LP  0  0  0  0  0  0  0  0  0  0  0  0  # atno 17371 bound_to 10713
  139.9095  134.8375  156.1580 LP  0  0  0  0  0  0  0  0  0  0  0  0  # atno 17394 bound_to 11000
  141.0636  133.6830  156.2000 LP  0  0  0  0  0  0  0  0  0  0  0  0  # atno 17395 bound_to 11000

$$$$
