AV-unprocessed.smi:2990|AV-procd|sdf|11393|dock7
  -GOLD-   2272016313D 1   1.00000     0.00000
 Structure written by MMmdl.
 39 41  0  0  0  0  0  0  0  0  1 V2000
  151.4738  139.1303  155.0184 C   0  0  0  0  0  0  0  0  0  0  0  0
  151.6201  140.0833  156.1621 C   0  0  0  0  0  0  0  0  0  0  0  0
  152.4785  139.8702  157.1595 N   0  0  0  0  0  0  0  0  0  0  0  0
  152.2739  140.9667  157.9747 C   0  0  0  0  0  0  0  0  0  0  0  0
  152.8814  141.3272  159.1988 C   0  0  0  0  0  0  0  0  0  0  0  0
  152.5032  142.5136  159.8611 C   0  0  0  0  0  0  0  0  0  0  0  0
  151.5154  143.3552  159.3099 C   0  0  0  0  0  0  0  0  0  0  0  0
  150.8988  143.0157  158.0902 C   0  0  0  0  0  0  0  0  0  0  0  0
  151.2786  141.8297  157.4337 C   0  0  0  0  0  0  0  0  0  0  0  0
  150.8818  141.2170  156.2487 N   0  0  0  0  0  0  0  0  0  0  0  0
  149.8770  141.7052  155.3136 C   0  0  0  0  0  0  0  0  0  0  0  0
  148.8537  140.6216  154.9169 C   0  0  2  0  0  0  0  0  0  0  0  0
  149.0417  140.2528  153.5650 O   0  0  0  0  0  0  0  0  0  0  0  0
  147.4027  141.0936  155.0908 C   0  0  0  0  0  0  0  0  0  0  0  0
  146.9806  141.7477  153.9012 O   0  0  0  0  0  0  0  0  0  0  0  0
  146.0935  142.7968  154.0137 C   0  0  0  0  0  0  0  0  0  0  0  0
  145.9413  143.6303  152.8859 C   0  0  0  0  0  0  0  0  0  0  0  0
  145.0574  144.7264  152.9129 C   0  0  0  0  0  0  0  0  0  0  0  0
  144.3133  145.0013  154.0750 C   0  0  0  0  0  0  0  0  0  0  0  0
  144.4553  144.1785  155.2076 C   0  0  0  0  0  0  0  0  0  0  0  0
  145.3391  143.0819  155.1803 C   0  0  0  0  0  0  0  0  0  0  0  0
  152.1763  138.3024  155.1197 H   0  0  0  0  0  0  0  0  0  0  0  0
  151.6739  139.6348  154.0735 H   0  0  0  0  0  0  0  0  0  0  0  0
  150.4638  138.7208  154.9953 H   0  0  0  0  0  0  0  0  0  0  0  0
  153.6389  140.6893  159.6292 H   0  0  0  0  0  0  0  0  0  0  0  0
  152.9731  142.7788  160.7969 H   0  0  0  0  0  0  0  0  0  0  0  0
  151.2312  144.2617  159.8240 H   0  0  0  0  0  0  0  0  0  0  0  0
  150.1440  143.6597  157.6640 H   0  0  0  0  0  0  0  0  0  0  0  0
  149.3709  142.5616  155.7595 H   0  0  0  0  0  0  0  0  0  0  0  0
  150.3849  142.0863  154.4268 H   0  0  0  0  0  0  0  0  0  0  0  0
  149.0085  139.7281  155.5222 H   0  0  0  0  0  0  0  0  0  0  0  0
  148.2505  139.8394  153.2547 H   0  0  0  0  0  0  0  0  0  0  0  0
  146.7568  140.2425  155.3137 H   0  0  0  0  0  0  0  0  0  0  0  0
  147.3436  141.7922  155.9275 H   0  0  0  0  0  0  0  0  0  0  0  0
  146.5086  143.4267  151.9897 H   0  0  0  0  0  0  0  0  0  0  0  0
  144.9509  145.3562  152.0420 H   0  0  0  0  0  0  0  0  0  0  0  0
  143.6353  145.8416  154.0978 H   0  0  0  0  0  0  0  0  0  0  0  0
  143.8857  144.3888  156.1007 H   0  0  0  0  0  0  0  0  0  0  0  0
  145.4209  142.4752  156.0692 H   0  0  0  0  0  0  0  0  0  0  0  0
  1  2  1  0  0  0  0
  1 22  1  0  0  0  0
  1 23  1  0  0  0  0
  1 24  1  0  0  0  0
  2 10  1  0  0  0  0
  2  3  2  0  0  0  0
  3  4  1  0  0  0  0
  4  9  2  0  0  0  0
  4  5  1  0  0  0  0
  5  6  2  0  0  0  0
  5 25  1  0  0  0  0
  6  7  1  0  0  0  0
  6 26  1  0  0  0  0
  7  8  2  0  0  0  0
  7 27  1  0  0  0  0
  8  9  1  0  0  0  0
  8 28  1  0  0  0  0
  9 10  1  0  0  0  0
 10 11  1  0  0  0  0
 11 12  1  0  0  0  0
 11 29  1  0  0  0  0
 11 30  1  0  0  0  0
 12 13  1  0  0  0  0
 12 14  1  0  0  0  0
 12 31  1  0  0  0  0
 13 32  1  0  0  0  0
 14 15  1  0  0  0  0
 14 33  1  0  0  0  0
 14 34  1  0  0  0  0
 15 16  1  0  0  0  0
 16 21  1  0  0  0  0
 16 17  2  0  0  0  0
 17 18  1  0  0  0  0
 17 35  1  0  0  0  0
 18 19  2  0  0  0  0
 18 36  1  0  0  0  0
 19 20  1  0  0  0  0
 19 37  1  0  0  0  0
 20 21  2  0  0  0  0
 20 38  1  0  0  0  0
 21 39  1  0  0  0  0
M  END
> <s_m_source_file>
AV-unprocessed.smi

> <i_m_source_file_index>
2990

> <i_lp_mmshare_version>
43012

> <i_f3d_flags>
0

> <s_epik_input>
W2NIXTFbY0hdW2NIXVtjSF1jKGMxMiluKGMobjIpW0NIM10pW0NIMl1bQ0BIXShbT0hdKVtDSDJdT2MzW2NIXVtjSF1bY0hdW2NIXVtjSF0z

> <s_epik_cmdline>
J2VwaWtfcHl0aG9uJywgJy1waCcsICc3LjAnLCAnLXRuJywgJzgnLCAnLW1hJywgJzIwMCcsICctbWV0YWxfYmluZGluZycsICctaW1hZScsICc8aW5maWxlLm1hZT4nLCAnLW9tYWUnLCAnPG91dGZpbGUubWFlPic=

> <r_lp_tautomer_probability>
1

> <r_epik_Ionization_Penalty>
0.119634

> <r_epik_Ionization_Penalty_Charging>
0

> <r_epik_Ionization_Penalty_Neutral>
0.119634

> <r_epik_State_Penalty>
0.10919

> <r_epik_Charging_Adjusted_Penalty>
0.10919

> <i_epik_Tot_Q>
0

> <i_epik_Tot_abs_Q>
0

> <r_epik_Metal_State_Penalty>
0.000119887

> <b_epik_Metal_Only>
0

> <s_lp_Force_Field>
OPLS_2005

> <r_lp_Energy>
14.3575

> <b_lp_Chiralities_Consistent>
1

> <s_lp_Variant>
AV-unprocessed.smi:2990-1

> <Gold.Version>
5.8.1

> <Gold.Id.Protein>
6NUR|6NUR_protein|mol2

> <Gold.PLP.Fitness>
46.3141

> <Gold.PLP.PLP>
-46.3180

> <Gold.PLP.part.hbond>
-1.8128

> <Gold.PLP.part.metal>
0.0000

> <Gold.PLP.part.buried>
-6.1525

> <Gold.PLP.part.nonpolar>
-38.6533

> <Gold.PLP.part.repulsive>
0.1776

> <Gold.PLP.ligand.clash>
0.0000

> <Gold.PLP.ligand.torsion>
1.5409

> <Gold.PLP.Chemscore.Hbond>
1.0000

> <Gold.PLP.Chemscore.CHOScore>
0.0000

> <Gold.PLP.Chemscore.Metal>
0.0000

> <Gold.Chemscore.Hbonds>
donor molecule, donor type, donor heavy atom, donor atom, acceptor molecule, acceptor atom, score
      P1  H  7997  8009       L1     3  1.00

> <Gold.PLP.Chemscore.Internal.Correction>
0.0779

> <Gold.Rescore>
     Score         DG    S(hbond)    S(metal)    S(lipo)     H(rot)  DE(clash)    DE(int)     intcor
     14.35     -15.85       0.66        0.00     114.37       2.04       0.07       1.44       ----

> <Gold.Chemscore.Fitness>
14.3457

> <Gold.Chemscore.DG>
-15.8492

> <Gold.Chemscore.ZeroCoef>
-5.4800

> <Gold.Chemscore.Hbond>
0.6588

> <Gold.Chemscore.Metal>
0.0000

> <Gold.Chemscore.Lipo>
114.3692

> <Gold.Chemscore.Internal_Hbond>
0.0000

> <Gold.Chemscore.DEClash>
0.0657

> <Gold.Chemscore.DEInternal>
1.4378

> <Gold.Chemscore.Rot>
2.0361

> <Gold.Chemscore.Internal.Correction>
   9.000000E+99

> <Gold.Chemscore.Hbonds>
donor molecule, donor type, donor heavy atom, donor atom, acceptor molecule, acceptor atom, score
      P1  H  7997  8009       L1     3  0.28

> <Gold.Chemscore.Hbond.Weighted>
-2.2005

> <Gold.Chemscore.Metal.Weighted>
-0.0000

> <Gold.Chemscore.Lipo.Weighted>
-13.3812

> <Gold.Chemscore.Internal_Hbond.Weighted>
0.0000

> <Gold.Chemscore.DEClash.Weighted>
0.0657

> <Gold.Chemscore.DEInternal.Weighted>
1.4378

> <Gold.Chemscore.Rot.Weighted>
5.2124

> <Gold.Chemscore.Internal.Correction.Weighted>
   9.000000E+99

> <Gold.Protein.RotatedTorsions>
[ 6907 6896 6895 6894 ] final  -14.66 input  -60.11 | X-H torsion
[ 7974 7965 7964 7962 ] final  167.69 input  175.53 | X-H torsion
[ 8008 7997 7996 7995 ] final -167.77 input   59.86 | X-H torsion
[ 10167 10162 10161 10158 ] final  -59.57 input  -65.29 | X-H torsion
[ 10718 10713 10712 10709 ] final -117.44 input   66.30 | X-H torsion
[ 10763 10752 10751 10750 ] final -178.70 input  -60.55 | X-H torsion
[ 11005 11000 10999 10996 ] final  140.75 input  -57.11 | X-H torsion

> <Gold.Protein.ActiveResidues>
 VAL166  LYS551  ARG553  GLY616  TRP617  ASP618  TYR619  PRO620  LYS621  CYS622 
 ASP623  PHE694  ASN695  SER759  ASP760  ASP761  ALA762  ILE779  LEU786  VAL792 
 PHE793  MET794  SER795  GLU796  ALA797  LYS798  CYS799  TRP800  GLU811  SER814 

> <Gold.Protein.RotatedAtoms>
  151.3360  135.0853  159.9354 H   0  0  0  0  0  0  0  0  0  0  0  0  # atno 6907 bound_to 6896
  152.5223  133.9495  159.7675 H   0  0  0  0  0  0  0  0  0  0  0  0  # atno 6908 bound_to 6896
  150.9843  133.6161  159.2747 H   0  0  0  0  0  0  0  0  0  0  0  0  # atno 6909 bound_to 6896
  144.7415  139.8798  143.6395 H   0  0  0  0  0  0  0  0  0  0  0  0  # atno 7974 bound_to 7965
  155.8823  140.1011  157.1476 H   0  0  0  0  0  0  0  0  0  0  0  0  # atno 8008 bound_to 7997
  154.4006  140.1326  156.4275 H   0  0  0  0  0  0  0  0  0  0  0  0  # atno 8009 bound_to 7997
  155.7629  140.3462  155.5209 H   0  0  0  0  0  0  0  0  0  0  0  0  # atno 8010 bound_to 7997
  140.6126  143.2392  151.5672 H   0  0  0  0  0  0  0  0  0  0  0  0  # atno 10167 bound_to 10162
  156.1034  130.6190  150.9164 H   0  0  0  0  0  0  0  0  0  0  0  0  # atno 10718 bound_to 10713
  154.5443  135.2808  155.1067 H   0  0  0  0  0  0  0  0  0  0  0  0  # atno 10763 bound_to 10752
  154.2537  135.6334  153.5253 H   0  0  0  0  0  0  0  0  0  0  0  0  # atno 10764 bound_to 10752
  152.9987  135.5589  154.5992 H   0  0  0  0  0  0  0  0  0  0  0  0  # atno 10765 bound_to 10752
  140.0350  134.9333  157.0735 H   0  0  0  0  0  0  0  0  0  0  0  0  # atno 11005 bound_to 11000
  146.1219  139.4239  143.0223 LP  0  0  0  0  0  0  0  0  0  0  0  0  # atno 17320 bound_to 7965
  145.7292  141.0048  143.1361 LP  0  0  0  0  0  0  0  0  0  0  0  0  # atno 17321 bound_to 7965
  139.5373  144.2744  152.1279 LP  0  0  0  0  0  0  0  0  0  0  0  0  # atno 17342 bound_to 10162
  140.1947  144.4717  150.6461 LP  0  0  0  0  0  0  0  0  0  0  0  0  # atno 17343 bound_to 10162
  157.6207  131.0930  150.8627 LP  0  0  0  0  0  0  0  0  0  0  0  0  # atno 17370 bound_to 10713
  156.8751  130.5159  149.5294 LP  0  0  0  0  0  0  0  0  0  0  0  0  # atno 17371 bound_to 10713
  140.4162  134.1928  155.7163 LP  0  0  0  0  0  0  0  0  0  0  0  0  # atno 17394 bound_to 11000
  141.1852  133.8328  157.1112 LP  0  0  0  0  0  0  0  0  0  0  0  0  # atno 17395 bound_to 11000

$$$$
