AV-unprocessed.smi:80|AV-procd|sdf|785|dock10
  -GOLD-   2262017153D 1   1.00000     0.00000
 Structure written by MMmdl.
 51 54  0  0  0  0  0  0  0  0  1 V2000
  145.3137  133.2663  161.7812 N   0  0  0  0  0  0  0  0  0  0  0  0
  146.1514  133.9770  162.1452 C   0  0  0  0  0  0  0  0  0  0  0  0
  147.2151  134.8822  162.6111 C   0  0  0  0  0  0  0  0  0  0  0  0
  147.6127  135.9453  161.5786 C   0  0  0  0  0  0  0  0  0  0  0  0
  147.3956  137.1313  161.8302 O   0  0  0  0  0  0  0  0  0  0  0  0
  148.1866  135.5421  160.4209 N   0  0  0  0  0  0  0  0  0  0  0  0
  148.4150  134.1453  160.0308 C   0  0  0  0  0  0  0  0  0  0  0  0
  147.4882  133.8060  158.8495 C   0  0  0  0  0  0  0  0  0  0  0  0
  147.6822  134.7576  157.7567 N   0  0  0  0  0  0  0  0  0  0  0  0
  146.9853  134.4505  156.6436 C   0  0  0  0  0  0  0  0  0  0  0  0
  145.6484  134.6702  156.6700 N   0  0  0  0  0  0  0  0  0  0  0  0
  144.9056  134.3876  155.5954 C   0  0  0  0  0  0  0  0  0  0  0  0
  145.2942  133.8916  154.4183 N   0  0  0  0  0  0  0  0  0  0  0  0
  146.6407  133.6722  154.3897 C   0  0  0  0  0  0  0  0  0  0  0  0
  147.5544  133.9186  155.4526 C   0  0  0  0  0  0  0  0  0  0  0  0
  148.8409  133.5657  155.0651 N   0  0  0  0  0  0  0  0  0  0  0  0
  148.6952  133.1299  153.8435 C   0  0  0  0  0  0  0  0  0  0  0  0
  147.4089  133.1733  153.3510 N   0  0  0  0  0  0  0  0  0  0  0  0
  146.9604  132.7412  152.0570 C   0  0  0  0  0  0  0  0  0  0  0  0
  146.1011  133.6612  151.1885 C   0  0  0  0  0  0  0  0  0  0  0  0
  145.2983  132.4446  150.6733 C   0  0  0  0  0  0  0  0  0  0  0  0
  143.7752  132.6445  150.6813 C   0  0  0  0  0  0  0  0  0  0  0  0
  143.3418  133.3647  149.5453 O   0  0  0  0  0  0  0  0  0  0  0  0
  145.6800  131.9168  149.2723 C   0  0  0  0  0  0  0  0  0  0  0  0
  147.0754  131.8717  149.0538 O   0  0  0  0  0  0  0  0  0  0  0  0
  145.8673  131.6807  151.8907 C   0  0  0  0  0  0  0  0  0  0  0  0
  147.6097  136.1705  158.1271 C   0  0  0  0  0  0  0  0  0  0  0  0
  148.5263  136.4643  159.3301 C   0  0  0  0  0  0  0  0  0  0  0  0
  146.8581  135.3627  163.5224 H   0  0  0  0  0  0  0  0  0  0  0  0
  148.0775  134.2645  162.8630 H   0  0  0  0  0  0  0  0  0  0  0  0
  149.4573  134.0264  159.7311 H   0  0  0  0  0  0  0  0  0  0  0  0
  148.2599  133.4325  160.8388 H   0  0  0  0  0  0  0  0  0  0  0  0
  147.6919  132.7947  158.4954 H   0  0  0  0  0  0  0  0  0  0  0  0
  146.4489  133.8276  159.1796 H   0  0  0  0  0  0  0  0  0  0  0  0
  143.8487  134.5888  155.6915 H   0  0  0  0  0  0  0  0  0  0  0  0
  149.5319  132.7611  153.2687 H   0  0  0  0  0  0  0  0  0  0  0  0
  147.8519  132.4310  151.5106 H   0  0  0  0  0  0  0  0  0  0  0  0
  145.4999  134.3487  151.7856 H   0  0  0  0  0  0  0  0  0  0  0  0
  146.6591  134.2019  150.4232 H   0  0  0  0  0  0  0  0  0  0  0  0
  143.2572  131.6849  150.6819 H   0  0  0  0  0  0  0  0  0  0  0  0
  143.4501  133.1705  151.5795 H   0  0  0  0  0  0  0  0  0  0  0  0
  142.5386  133.8128  149.7623 H   0  0  0  0  0  0  0  0  0  0  0  0
  145.2952  130.9086  149.1170 H   0  0  0  0  0  0  0  0  0  0  0  0
  145.2427  132.5406  148.4921 H   0  0  0  0  0  0  0  0  0  0  0  0
  147.4832  131.4552  149.7976 H   0  0  0  0  0  0  0  0  0  0  0  0
  146.2446  130.6829  151.6643 H   0  0  0  0  0  0  0  0  0  0  0  0
  145.1682  131.6466  152.7268 H   0  0  0  0  0  0  0  0  0  0  0  0
  147.9028  136.7882  157.2773 H   0  0  0  0  0  0  0  0  0  0  0  0
  146.5813  136.4354  158.3754 H   0  0  0  0  0  0  0  0  0  0  0  0
  148.4372  137.5132  159.6157 H   0  0  0  0  0  0  0  0  0  0  0  0
  149.5705  136.3178  159.0498 H   0  0  0  0  0  0  0  0  0  0  0  0
  1  2  3  0  0  0  0
  2  3  1  0  0  0  0
  3  4  1  0  0  0  0
  3 29  1  0  0  0  0
  3 30  1  0  0  0  0
  4  5  2  0  0  0  0
  4  6  1  0  0  0  0
  6 28  1  0  0  0  0
  6  7  1  0  0  0  0
  7  8  1  0  0  0  0
  7 31  1  0  0  0  0
  7 32  1  0  0  0  0
  8  9  1  0  0  0  0
  8 33  1  0  0  0  0
  8 34  1  0  0  0  0
  9 10  1  0  0  0  0
  9 27  1  0  0  0  0
 10 15  1  0  0  0  0
 10 11  2  0  0  0  0
 11 12  1  0  0  0  0
 12 13  2  0  0  0  0
 12 35  1  0  0  0  0
 13 14  1  0  0  0  0
 14 18  1  0  0  0  0
 14 15  2  0  0  0  0
 15 16  1  0  0  0  0
 16 17  2  0  0  0  0
 17 18  1  0  0  0  0
 17 36  1  0  0  0  0
 18 19  1  0  0  0  0
 19 26  1  0  0  0  0
 19 20  1  0  0  0  0
 19 37  1  0  0  0  0
 20 21  1  0  0  0  0
 20 38  1  0  0  0  0
 20 39  1  0  0  0  0
 21 22  1  0  0  0  0
 21 24  1  0  0  0  0
 21 26  1  0  0  0  0
 22 23  1  0  0  0  0
 22 40  1  0  0  0  0
 22 41  1  0  0  0  0
 23 42  1  0  0  0  0
 24 25  1  0  0  0  0
 24 43  1  0  0  0  0
 24 44  1  0  0  0  0
 25 45  1  0  0  0  0
 26 46  1  0  0  0  0
 26 47  1  0  0  0  0
 27 28  1  0  0  0  0
 27 48  1  0  0  0  0
 27 49  1  0  0  0  0
 28 50  1  0  0  0  0
 28 51  1  0  0  0  0
M  END
> <s_m_source_file>
AV-unprocessed.smi

> <i_m_source_file_index>
80

> <i_lp_mmshare_version>
43012

> <i_f3d_flags>
0

> <s_epik_input>
TiNDW0NIMl1DKD1PKU4xW0NIMl1bQ0gyXU4oW0NIMl1bQ0gyXTEpYyhuW2NIXW4yKWMoYzIzKW5bY0hdbjNbQ0hdKFtDSDJdNClbQ0gyXUM0KFtDSDJdW09IXSlbQ0gyXVtPSF0=

> <s_epik_cmdline>
J2VwaWtfcHl0aG9uJywgJy1waCcsICc3LjAnLCAnLXRuJywgJzgnLCAnLW1hJywgJzIwMCcsICctbWV0YWxfYmluZGluZycsICctaW1hZScsICc8aW5maWxlLm1hZT4nLCAnLW9tYWUnLCAnPG91dGZpbGUubWFlPic=

> <r_lp_tautomer_probability>
1

> <r_epik_Ionization_Penalty>
0.000827394

> <r_epik_Ionization_Penalty_Charging>
0

> <r_epik_Ionization_Penalty_Neutral>
0.000827394

> <r_epik_State_Penalty>
0.000406949

> <r_epik_Charging_Adjusted_Penalty>
0.000406949

> <i_epik_Tot_Q>
0

> <i_epik_Tot_abs_Q>
0

> <r_epik_Metal_State_Penalty>
-0

> <b_epik_Metal_Only>
0

> <s_lp_Force_Field>
OPLS_2005

> <r_lp_Energy>
60.4217

> <b_lp_Chiralities_Consistent>
1

> <s_lp_Variant>
AV-unprocessed.smi:80-1

> <Gold.Version>
5.8.1

> <Gold.Id.Protein>
6NUR|6NUR_protein|mol2

> <Gold.PLP.Fitness>
51.3809

> <Gold.PLP.PLP>
-41.6518

> <Gold.PLP.part.hbond>
-4.1408

> <Gold.PLP.part.metal>
0.0000

> <Gold.PLP.part.buried>
-5.2222

> <Gold.PLP.part.nonpolar>
-32.1660

> <Gold.PLP.part.repulsive>
0.1916

> <Gold.PLP.ligand.clash>
0.0000

> <Gold.PLP.ligand.torsion>
0.5264

> <Gold.PLP.Chemscore.Hbond>
3.3840

> <Gold.PLP.Chemscore.CHOScore>
0.0000

> <Gold.PLP.Chemscore.Metal>
0.0000

> <Gold.Chemscore.Hbonds>
donor molecule, donor type, donor heavy atom, donor atom, acceptor molecule, acceptor atom, score
      L1  H    23    42       P1 10186  1.00
      L1  H    25    45       P1 10747  0.77
      P1  H  6931  6943       L1     5  0.94
      P1  H  6934  6947       L1     5  0.65

> <Gold.PLP.Chemscore.Internal.Correction>
0.6298

> <Gold.Rescore>
     Score         DG    S(hbond)    S(metal)    S(lipo)     H(rot)  DE(clash)    DE(int)     intcor
     15.47     -16.12       3.45        0.00      75.94       3.82       0.08       0.57       ----

> <Gold.Chemscore.Fitness>
15.4745

> <Gold.Chemscore.DG>
-16.1248

> <Gold.Chemscore.ZeroCoef>
-5.4800

> <Gold.Chemscore.Hbond>
3.4519

> <Gold.Chemscore.Metal>
0.0000

> <Gold.Chemscore.Lipo>
75.9435

> <Gold.Chemscore.Internal_Hbond>
0.0000

> <Gold.Chemscore.DEClash>
0.0843

> <Gold.Chemscore.DEInternal>
0.5660

> <Gold.Chemscore.Rot>
3.8164

> <Gold.Chemscore.Internal.Correction>
   9.000000E+99

> <Gold.Chemscore.Hbonds>
donor molecule, donor type, donor heavy atom, donor atom, acceptor molecule, acceptor atom, score
      L1  H    23    42       P1 10186  0.99
      L1  H    25    45       P1 10747  0.76
      P1  H  6931  6943       L1     5  0.78
      P1  H  6934  6947       L1     5  0.64

> <Gold.Chemscore.Hbond.Weighted>
-11.5293

> <Gold.Chemscore.Metal.Weighted>
-0.0000

> <Gold.Chemscore.Lipo.Weighted>
-8.8854

> <Gold.Chemscore.Internal_Hbond.Weighted>
0.0000

> <Gold.Chemscore.DEClash.Weighted>
0.0843

> <Gold.Chemscore.DEInternal.Weighted>
0.5660

> <Gold.Chemscore.Rot.Weighted>
9.7699

> <Gold.Chemscore.Internal.Correction.Weighted>
   9.000000E+99

> <Gold.Protein.RotatedTorsions>
[ 6907 6896 6895 6894 ] final  141.08 input  -60.11 | X-H torsion
[ 7974 7965 7964 7962 ] final   72.65 input  175.53 | X-H torsion
[ 8008 7997 7996 7995 ] final  -53.51 input   59.86 | X-H torsion
[ 10167 10162 10161 10158 ] final  -56.82 input  -65.29 | X-H torsion
[ 10718 10713 10712 10709 ] final  176.57 input   66.30 | X-H torsion
[ 10763 10752 10751 10750 ] final  173.40 input  -60.55 | X-H torsion
[ 11005 11000 10999 10996 ] final   93.45 input  -57.11 | X-H torsion

> <Gold.Protein.ActiveResidues>
 VAL166  LYS551  ARG553  GLY616  TRP617  ASP618  TYR619  PRO620  LYS621  CYS622 
 ASP623  PHE694  ASN695  SER759  ASP760  ASP761  ALA762  ILE779  LEU786  VAL792 
 PHE793  MET794  SER795  GLU796  ALA797  LYS798  CYS799  TRP800  GLU811  SER814 

> <Gold.Protein.RotatedAtoms>
  152.2353  133.5091  159.5238 H   0  0  0  0  0  0  0  0  0  0  0  0  # atno 6907 bound_to 6896
  150.7049  134.1162  159.4027 H   0  0  0  0  0  0  0  0  0  0  0  0  # atno 6908 bound_to 6896
  151.9083  135.0349  160.0563 H   0  0  0  0  0  0  0  0  0  0  0  0  # atno 6909 bound_to 6896
  145.7508  139.2759  143.1432 H   0  0  0  0  0  0  0  0  0  0  0  0  # atno 7974 bound_to 7965
  154.4135  140.1198  156.5165 H   0  0  0  0  0  0  0  0  0  0  0  0  # atno 8008 bound_to 7997
  155.6746  140.3496  155.4812 H   0  0  0  0  0  0  0  0  0  0  0  0  # atno 8009 bound_to 7997
  155.9604  140.1122  157.0891 H   0  0  0  0  0  0  0  0  0  0  0  0  # atno 8010 bound_to 7997
  140.6294  143.2453  151.5279 H   0  0  0  0  0  0  0  0  0  0  0  0  # atno 10167 bound_to 10162
  156.9181  130.9931  151.3009 H   0  0  0  0  0  0  0  0  0  0  0  0  # atno 10718 bound_to 10713
  154.4395  135.2762  155.1857 H   0  0  0  0  0  0  0  0  0  0  0  0  # atno 10763 bound_to 10752
  154.3729  135.6104  153.5753 H   0  0  0  0  0  0  0  0  0  0  0  0  # atno 10764 bound_to 10752
  152.9840  135.5862  154.4720 H   0  0  0  0  0  0  0  0  0  0  0  0  # atno 10765 bound_to 10752
  139.8810  134.8790  156.3720 H   0  0  0  0  0  0  0  0  0  0  0  0  # atno 11005 bound_to 11000
  146.0359  140.8213  142.9853 LP  0  0  0  0  0  0  0  0  0  0  0  0  # atno 17320 bound_to 7965
  144.6850  140.2837  143.7288 LP  0  0  0  0  0  0  0  0  0  0  0  0  # atno 17321 bound_to 7965
  139.5510  144.2395  152.1531 LP  0  0  0  0  0  0  0  0  0  0  0  0  # atno 17342 bound_to 10162
  140.1635  144.5004  150.6619 LP  0  0  0  0  0  0  0  0  0  0  0  0  # atno 17343 bound_to 10162
  157.5925  130.8454  149.8680 LP  0  0  0  0  0  0  0  0  0  0  0  0  # atno 17370 bound_to 10713
  156.0504  130.3719  150.1216 LP  0  0  0  0  0  0  0  0  0  0  0  0  # atno 17371 bound_to 10713
  140.9458  133.7484  156.0206 LP  0  0  0  0  0  0  0  0  0  0  0  0  # atno 17394 bound_to 11000
  140.8165  134.3339  157.5395 LP  0  0  0  0  0  0  0  0  0  0  0  0  # atno 17395 bound_to 11000

$$$$
