AV-unprocessed.smi:160|AV-procd|sdf|1360|dock1
  -GOLD-   2262019 63D 1   1.00000     0.00000
 Structure written by MMmdl.
 28 29  0  0  0  0  0  0  0  0  2 V2000
  155.7926  137.4455  153.4227 N   0  5  0  0  0  0  0  0  0  0  0  0
  155.2781  138.5617  153.9828 C   0  0  0  0  0  0  0  0  0  0  0  0
  155.8808  139.6135  154.1947 O   0  0  0  0  0  0  0  0  0  0  0  0
  153.8215  138.4563  154.3679 C   0  0  0  0  0  0  0  0  0  0  0  0
  153.0259  137.4856  153.8236 N   0  0  0  0  0  0  0  0  0  0  0  0
  151.8855  137.7790  154.4331 C   0  0  0  0  0  0  0  0  0  0  0  0
  151.9594  138.8238  155.2623 N   0  0  0  0  0  0  0  0  0  0  0  0
  150.8932  139.4458  156.1141 C   0  0  1  0  0  0  0  0  0  0  0  0
  151.4528  140.5214  156.8081 O   0  0  0  0  0  0  0  0  0  0  0  0
  151.0454  141.7471  156.2081 C   0  0  2  0  0  0  0  0  0  0  0  0
  151.1713  142.8923  157.2248 C   0  0  0  0  0  0  0  0  0  0  0  0
  151.0146  144.1370  156.5780 O   0  0  0  0  0  0  0  0  0  0  0  0
  149.5999  141.4267  155.8226 C   0  0  1  0  0  0  0  0  0  0  0  0
  149.0635  142.3378  154.8811 O   0  0  0  0  0  0  0  0  0  0  0  0
  149.6916  139.9921  155.3051 C   0  0  1  0  0  0  0  0  0  0  0  0
  149.8529  139.9275  153.8960 O   0  0  0  0  0  0  0  0  0  0  0  0
  153.2354  139.2836  155.2390 N   0  0  0  0  0  0  0  0  0  0  0  0
  150.6165  138.6594  156.8170 H   0  0  0  0  0  0  0  0  0  0  0  0
  151.6355  141.9453  155.3110 H   0  0  0  0  0  0  0  0  0  0  0  0
  148.9764  141.4395  156.7180 H   0  0  0  0  0  0  0  0  0  0  0  0
  148.7969  139.4272  155.5681 H   0  0  0  0  0  0  0  0  0  0  0  0
  156.4539  137.5502  152.6438 H   0  0  0  0  0  0  0  0  0  0  0  0
  150.9750  137.2222  154.2683 H   0  0  0  0  0  0  0  0  0  0  0  0
  150.3849  142.8147  157.9760 H   0  0  0  0  0  0  0  0  0  0  0  0
  152.1259  142.8544  157.7501 H   0  0  0  0  0  0  0  0  0  0  0  0
  150.2292  144.1076  156.0540 H   0  0  0  0  0  0  0  0  0  0  0  0
  149.1667  143.2137  155.2197 H   0  0  0  0  0  0  0  0  0  0  0  0
  148.9994  139.8705  153.4950 H   0  0  0  0  0  0  0  0  0  0  0  0
  1  2  1  0  0  0  0
  1 22  1  0  0  0  0
  2  3  2  0  0  0  0
  2  4  1  0  0  0  0
  4 17  2  0  0  0  0
  4  5  1  0  0  0  0
  5  6  2  0  0  0  0
  6  7  1  0  0  0  0
  6 23  1  0  0  0  0
  7  8  1  0  0  0  0
  7 17  1  0  0  0  0
  8 18  1  0  0  0  0
  8 15  1  0  0  0  0
  8  9  1  0  0  0  0
  9 10  1  0  0  0  0
 10 19  1  0  0  0  0
 10 11  1  0  0  0  0
 10 13  1  0  0  0  0
 11 12  1  0  0  0  0
 11 24  1  0  0  0  0
 11 25  1  0  0  0  0
 12 26  1  0  0  0  0
 13 20  1  0  0  0  0
 13 14  1  0  0  0  0
 13 15  1  0  0  0  0
 14 27  1  0  0  0  0
 15 21  1  0  0  0  0
 15 16  1  0  0  0  0
 16 28  1  0  0  0  0
M  CHG  1   1  -1
M  END
> <s_m_source_file>
AV-unprocessed.smi

> <i_m_source_file_index>
160

> <i_lp_mmshare_version>
43012

> <i_f3d_flags>
0

> <s_epik_input>
W05IMl1DKD1PKWMxbltjSF1uKG4xKVtDQEBIXTJPW0NASF0oW0NIMl1bT0hdKVtDQEBIXShbT0hdKVtDQEhdMltPSF0=

> <s_epik_cmdline>
J2VwaWtfcHl0aG9uJywgJy1waCcsICc3LjAnLCAnLXRuJywgJzgnLCAnLW1hJywgJzIwMCcsICctbWV0YWxfYmluZGluZycsICctaW1hZScsICc8aW5maWxlLm1hZT4nLCAnLW9tYWUnLCAnPG91dGZpbGUubWFlPic=

> <r_lp_tautomer_probability>
1

> <r_epik_Ionization_Penalty>
6.6993

> <r_epik_Ionization_Penalty_Charging>
6.6993

> <r_epik_Ionization_Penalty_Neutral>
6.01698e-06

> <r_epik_State_Penalty>
6.69929

> <r_epik_Charging_Adjusted_Penalty>
13.3986

> <i_epik_Tot_Q>
-1

> <i_epik_Tot_abs_Q>
1

> <r_epik_Metal_State_Penalty>
2.62798

> <b_epik_Metal_Only>
1

> <s_epik_Chemistry_Notes>
This compound contains an acetal/aminal-like group ( X-CH(R)-Y where X, Y are N, S, or O) that may be acid/base labile, releasing an aldehyde.

> <s_lp_Force_Field>
OPLS_2005

> <r_lp_Energy>
50.1609

> <b_lp_Chiralities_Consistent>
1

> <s_lp_Variant>
AV-unprocessed.smi:160-18

> <Gold.Version>
5.8.1

> <Gold.Id.Protein>
6NUR|6NUR_protein|mol2

> <Gold.PLP.Fitness>
48.7549

> <Gold.PLP.PLP>
-28.6835

> <Gold.PLP.part.hbond>
-7.8871

> <Gold.PLP.part.metal>
0.0000

> <Gold.PLP.part.buried>
-2.0623

> <Gold.PLP.part.nonpolar>
-18.7451

> <Gold.PLP.part.repulsive>
0.1141

> <Gold.PLP.ligand.clash>
0.0000

> <Gold.PLP.ligand.torsion>
0.2649

> <Gold.PLP.Chemscore.Hbond>
6.8593

> <Gold.PLP.Chemscore.CHOScore>
0.0000

> <Gold.PLP.Chemscore.Metal>
0.0000

> <Gold.Chemscore.Hbonds>
donor molecule, donor type, donor heavy atom, donor atom, acceptor molecule, acceptor atom, score
      L1  H    12    26       P1  8028  0.90
      L1  H    14    27       P1  8028  1.00
      P1  H  7989  7998       L1    16  0.84
      P1  H  7997  8009       L1    17  0.99
      P1  H  7997  8010       L1     3  0.81
      P1  H 10752 10763       L1     5  0.45
      P1  H 10752 10765       L1     1  1.03

> <Gold.PLP.Chemscore.Internal.Correction>
0.0233

> <Gold.Rescore>
     Score         DG    S(hbond)    S(metal)    S(lipo)     H(rot)  DE(clash)    DE(int)     intcor
     14.19     -14.77       4.82        0.00      30.33       4.04       0.33       0.25       ----

> <Gold.Chemscore.Fitness>
14.1907

> <Gold.Chemscore.DG>
-14.7713

> <Gold.Chemscore.ZeroCoef>
-5.4800

> <Gold.Chemscore.Hbond>
4.8161

> <Gold.Chemscore.Metal>
0.0000

> <Gold.Chemscore.Lipo>
30.3310

> <Gold.Chemscore.Internal_Hbond>
0.0000

> <Gold.Chemscore.DEClash>
0.3332

> <Gold.Chemscore.DEInternal>
0.2474

> <Gold.Chemscore.Rot>
4.0403

> <Gold.Chemscore.Internal.Correction>
   9.000000E+99

> <Gold.Chemscore.Hbonds>
donor molecule, donor type, donor heavy atom, donor atom, acceptor molecule, acceptor atom, score
      L1  H    12    26       P1  8028  0.83
      L1  H    14    27       P1  8028  0.98
      P1  H  7989  7998       L1    16  0.46
      P1  H  7997  8009       L1    17  0.81
      P1  H  7997  8010       L1     3  0.77
      P1  H 10752 10763       L1     5  0.13
      P1  H 10752 10765       L1     1  0.48

> <Gold.Chemscore.Hbond.Weighted>
-16.0857

> <Gold.Chemscore.Metal.Weighted>
-0.0000

> <Gold.Chemscore.Lipo.Weighted>
-3.5487

> <Gold.Chemscore.Internal_Hbond.Weighted>
0.0000

> <Gold.Chemscore.DEClash.Weighted>
0.3332

> <Gold.Chemscore.DEInternal.Weighted>
0.2474

> <Gold.Chemscore.Rot.Weighted>
10.3431

> <Gold.Chemscore.Internal.Correction.Weighted>
   9.000000E+99

> <Gold.Protein.RotatedTorsions>
[ 6907 6896 6895 6894 ] final  -90.30 input  -60.11 | X-H torsion
[ 7974 7965 7964 7962 ] final   29.11 input  175.53 | X-H torsion
[ 8008 7997 7996 7995 ] final -158.28 input   59.86 | X-H torsion
[ 10167 10162 10161 10158 ] final -120.62 input  -65.29 | X-H torsion
[ 10718 10713 10712 10709 ] final   98.01 input   66.30 | X-H torsion
[ 10763 10752 10751 10750 ] final   26.14 input  -60.55 | X-H torsion
[ 11005 11000 10999 10996 ] final   94.45 input  -57.11 | X-H torsion

> <Gold.Protein.ActiveResidues>
 VAL166  LYS551  ARG553  GLY616  TRP617  ASP618  TYR619  PRO620  LYS621  CYS622 
 ASP623  PHE694  ASN695  SER759  ASP760  ASP761  ALA762  ILE779  LEU786  VAL792 
 PHE793  MET794  SER795  GLU796  ALA797  LYS798  CYS799  TRP800  GLU811  SER814 

> <Gold.Protein.RotatedAtoms>
  150.6880  134.2453  159.4488 H   0  0  0  0  0  0  0  0  0  0  0  0  # atno 6907 bound_to 6896
  152.0394  134.9718  160.0583 H   0  0  0  0  0  0  0  0  0  0  0  0  # atno 6908 bound_to 6896
  152.1225  133.4327  159.4719 H   0  0  0  0  0  0  0  0  0  0  0  0  # atno 6909 bound_to 6896
  146.1690  139.6965  142.8981 H   0  0  0  0  0  0  0  0  0  0  0  0  # atno 7974 bound_to 7965
  155.7451  140.0819  157.2227 H   0  0  0  0  0  0  0  0  0  0  0  0  # atno 8008 bound_to 7997
  154.4018  140.1570  156.2716 H   0  0  0  0  0  0  0  0  0  0  0  0  # atno 8009 bound_to 7997
  155.8983  140.3411  155.6010 H   0  0  0  0  0  0  0  0  0  0  0  0  # atno 8010 bound_to 7997
  140.0339  143.5221  152.2163 H   0  0  0  0  0  0  0  0  0  0  0  0  # atno 10167 bound_to 10162
  157.6903  131.0627  150.4730 H   0  0  0  0  0  0  0  0  0  0  0  0  # atno 10718 bound_to 10713
  153.0643  135.6567  154.0390 H   0  0  0  0  0  0  0  0  0  0  0  0  # atno 10763 bound_to 10752
  154.0051  135.2933  155.3400 H   0  0  0  0  0  0  0  0  0  0  0  0  # atno 10764 bound_to 10752
  154.6994  135.5250  153.8574 H   0  0  0  0  0  0  0  0  0  0  0  0  # atno 10765 bound_to 10752
  139.8798  134.8846  156.3866 H   0  0  0  0  0  0  0  0  0  0  0  0  # atno 11005 bound_to 11000
  145.4391  141.0421  143.2868 LP  0  0  0  0  0  0  0  0  0  0  0  0  # atno 17320 bound_to 7965
  144.8135  139.5919  143.7019 LP  0  0  0  0  0  0  0  0  0  0  0  0  # atno 17321 bound_to 7965
  139.6058  144.7596  151.3066 LP  0  0  0  0  0  0  0  0  0  0  0  0  # atno 17342 bound_to 10162
  140.7290  143.6920  150.7914 LP  0  0  0  0  0  0  0  0  0  0  0  0  # atno 17343 bound_to 10162
  156.5067  130.4130  149.6323 LP  0  0  0  0  0  0  0  0  0  0  0  0  # atno 17370 bound_to 10713
  156.3278  130.7315  151.2239 LP  0  0  0  0  0  0  0  0  0  0  0  0  # atno 17371 bound_to 10713
  140.9362  133.7545  156.0087 LP  0  0  0  0  0  0  0  0  0  0  0  0  # atno 17394 bound_to 11000
  140.8273  134.3219  157.5361 LP  0  0  0  0  0  0  0  0  0  0  0  0  # atno 17395 bound_to 11000

$$$$
