AV-unprocessed.smi:217|AV-procd|sdf|1660|dock7
  -GOLD-   2262020 53D 1   1.00000     0.00000
 Structure written by MMmdl.
 57 61  0  0  0  0  0  0  0  0  1 V2000
  152.1841  130.1860  164.9671 O   0  0  0  0  0  0  0  0  0  0  0  0
  152.0492  131.4297  165.6235 C   0  0  0  0  0  0  0  0  0  0  0  0
  153.3549  132.2387  165.5581 C   0  0  0  0  0  0  0  0  0  0  0  0
  154.4654  131.4766  166.3100 C   0  0  0  0  0  0  0  0  0  0  0  0
  154.7133  130.2126  165.7282 O   0  0  0  0  0  0  0  0  0  0  0  0
  153.7460  132.7573  164.1558 C   0  0  0  0  0  0  0  0  0  0  0  0
  154.1614  134.0940  164.7737 C   0  0  0  0  0  0  0  0  0  0  0  0
  154.0167  135.3219  164.0484 N   0  0  0  0  0  0  0  0  0  0  0  0
  153.4928  136.5041  164.5230 C   0  0  0  0  0  0  0  0  0  0  0  0
  153.5149  137.5019  163.6813 N   0  0  0  0  0  0  0  0  0  0  0  0
  154.1354  136.9764  162.5556 C   0  0  0  0  0  0  0  0  0  0  0  0
  154.4978  137.5072  161.2905 C   0  0  0  0  0  0  0  0  0  0  0  0
  154.2441  138.7900  160.9547 N   0  0  0  0  0  0  0  0  0  0  0  0
  154.1848  139.6890  162.1028 C   0  0  0  0  0  0  0  0  0  0  0  0
  154.1313  141.1552  161.6426 C   0  0  0  0  0  0  0  0  0  0  0  0
  152.9633  141.3998  160.6625 C   0  0  0  0  0  0  0  0  0  0  0  0
  152.9329  142.8522  160.1438 C   0  0  2  0  0  0  0  0  0  0  0  0
  152.2747  143.8593  161.0874 C   0  0  0  0  0  0  0  0  0  0  0  0
  151.9004  144.9700  160.1333 C   0  0  0  0  0  0  0  0  0  0  0  0
  151.4727  144.1920  158.8922 C   0  0  0  0  0  0  0  0  0  0  0  0
  152.1574  142.9425  158.9507 O   0  0  0  0  0  0  0  0  0  0  0  0
  153.0657  140.3914  159.4987 C   0  0  0  0  0  0  0  0  0  0  0  0
  153.1407  138.9444  160.0117 C   0  0  0  0  0  0  0  0  0  0  0  0
  155.1211  136.6841  160.4067 N   0  0  0  0  0  0  0  0  0  0  0  0
  155.3785  135.4170  160.7457 C   0  0  0  0  0  0  0  0  0  0  0  0
  155.1011  134.7853  161.8890 N   0  0  0  0  0  0  0  0  0  0  0  0
  154.4692  135.6108  162.7727 C   0  0  0  0  0  0  0  0  0  0  0  0
  153.2196  133.7333  165.9251 C   0  0  0  0  0  0  0  0  0  0  0  0
  151.6077  130.1769  164.2182 H   0  0  0  0  0  0  0  0  0  0  0  0
  151.2145  131.9751  165.1831 H   0  0  0  0  0  0  0  0  0  0  0  0
  151.7699  131.2303  166.6583 H   0  0  0  0  0  0  0  0  0  0  0  0
  155.4021  132.0338  166.2991 H   0  0  0  0  0  0  0  0  0  0  0  0
  154.2130  131.3356  167.3611 H   0  0  0  0  0  0  0  0  0  0  0  0
  155.6300  130.0088  165.8317 H   0  0  0  0  0  0  0  0  0  0  0  0
  154.5590  132.2161  163.6709 H   0  0  0  0  0  0  0  0  0  0  0  0
  152.8921  132.8584  163.4834 H   0  0  0  0  0  0  0  0  0  0  0  0
  155.2017  134.0601  165.1011 H   0  0  0  0  0  0  0  0  0  0  0  0
  153.0855  136.6042  165.5187 H   0  0  0  0  0  0  0  0  0  0  0  0
  153.3034  139.4567  162.7026 H   0  0  0  0  0  0  0  0  0  0  0  0
  155.0558  139.5330  162.7408 H   0  0  0  0  0  0  0  0  0  0  0  0
  154.0375  141.7993  162.5168 H   0  0  0  0  0  0  0  0  0  0  0  0
  155.0753  141.4187  161.1634 H   0  0  0  0  0  0  0  0  0  0  0  0
  152.0296  141.2089  161.1937 H   0  0  0  0  0  0  0  0  0  0  0  0
  153.9440  143.1902  159.9105 H   0  0  0  0  0  0  0  0  0  0  0  0
  151.3769  143.4354  161.5397 H   0  0  0  0  0  0  0  0  0  0  0  0
  152.9380  144.1931  161.8858 H   0  0  0  0  0  0  0  0  0  0  0  0
  151.1178  145.6239  160.5191 H   0  0  0  0  0  0  0  0  0  0  0  0
  152.7772  145.5797  159.9101 H   0  0  0  0  0  0  0  0  0  0  0  0
  150.3996  143.9987  158.9109 H   0  0  0  0  0  0  0  0  0  0  0  0
  151.7043  144.7281  157.9715 H   0  0  0  0  0  0  0  0  0  0  0  0
  152.2095  140.4938  158.8316 H   0  0  0  0  0  0  0  0  0  0  0  0
  153.9515  140.6084  158.8999 H   0  0  0  0  0  0  0  0  0  0  0  0
  153.2738  138.2605  159.1721 H   0  0  0  0  0  0  0  0  0  0  0  0
  152.2016  138.6756  160.4980 H   0  0  0  0  0  0  0  0  0  0  0  0
  155.8777  134.8241  159.9935 H   0  0  0  0  0  0  0  0  0  0  0  0
  152.2088  134.1170  165.7747 H   0  0  0  0  0  0  0  0  0  0  0  0
  153.5938  133.9977  166.9147 H   0  0  0  0  0  0  0  0  0  0  0  0
  1  2  1  0  0  0  0
  1 29  1  0  0  0  0
  2  3  1  0  0  0  0
  2 30  1  0  0  0  0
  2 31  1  0  0  0  0
  3 28  1  0  0  0  0
  3  4  1  0  0  0  0
  3  6  1  0  0  0  0
  4  5  1  0  0  0  0
  4 32  1  0  0  0  0
  4 33  1  0  0  0  0
  5 34  1  0  0  0  0
  6  7  1  0  0  0  0
  6 35  1  0  0  0  0
  6 36  1  0  0  0  0
  7  8  1  0  0  0  0
  7 28  1  0  0  0  0
  7 37  1  0  0  0  0
  8 27  1  0  0  0  0
  8  9  1  0  0  0  0
  9 10  2  0  0  0  0
  9 38  1  0  0  0  0
 10 11  1  0  0  0  0
 11 27  2  0  0  0  0
 11 12  1  0  0  0  0
 12 13  1  0  0  0  0
 12 24  2  0  0  0  0
 13 23  1  0  0  0  0
 13 14  1  0  0  0  0
 14 15  1  0  0  0  0
 14 39  1  0  0  0  0
 14 40  1  0  0  0  0
 15 16  1  0  0  0  0
 15 41  1  0  0  0  0
 15 42  1  0  0  0  0
 16 17  1  0  0  0  0
 16 22  1  0  0  0  0
 16 43  1  0  0  0  0
 17 21  1  0  0  0  0
 17 18  1  0  0  0  0
 17 44  1  0  0  0  0
 18 19  1  0  0  0  0
 18 45  1  0  0  0  0
 18 46  1  0  0  0  0
 19 20  1  0  0  0  0
 19 47  1  0  0  0  0
 19 48  1  0  0  0  0
 20 21  1  0  0  0  0
 20 49  1  0  0  0  0
 20 50  1  0  0  0  0
 22 23  1  0  0  0  0
 22 51  1  0  0  0  0
 22 52  1  0  0  0  0
 23 53  1  0  0  0  0
 23 54  1  0  0  0  0
 24 25  1  0  0  0  0
 25 26  2  0  0  0  0
 25 55  1  0  0  0  0
 26 27  1  0  0  0  0
 28 56  1  0  0  0  0
 28 57  1  0  0  0  0
M  END
> <s_m_source_file>
AV-unprocessed.smi

> <i_m_source_file_index>
217

> <i_lp_mmshare_version>
43012

> <i_f3d_flags>
0

> <s_epik_input>
W09IXVtDSDJdQzEoW0NIMl1bT0hdKVtDSDJdW0NIXShbQ0gyXTEpbihbY0hdbjIpYyhjMjMpbltjSF1uYzNONFtDSDJdW0NIMl1bQ0hdKFtDSDJdW0NIMl00KVtDQEBIXTVbQ0gyXVtDSDJdW0NIMl1PNQ==

> <s_epik_cmdline>
J2VwaWtfcHl0aG9uJywgJy1waCcsICc3LjAnLCAnLXRuJywgJzgnLCAnLW1hJywgJzIwMCcsICctbWV0YWxfYmluZGluZycsICctaW1hZScsICc8aW5maWxlLm1hZT4nLCAnLW9tYWUnLCAnPG91dGZpbGUubWFlPic=

> <r_lp_tautomer_probability>
1

> <r_epik_Ionization_Penalty>
0.0037022

> <r_epik_Ionization_Penalty_Charging>
0

> <r_epik_Ionization_Penalty_Neutral>
0.0037022

> <r_epik_State_Penalty>
0.00257654

> <r_epik_Charging_Adjusted_Penalty>
0.00257654

> <i_epik_Tot_Q>
0

> <i_epik_Tot_abs_Q>
0

> <r_epik_Metal_State_Penalty>
-0

> <b_epik_Metal_Only>
0

> <s_lp_Force_Field>
OPLS_2005

> <r_lp_Energy>
56.6597

> <b_lp_Chiralities_Consistent>
1

> <s_lp_Variant>
AV-unprocessed.smi:217-1

> <Gold.Version>
5.8.1

> <Gold.Id.Protein>
6NUR|6NUR_protein|mol2

> <Gold.PLP.Fitness>
52.5906

> <Gold.PLP.PLP>
-55.0229

> <Gold.PLP.part.hbond>
0.0000

> <Gold.PLP.part.metal>
0.0000

> <Gold.PLP.part.buried>
-5.2097

> <Gold.PLP.part.nonpolar>
-50.2827

> <Gold.PLP.part.repulsive>
0.0153

> <Gold.PLP.ligand.clash>
0.0000

> <Gold.PLP.ligand.torsion>
1.5765

> <Gold.PLP.Chemscore.Hbond>
0.0000

> <Gold.PLP.Chemscore.CHOScore>
0.0000

> <Gold.PLP.Chemscore.Metal>
0.0000

> <Gold.PLP.Chemscore.Internal.Correction>
0.7207

> <Gold.Rescore>
     Score         DG    S(hbond)    S(metal)    S(lipo)     H(rot)  DE(clash)    DE(int)     intcor
     11.32     -14.36       0.00        0.00     147.81       3.28       0.65       2.39       ----

> <Gold.Chemscore.Fitness>
11.3233

> <Gold.Chemscore.DG>
-14.3645

> <Gold.Chemscore.ZeroCoef>
-5.4800

> <Gold.Chemscore.Hbond>
0.0000

> <Gold.Chemscore.Metal>
0.0000

> <Gold.Chemscore.Lipo>
147.8090

> <Gold.Chemscore.Internal_Hbond>
0.0000

> <Gold.Chemscore.DEClash>
0.6489

> <Gold.Chemscore.DEInternal>
2.3922

> <Gold.Chemscore.Rot>
3.2848

> <Gold.Chemscore.Internal.Correction>
   9.000000E+99

> <Gold.Chemscore.Hbond.Weighted>
-0.0000

> <Gold.Chemscore.Metal.Weighted>
-0.0000

> <Gold.Chemscore.Lipo.Weighted>
-17.2937

> <Gold.Chemscore.Internal_Hbond.Weighted>
0.0000

> <Gold.Chemscore.DEClash.Weighted>
0.6489

> <Gold.Chemscore.DEInternal.Weighted>
2.3922

> <Gold.Chemscore.Rot.Weighted>
8.4092

> <Gold.Chemscore.Internal.Correction.Weighted>
   9.000000E+99

> <Gold.Protein.RotatedTorsions>
[ 6907 6896 6895 6894 ] final -179.45 input  -60.11 | X-H torsion
[ 7974 7965 7964 7962 ] final  -24.77 input  175.53 | X-H torsion
[ 8008 7997 7996 7995 ] final  -88.96 input   59.86 | X-H torsion
[ 10167 10162 10161 10158 ] final  156.44 input  -65.29 | X-H torsion
[ 10718 10713 10712 10709 ] final   30.25 input   66.30 | X-H torsion
[ 10763 10752 10751 10750 ] final  103.14 input  -60.55 | X-H torsion
[ 11005 11000 10999 10996 ] final -141.14 input  -57.11 | X-H torsion

> <Gold.Protein.ActiveResidues>
 VAL166  LYS551  ARG553  GLY616  TRP617  ASP618  TYR619  PRO620  LYS621  CYS622 
 ASP623  PHE694  ASN695  SER759  ASP760  ASP761  ALA762  ILE779  LEU786  VAL792 
 PHE793  MET794  SER795  GLU796  ALA797  LYS798  CYS799  TRP800  GLU811  SER814 

> <Gold.Protein.RotatedAtoms>
  151.6537  133.3320  159.3157 H   0  0  0  0  0  0  0  0  0  0  0  0  # atno 6907 bound_to 6896
  150.7948  134.7003  159.6555 H   0  0  0  0  0  0  0  0  0  0  0  0  # atno 6908 bound_to 6896
  152.4033  134.6254  160.0113 H   0  0  0  0  0  0  0  0  0  0  0  0  # atno 6909 bound_to 6896
  146.1533  140.4797  142.8602 H   0  0  0  0  0  0  0  0  0  0  0  0  # atno 7974 bound_to 7965
  154.6809  140.0547  157.0265 H   0  0  0  0  0  0  0  0  0  0  0  0  # atno 8008 bound_to 7997
  155.0952  140.3223  155.4543 H   0  0  0  0  0  0  0  0  0  0  0  0  # atno 8009 bound_to 7997
  156.2694  140.2041  156.6079 H   0  0  0  0  0  0  0  0  0  0  0  0  # atno 8010 bound_to 7997
  139.4821  144.5008  151.8171 H   0  0  0  0  0  0  0  0  0  0  0  0  # atno 10167 bound_to 10162
  157.2572  130.7143  149.6435 H   0  0  0  0  0  0  0  0  0  0  0  0  # atno 10718 bound_to 10713
  153.3488  135.3986  155.1630 H   0  0  0  0  0  0  0  0  0  0  0  0  # atno 10763 bound_to 10752
  154.8658  135.3651  154.5249 H   0  0  0  0  0  0  0  0  0  0  0  0  # atno 10764 bound_to 10752
  153.5699  135.7079  153.5569 H   0  0  0  0  0  0  0  0  0  0  0  0  # atno 10765 bound_to 10752
  140.8354  134.2467  157.4836 H   0  0  0  0  0  0  0  0  0  0  0  0  # atno 11005 bound_to 11000
  144.7932  140.6072  143.6528 LP  0  0  0  0  0  0  0  0  0  0  0  0  # atno 17320 bound_to 7965
  145.4769  139.1498  143.3783 LP  0  0  0  0  0  0  0  0  0  0  0  0  # atno 17321 bound_to 7965
  140.4501  144.1867  150.5897 LP  0  0  0  0  0  0  0  0  0  0  0  0  # atno 17342 bound_to 10162
  140.4593  143.2455  151.9241 LP  0  0  0  0  0  0  0  0  0  0  0  0  # atno 17343 bound_to 10162
  155.9664  130.4409  150.5318 LP  0  0  0  0  0  0  0  0  0  0  0  0  # atno 17370 bound_to 10713
  157.3215  131.0682  151.1928 LP  0  0  0  0  0  0  0  0  0  0  0  0  # atno 17371 bound_to 10713
  139.8704  134.9608  156.4375 LP  0  0  0  0  0  0  0  0  0  0  0  0  # atno 17394 bound_to 11000
  140.8953  133.7818  155.9618 LP  0  0  0  0  0  0  0  0  0  0  0  0  # atno 17395 bound_to 11000

$$$$
