AV-unprocessed.smi:2774|AV-procd|sdf|10687|dock5
  -GOLD-   2272015133D 1   1.00000     0.00000
 Structure written by MMmdl.
 34 35  0  0  0  0  0  0  0  0  1 V2000
  151.6846  140.2771  154.9607 O   0  0  0  0  0  0  0  0  0  0  0  0
  150.4395  140.4682  155.6038 C   0  0  1  0  0  0  0  0  0  0  0  0
  150.4551  141.8122  156.3579 C   0  0  0  0  0  0  0  0  0  0  0  0
  151.5111  141.8624  157.3723 N   0  0  0  0  0  0  0  0  0  0  0  0
  151.2749  142.7691  158.4987 C   0  0  1  0  0  0  0  0  0  0  0  0
  152.3743  142.6423  159.5798 C   0  0  0  0  0  0  0  0  0  0  0  0
  152.1302  143.5567  160.7918 C   0  0  0  0  0  0  0  0  0  0  0  0
  152.0954  145.0429  160.4134 C   0  0  0  0  0  0  0  0  0  0  0  0
  150.7364  145.3878  159.2669 S   0  0  0  0  0  0  0  0  0  0  0  0
  151.1886  144.2108  157.9640 C   0  0  0  0  0  0  0  0  0  0  0  0
  149.2378  140.3014  154.6809 C   0  0  0  0  0  0  0  0  0  0  0  0
  148.3942  141.3879  154.3586 C   0  0  0  0  0  0  0  0  0  0  0  0
  147.2964  141.1599  153.5054 C   0  0  0  0  0  0  0  0  0  0  0  0
  147.0076  139.9526  152.9743 N   0  0  0  0  0  0  0  0  0  0  0  0
  147.8158  138.9173  153.2864 C   0  0  0  0  0  0  0  0  0  0  0  0
  148.9376  139.0375  154.1307 C   0  0  0  0  0  0  0  0  0  0  0  0
  152.0133  139.4233  155.1967 H   0  0  0  0  0  0  0  0  0  0  0  0
  150.3789  139.6751  156.3502 H   0  0  0  0  0  0  0  0  0  0  0  0
  150.6117  142.6175  155.6394 H   0  0  0  0  0  0  0  0  0  0  0  0
  149.4743  141.9799  156.8014 H   0  0  0  0  0  0  0  0  0  0  0  0
  151.6885  140.9245  157.7180 H   0  0  0  0  0  0  0  0  0  0  0  0
  150.3131  142.5213  158.9504 H   0  0  0  0  0  0  0  0  0  0  0  0
  152.4315  141.6189  159.9481 H   0  0  0  0  0  0  0  0  0  0  0  0
  153.3498  142.8649  159.1448 H   0  0  0  0  0  0  0  0  0  0  0  0
  151.1950  143.2795  161.2795 H   0  0  0  0  0  0  0  0  0  0  0  0
  152.9179  143.3935  161.5279 H   0  0  0  0  0  0  0  0  0  0  0  0
  151.9657  145.6571  161.3045 H   0  0  0  0  0  0  0  0  0  0  0  0
  153.0371  145.3415  159.9516 H   0  0  0  0  0  0  0  0  0  0  0  0
  152.1393  144.5173  157.5257 H   0  0  0  0  0  0  0  0  0  0  0  0
  150.4383  144.2783  157.1751 H   0  0  0  0  0  0  0  0  0  0  0  0
  148.5737  142.3743  154.7600 H   0  0  0  0  0  0  0  0  0  0  0  0
  146.6316  141.9697  153.2436 H   0  0  0  0  0  0  0  0  0  0  0  0
  147.5610  137.9626  152.8504 H   0  0  0  0  0  0  0  0  0  0  0  0
  149.5505  138.1758  154.3514 H   0  0  0  0  0  0  0  0  0  0  0  0
  1  2  1  0  0  0  0
  1 17  1  0  0  0  0
  2  3  1  0  0  0  0
  2 11  1  0  0  0  0
  2 18  1  0  0  0  0
  3  4  1  0  0  0  0
  3 19  1  0  0  0  0
  3 20  1  0  0  0  0
  4  5  1  0  0  0  0
  4 21  1  0  0  0  0
  5 10  1  0  0  0  0
  5  6  1  0  0  0  0
  5 22  1  0  0  0  0
  6  7  1  0  0  0  0
  6 23  1  0  0  0  0
  6 24  1  0  0  0  0
  7  8  1  0  0  0  0
  7 25  1  0  0  0  0
  7 26  1  0  0  0  0
  8  9  1  0  0  0  0
  8 27  1  0  0  0  0
  8 28  1  0  0  0  0
  9 10  1  0  0  0  0
 10 29  1  0  0  0  0
 10 30  1  0  0  0  0
 11 16  1  0  0  0  0
 11 12  2  0  0  0  0
 12 13  1  0  0  0  0
 12 31  1  0  0  0  0
 13 14  2  0  0  0  0
 13 32  1  0  0  0  0
 14 15  1  0  0  0  0
 15 16  2  0  0  0  0
 15 33  1  0  0  0  0
 16 34  1  0  0  0  0
M  END
> <s_m_source_file>
AV-unprocessed.smi

> <i_m_source_file_index>
2774

> <i_lp_mmshare_version>
43012

> <i_f3d_flags>
0

> <s_epik_input>
W2NIXTFbY0hdbltjSF1bY0hdYzFbQ0BIXShbT0hdKVtDSDJdW05IXVtDQEBIXTJbQ0gyXVtDSDJdW0NIMl1TW0NIMl0y

> <s_epik_cmdline>
J2VwaWtfcHl0aG9uJywgJy1waCcsICc3LjAnLCAnLXRuJywgJzgnLCAnLW1hJywgJzIwMCcsICctbWV0YWxfYmluZGluZycsICctaW1hZScsICc8aW5maWxlLm1hZT4nLCAnLW9tYWUnLCAnPG91dGZpbGUubWFlPic=

> <r_epik_Ionization_Penalty>
2.08116

> <r_epik_Ionization_Penalty_Charging>
0

> <r_epik_Ionization_Penalty_Neutral>
2.08116

> <r_epik_State_Penalty>
2.1944

> <r_epik_Charging_Adjusted_Penalty>
2.1944

> <i_epik_Tot_Q>
0

> <i_epik_Tot_abs_Q>
0

> <r_epik_Metal_State_Penalty>
2.1769

> <b_epik_Metal_Only>
0

> <s_lp_Force_Field>
OPLS_2005

> <r_lp_Energy>
17.4731

> <b_lp_Chiralities_Consistent>
1

> <s_lp_Variant>
AV-unprocessed.smi:2774-8

> <Gold.Version>
5.8.1

> <Gold.Id.Protein>
6NUR|6NUR_protein|mol2

> <Gold.PLP.Fitness>
43.2797

> <Gold.PLP.PLP>
-38.0897

> <Gold.PLP.part.hbond>
-1.0000

> <Gold.PLP.part.metal>
0.0000

> <Gold.PLP.part.buried>
-2.9282

> <Gold.PLP.part.nonpolar>
-33.3163

> <Gold.PLP.part.repulsive>
0.2286

> <Gold.PLP.ligand.clash>
0.0000

> <Gold.PLP.ligand.torsion>
0.3504

> <Gold.PLP.Chemscore.Hbond>
0.9600

> <Gold.PLP.Chemscore.CHOScore>
0.9826

> <Gold.PLP.Chemscore.Metal>
0.0000

> <Gold.Chemscore.Hbonds>
donor molecule, donor type, donor heavy atom, donor atom, acceptor molecule, acceptor atom, score
      P1  H  7989  7998       L1     1  0.93
      L1  C    15    33       P1  7948  1.00

> <Gold.PLP.Chemscore.Internal.Correction>
0.0630

> <Gold.Rescore>
     Score         DG    S(hbond)    S(metal)    S(lipo)     H(rot)  DE(clash)    DE(int)     intcor
     15.91     -16.42       0.91        0.00     108.99       1.89       0.03       0.48       ----

> <Gold.Chemscore.Fitness>
15.9101

> <Gold.Chemscore.DG>
-16.4250

> <Gold.Chemscore.ZeroCoef>
-5.4800

> <Gold.Chemscore.Hbond>
0.9097

> <Gold.Chemscore.Metal>
0.0000

> <Gold.Chemscore.Lipo>
108.9918

> <Gold.Chemscore.Internal_Hbond>
0.0000

> <Gold.Chemscore.DEClash>
0.0339

> <Gold.Chemscore.DEInternal>
0.4810

> <Gold.Chemscore.Rot>
1.8928

> <Gold.Chemscore.Internal.Correction>
   9.000000E+99

> <Gold.Chemscore.Hbonds>
donor molecule, donor type, donor heavy atom, donor atom, acceptor molecule, acceptor atom, score
      P1  H  7989  7998       L1     1  0.68

> <Gold.Chemscore.Hbond.Weighted>
-3.0385

> <Gold.Chemscore.Metal.Weighted>
-0.0000

> <Gold.Chemscore.Lipo.Weighted>
-12.7520

> <Gold.Chemscore.Internal_Hbond.Weighted>
0.0000

> <Gold.Chemscore.DEClash.Weighted>
0.0339

> <Gold.Chemscore.DEInternal.Weighted>
0.4810

> <Gold.Chemscore.Rot.Weighted>
4.8455

> <Gold.Chemscore.Internal.Correction.Weighted>
   9.000000E+99

> <Gold.Protein.RotatedTorsions>
[ 6907 6896 6895 6894 ] final -150.89 input  -60.11 | X-H torsion
[ 7974 7965 7964 7962 ] final  110.60 input  175.53 | X-H torsion
[ 8008 7997 7996 7995 ] final -176.87 input   59.86 | X-H torsion
[ 10167 10162 10161 10158 ] final  161.91 input  -65.29 | X-H torsion
[ 10718 10713 10712 10709 ] final  148.21 input   66.30 | X-H torsion
[ 10763 10752 10751 10750 ] final  178.66 input  -60.55 | X-H torsion
[ 11005 11000 10999 10996 ] final   41.40 input  -57.11 | X-H torsion

> <Gold.Protein.ActiveResidues>
 VAL166  LYS551  ARG553  GLY616  TRP617  ASP618  TYR619  PRO620  LYS621  CYS622 
 ASP623  PHE694  ASN695  SER759  ASP760  ASP761  ALA762  ILE779  LEU786  VAL792 
 PHE793  MET794  SER795  GLU796  ALA797  LYS798  CYS799  TRP800  GLU811  SER814 

> <Gold.Protein.RotatedAtoms>
  151.2052  133.4588  159.2596 H   0  0  0  0  0  0  0  0  0  0  0  0  # atno 6907 bound_to 6896
  151.1030  134.9983  159.8468 H   0  0  0  0  0  0  0  0  0  0  0  0  # atno 6908 bound_to 6896
  152.5445  134.1977  159.8752 H   0  0  0  0  0  0  0  0  0  0  0  0  # atno 6909 bound_to 6896
  145.2529  139.2732  143.4057 H   0  0  0  0  0  0  0  0  0  0  0  0  # atno 7974 bound_to 7965
  156.0001  140.1219  157.0556 H   0  0  0  0  0  0  0  0  0  0  0  0  # atno 8008 bound_to 7997
  154.4239  140.1108  156.5753 H   0  0  0  0  0  0  0  0  0  0  0  0  # atno 8009 bound_to 7997
  155.6224  140.3472  155.4658 H   0  0  0  0  0  0  0  0  0  0  0  0  # atno 8010 bound_to 7997
  139.4854  144.4490  151.8855 H   0  0  0  0  0  0  0  0  0  0  0  0  # atno 10167 bound_to 10162
  157.3115  131.0888  151.1313 H   0  0  0  0  0  0  0  0  0  0  0  0  # atno 10718 bound_to 10713
  154.5105  135.2788  155.1346 H   0  0  0  0  0  0  0  0  0  0  0  0  # atno 10763 bound_to 10752
  154.2944  135.6260  153.5402 H   0  0  0  0  0  0  0  0  0  0  0  0  # atno 10764 bound_to 10752
  152.9918  135.5681  154.5569 H   0  0  0  0  0  0  0  0  0  0  0  0  # atno 10765 bound_to 10752
  140.1838  134.4071  155.8185 H   0  0  0  0  0  0  0  0  0  0  0  0  # atno 11005 bound_to 11000
  146.3297  140.2925  142.8616 LP  0  0  0  0  0  0  0  0  0  0  0  0  # atno 17320 bound_to 7965
  144.9486  140.8155  143.5586 LP  0  0  0  0  0  0  0  0  0  0  0  0  # atno 17321 bound_to 7965
  140.3946  144.2572  150.5897 LP  0  0  0  0  0  0  0  0  0  0  0  0  # atno 17342 bound_to 10162
  140.5114  143.2289  151.8529 LP  0  0  0  0  0  0  0  0  0  0  0  0  # atno 17343 bound_to 10162
  157.2633  130.6669  149.5985 LP  0  0  0  0  0  0  0  0  0  0  0  0  # atno 17370 bound_to 10713
  155.9678  130.4502  150.5687 LP  0  0  0  0  0  0  0  0  0  0  0  0  # atno 17371 bound_to 10713
  141.2224  133.7013  156.7976 LP  0  0  0  0  0  0  0  0  0  0  0  0  # atno 17394 bound_to 11000
  140.2237  134.8737  157.3404 LP  0  0  0  0  0  0  0  0  0  0  0  0  # atno 17395 bound_to 11000

$$$$
