AV-unprocessed.smi:1741|AV-procd|sdf|7018|dock7
  -GOLD-   22720 8233D 1   1.00000     0.00000
 Structure written by MMmdl.
 38 39  0  0  0  0  0  0  0  0  1 V2000
  151.4590  140.2812  158.2452 C   0  0  0  0  0  0  0  0  0  0  0  0
  152.1957  140.2345  156.9010 C   0  0  0  0  0  0  0  0  0  0  0  0
  151.4661  139.4633  155.9132 N   0  0  0  0  0  0  0  0  0  0  0  0
  151.0942  138.1347  155.9720 C   0  0  0  0  0  0  0  0  0  0  0  0
  150.4309  137.8850  154.8038 C   0  0  0  0  0  0  0  0  0  0  0  0
  149.8391  136.6813  154.3439 N   0  0  0  0  0  0  0  0  0  0  0  0
  149.5972  135.5671  155.0537 C   0  0  0  0  0  0  0  0  0  0  0  0
  149.8343  135.4292  156.2539 O   0  0  0  0  0  0  0  0  0  0  0  0
  149.0606  134.6105  154.2824 N   0  0  0  0  0  0  0  0  0  0  0  0
  148.6777  133.2698  154.7205 C   0  0  2  0  0  0  0  0  0  0  0  0
  149.9107  132.5793  155.3235 C   0  0  0  0  0  0  0  0  0  0  0  0
  148.0919  132.4879  153.5285 C   0  0  1  0  0  0  0  0  0  0  0  0
  147.5046  131.1217  153.8857 C   0  0  0  0  0  0  0  0  0  0  0  0
  146.4807  130.8714  152.7897 C   0  0  0  0  0  0  0  0  0  0  0  0
  146.2851  132.2443  152.1408 C   0  0  0  0  0  0  0  0  0  0  0  0
  146.9604  133.1578  152.9936 O   0  0  0  0  0  0  0  0  0  0  0  0
  150.4395  139.1083  154.0848 C   0  0  0  0  0  0  0  0  0  0  0  0
  151.0671  140.0579  154.7615 N   0  0  0  0  0  0  0  0  0  0  0  0
  152.0258  140.8565  158.9772 H   0  0  0  0  0  0  0  0  0  0  0  0
  151.3136  139.2790  158.6494 H   0  0  0  0  0  0  0  0  0  0  0  0
  150.4789  140.7480  158.1436 H   0  0  0  0  0  0  0  0  0  0  0  0
  152.3488  141.2437  156.5165 H   0  0  0  0  0  0  0  0  0  0  0  0
  153.1837  139.7910  157.0293 H   0  0  0  0  0  0  0  0  0  0  0  0
  151.3318  137.5094  156.8198 H   0  0  0  0  0  0  0  0  0  0  0  0
  149.5864  136.6615  153.3667 H   0  0  0  0  0  0  0  0  0  0  0  0
  148.9000  134.8270  153.3097 H   0  0  0  0  0  0  0  0  0  0  0  0
  147.9164  133.3301  155.5002 H   0  0  0  0  0  0  0  0  0  0  0  0
  149.6626  131.5919  155.7129 H   0  0  0  0  0  0  0  0  0  0  0  0
  150.3194  133.1602  156.1510 H   0  0  0  0  0  0  0  0  0  0  0  0
  150.6999  132.4554  154.5811 H   0  0  0  0  0  0  0  0  0  0  0  0
  148.8395  132.3753  152.7404 H   0  0  0  0  0  0  0  0  0  0  0  0
  148.2620  130.3394  153.9419 H   0  0  0  0  0  0  0  0  0  0  0  0
  146.9991  131.1697  154.8512 H   0  0  0  0  0  0  0  0  0  0  0  0
  146.8462  130.1502  152.0579 H   0  0  0  0  0  0  0  0  0  0  0  0
  145.5503  130.4850  153.2073 H   0  0  0  0  0  0  0  0  0  0  0  0
  146.7448  132.2689  151.1518 H   0  0  0  0  0  0  0  0  0  0  0  0
  145.2335  132.5119  152.0342 H   0  0  0  0  0  0  0  0  0  0  0  0
  150.0212  139.3344  153.1150 H   0  0  0  0  0  0  0  0  0  0  0  0
  1  2  1  0  0  0  0
  1 19  1  0  0  0  0
  1 20  1  0  0  0  0
  1 21  1  0  0  0  0
  2  3  1  0  0  0  0
  2 22  1  0  0  0  0
  2 23  1  0  0  0  0
  3 18  1  0  0  0  0
  3  4  1  0  0  0  0
  4  5  2  0  0  0  0
  4 24  1  0  0  0  0
  5  6  1  0  0  0  0
  5 17  1  0  0  0  0
  6  7  1  0  0  0  0
  6 25  1  0  0  0  0
  7  8  2  0  0  0  0
  7  9  1  0  0  0  0
  9 10  1  0  0  0  0
  9 26  1  0  0  0  0
 10 11  1  0  0  0  0
 10 12  1  0  0  0  0
 10 27  1  0  0  0  0
 11 28  1  0  0  0  0
 11 29  1  0  0  0  0
 11 30  1  0  0  0  0
 12 16  1  0  0  0  0
 12 13  1  0  0  0  0
 12 31  1  0  0  0  0
 13 14  1  0  0  0  0
 13 32  1  0  0  0  0
 13 33  1  0  0  0  0
 14 15  1  0  0  0  0
 14 34  1  0  0  0  0
 14 35  1  0  0  0  0
 15 16  1  0  0  0  0
 15 36  1  0  0  0  0
 15 37  1  0  0  0  0
 17 18  2  0  0  0  0
 17 38  1  0  0  0  0
M  END
> <s_m_source_file>
AV-unprocessed.smi

> <i_m_source_file_index>
1741

> <i_lp_mmshare_version>
43012

> <i_f3d_flags>
0

> <s_epik_input>
W0NIM11bQ0gyXW4xW2NIXWMoW2NIXW4xKVtOSF1DKD1PKVtOSF1bQ0BIXShbQ0gzXSlbQ0BASF0yW0NIMl1bQ0gyXVtDSDJdTzI=

> <s_epik_cmdline>
J2VwaWtfcHl0aG9uJywgJy1waCcsICc3LjAnLCAnLXRuJywgJzgnLCAnLW1hJywgJzIwMCcsICctbWV0YWxfYmluZGluZycsICctaW1hZScsICc8aW5maWxlLm1hZT4nLCAnLW9tYWUnLCAnPG91dGZpbGUubWFlPic=

> <r_lp_tautomer_probability>
1

> <r_epik_Ionization_Penalty>
0.000179292

> <r_epik_Ionization_Penalty_Charging>
0

> <r_epik_Ionization_Penalty_Neutral>
0.000179292

> <r_epik_State_Penalty>
-0

> <r_epik_Charging_Adjusted_Penalty>
0

> <i_epik_Tot_Q>
0

> <i_epik_Tot_abs_Q>
0

> <r_epik_Metal_State_Penalty>
-0

> <b_epik_Metal_Only>
0

> <s_lp_Force_Field>
OPLS_2005

> <r_lp_Energy>
22.1528

> <b_lp_Chiralities_Consistent>
1

> <s_lp_Variant>
AV-unprocessed.smi:1741-3

> <Gold.Version>
5.8.1

> <Gold.Id.Protein>
6NUR|6NUR_protein|mol2

> <Gold.PLP.Fitness>
39.9005

> <Gold.PLP.PLP>
-29.0190

> <Gold.PLP.part.hbond>
-3.6626

> <Gold.PLP.part.metal>
0.0000

> <Gold.PLP.part.buried>
-0.6905

> <Gold.PLP.part.nonpolar>
-23.2494

> <Gold.PLP.part.repulsive>
0.2773

> <Gold.PLP.ligand.clash>
0.0000

> <Gold.PLP.ligand.torsion>
0.0579

> <Gold.PLP.Chemscore.Hbond>
2.6552

> <Gold.PLP.Chemscore.CHOScore>
1.0000

> <Gold.PLP.Chemscore.Metal>
0.0000

> <Gold.Chemscore.Hbonds>
donor molecule, donor type, donor heavy atom, donor atom, acceptor molecule, acceptor atom, score
      L1  H     6    25       P1  7948  1.00
      L1  H     9    26       P1  7948  0.96
      P1  H  7989  7998       L1    18  0.85
      L1  C    17    38       P1  7957  1.00

> <Gold.PLP.Chemscore.Internal.Correction>
0.0318

> <Gold.Rescore>
     Score         DG    S(hbond)    S(metal)    S(lipo)     H(rot)  DE(clash)    DE(int)     intcor
     13.19     -14.38       1.64        0.00      59.39       1.38       0.00       1.19       ----

> <Gold.Chemscore.Fitness>
13.1870

> <Gold.Chemscore.DG>
-14.3818

> <Gold.Chemscore.ZeroCoef>
-5.4800

> <Gold.Chemscore.Hbond>
1.6418

> <Gold.Chemscore.Metal>
0.0000

> <Gold.Chemscore.Lipo>
59.3884

> <Gold.Chemscore.Internal_Hbond>
0.0000

> <Gold.Chemscore.DEClash>
0.0038

> <Gold.Chemscore.DEInternal>
1.1910

> <Gold.Chemscore.Rot>
1.3790

> <Gold.Chemscore.Internal.Correction>
   9.000000E+99

> <Gold.Chemscore.Hbonds>
donor molecule, donor type, donor heavy atom, donor atom, acceptor molecule, acceptor atom, score
      L1  H     6    25       P1  7948  0.60
      L1  H     9    26       P1  7948  0.23
      P1  H  7989  7998       L1    18  0.14

> <Gold.Chemscore.Hbond.Weighted>
-5.4835

> <Gold.Chemscore.Metal.Weighted>
-0.0000

> <Gold.Chemscore.Lipo.Weighted>
-6.9484

> <Gold.Chemscore.Internal_Hbond.Weighted>
0.0000

> <Gold.Chemscore.DEClash.Weighted>
0.0038

> <Gold.Chemscore.DEInternal.Weighted>
1.1910

> <Gold.Chemscore.Rot.Weighted>
3.5302

> <Gold.Chemscore.Internal.Correction.Weighted>
   9.000000E+99

> <Gold.Protein.RotatedTorsions>
[ 6907 6896 6895 6894 ] final  112.61 input  -60.11 | X-H torsion
[ 7974 7965 7964 7962 ] final   69.21 input  175.53 | X-H torsion
[ 8008 7997 7996 7995 ] final  -83.86 input   59.86 | X-H torsion
[ 10167 10162 10161 10158 ] final -104.69 input  -65.29 | X-H torsion
[ 10718 10713 10712 10709 ] final   58.67 input   66.30 | X-H torsion
[ 10763 10752 10751 10750 ] final  -84.86 input  -60.55 | X-H torsion
[ 11005 11000 10999 10996 ] final -126.81 input  -57.11 | X-H torsion

> <Gold.Protein.ActiveResidues>
 VAL166  LYS551  ARG553  GLY616  TRP617  ASP618  TYR619  PRO620  LYS621  CYS622 
 ASP623  PHE694  ASN695  SER759  ASP760  ASP761  ALA762  ILE779  LEU786  VAL792 
 PHE793  MET794  SER795  GLU796  ALA797  LYS798  CYS799  TRP800  GLU811  SER814 

> <Gold.Protein.RotatedAtoms>
  152.4907  133.8492  159.7192 H   0  0  0  0  0  0  0  0  0  0  0  0  # atno 6907 bound_to 6896
  150.9034  133.7080  159.2880 H   0  0  0  0  0  0  0  0  0  0  0  0  # atno 6908 bound_to 6896
  151.4514  135.1034  159.9751 H   0  0  0  0  0  0  0  0  0  0  0  0  # atno 6909 bound_to 6896
  145.7932  139.2944  143.1198 H   0  0  0  0  0  0  0  0  0  0  0  0  # atno 7974 bound_to 7965
  154.6236  140.0613  156.9646 H   0  0  0  0  0  0  0  0  0  0  0  0  # atno 8008 bound_to 7997
  155.1778  140.3296  155.4362 H   0  0  0  0  0  0  0  0  0  0  0  0  # atno 8009 bound_to 7997
  156.2445  140.1903  156.6876 H   0  0  0  0  0  0  0  0  0  0  0  0  # atno 8010 bound_to 7997
  140.2065  143.3778  152.1086 H   0  0  0  0  0  0  0  0  0  0  0  0  # atno 10167 bound_to 10162
  157.5614  130.8839  149.9118 H   0  0  0  0  0  0  0  0  0  0  0  0  # atno 10718 bound_to 10713
  154.6044  135.5506  153.7407 H   0  0  0  0  0  0  0  0  0  0  0  0  # atno 10763 bound_to 10752
  153.0168  135.6374  154.1669 H   0  0  0  0  0  0  0  0  0  0  0  0  # atno 10764 bound_to 10752
  154.1608  135.2897  155.3089 H   0  0  0  0  0  0  0  0  0  0  0  0  # atno 10765 bound_to 10752
  140.9651  134.0883  157.3928 H   0  0  0  0  0  0  0  0  0  0  0  0  # atno 11005 bound_to 11000
  145.9955  140.8566  143.0045 LP  0  0  0  0  0  0  0  0  0  0  0  0  # atno 17320 bound_to 7965
  144.6779  140.2276  143.7359 LP  0  0  0  0  0  0  0  0  0  0  0  0  # atno 17321 bound_to 7965
  139.5196  144.7022  151.5460 LP  0  0  0  0  0  0  0  0  0  0  0  0  # atno 17342 bound_to 10162
  140.6353  143.8995  150.6642 LP  0  0  0  0  0  0  0  0  0  0  0  0  # atno 17343 bound_to 10162
  156.0666  130.3691  150.0864 LP  0  0  0  0  0  0  0  0  0  0  0  0  # atno 17370 bound_to 10713
  156.9028  130.9626  151.3574 LP  0  0  0  0  0  0  0  0  0  0  0  0  # atno 17371 bound_to 10713
  139.8891  135.0103  156.6662 LP  0  0  0  0  0  0  0  0  0  0  0  0  # atno 17394 bound_to 11000
  140.7411  133.8977  155.8279 LP  0  0  0  0  0  0  0  0  0  0  0  0  # atno 17395 bound_to 11000

$$$$
