AV-unprocessed.smi:818|AV-procd|sdf|3833|dock9
  -GOLD-   22720 1273D 1   1.00000     0.00000
 Structure written by MMmdl.
 44 45  0  0  0  0  0  0  0  0  1 V2000
  151.5569  140.8996  158.9038 C   0  0  0  0  0  0  0  0  0  0  0  0
  151.7326  141.5238  157.5142 C   0  0  0  0  0  0  0  0  0  0  0  0
  151.4933  140.5583  156.4599 N   0  0  0  0  0  0  0  0  0  0  0  0
  150.3466  140.3772  155.7124 C   0  0  0  0  0  0  0  0  0  0  0  0
  150.6164  139.3474  154.8621 C   0  0  0  0  0  0  0  0  0  0  0  0
  149.7043  138.8210  153.9142 N   0  0  0  0  0  0  0  0  0  0  0  0
  148.4254  139.1849  153.7278 C   0  0  0  0  0  0  0  0  0  0  0  0
  147.8214  140.0225  154.3981 O   0  0  0  0  0  0  0  0  0  0  0  0
  147.8730  138.5117  152.7080 N   0  0  0  0  0  0  0  0  0  0  0  0
  146.4909  138.6531  152.2516 C   0  0  1  0  0  0  0  0  0  0  0  0
  146.5144  138.8292  150.7241 C   0  0  0  0  0  0  0  0  0  0  0  0
  145.6761  137.3880  152.5678 C   0  0  0  0  0  0  0  0  0  0  0  0
  144.6046  137.4616  153.1721 O   0  0  0  0  0  0  0  0  0  0  0  0
  146.2140  136.2266  152.1652 N   0  0  0  0  0  0  0  0  0  0  0  0
  145.6276  134.9062  152.3787 C   0  0  0  0  0  0  0  0  0  0  0  0
  146.5551  133.8019  151.8360 C   0  0  0  0  0  0  0  0  0  0  0  0
  145.6721  132.8842  150.9883 C   0  0  0  0  0  0  0  0  0  0  0  0
  144.5705  133.7992  150.4629 C   0  0  0  0  0  0  0  0  0  0  0  0
  144.2920  134.7547  151.6240 C   0  0  0  0  0  0  0  0  0  0  0  0
  151.9518  138.9457  155.1492 C   0  0  0  0  0  0  0  0  0  0  0  0
  152.4720  139.6844  156.1179 N   0  0  0  0  0  0  0  0  0  0  0  0
  151.7373  141.6377  159.6854 H   0  0  0  0  0  0  0  0  0  0  0  0
  152.2542  140.0755  159.0578 H   0  0  0  0  0  0  0  0  0  0  0  0
  150.5460  140.5132  159.0371 H   0  0  0  0  0  0  0  0  0  0  0  0
  151.0424  142.3583  157.3859 H   0  0  0  0  0  0  0  0  0  0  0  0
  152.7404  141.9265  157.4028 H   0  0  0  0  0  0  0  0  0  0  0  0
  149.4617  140.9812  155.8502 H   0  0  0  0  0  0  0  0  0  0  0  0
  150.0665  138.1011  153.3063 H   0  0  0  0  0  0  0  0  0  0  0  0
  148.4430  137.8362  152.2205 H   0  0  0  0  0  0  0  0  0  0  0  0
  146.0278  139.5259  152.7165 H   0  0  0  0  0  0  0  0  0  0  0  0
  145.5075  138.9522  150.3232 H   0  0  0  0  0  0  0  0  0  0  0  0
  146.9703  137.9738  150.2230 H   0  0  0  0  0  0  0  0  0  0  0  0
  147.0833  139.7163  150.4438 H   0  0  0  0  0  0  0  0  0  0  0  0
  147.0968  136.2587  151.6761 H   0  0  0  0  0  0  0  0  0  0  0  0
  145.4620  134.7449  153.4457 H   0  0  0  0  0  0  0  0  0  0  0  0
  147.3336  134.2294  151.2015 H   0  0  0  0  0  0  0  0  0  0  0  0
  147.0580  133.2575  152.6361 H   0  0  0  0  0  0  0  0  0  0  0  0
  146.2253  132.3895  150.1897 H   0  0  0  0  0  0  0  0  0  0  0  0
  145.2344  132.1095  151.6191 H   0  0  0  0  0  0  0  0  0  0  0  0
  144.9382  134.3614  149.6033 H   0  0  0  0  0  0  0  0  0  0  0  0
  143.6825  133.2503  150.1483 H   0  0  0  0  0  0  0  0  0  0  0  0
  143.5546  134.3044  152.2900 H   0  0  0  0  0  0  0  0  0  0  0  0
  143.8748  135.7030  151.2815 H   0  0  0  0  0  0  0  0  0  0  0  0
  152.5520  138.1638  154.7088 H   0  0  0  0  0  0  0  0  0  0  0  0
  1  2  1  0  0  0  0
  1 22  1  0  0  0  0
  1 23  1  0  0  0  0
  1 24  1  0  0  0  0
  2  3  1  0  0  0  0
  2 25  1  0  0  0  0
  2 26  1  0  0  0  0
  3 21  1  0  0  0  0
  3  4  1  0  0  0  0
  4  5  2  0  0  0  0
  4 27  1  0  0  0  0
  5  6  1  0  0  0  0
  5 20  1  0  0  0  0
  6  7  1  0  0  0  0
  6 28  1  0  0  0  0
  7  8  2  0  0  0  0
  7  9  1  0  0  0  0
  9 10  1  0  0  0  0
  9 29  1  0  0  0  0
 10 11  1  0  0  0  0
 10 12  1  0  0  0  0
 10 30  1  0  0  0  0
 11 31  1  0  0  0  0
 11 32  1  0  0  0  0
 11 33  1  0  0  0  0
 12 13  2  0  0  0  0
 12 14  1  0  0  0  0
 14 15  1  0  0  0  0
 14 34  1  0  0  0  0
 15 19  1  0  0  0  0
 15 16  1  0  0  0  0
 15 35  1  0  0  0  0
 16 17  1  0  0  0  0
 16 36  1  0  0  0  0
 16 37  1  0  0  0  0
 17 18  1  0  0  0  0
 17 38  1  0  0  0  0
 17 39  1  0  0  0  0
 18 19  1  0  0  0  0
 18 40  1  0  0  0  0
 18 41  1  0  0  0  0
 19 42  1  0  0  0  0
 19 43  1  0  0  0  0
 20 21  2  0  0  0  0
 20 44  1  0  0  0  0
M  END
> <s_m_source_file>
AV-unprocessed.smi

> <i_m_source_file_index>
818

> <i_lp_mmshare_version>
43012

> <i_f3d_flags>
0

> <s_epik_input>
W0NIM11bQ0gyXW4xW2NIXWMoW2NIXW4xKVtOSF1DKD1PKVtOSF1bQ0BIXShbQ0gzXSlDKD1PKVtOSF1bQ0hdMltDSDJdW0NIMl1bQ0gyXVtDSDJdMg==

> <s_epik_cmdline>
J2VwaWtfcHl0aG9uJywgJy1waCcsICc3LjAnLCAnLXRuJywgJzgnLCAnLW1hJywgJzIwMCcsICctbWV0YWxfYmluZGluZycsICctaW1hZScsICc8aW5maWxlLm1hZT4nLCAnLW9tYWUnLCAnPG91dGZpbGUubWFlPic=

> <r_lp_tautomer_probability>
1

> <r_epik_Ionization_Penalty>
0.00015627

> <r_epik_Ionization_Penalty_Charging>
0

> <r_epik_Ionization_Penalty_Neutral>
0.00015627

> <r_epik_State_Penalty>
-0

> <r_epik_Charging_Adjusted_Penalty>
0

> <i_epik_Tot_Q>
0

> <i_epik_Tot_abs_Q>
0

> <r_epik_Metal_State_Penalty>
-0

> <b_epik_Metal_Only>
0

> <s_lp_Force_Field>
OPLS_2005

> <r_lp_Energy>
21.9602

> <b_lp_Chiralities_Consistent>
1

> <s_lp_Variant>
AV-unprocessed.smi:818-2

> <Gold.Version>
5.8.1

> <Gold.Id.Protein>
6NUR|6NUR_protein|mol2

> <Gold.PLP.Fitness>
44.8018

> <Gold.PLP.PLP>
-36.9714

> <Gold.PLP.part.hbond>
-4.9278

> <Gold.PLP.part.metal>
0.0000

> <Gold.PLP.part.buried>
-0.6980

> <Gold.PLP.part.nonpolar>
-32.5547

> <Gold.PLP.part.repulsive>
0.4168

> <Gold.PLP.ligand.clash>
0.0000

> <Gold.PLP.ligand.torsion>
0.5129

> <Gold.PLP.Chemscore.Hbond>
2.9440

> <Gold.PLP.Chemscore.CHOScore>
0.0000

> <Gold.PLP.Chemscore.Metal>
0.0000

> <Gold.Chemscore.Hbonds>
donor molecule, donor type, donor heavy atom, donor atom, acceptor molecule, acceptor atom, score
      L1  H     9    29       P1  7948  1.00
      L1  H    14    34       P1  7948  0.94
      P1  H  7997  8009       L1    21  1.00

> <Gold.PLP.Chemscore.Internal.Correction>
0.0242

> <Gold.Rescore>
     Score         DG    S(hbond)    S(metal)    S(lipo)     H(rot)  DE(clash)    DE(int)     intcor
     18.27     -20.38       2.96        0.00      79.53       1.68       0.47       1.64       ----

> <Gold.Chemscore.Fitness>
18.2687

> <Gold.Chemscore.DG>
-20.3763

> <Gold.Chemscore.ZeroCoef>
-5.4800

> <Gold.Chemscore.Hbond>
2.9641

> <Gold.Chemscore.Metal>
0.0000

> <Gold.Chemscore.Lipo>
79.5252

> <Gold.Chemscore.Internal_Hbond>
0.0000

> <Gold.Chemscore.DEClash>
0.4688

> <Gold.Chemscore.DEInternal>
1.6389

> <Gold.Chemscore.Rot>
1.6828

> <Gold.Chemscore.Internal.Correction>
   9.000000E+99

> <Gold.Chemscore.Hbonds>
donor molecule, donor type, donor heavy atom, donor atom, acceptor molecule, acceptor atom, score
      L1  H     9    29       P1  7948  0.98
      L1  H    14    34       P1  7948  0.91
      P1  H  7997  8009       L1    21  0.98

> <Gold.Chemscore.Hbond.Weighted>
-9.9000

> <Gold.Chemscore.Metal.Weighted>
-0.0000

> <Gold.Chemscore.Lipo.Weighted>
-9.3044

> <Gold.Chemscore.Internal_Hbond.Weighted>
0.0000

> <Gold.Chemscore.DEClash.Weighted>
0.4688

> <Gold.Chemscore.DEInternal.Weighted>
1.6389

> <Gold.Chemscore.Rot.Weighted>
4.3081

> <Gold.Chemscore.Internal.Correction.Weighted>
   9.000000E+99

> <Gold.Protein.RotatedTorsions>
[ 6907 6896 6895 6894 ] final  108.49 input  -60.11 | X-H torsion
[ 7974 7965 7964 7962 ] final -109.26 input  175.53 | X-H torsion
[ 8008 7997 7996 7995 ] final -152.63 input   59.86 | X-H torsion
[ 10167 10162 10161 10158 ] final -167.12 input  -65.29 | X-H torsion
[ 10718 10713 10712 10709 ] final  -17.51 input   66.30 | X-H torsion
[ 10763 10752 10751 10750 ] final  -87.35 input  -60.55 | X-H torsion
[ 11005 11000 10999 10996 ] final  158.22 input  -57.11 | X-H torsion

> <Gold.Protein.ActiveResidues>
 VAL166  LYS551  ARG553  GLY616  TRP617  ASP618  TYR619  PRO620  LYS621  CYS622 
 ASP623  PHE694  ASN695  SER759  ASP760  ASP761  ALA762  ILE779  LEU786  VAL792 
 PHE793  MET794  SER795  GLU796  ALA797  LYS798  CYS799  TRP800  GLU811  SER814 

> <Gold.Protein.RotatedAtoms>
  152.5109  133.9081  159.7473 H   0  0  0  0  0  0  0  0  0  0  0  0  # atno 6907 bound_to 6896
  150.9481  133.6572  159.2784 H   0  0  0  0  0  0  0  0  0  0  0  0  # atno 6908 bound_to 6896
  151.3860  135.0953  159.9564 H   0  0  0  0  0  0  0  0  0  0  0  0  # atno 6909 bound_to 6896
  145.1828  140.8979  143.3470 H   0  0  0  0  0  0  0  0  0  0  0  0  # atno 7974 bound_to 7965
  155.6581  140.0719  157.2563 H   0  0  0  0  0  0  0  0  0  0  0  0  # atno 8008 bound_to 7997
  154.4148  140.1721  156.1797 H   0  0  0  0  0  0  0  0  0  0  0  0  # atno 8009 bound_to 7997
  155.9720  140.3361  155.6587 H   0  0  0  0  0  0  0  0  0  0  0  0  # atno 8010 bound_to 7997
  139.6070  144.0892  152.1803 H   0  0  0  0  0  0  0  0  0  0  0  0  # atno 10167 bound_to 10162
  156.5725  130.4753  149.6356 H   0  0  0  0  0  0  0  0  0  0  0  0  # atno 10718 bound_to 10713
  154.6326  135.5416  153.7698 H   0  0  0  0  0  0  0  0  0  0  0  0  # atno 10763 bound_to 10752
  153.0292  135.6439  154.1278 H   0  0  0  0  0  0  0  0  0  0  0  0  # atno 10764 bound_to 10752
  154.1207  135.2920  155.3189 H   0  0  0  0  0  0  0  0  0  0  0  0  # atno 10765 bound_to 10752
  140.1844  134.8452  157.2840 H   0  0  0  0  0  0  0  0  0  0  0  0  # atno 11005 bound_to 11000
  145.0119  139.3502  143.6115 LP  0  0  0  0  0  0  0  0  0  0  0  0  # atno 17320 bound_to 7965
  146.3450  139.9385  142.8744 LP  0  0  0  0  0  0  0  0  0  0  0  0  # atno 17321 bound_to 7965
  140.0502  144.5938  150.7342 LP  0  0  0  0  0  0  0  0  0  0  0  0  # atno 17342 bound_to 10162
  140.7292  143.2670  151.4013 LP  0  0  0  0  0  0  0  0  0  0  0  0  # atno 17343 bound_to 10162
  156.2702  130.7013  151.1808 LP  0  0  0  0  0  0  0  0  0  0  0  0  # atno 17370 bound_to 10713
  157.7345  131.0581  150.5521 LP  0  0  0  0  0  0  0  0  0  0  0  0  # atno 17371 bound_to 10713
  140.2230  134.4000  155.7557 LP  0  0  0  0  0  0  0  0  0  0  0  0  # atno 17394 bound_to 11000
  141.2224  133.7176  156.8521 LP  0  0  0  0  0  0  0  0  0  0  0  0  # atno 17395 bound_to 11000

$$$$
