AV-unprocessed.smi:2168|AV-procd|sdf|8821|dock4
  -GOLD-   2272012 13D 1   1.00000     0.00000
 Structure written by MMmdl.
 46 47  0  0  0  0  0  0  0  0  3 V2000
  151.3809  139.9799  156.7177 C   0  0  0  0  0  0  0  0  0  0  0  0
  152.1471  138.6479  156.6728 C   0  0  0  0  0  0  0  0  0  0  0  0
  151.2900  137.4986  156.3171 N   0  0  0  0  0  0  0  0  0  0  0  0
  150.7901  137.4427  154.9285 C   0  0  0  0  0  0  0  0  0  0  0  0
  151.3072  138.5964  154.0558 C   0  0  0  0  0  0  0  0  0  0  0  0
  151.2318  136.0834  157.3311 S   0  0  0  0  0  0  0  0  0  0  0  0
  152.2271  136.2953  158.3951 O   0  0  0  0  0  0  0  0  0  0  0  0
  149.8244  135.9172  157.7293 O   0  0  0  0  0  0  0  0  0  0  0  0
  151.7036  135.0090  156.2138 N   0  5  0  0  0  0  0  0  0  0  0  0
  151.3305  133.6180  156.3685 C   0  0  0  0  0  0  0  0  0  0  0  0
  150.2917  133.2187  155.3330 C   0  0  0  0  0  0  0  0  0  0  0  0
  149.7661  131.9076  155.2999 C   0  0  0  0  0  0  0  0  0  0  0  0
  148.7891  131.5733  154.3389 C   0  0  0  0  0  0  0  0  0  0  0  0
  148.3411  132.5501  153.4134 C   0  0  0  0  0  0  0  0  0  0  0  0
  147.3577  132.3088  152.4273 N   0  0  0  0  0  0  0  0  0  0  0  0
  147.0691  133.3695  151.4656 C   0  0  0  0  0  0  0  0  0  0  0  0
  146.2283  132.8289  150.2966 C   0  0  0  0  0  0  0  0  0  0  0  0
  145.0596  132.1923  150.7988 O   0  0  0  0  0  0  0  0  0  0  0  0
  145.3820  131.0724  151.6144 C   0  0  0  0  0  0  0  0  0  0  0  0
  146.1853  131.5374  152.8403 C   0  0  0  0  0  0  0  0  0  0  0  0
  148.8791  133.7921  153.4889 N   0  3  0  0  0  0  0  0  0  0  0  0
  149.8148  134.1570  154.3929 C   0  0  0  0  0  0  0  0  0  0  0  0
  152.0334  140.7847  157.0556 H   0  0  0  0  0  0  0  0  0  0  0  0
  150.5298  139.9393  157.3962 H   0  0  0  0  0  0  0  0  0  0  0  0
  151.0081  140.2596  155.7325 H   0  0  0  0  0  0  0  0  0  0  0  0
  152.9549  138.7188  155.9444 H   0  0  0  0  0  0  0  0  0  0  0  0
  152.6249  138.4637  157.6354 H   0  0  0  0  0  0  0  0  0  0  0  0
  151.0749  136.4926  154.4775 H   0  0  0  0  0  0  0  0  0  0  0  0
  149.7000  137.4548  154.9455 H   0  0  0  0  0  0  0  0  0  0  0  0
  150.9640  138.4788  153.0280 H   0  0  0  0  0  0  0  0  0  0  0  0
  152.3961  138.6291  154.0351 H   0  0  0  0  0  0  0  0  0  0  0  0
  150.9447  139.5617  154.4080 H   0  0  0  0  0  0  0  0  0  0  0  0
  152.1885  132.9530  156.2634 H   0  0  0  0  0  0  0  0  0  0  0  0
  150.9198  133.4163  157.3582 H   0  0  0  0  0  0  0  0  0  0  0  0
  150.0938  131.1537  156.0030 H   0  0  0  0  0  0  0  0  0  0  0  0
  148.4062  130.5645  154.3325 H   0  0  0  0  0  0  0  0  0  0  0  0
  146.5379  134.1776  151.9700 H   0  0  0  0  0  0  0  0  0  0  0  0
  147.9942  133.7817  151.0624 H   0  0  0  0  0  0  0  0  0  0  0  0
  145.9331  133.6459  149.6382 H   0  0  0  0  0  0  0  0  0  0  0  0
  146.8067  132.1277  149.6927 H   0  0  0  0  0  0  0  0  0  0  0  0
  144.4592  130.5877  151.9330 H   0  0  0  0  0  0  0  0  0  0  0  0
  145.9439  130.3364  151.0369 H   0  0  0  0  0  0  0  0  0  0  0  0
  146.4658  130.6601  153.4229 H   0  0  0  0  0  0  0  0  0  0  0  0
  145.5615  132.1618  153.4810 H   0  0  0  0  0  0  0  0  0  0  0  0
  150.1389  135.1872  154.3344 H   0  0  0  0  0  0  0  0  0  0  0  0
  148.5530  134.4987  152.8299 H   0  0  0  0  0  0  0  0  0  0  0  0
  1  2  1  0  0  0  0
  1 23  1  0  0  0  0
  1 24  1  0  0  0  0
  1 25  1  0  0  0  0
  2  3  1  0  0  0  0
  2 26  1  0  0  0  0
  2 27  1  0  0  0  0
  3  4  1  0  0  0  0
  3  6  1  0  0  0  0
  4  5  1  0  0  0  0
  4 28  1  0  0  0  0
  4 29  1  0  0  0  0
  5 30  1  0  0  0  0
  5 31  1  0  0  0  0
  5 32  1  0  0  0  0
  6  7  2  0  0  0  0
  6  8  2  0  0  0  0
  6  9  1  0  0  0  0
  9 10  1  0  0  0  0
 10 11  1  0  0  0  0
 10 33  1  0  0  0  0
 10 34  1  0  0  0  0
 11 22  1  0  0  0  0
 11 12  2  0  0  0  0
 12 13  1  0  0  0  0
 12 35  1  0  0  0  0
 13 14  2  0  0  0  0
 13 36  1  0  0  0  0
 14 15  1  0  0  0  0
 14 21  1  0  0  0  0
 15 20  1  0  0  0  0
 15 16  1  0  0  0  0
 16 17  1  0  0  0  0
 16 37  1  0  0  0  0
 16 38  1  0  0  0  0
 17 18  1  0  0  0  0
 17 39  1  0  0  0  0
 17 40  1  0  0  0  0
 18 19  1  0  0  0  0
 19 20  1  0  0  0  0
 19 41  1  0  0  0  0
 19 42  1  0  0  0  0
 20 43  1  0  0  0  0
 20 44  1  0  0  0  0
 21 22  2  0  0  0  0
 21 46  1  0  0  0  0
 22 45  1  0  0  0  0
M  CHG  1   9  -1
M  CHG  1  21   1
M  END
> <s_m_source_file>
AV-unprocessed.smi

> <i_m_source_file_index>
2168

> <i_lp_mmshare_version>
43012

> <i_f3d_flags>
0

> <s_epik_input>
W0NIM11bQ0gyXU4oW0NIMl1bQ0gzXSlTKD1PKSg9TylbTkhdW0NIMl1jMVtjSF1bY0hdYyhuW2NIXTEpTjJbQ0gyXVtDSDJdT1tDSDJdW0NIMl0y

> <s_epik_cmdline>
J2VwaWtfcHl0aG9uJywgJy1waCcsICc3LjAnLCAnLXRuJywgJzgnLCAnLW1hJywgJzIwMCcsICctbWV0YWxfYmluZGluZycsICctaW1hZScsICc8aW5maWxlLm1hZT4nLCAnLW9tYWUnLCAnPG91dGZpbGUubWFlPic=

> <r_lp_tautomer_probability>
0.999994

> <r_epik_Ionization_Penalty>
2.67026

> <r_epik_Ionization_Penalty_Charging>
2.67026

> <r_epik_Ionization_Penalty_Neutral>
4.07977e-08

> <r_epik_State_Penalty>
4.05768

> <r_epik_Charging_Adjusted_Penalty>
6.72795

> <i_epik_Tot_Q>
0

> <i_epik_Tot_abs_Q>
2

> <r_epik_Metal_State_Penalty>
2.91237

> <b_epik_Metal_Only>
1

> <s_lp_Force_Field>
OPLS_2005

> <r_lp_Energy>
13.0843

> <b_lp_Chiralities_Consistent>
1

> <s_lp_Variant>
AV-unprocessed.smi:2168-4

> <Gold.Version>
5.8.1

> <Gold.Id.Protein>
6NUR|6NUR_protein|mol2

> <Gold.PLP.Fitness>
45.0120

> <Gold.PLP.PLP>
-32.9158

> <Gold.PLP.part.hbond>
-3.0000

> <Gold.PLP.part.metal>
0.0000

> <Gold.PLP.part.buried>
-4.5552

> <Gold.PLP.part.nonpolar>
-25.8532

> <Gold.PLP.part.repulsive>
0.4452

> <Gold.PLP.ligand.clash>
0.1270

> <Gold.PLP.ligand.torsion>
2.2309

> <Gold.PLP.Chemscore.Hbond>
4.2768

> <Gold.PLP.Chemscore.CHOScore>
0.0000

> <Gold.PLP.Chemscore.Metal>
0.0000

> <Gold.Chemscore.Hbonds>
donor molecule, donor type, donor heavy atom, donor atom, acceptor molecule, acceptor atom, score
      L1  H    21    46       P1  7948  1.58
      P1  H  6896  6909       L1     7  0.44
      P1  H 10752 10763       L1     9  1.98

> <Gold.PLP.Chemscore.Internal.Correction>
3.8545

> <Gold.Rescore>
     Score         DG    S(hbond)    S(metal)    S(lipo)     H(rot)  DE(clash)    DE(int)     intcor
     12.72     -15.44       1.45        0.00      81.39       1.72       0.40       2.32       ----

> <Gold.Chemscore.Fitness>
12.7197

> <Gold.Chemscore.DG>
-15.4433

> <Gold.Chemscore.ZeroCoef>
-5.4800

> <Gold.Chemscore.Hbond>
1.4471

> <Gold.Chemscore.Metal>
0.0000

> <Gold.Chemscore.Lipo>
81.3885

> <Gold.Chemscore.Internal_Hbond>
0.0000

> <Gold.Chemscore.DEClash>
0.4008

> <Gold.Chemscore.DEInternal>
2.3228

> <Gold.Chemscore.Rot>
1.7159

> <Gold.Chemscore.Internal.Correction>
   9.000000E+99

> <Gold.Chemscore.Hbonds>
donor molecule, donor type, donor heavy atom, donor atom, acceptor molecule, acceptor atom, score
      L1  H    21    46       P1  7948  0.13
      P1  H  6896  6909       L1     7  0.21
      P1  H 10752 10763       L1     9  0.88

> <Gold.Chemscore.Hbond.Weighted>
-4.8334

> <Gold.Chemscore.Metal.Weighted>
-0.0000

> <Gold.Chemscore.Lipo.Weighted>
-9.5225

> <Gold.Chemscore.Internal_Hbond.Weighted>
0.0000

> <Gold.Chemscore.DEClash.Weighted>
0.4008

> <Gold.Chemscore.DEInternal.Weighted>
2.3228

> <Gold.Chemscore.Rot.Weighted>
4.3926

> <Gold.Chemscore.Internal.Correction.Weighted>
   9.000000E+99

> <Gold.Protein.RotatedTorsions>
[ 6907 6896 6895 6894 ] final  118.86 input  -60.11 | X-H torsion
[ 7974 7965 7964 7962 ] final -152.83 input  175.53 | X-H torsion
[ 8008 7997 7996 7995 ] final   48.88 input   59.86 | X-H torsion
[ 10167 10162 10161 10158 ] final  -82.79 input  -65.29 | X-H torsion
[ 10718 10713 10712 10709 ] final -169.32 input   66.30 | X-H torsion
[ 10763 10752 10751 10750 ] final   84.85 input  -60.55 | X-H torsion
[ 11005 11000 10999 10996 ] final -120.97 input  -57.11 | X-H torsion

> <Gold.Protein.ActiveResidues>
 VAL166  LYS551  ARG553  GLY616  TRP617  ASP618  TYR619  PRO620  LYS621  CYS622 
 ASP623  PHE694  ASN695  SER759  ASP760  ASP761  ALA762  ILE779  LEU786  VAL792 
 PHE793  MET794  SER795  GLU796  ALA797  LYS798  CYS799  TRP800  GLU811  SER814 

> <Gold.Protein.RotatedAtoms>
  152.4513  133.7635  159.6759 H   0  0  0  0  0  0  0  0  0  0  0  0  # atno 6907 bound_to 6896
  150.8426  133.7902  159.3061 H   0  0  0  0  0  0  0  0  0  0  0  0  # atno 6908 bound_to 6896
  151.5522  135.1070  160.0004 H   0  0  0  0  0  0  0  0  0  0  0  0  # atno 6909 bound_to 6896
  144.7773  140.4609  143.5864 H   0  0  0  0  0  0  0  0  0  0  0  0  # atno 7974 bound_to 7965
  155.3929  140.3434  155.4252 H   0  0  0  0  0  0  0  0  0  0  0  0  # atno 8008 bound_to 7997
  156.1547  140.1582  156.8745 H   0  0  0  0  0  0  0  0  0  0  0  0  # atno 8009 bound_to 7997
  154.5084  140.0796  156.7922 H   0  0  0  0  0  0  0  0  0  0  0  0  # atno 8010 bound_to 7997
  140.4287  143.2557  151.8790 H   0  0  0  0  0  0  0  0  0  0  0  0  # atno 10167 bound_to 10162
  156.7098  130.9229  151.3088 H   0  0  0  0  0  0  0  0  0  0  0  0  # atno 10718 bound_to 10713
  153.1420  135.4639  154.9510 H   0  0  0  0  0  0  0  0  0  0  0  0  # atno 10763 bound_to 10752
  154.7755  135.3172  154.8104 H   0  0  0  0  0  0  0  0  0  0  0  0  # atno 10764 bound_to 10752
  153.8625  135.6911  153.4835 H   0  0  0  0  0  0  0  0  0  0  0  0  # atno 10765 bound_to 10752
  141.0104  134.0273  157.3421 H   0  0  0  0  0  0  0  0  0  0  0  0  # atno 11005 bound_to 11000
  145.6149  139.1517  143.3055 LP  0  0  0  0  0  0  0  0  0  0  0  0  # atno 17320 bound_to 7965
  146.1960  140.6263  142.9124 LP  0  0  0  0  0  0  0  0  0  0  0  0  # atno 17321 bound_to 7965
  139.4784  144.5359  151.8599 LP  0  0  0  0  0  0  0  0  0  0  0  0  # atno 17342 bound_to 10162
  140.4452  144.1931  150.5893 LP  0  0  0  0  0  0  0  0  0  0  0  0  # atno 17343 bound_to 10162
  157.6940  130.9263  150.0593 LP  0  0  0  0  0  0  0  0  0  0  0  0  # atno 17370 bound_to 10713
  156.1669  130.3645  149.9220 LP  0  0  0  0  0  0  0  0  0  0  0  0  # atno 17371 bound_to 10713
  139.9087  135.0185  156.7597 LP  0  0  0  0  0  0  0  0  0  0  0  0  # atno 17394 bound_to 11000
  140.6743  133.9532  155.7874 LP  0  0  0  0  0  0  0  0  0  0  0  0  # atno 17395 bound_to 11000

$$$$
