AV-unprocessed.smi:203|AV-procd|sdf|1594|dock9
  -GOLD-   2262019493D 1   1.00000     0.00000
 Structure written by MMmdl.
 57 61  0  0  0  0  0  0  0  0  1 V2000
  145.2843  131.4763  156.2022 O   0  0  0  0  0  0  0  0  0  0  0  0
  146.2491  132.1624  156.5310 C   0  0  0  0  0  0  0  0  0  0  0  0
  146.1264  133.5660  157.0989 C   0  0  0  0  0  0  0  0  0  0  0  0
  147.5575  133.8916  157.5736 C   0  0  1  0  0  0  0  0  0  0  0  0
  147.7255  133.9608  159.1250 C   0  0  2  0  0  0  0  0  0  0  0  0
  147.2857  132.6532  159.8361 C   0  0  0  0  0  0  0  0  0  0  0  0
  147.4644  132.7450  161.3572 C   0  0  0  0  0  0  0  0  0  0  0  0
  146.7071  133.9620  161.8989 C   0  0  0  0  0  0  0  0  0  0  0  0
  147.1672  135.2384  161.1824 C   0  0  0  0  0  0  0  0  0  0  0  0
  147.0334  135.1128  159.7313 N   0  0  0  0  0  0  0  0  0  0  0  0
  147.2239  136.3116  159.1363 C   0  0  0  0  0  0  0  0  0  0  0  0
  146.1183  136.9862  158.7367 N   0  0  0  0  0  0  0  0  0  0  0  0
  146.2425  138.1712  158.1313 C   0  0  0  0  0  0  0  0  0  0  0  0
  147.3559  138.8471  157.8382 N   0  0  0  0  0  0  0  0  0  0  0  0
  148.4684  138.1729  158.2482 C   0  0  0  0  0  0  0  0  0  0  0  0
  148.4944  136.9093  158.9022 C   0  0  0  0  0  0  0  0  0  0  0  0
  149.8076  136.5385  159.1665 N   0  0  0  0  0  0  0  0  0  0  0  0
  150.5180  137.5249  158.6913 C   0  0  0  0  0  0  0  0  0  0  0  0
  149.7943  138.5461  158.1190 N   0  0  0  0  0  0  0  0  0  0  0  0
  150.3311  139.7520  157.5123 C   0  0  0  0  0  0  0  0  0  0  0  0
  151.8725  139.8060  157.5780 C   0  0  1  0  0  0  0  0  0  0  0  0
  152.3758  139.5843  156.2744 O   0  0  0  0  0  0  0  0  0  0  0  0
  152.4141  141.1649  158.0659 C   0  0  1  0  0  0  0  0  0  0  0  0
  151.6224  142.3838  157.5866 C   0  0  0  0  0  0  0  0  0  0  0  0
  151.9208  143.4421  158.6355 C   0  0  0  0  0  0  0  0  0  0  0  0
  152.4398  142.6382  159.8296 C   0  0  0  0  0  0  0  0  0  0  0  0
  152.2469  141.2767  159.4719 O   0  0  0  0  0  0  0  0  0  0  0  0
  148.4481  132.8181  156.9118 C   0  0  0  0  0  0  0  0  0  0  0  0
  147.5273  131.7996  156.4454 N   0  0  0  0  0  0  0  0  0  0  0  0
  145.8125  134.2460  156.3064 H   0  0  0  0  0  0  0  0  0  0  0  0
  145.3838  133.6118  157.8959 H   0  0  0  0  0  0  0  0  0  0  0  0
  147.8562  134.8471  157.1416 H   0  0  0  0  0  0  0  0  0  0  0  0
  148.7891  134.0891  159.3293 H   0  0  0  0  0  0  0  0  0  0  0  0
  146.2386  132.4394  159.6211 H   0  0  0  0  0  0  0  0  0  0  0  0
  147.8522  131.7991  159.4670 H   0  0  0  0  0  0  0  0  0  0  0  0
  147.1030  131.8336  161.8343 H   0  0  0  0  0  0  0  0  0  0  0  0
  148.5242  132.8288  161.6010 H   0  0  0  0  0  0  0  0  0  0  0  0
  145.6346  133.8248  161.7529 H   0  0  0  0  0  0  0  0  0  0  0  0
  146.8665  134.0568  162.9732 H   0  0  0  0  0  0  0  0  0  0  0  0
  146.5805  136.0862  161.5394 H   0  0  0  0  0  0  0  0  0  0  0  0
  148.2087  135.4448  161.4336 H   0  0  0  0  0  0  0  0  0  0  0  0
  145.3172  138.6447  157.8381 H   0  0  0  0  0  0  0  0  0  0  0  0
  151.5973  137.5342  158.7413 H   0  0  0  0  0  0  0  0  0  0  0  0
  149.9894  139.8104  156.4780 H   0  0  0  0  0  0  0  0  0  0  0  0
  149.8933  140.6044  158.0321 H   0  0  0  0  0  0  0  0  0  0  0  0
  152.2319  139.0115  158.2334 H   0  0  0  0  0  0  0  0  0  0  0  0
  152.4192  138.6523  156.1238 H   0  0  0  0  0  0  0  0  0  0  0  0
  153.4680  141.2855  157.8063 H   0  0  0  0  0  0  0  0  0  0  0  0
  151.8989  142.6993  156.5801 H   0  0  0  0  0  0  0  0  0  0  0  0
  150.5542  142.1620  157.5896 H   0  0  0  0  0  0  0  0  0  0  0  0
  152.6815  144.1422  158.2883 H   0  0  0  0  0  0  0  0  0  0  0  0
  151.0257  144.0127  158.8849 H   0  0  0  0  0  0  0  0  0  0  0  0
  153.5035  142.8232  159.9854 H   0  0  0  0  0  0  0  0  0  0  0  0
  151.9131  142.8761  160.7541 H   0  0  0  0  0  0  0  0  0  0  0  0
  148.9767  133.2301  156.0513 H   0  0  0  0  0  0  0  0  0  0  0  0
  149.1957  132.4005  157.5862 H   0  0  0  0  0  0  0  0  0  0  0  0
  147.8385  130.9050  156.0952 H   0  0  0  0  0  0  0  0  0  0  0  0
  1  2  2  0  0  0  0
  2 29  1  0  0  0  0
  2  3  1  0  0  0  0
  3  4  1  0  0  0  0
  3 30  1  0  0  0  0
  3 31  1  0  0  0  0
  4  5  1  0  0  0  0
  4 28  1  0  0  0  0
  4 32  1  0  0  0  0
  5 10  1  0  0  0  0
  5  6  1  0  0  0  0
  5 33  1  0  0  0  0
  6  7  1  0  0  0  0
  6 34  1  0  0  0  0
  6 35  1  0  0  0  0
  7  8  1  0  0  0  0
  7 36  1  0  0  0  0
  7 37  1  0  0  0  0
  8  9  1  0  0  0  0
  8 38  1  0  0  0  0
  8 39  1  0  0  0  0
  9 10  1  0  0  0  0
  9 40  1  0  0  0  0
  9 41  1  0  0  0  0
 10 11  1  0  0  0  0
 11 16  1  0  0  0  0
 11 12  2  0  0  0  0
 12 13  1  0  0  0  0
 13 14  2  0  0  0  0
 13 42  1  0  0  0  0
 14 15  1  0  0  0  0
 15 19  1  0  0  0  0
 15 16  2  0  0  0  0
 16 17  1  0  0  0  0
 17 18  2  0  0  0  0
 18 19  1  0  0  0  0
 18 43  1  0  0  0  0
 19 20  1  0  0  0  0
 20 21  1  0  0  0  0
 20 44  1  0  0  0  0
 20 45  1  0  0  0  0
 21 22  1  0  0  0  0
 21 23  1  0  0  0  0
 21 46  1  0  0  0  0
 22 47  1  0  0  0  0
 23 27  1  0  0  0  0
 23 24  1  0  0  0  0
 23 48  1  0  0  0  0
 24 25  1  0  0  0  0
 24 49  1  0  0  0  0
 24 50  1  0  0  0  0
 25 26  1  0  0  0  0
 25 51  1  0  0  0  0
 25 52  1  0  0  0  0
 26 27  1  0  0  0  0
 26 53  1  0  0  0  0
 26 54  1  0  0  0  0
 28 29  1  0  0  0  0
 28 55  1  0  0  0  0
 28 56  1  0  0  0  0
 29 57  1  0  0  0  0
M  END
> <s_m_source_file>
AV-unprocessed.smi

> <i_m_source_file_index>
203

> <i_lp_mmshare_version>
43012

> <i_f3d_flags>
0

> <s_epik_input>
Tz1DMVtDSDJdW0NASF0oW0NIMl1bTkhdMSlbQ0BASF0yW0NIMl1bQ0gyXVtDSDJdW0NIMl1OMmMobltjSF1uMyljKGMzNCluW2NIXW40W0NIMl1bQ0BIXShbT0hdKVtDQEBIXTVbQ0gyXVtDSDJdW0NIMl1PNQ==

> <s_epik_cmdline>
J2VwaWtfcHl0aG9uJywgJy1waCcsICc3LjAnLCAnLXRuJywgJzgnLCAnLW1hJywgJzIwMCcsICctbWV0YWxfYmluZGluZycsICctaW1hZScsICc8aW5maWxlLm1hZT4nLCAnLW9tYWUnLCAnPG91dGZpbGUubWFlPic=

> <r_lp_tautomer_probability>
1

> <r_epik_Ionization_Penalty>
0.00175146

> <r_epik_Ionization_Penalty_Charging>
0

> <r_epik_Ionization_Penalty_Neutral>
0.00175146

> <r_epik_State_Penalty>
0.00109045

> <r_epik_Charging_Adjusted_Penalty>
0.00109045

> <i_epik_Tot_Q>
0

> <i_epik_Tot_abs_Q>
0

> <r_epik_Metal_State_Penalty>
-0

> <b_epik_Metal_Only>
0

> <s_lp_Force_Field>
OPLS_2005

> <r_lp_Energy>
57.3178

> <b_lp_Chiralities_Consistent>
1

> <s_lp_Variant>
AV-unprocessed.smi:203-13

> <Gold.Version>
5.8.1

> <Gold.Id.Protein>
6NUR|6NUR_protein|mol2

> <Gold.PLP.Fitness>
40.3487

> <Gold.PLP.PLP>
-36.7796

> <Gold.PLP.part.hbond>
-2.8375

> <Gold.PLP.part.metal>
0.0000

> <Gold.PLP.part.buried>
-6.2899

> <Gold.PLP.part.nonpolar>
-28.0623

> <Gold.PLP.part.repulsive>
0.1603

> <Gold.PLP.ligand.clash>
0.0000

> <Gold.PLP.ligand.torsion>
1.3507

> <Gold.PLP.Chemscore.Hbond>
2.0000

> <Gold.PLP.Chemscore.CHOScore>
0.0000

> <Gold.PLP.Chemscore.Metal>
0.0000

> <Gold.Chemscore.Hbonds>
donor molecule, donor type, donor heavy atom, donor atom, acceptor molecule, acceptor atom, score
      P1  H  6896  6907       L1    17  0.94
      P1  H  7997  8008       L1    22  0.96

> <Gold.PLP.Chemscore.Internal.Correction>
0.2705

> <Gold.Rescore>
     Score         DG    S(hbond)    S(metal)    S(lipo)     H(rot)  DE(clash)    DE(int)     intcor
     14.16     -15.61       1.86        0.00      92.85       2.72       0.01       1.44       ----

> <Gold.Chemscore.Fitness>
14.1605

> <Gold.Chemscore.DG>
-15.6118

> <Gold.Chemscore.ZeroCoef>
-5.4800

> <Gold.Chemscore.Hbond>
1.8633

> <Gold.Chemscore.Metal>
0.0000

> <Gold.Chemscore.Lipo>
92.8537

> <Gold.Chemscore.Internal_Hbond>
0.0000

> <Gold.Chemscore.DEClash>
0.0081

> <Gold.Chemscore.DEInternal>
1.4431

> <Gold.Chemscore.Rot>
2.7171

> <Gold.Chemscore.Internal.Correction>
   9.000000E+99

> <Gold.Chemscore.Hbonds>
donor molecule, donor type, donor heavy atom, donor atom, acceptor molecule, acceptor atom, score
      P1  H  6896  6907       L1    17  0.86
      P1  H  7997  8008       L1    22  0.13

> <Gold.Chemscore.Hbond.Weighted>
-6.2236

> <Gold.Chemscore.Metal.Weighted>
-0.0000

> <Gold.Chemscore.Lipo.Weighted>
-10.8639

> <Gold.Chemscore.Internal_Hbond.Weighted>
0.0000

> <Gold.Chemscore.DEClash.Weighted>
0.0081

> <Gold.Chemscore.DEInternal.Weighted>
1.4431

> <Gold.Chemscore.Rot.Weighted>
6.9557

> <Gold.Chemscore.Internal.Correction.Weighted>
   9.000000E+99

> <Gold.Protein.RotatedTorsions>
[ 6907 6896 6895 6894 ] final  -56.06 input  -60.11 | X-H torsion
[ 7974 7965 7964 7962 ] final   -6.76 input  175.53 | X-H torsion
[ 8008 7997 7996 7995 ] final  -51.79 input   59.86 | X-H torsion
[ 10167 10162 10161 10158 ] final  -59.78 input  -65.29 | X-H torsion
[ 10718 10713 10712 10709 ] final  -59.57 input   66.30 | X-H torsion
[ 10763 10752 10751 10750 ] final  -47.72 input  -60.55 | X-H torsion
[ 11005 11000 10999 10996 ] final -175.89 input  -57.11 | X-H torsion

> <Gold.Protein.ActiveResidues>
 VAL166  LYS551  ARG553  GLY616  TRP617  ASP618  TYR619  PRO620  LYS621  CYS622 
 ASP623  PHE694  ASN695  SER759  ASP760  ASP761  ALA762  ILE779  LEU786  VAL792 
 PHE793  MET794  SER795  GLU796  ALA797  LYS798  CYS799  TRP800  GLU811  SER814 

> <Gold.Protein.RotatedAtoms>
  150.8199  134.7401  159.6762 H   0  0  0  0  0  0  0  0  0  0  0  0  # atno 6907 bound_to 6896
  152.4315  134.5764  159.9945 H   0  0  0  0  0  0  0  0  0  0  0  0  # atno 6908 bound_to 6896
  151.5951  133.3325  159.3071 H   0  0  0  0  0  0  0  0  0  0  0  0  # atno 6909 bound_to 6896
  146.2323  140.2219  142.8337 H   0  0  0  0  0  0  0  0  0  0  0  0  # atno 7974 bound_to 7965
  154.4091  140.1239  156.4886 H   0  0  0  0  0  0  0  0  0  0  0  0  # atno 8008 bound_to 7997
  155.7013  140.3494  155.4914 H   0  0  0  0  0  0  0  0  0  0  0  0  # atno 8009 bound_to 7997
  155.9383  140.1082  157.1067 H   0  0  0  0  0  0  0  0  0  0  0  0  # atno 8010 bound_to 7997
  140.6113  143.2388  151.5701 H   0  0  0  0  0  0  0  0  0  0  0  0  # atno 10167 bound_to 10162
  156.1052  130.4181  150.0733 H   0  0  0  0  0  0  0  0  0  0  0  0  # atno 10718 bound_to 10713
  154.0661  135.6611  153.4818 H   0  0  0  0  0  0  0  0  0  0  0  0  # atno 10763 bound_to 10752
  153.0408  135.5146  154.7612 H   0  0  0  0  0  0  0  0  0  0  0  0  # atno 10764 bound_to 10752
  154.6664  135.3022  154.9767 H   0  0  0  0  0  0  0  0  0  0  0  0  # atno 10765 bound_to 10752
  140.4582  134.6279  157.4831 H   0  0  0  0  0  0  0  0  0  0  0  0  # atno 11005 bound_to 11000
  144.9625  140.8289  143.5505 LP  0  0  0  0  0  0  0  0  0  0  0  0  # atno 17320 bound_to 7965
  145.2191  139.2167  143.5102 LP  0  0  0  0  0  0  0  0  0  0  0  0  # atno 17321 bound_to 7965
  139.5364  144.2770  152.1259 LP  0  0  0  0  0  0  0  0  0  0  0  0  # atno 17342 bound_to 10162
  140.1970  144.4696  150.6450 LP  0  0  0  0  0  0  0  0  0  0  0  0  # atno 17343 bound_to 10162
  156.8710  130.9524  151.3609 LP  0  0  0  0  0  0  0  0  0  0  0  0  # atno 17370 bound_to 10713
  157.6228  130.8668  149.9138 LP  0  0  0  0  0  0  0  0  0  0  0  0  # atno 17371 bound_to 10713
  139.9962  134.6907  155.9605 LP  0  0  0  0  0  0  0  0  0  0  0  0  # atno 17394 bound_to 11000
  141.1633  133.6538  156.4393 LP  0  0  0  0  0  0  0  0  0  0  0  0  # atno 17395 bound_to 11000

$$$$
