AV-unprocessed.smi:203|AV-procd|sdf|1582|dock6
  -GOLD-   2262019473D 1   1.00000     0.00000
 Structure written by MMmdl.
 57 61  0  0  0  0  0  0  0  0  1 V2000
  151.3947  139.8486  155.0009 O   0  0  0  0  0  0  0  0  0  0  0  0
  151.2423  138.6750  155.3313 C   0  0  0  0  0  0  0  0  0  0  0  0
  151.4877  138.1617  156.7396 C   0  0  0  0  0  0  0  0  0  0  0  0
  150.9398  136.7201  156.7013 C   0  0  1  0  0  0  0  0  0  0  0  0
  149.6424  136.4974  157.5418 C   0  0  2  0  0  0  0  0  0  0  0  0
  149.5290  137.4735  158.7429 C   0  0  0  0  0  0  0  0  0  0  0  0
  148.2439  137.2380  159.5471 C   0  0  0  0  0  0  0  0  0  0  0  0
  148.1752  135.7768  160.0026 C   0  0  0  0  0  0  0  0  0  0  0  0
  148.2855  134.8358  158.7960 C   0  0  0  0  0  0  0  0  0  0  0  0
  149.4914  135.1093  158.0144 N   0  0  0  0  0  0  0  0  0  0  0  0
  149.6818  134.1356  157.0963 C   0  0  0  0  0  0  0  0  0  0  0  0
  150.5785  133.1655  157.3999 N   0  0  0  0  0  0  0  0  0  0  0  0
  150.8107  132.1770  156.5308 C   0  0  0  0  0  0  0  0  0  0  0  0
  150.2602  131.9721  155.3318 N   0  0  0  0  0  0  0  0  0  0  0  0
  149.3508  132.9430  155.0302 C   0  0  0  0  0  0  0  0  0  0  0  0
  149.0047  134.0552  155.8470 C   0  0  0  0  0  0  0  0  0  0  0  0
  148.0468  134.8339  155.2091 N   0  0  0  0  0  0  0  0  0  0  0  0
  147.8354  134.2147  154.0803 C   0  0  0  0  0  0  0  0  0  0  0  0
  148.5625  133.0596  153.8988 N   0  0  0  0  0  0  0  0  0  0  0  0
  148.5132  132.1724  152.7497 C   0  0  0  0  0  0  0  0  0  0  0  0
  147.1462  131.4724  152.5674 C   0  0  2  0  0  0  0  0  0  0  0  0
  147.3666  130.0824  152.4456 O   0  0  0  0  0  0  0  0  0  0  0  0
  146.2665  131.9421  151.3841 C   0  0  2  0  0  0  0  0  0  0  0  0
  145.8603  133.4177  151.3706 C   0  0  0  0  0  0  0  0  0  0  0  0
  144.6517  133.3828  150.4621 C   0  0  0  0  0  0  0  0  0  0  0  0
  143.9932  132.0620  150.8553 C   0  0  0  0  0  0  0  0  0  0  0  0
  145.0462  131.2104  151.3003 O   0  0  0  0  0  0  0  0  0  0  0  0
  150.7575  136.4038  155.2012 C   0  0  0  0  0  0  0  0  0  0  0  0
  150.8496  137.6861  154.5309 N   0  0  0  0  0  0  0  0  0  0  0  0
  152.5592  138.1684  156.9421 H   0  0  0  0  0  0  0  0  0  0  0  0
  151.0005  138.7914  157.4843 H   0  0  0  0  0  0  0  0  0  0  0  0
  151.7162  136.0463  157.0643 H   0  0  0  0  0  0  0  0  0  0  0  0
  148.7945  136.7026  156.8876 H   0  0  0  0  0  0  0  0  0  0  0  0
  150.3835  137.3545  159.4092 H   0  0  0  0  0  0  0  0  0  0  0  0
  149.5479  138.5094  158.4067 H   0  0  0  0  0  0  0  0  0  0  0  0
  148.2118  137.9035  160.4101 H   0  0  0  0  0  0  0  0  0  0  0  0
  147.3742  137.4766  158.9335 H   0  0  0  0  0  0  0  0  0  0  0  0
  148.9841  135.5702  160.7046 H   0  0  0  0  0  0  0  0  0  0  0  0
  147.2428  135.5931  160.5368 H   0  0  0  0  0  0  0  0  0  0  0  0
  148.2920  133.8011  159.1423 H   0  0  0  0  0  0  0  0  0  0  0  0
  147.4071  134.9513  158.1591 H   0  0  0  0  0  0  0  0  0  0  0  0
  151.5402  131.4437  156.8417 H   0  0  0  0  0  0  0  0  0  0  0  0
  147.1270  134.5801  153.3512 H   0  0  0  0  0  0  0  0  0  0  0  0
  148.7679  132.7485  151.8593 H   0  0  0  0  0  0  0  0  0  0  0  0
  149.3010  131.4270  152.8653 H   0  0  0  0  0  0  0  0  0  0  0  0
  146.5673  131.6074  153.4812 H   0  0  0  0  0  0  0  0  0  0  0  0
  148.0610  129.9426  151.8206 H   0  0  0  0  0  0  0  0  0  0  0  0
  146.7944  131.7286  150.4527 H   0  0  0  0  0  0  0  0  0  0  0  0
  145.5623  133.7645  152.3592 H   0  0  0  0  0  0  0  0  0  0  0  0
  146.6512  134.0722  151.0038 H   0  0  0  0  0  0  0  0  0  0  0  0
  143.9924  134.2417  150.5892 H   0  0  0  0  0  0  0  0  0  0  0  0
  144.9702  133.3470  149.4193 H   0  0  0  0  0  0  0  0  0  0  0  0
  143.2978  132.2123  151.6814 H   0  0  0  0  0  0  0  0  0  0  0  0
  143.4420  131.6125  150.0292 H   0  0  0  0  0  0  0  0  0  0  0  0
  151.5627  135.7628  154.8395 H   0  0  0  0  0  0  0  0  0  0  0  0
  149.8155  135.9035  154.9761 H   0  0  0  0  0  0  0  0  0  0  0  0
  150.6325  137.8043  153.5519 H   0  0  0  0  0  0  0  0  0  0  0  0
  1  2  2  0  0  0  0
  2 29  1  0  0  0  0
  2  3  1  0  0  0  0
  3  4  1  0  0  0  0
  3 30  1  0  0  0  0
  3 31  1  0  0  0  0
  4  5  1  0  0  0  0
  4 28  1  0  0  0  0
  4 32  1  0  0  0  0
  5 10  1  0  0  0  0
  5  6  1  0  0  0  0
  5 33  1  0  0  0  0
  6  7  1  0  0  0  0
  6 34  1  0  0  0  0
  6 35  1  0  0  0  0
  7  8  1  0  0  0  0
  7 36  1  0  0  0  0
  7 37  1  0  0  0  0
  8  9  1  0  0  0  0
  8 38  1  0  0  0  0
  8 39  1  0  0  0  0
  9 10  1  0  0  0  0
  9 40  1  0  0  0  0
  9 41  1  0  0  0  0
 10 11  1  0  0  0  0
 11 16  1  0  0  0  0
 11 12  2  0  0  0  0
 12 13  1  0  0  0  0
 13 14  2  0  0  0  0
 13 42  1  0  0  0  0
 14 15  1  0  0  0  0
 15 19  1  0  0  0  0
 15 16  2  0  0  0  0
 16 17  1  0  0  0  0
 17 18  2  0  0  0  0
 18 19  1  0  0  0  0
 18 43  1  0  0  0  0
 19 20  1  0  0  0  0
 20 21  1  0  0  0  0
 20 44  1  0  0  0  0
 20 45  1  0  0  0  0
 21 22  1  0  0  0  0
 21 23  1  0  0  0  0
 21 46  1  0  0  0  0
 22 47  1  0  0  0  0
 23 27  1  0  0  0  0
 23 24  1  0  0  0  0
 23 48  1  0  0  0  0
 24 25  1  0  0  0  0
 24 49  1  0  0  0  0
 24 50  1  0  0  0  0
 25 26  1  0  0  0  0
 25 51  1  0  0  0  0
 25 52  1  0  0  0  0
 26 27  1  0  0  0  0
 26 53  1  0  0  0  0
 26 54  1  0  0  0  0
 28 29  1  0  0  0  0
 28 55  1  0  0  0  0
 28 56  1  0  0  0  0
 29 57  1  0  0  0  0
M  END
> <s_m_source_file>
AV-unprocessed.smi

> <i_m_source_file_index>
203

> <i_lp_mmshare_version>
43012

> <i_f3d_flags>
0

> <s_epik_input>
Tz1DMVtDSDJdW0NASF0oW0NIMl1bTkhdMSlbQ0BASF0yW0NIMl1bQ0gyXVtDSDJdW0NIMl1OMmMobltjSF1uMyljKGMzNCluW2NIXW40W0NIMl1bQ0BIXShbT0hdKVtDQEBIXTVbQ0gyXVtDSDJdW0NIMl1PNQ==

> <s_epik_cmdline>
J2VwaWtfcHl0aG9uJywgJy1waCcsICc3LjAnLCAnLXRuJywgJzgnLCAnLW1hJywgJzIwMCcsICctbWV0YWxfYmluZGluZycsICctaW1hZScsICc8aW5maWxlLm1hZT4nLCAnLW9tYWUnLCAnPG91dGZpbGUubWFlPic=

> <r_lp_tautomer_probability>
1

> <r_epik_Ionization_Penalty>
0.00175146

> <r_epik_Ionization_Penalty_Charging>
0

> <r_epik_Ionization_Penalty_Neutral>
0.00175146

> <r_epik_State_Penalty>
0.00109045

> <r_epik_Charging_Adjusted_Penalty>
0.00109045

> <i_epik_Tot_Q>
0

> <i_epik_Tot_abs_Q>
0

> <r_epik_Metal_State_Penalty>
-0

> <b_epik_Metal_Only>
0

> <s_lp_Force_Field>
OPLS_2005

> <r_lp_Energy>
56.5802

> <b_lp_Chiralities_Consistent>
1

> <s_lp_Variant>
AV-unprocessed.smi:203-1

> <Gold.Version>
5.8.1

> <Gold.Id.Protein>
6NUR|6NUR_protein|mol2

> <Gold.PLP.Fitness>
42.8771

> <Gold.PLP.PLP>
-36.3073

> <Gold.PLP.part.hbond>
-4.0000

> <Gold.PLP.part.metal>
0.0000

> <Gold.PLP.part.buried>
-1.9191

> <Gold.PLP.part.nonpolar>
-31.6856

> <Gold.PLP.part.repulsive>
0.3188

> <Gold.PLP.ligand.clash>
0.0000

> <Gold.PLP.ligand.torsion>
1.7909

> <Gold.PLP.Chemscore.Hbond>
3.0666

> <Gold.PLP.Chemscore.CHOScore>
0.2201

> <Gold.PLP.Chemscore.Metal>
0.0000

> <Gold.Chemscore.Hbonds>
donor molecule, donor type, donor heavy atom, donor atom, acceptor molecule, acceptor atom, score
      L1  H    22    47       P1 10747  0.85
      P1  H  6896  6908       L1    12  0.96
      P1  H  6896  6909       L1    10  0.06
      P1  H  7989  7998       L1     1  1.00
      L1  C    18    43       P1  7948  0.07

> <Gold.PLP.Chemscore.Internal.Correction>
0.2915

> <Gold.Rescore>
     Score         DG    S(hbond)    S(metal)    S(lipo)     H(rot)  DE(clash)    DE(int)     intcor
     12.63     -16.02       2.62        0.00      74.87       2.72       0.40       2.98       ----

> <Gold.Chemscore.Fitness>
12.6335

> <Gold.Chemscore.DG>
-16.0202

> <Gold.Chemscore.ZeroCoef>
-5.4800

> <Gold.Chemscore.Hbond>
2.6154

> <Gold.Chemscore.Metal>
0.0000

> <Gold.Chemscore.Lipo>
74.8743

> <Gold.Chemscore.Internal_Hbond>
0.0000

> <Gold.Chemscore.DEClash>
0.4022

> <Gold.Chemscore.DEInternal>
2.9846

> <Gold.Chemscore.Rot>
2.7171

> <Gold.Chemscore.Internal.Correction>
   9.000000E+99

> <Gold.Chemscore.Hbonds>
donor molecule, donor type, donor heavy atom, donor atom, acceptor molecule, acceptor atom, score
      L1  H    22    47       P1 10747  0.73
      P1  H  6896  6908       L1    12  0.64
      P1  H  7989  7998       L1     1  1.00

> <Gold.Chemscore.Hbond.Weighted>
-8.7356

> <Gold.Chemscore.Metal.Weighted>
-0.0000

> <Gold.Chemscore.Lipo.Weighted>
-8.7603

> <Gold.Chemscore.Internal_Hbond.Weighted>
0.0000

> <Gold.Chemscore.DEClash.Weighted>
0.4022

> <Gold.Chemscore.DEInternal.Weighted>
2.9846

> <Gold.Chemscore.Rot.Weighted>
6.9557

> <Gold.Chemscore.Internal.Correction.Weighted>
   9.000000E+99

> <Gold.Protein.RotatedTorsions>
[ 6907 6896 6895 6894 ] final   87.18 input  -60.11 | X-H torsion
[ 7974 7965 7964 7962 ] final  -27.39 input  175.53 | X-H torsion
[ 8008 7997 7996 7995 ] final   -3.98 input   59.86 | X-H torsion
[ 10167 10162 10161 10158 ] final -116.66 input  -65.29 | X-H torsion
[ 10718 10713 10712 10709 ] final   33.37 input   66.30 | X-H torsion
[ 10763 10752 10751 10750 ] final   74.71 input  -60.55 | X-H torsion
[ 11005 11000 10999 10996 ] final -153.25 input  -57.11 | X-H torsion

> <Gold.Protein.ActiveResidues>
 VAL166  LYS551  ARG553  GLY616  TRP617  ASP618  TYR619  PRO620  LYS621  CYS622 
 ASP623  PHE694  ASN695  SER759  ASP760  ASP761  ALA762  ILE779  LEU786  VAL792 
 PHE793  MET794  SER795  GLU796  ALA797  LYS798  CYS799  TRP800  GLU811  SER814 

> <Gold.Protein.RotatedAtoms>
  152.5407  134.2316  159.8826 H   0  0  0  0  0  0  0  0  0  0  0  0  # atno 6907 bound_to 6896
  151.2288  133.4455  159.2610 H   0  0  0  0  0  0  0  0  0  0  0  0  # atno 6908 bound_to 6896
  151.0735  134.9827  159.8376 H   0  0  0  0  0  0  0  0  0  0  0  0  # atno 6909 bound_to 6896
  146.1361  140.5145  142.8672 H   0  0  0  0  0  0  0  0  0  0  0  0  # atno 7974 bound_to 7965
  154.6192  140.2495  155.7571 H   0  0  0  0  0  0  0  0  0  0  0  0  # atno 8008 bound_to 7997
  156.2416  140.2930  156.0410 H   0  0  0  0  0  0  0  0  0  0  0  0  # atno 8009 bound_to 7997
  155.1925  140.0392  157.2893 H   0  0  0  0  0  0  0  0  0  0  0  0  # atno 8010 bound_to 7997
  140.0767  143.4826  152.1949 H   0  0  0  0  0  0  0  0  0  0  0  0  # atno 10167 bound_to 10162
  157.2970  130.7331  149.6644 H   0  0  0  0  0  0  0  0  0  0  0  0  # atno 10718 bound_to 10713
  153.0605  135.5015  154.8083 H   0  0  0  0  0  0  0  0  0  0  0  0  # atno 10763 bound_to 10752
  154.6875  135.2979  154.9528 H   0  0  0  0  0  0  0  0  0  0  0  0  # atno 10764 bound_to 10752
  154.0294  135.6731  153.4832 H   0  0  0  0  0  0  0  0  0  0  0  0  # atno 10765 bound_to 10752
  140.7102  134.3841  157.5198 H   0  0  0  0  0  0  0  0  0  0  0  0  # atno 11005 bound_to 11000
  144.7741  140.5702  143.6650 LP  0  0  0  0  0  0  0  0  0  0  0  0  # atno 17320 bound_to 7965
  145.5152  139.1478  143.3582 LP  0  0  0  0  0  0  0  0  0  0  0  0  # atno 17321 bound_to 7965
  139.5803  144.7507  151.3656 LP  0  0  0  0  0  0  0  0  0  0  0  0  # atno 17342 bound_to 10162
  140.7098  143.7420  150.7547 LP  0  0  0  0  0  0  0  0  0  0  0  0  # atno 17343 bound_to 10162
  155.9669  130.4291  150.4819 LP  0  0  0  0  0  0  0  0  0  0  0  0  # atno 17370 bound_to 10713
  157.2793  131.0603  151.2208 LP  0  0  0  0  0  0  0  0  0  0  0  0  # atno 17371 bound_to 10713
  139.8874  134.8884  156.2532 LP  0  0  0  0  0  0  0  0  0  0  0  0  # atno 17394 bound_to 11000
  141.0091  133.7106  156.1082 LP  0  0  0  0  0  0  0  0  0  0  0  0  # atno 17395 bound_to 11000

$$$$
