AV-unprocessed.smi:1041|AV-procd|sdf|4532|dock2
  -GOLD-   22720 2553D 1   1.00000     0.00000
 Structure written by MMmdl.
 52 53  0  0  0  0  0  0  0  0  1 V2000
  147.6800  127.5853  151.5393 C   0  0  0  0  0  0  0  0  0  0  0  0
  146.8301  128.6107  152.0221 O   0  0  0  0  0  0  0  0  0  0  0  0
  147.4496  129.4051  153.0205 C   0  0  0  0  0  0  0  0  0  0  0  0
  146.8987  130.8388  152.9483 C   0  0  0  0  0  0  0  0  0  0  0  0
  147.5348  131.8034  153.8466 N   0  0  0  0  0  0  0  0  0  0  0  0
  147.1454  133.1684  153.4945 C   0  0  0  0  0  0  0  0  0  0  0  0
  147.7242  134.2160  154.4592 C   0  0  0  0  0  0  0  0  0  0  0  0
  149.2606  134.1304  154.5045 C   0  0  0  0  0  0  0  0  0  0  0  0
  149.8466  135.1507  155.5008 C   0  0  0  0  0  0  0  0  0  0  0  0
  149.7904  136.5127  154.9803 N   0  0  0  0  0  0  0  0  0  0  0  0
  150.8368  137.2310  154.5438 C   0  0  0  0  0  0  0  0  0  0  0  0
  151.9945  136.8146  154.5382 O   0  0  0  0  0  0  0  0  0  0  0  0
  150.5248  138.6309  154.0120 C   0  0  0  0  0  0  0  0  0  0  0  0
  150.4522  139.7390  155.0617 C   0  0  0  0  0  0  0  0  0  0  0  0
  149.4004  140.6042  155.1556 C   0  0  0  0  0  0  0  0  0  0  0  0
  148.2034  140.5488  154.2223 C   0  0  0  0  0  0  0  0  0  0  0  0
  149.3600  141.6084  156.1330 N   0  0  0  0  0  0  0  0  0  0  0  0
  150.3470  141.7100  156.9611 C   0  0  0  0  0  0  0  0  0  0  0  0
  150.4247  142.7490  158.0596 C   0  0  0  0  0  0  0  0  0  0  0  0
  151.4513  140.8608  156.9178 N   0  0  0  0  0  0  0  0  0  0  0  0
  151.5775  139.8692  156.0078 C   0  0  0  0  0  0  0  0  0  0  0  0
  152.5809  139.1577  155.9995 O   0  0  0  0  0  0  0  0  0  0  0  0
  149.6695  132.6750  154.8135 C   0  0  0  0  0  0  0  0  0  0  0  0
  148.9956  131.6919  153.8409 C   0  0  0  0  0  0  0  0  0  0  0  0
  152.1948  140.9899  157.5884 H   0  0  0  0  0  0  0  0  0  0  0  0
  147.1597  127.0077  150.7752 H   0  0  0  0  0  0  0  0  0  0  0  0
  147.9681  126.9025  152.3396 H   0  0  0  0  0  0  0  0  0  0  0  0
  148.5835  128.0000  151.0906 H   0  0  0  0  0  0  0  0  0  0  0  0
  147.2913  128.9708  154.0080 H   0  0  0  0  0  0  0  0  0  0  0  0
  148.5277  129.4258  152.8550 H   0  0  0  0  0  0  0  0  0  0  0  0
  146.9613  131.1976  151.9199 H   0  0  0  0  0  0  0  0  0  0  0  0
  145.8344  130.7883  153.1815 H   0  0  0  0  0  0  0  0  0  0  0  0
  147.4659  133.3942  152.4762 H   0  0  0  0  0  0  0  0  0  0  0  0
  146.0579  133.2526  153.5005 H   0  0  0  0  0  0  0  0  0  0  0  0
  147.4128  135.2138  154.1483 H   0  0  0  0  0  0  0  0  0  0  0  0
  147.3125  134.0587  155.4572 H   0  0  0  0  0  0  0  0  0  0  0  0
  149.6351  134.3800  153.5100 H   0  0  0  0  0  0  0  0  0  0  0  0
  149.2673  135.1340  156.4243 H   0  0  0  0  0  0  0  0  0  0  0  0
  150.8647  134.8717  155.7777 H   0  0  0  0  0  0  0  0  0  0  0  0
  148.8771  136.9414  154.9359 H   0  0  0  0  0  0  0  0  0  0  0  0
  151.2822  138.8958  153.2737 H   0  0  0  0  0  0  0  0  0  0  0  0
  149.5958  138.5818  153.4427 H   0  0  0  0  0  0  0  0  0  0  0  0
  147.6792  139.5988  154.3263 H   0  0  0  0  0  0  0  0  0  0  0  0
  148.5195  140.6607  153.1851 H   0  0  0  0  0  0  0  0  0  0  0  0
  147.4931  141.3470  154.4413 H   0  0  0  0  0  0  0  0  0  0  0  0
  150.3700  143.7508  157.6328 H   0  0  0  0  0  0  0  0  0  0  0  0
  151.3546  142.6698  158.6246 H   0  0  0  0  0  0  0  0  0  0  0  0
  149.5925  142.6251  158.7530 H   0  0  0  0  0  0  0  0  0  0  0  0
  150.7512  132.5591  154.7475 H   0  0  0  0  0  0  0  0  0  0  0  0
  149.3924  132.4217  155.8380 H   0  0  0  0  0  0  0  0  0  0  0  0
  149.2968  130.6832  154.1206 H   0  0  0  0  0  0  0  0  0  0  0  0
  149.3762  131.8597  152.8322 H   0  0  0  0  0  0  0  0  0  0  0  0
  1  2  1  0  0  0  0
  1 26  1  0  0  0  0
  1 27  1  0  0  0  0
  1 28  1  0  0  0  0
  2  3  1  0  0  0  0
  3  4  1  0  0  0  0
  3 29  1  0  0  0  0
  3 30  1  0  0  0  0
  4  5  1  0  0  0  0
  4 31  1  0  0  0  0
  4 32  1  0  0  0  0
  5 24  1  0  0  0  0
  5  6  1  0  0  0  0
  6  7  1  0  0  0  0
  6 33  1  0  0  0  0
  6 34  1  0  0  0  0
  7  8  1  0  0  0  0
  7 35  1  0  0  0  0
  7 36  1  0  0  0  0
  8  9  1  0  0  0  0
  8 23  1  0  0  0  0
  8 37  1  0  0  0  0
  9 10  1  0  0  0  0
  9 38  1  0  0  0  0
  9 39  1  0  0  0  0
 10 11  1  0  0  0  0
 10 40  1  0  0  0  0
 11 12  2  0  0  0  0
 11 13  1  0  0  0  0
 13 14  1  0  0  0  0
 13 41  1  0  0  0  0
 13 42  1  0  0  0  0
 14 21  1  0  0  0  0
 14 15  2  0  0  0  0
 15 16  1  0  0  0  0
 15 17  1  0  0  0  0
 16 43  1  0  0  0  0
 16 44  1  0  0  0  0
 16 45  1  0  0  0  0
 17 18  2  0  0  0  0
 18 19  1  0  0  0  0
 18 20  1  0  0  0  0
 19 46  1  0  0  0  0
 19 47  1  0  0  0  0
 19 48  1  0  0  0  0
 20 25  1  0  0  0  0
 20 21  1  0  0  0  0
 21 22  2  0  0  0  0
 23 24  1  0  0  0  0
 23 49  1  0  0  0  0
 23 50  1  0  0  0  0
 24 51  1  0  0  0  0
 24 52  1  0  0  0  0
M  END
> <s_m_source_file>
AV-unprocessed.smi

> <i_m_source_file_index>
1041

> <i_lp_mmshare_version>
43012

> <i_f3d_flags>
0

> <s_epik_input>
W0NIM11PW0NIMl1bQ0gyXU4xW0NIMl1bQ0gyXVtDSF0oW0NIMl1bQ0gyXTEpW0NIMl1bTkhdQyg9TylbQ0gyXWMyYyhbQ0gzXSluYyhbQ0gzXSlbbkhdYzI9Tw==

> <s_epik_cmdline>
J2VwaWtfcHl0aG9uJywgJy1waCcsICc3LjAnLCAnLXRuJywgJzgnLCAnLW1hJywgJzIwMCcsICctbWV0YWxfYmluZGluZycsICctaW1hZScsICc8aW5maWxlLm1hZT4nLCAnLW9tYWUnLCAnPG91dGZpbGUubWFlPic=

> <r_lp_tautomer_probability>
0.839158

> <r_epik_Ionization_Penalty>
2.47116

> <r_epik_Ionization_Penalty_Charging>
0.00036358

> <r_epik_Ionization_Penalty_Neutral>
2.4708

> <r_epik_State_Penalty>
2.72392

> <r_epik_Charging_Adjusted_Penalty>
2.72428

> <i_epik_Tot_Q>
0

> <i_epik_Tot_abs_Q>
0

> <r_epik_Metal_State_Penalty>
2.89755

> <b_epik_Metal_Only>
0

> <s_lp_Force_Field>
OPLS_2005

> <r_lp_Energy>
27.3294

> <b_lp_Chiralities_Consistent>
1

> <s_lp_Variant>
AV-unprocessed.smi:1041-5

> <Gold.Version>
5.8.1

> <Gold.Id.Protein>
6NUR|6NUR_protein|mol2

> <Gold.PLP.Fitness>
45.8485

> <Gold.PLP.PLP>
-41.5652

> <Gold.PLP.part.hbond>
-2.2831

> <Gold.PLP.part.metal>
0.0000

> <Gold.PLP.part.buried>
-3.8456

> <Gold.PLP.part.nonpolar>
-35.6715

> <Gold.PLP.part.repulsive>
0.7266

> <Gold.PLP.ligand.clash>
0.0000

> <Gold.PLP.ligand.torsion>
0.9160

> <Gold.PLP.Chemscore.Hbond>
1.9833

> <Gold.PLP.Chemscore.CHOScore>
0.0000

> <Gold.PLP.Chemscore.Metal>
0.0000

> <Gold.Chemscore.Hbonds>
donor molecule, donor type, donor heavy atom, donor atom, acceptor molecule, acceptor atom, score
      P1  H  7997  8010       L1    22  1.00
      P1  H 10752 10764       L1    12  0.98

> <Gold.PLP.Chemscore.Internal.Correction>
0.1654

> <Gold.Rescore>
     Score         DG    S(hbond)    S(metal)    S(lipo)     H(rot)  DE(clash)    DE(int)     intcor
     14.98     -15.67       1.91        0.00      84.29       2.36       0.10       0.60       ----

> <Gold.Chemscore.Fitness>
14.9815

> <Gold.Chemscore.DG>
-15.6745

> <Gold.Chemscore.ZeroCoef>
-5.4800

> <Gold.Chemscore.Hbond>
1.9084

> <Gold.Chemscore.Metal>
0.0000

> <Gold.Chemscore.Lipo>
84.2863

> <Gold.Chemscore.Internal_Hbond>
0.0000

> <Gold.Chemscore.DEClash>
0.0960

> <Gold.Chemscore.DEInternal>
0.5970

> <Gold.Chemscore.Rot>
2.3598

> <Gold.Chemscore.Internal.Correction>
   9.000000E+99

> <Gold.Chemscore.Hbonds>
donor molecule, donor type, donor heavy atom, donor atom, acceptor molecule, acceptor atom, score
      P1  H  7997  8010       L1    22  0.87
      P1  H 10752 10764       L1    12  0.87

> <Gold.Chemscore.Hbond.Weighted>
-6.3740

> <Gold.Chemscore.Metal.Weighted>
-0.0000

> <Gold.Chemscore.Lipo.Weighted>
-9.8615

> <Gold.Chemscore.Internal_Hbond.Weighted>
0.0000

> <Gold.Chemscore.DEClash.Weighted>
0.0960

> <Gold.Chemscore.DEInternal.Weighted>
0.5970

> <Gold.Chemscore.Rot.Weighted>
6.0410

> <Gold.Chemscore.Internal.Correction.Weighted>
   9.000000E+99

> <Gold.Protein.RotatedTorsions>
[ 6907 6896 6895 6894 ] final  105.96 input  -60.11 | X-H torsion
[ 7974 7965 7964 7962 ] final -158.95 input  175.53 | X-H torsion
[ 8008 7997 7996 7995 ] final   77.93 input   59.86 | X-H torsion
[ 10167 10162 10161 10158 ] final   -8.56 input  -65.29 | X-H torsion
[ 10718 10713 10712 10709 ] final  148.97 input   66.30 | X-H torsion
[ 10763 10752 10751 10750 ] final  -81.70 input  -60.55 | X-H torsion
[ 11005 11000 10999 10996 ] final  -70.12 input  -57.11 | X-H torsion

> <Gold.Protein.ActiveResidues>
 VAL166  LYS551  ARG553  GLY616  TRP617  ASP618  TYR619  PRO620  LYS621  CYS622 
 ASP623  PHE694  ASN695  SER759  ASP760  ASP761  ALA762  ILE779  LEU786  VAL792 
 PHE793  MET794  SER795  GLU796  ALA797  LYS798  CYS799  TRP800  GLU811  SER814 

> <Gold.Protein.RotatedAtoms>
  152.5211  133.9451  159.7644 H   0  0  0  0  0  0  0  0  0  0  0  0  # atno 6907 bound_to 6896
  150.9773  133.6273  159.2735 H   0  0  0  0  0  0  0  0  0  0  0  0  # atno 6908 bound_to 6896
  151.3463  135.0880  159.9441 H   0  0  0  0  0  0  0  0  0  0  0  0  # atno 6909 bound_to 6896
  144.7484  140.3754  143.6067 H   0  0  0  0  0  0  0  0  0  0  0  0  # atno 7974 bound_to 7965
  155.8485  140.3459  155.5678 H   0  0  0  0  0  0  0  0  0  0  0  0  # atno 8008 bound_to 7997
  155.8063  140.0892  157.1948 H   0  0  0  0  0  0  0  0  0  0  0  0  # atno 8009 bound_to 7997
  154.4007  140.1456  156.3321 H   0  0  0  0  0  0  0  0  0  0  0  0  # atno 8010 bound_to 7997
  140.7062  143.5955  150.8850 H   0  0  0  0  0  0  0  0  0  0  0  0  # atno 10167 bound_to 10162
  157.3020  131.0872  151.1383 H   0  0  0  0  0  0  0  0  0  0  0  0  # atno 10718 bound_to 10713
  154.5667  135.5617  153.7057 H   0  0  0  0  0  0  0  0  0  0  0  0  # atno 10763 bound_to 10752
  153.0035  135.6287  154.2170 H   0  0  0  0  0  0  0  0  0  0  0  0  # atno 10764 bound_to 10752
  154.2109  135.2873  155.2938 H   0  0  0  0  0  0  0  0  0  0  0  0  # atno 10765 bound_to 10752
  141.1568  133.6781  156.6703 H   0  0  0  0  0  0  0  0  0  0  0  0  # atno 11005 bound_to 11000
  145.7034  139.1666  143.2580 LP  0  0  0  0  0  0  0  0  0  0  0  0  # atno 17320 bound_to 7965
  146.1399  140.7072  142.9372 LP  0  0  0  0  0  0  0  0  0  0  0  0  # atno 17321 bound_to 7965
  139.9680  143.6088  152.2982 LP  0  0  0  0  0  0  0  0  0  0  0  0  # atno 17342 bound_to 10162
  139.6665  144.7662  151.1863 LP  0  0  0  0  0  0  0  0  0  0  0  0  # atno 17343 bound_to 10162
  157.2739  130.6717  149.6032 LP  0  0  0  0  0  0  0  0  0  0  0  0  # atno 17370 bound_to 10713
  155.9672  130.4471  150.5565 LP  0  0  0  0  0  0  0  0  0  0  0  0  # atno 17371 bound_to 10713
  140.3179  134.8032  157.4229 LP  0  0  0  0  0  0  0  0  0  0  0  0  # atno 17394 bound_to 11000
  140.1122  134.5331  155.8256 LP  0  0  0  0  0  0  0  0  0  0  0  0  # atno 17395 bound_to 11000

$$$$
