AV-unprocessed.smi:2056|AV-procd|sdf|8339|dock5
  -GOLD-   2272011 03D 1   1.00000     0.00000
 Structure written by MMmdl.
 33 33  0  0  0  0  0  0  0  0  2 V2000
  147.7695  136.2294  162.9431 C   0  0  0  0  0  0  0  0  0  0  0  0
  147.0124  135.4248  161.8649 C   0  0  0  0  0  0  0  0  0  0  0  0
  146.5512  134.0931  162.4886 C   0  0  0  0  0  0  0  0  0  0  0  0
  145.7602  136.2154  161.4295 C   0  0  0  0  0  0  0  0  0  0  0  0
  147.9299  135.0961  160.6502 C   0  0  0  0  0  0  0  0  0  0  0  0
  148.5936  136.3029  159.9645 C   0  0  0  0  0  0  0  0  0  0  0  0
  148.2957  137.4409  160.3308 O   0  0  0  0  0  0  0  0  0  0  0  0
  149.4555  135.9252  158.9894 N   0  5  0  0  0  0  0  0  0  0  0  0
  150.0740  136.8608  158.2531 C   0  0  0  0  0  0  0  0  0  0  0  0
  150.2547  136.7457  156.9330 N   0  0  0  0  0  0  0  0  0  0  0  0
  150.9106  137.8388  156.3592 C   0  0  0  0  0  0  0  0  0  0  0  0
  151.1945  137.8605  154.8832 C   0  0  0  0  0  0  0  0  0  0  0  0
  150.4595  139.0087  154.1816 C   0  0  0  0  0  0  0  0  0  0  0  0
  149.5693  138.6930  153.2356 N   0  0  0  0  0  0  0  0  0  0  0  0
  150.6762  140.1739  154.5080 O   0  0  0  0  0  0  0  0  0  0  0  0
  151.2385  138.8068  157.2738 C   0  0  0  0  0  0  0  0  0  0  0  0
  150.7185  138.3798  158.8785 S   0  0  0  0  0  0  0  0  0  0  0  0
  147.1542  136.3799  163.8306 H   0  0  0  0  0  0  0  0  0  0  0  0
  148.0598  137.2173  162.5840 H   0  0  0  0  0  0  0  0  0  0  0  0
  148.6780  135.7138  163.2561 H   0  0  0  0  0  0  0  0  0  0  0  0
  147.3996  133.5000  162.8314 H   0  0  0  0  0  0  0  0  0  0  0  0
  145.9972  133.4885  161.7698 H   0  0  0  0  0  0  0  0  0  0  0  0
  145.9000  134.2583  163.3479 H   0  0  0  0  0  0  0  0  0  0  0  0
  145.0727  136.3579  162.2638 H   0  0  0  0  0  0  0  0  0  0  0  0
  145.2160  135.6935  160.6418 H   0  0  0  0  0  0  0  0  0  0  0  0
  146.0144  137.2069  161.0543 H   0  0  0  0  0  0  0  0  0  0  0  0
  148.6976  134.3816  160.9552 H   0  0  0  0  0  0  0  0  0  0  0  0
  147.3458  134.5755  159.8901 H   0  0  0  0  0  0  0  0  0  0  0  0
  152.2637  137.9693  154.6991 H   0  0  0  0  0  0  0  0  0  0  0  0
  150.9008  136.9139  154.4275 H   0  0  0  0  0  0  0  0  0  0  0  0
  149.0491  139.4232  152.7710 H   0  0  0  0  0  0  0  0  0  0  0  0
  149.4026  137.7239  153.0073 H   0  0  0  0  0  0  0  0  0  0  0  0
  151.7482  139.7426  157.1020 H   0  0  0  0  0  0  0  0  0  0  0  0
  1  2  1  0  0  0  0
  1 18  1  0  0  0  0
  1 19  1  0  0  0  0
  1 20  1  0  0  0  0
  2  3  1  0  0  0  0
  2  4  1  0  0  0  0
  2  5  1  0  0  0  0
  3 21  1  0  0  0  0
  3 22  1  0  0  0  0
  3 23  1  0  0  0  0
  4 24  1  0  0  0  0
  4 25  1  0  0  0  0
  4 26  1  0  0  0  0
  5  6  1  0  0  0  0
  5 27  1  0  0  0  0
  5 28  1  0  0  0  0
  6  7  2  0  0  0  0
  6  8  1  0  0  0  0
  8  9  1  0  0  0  0
  9 17  1  0  0  0  0
  9 10  2  0  0  0  0
 10 11  1  0  0  0  0
 11 12  1  0  0  0  0
 11 16  2  0  0  0  0
 12 13  1  0  0  0  0
 12 29  1  0  0  0  0
 12 30  1  0  0  0  0
 13 14  1  0  0  0  0
 13 15  2  0  0  0  0
 14 31  1  0  0  0  0
 14 32  1  0  0  0  0
 16 17  1  0  0  0  0
 16 33  1  0  0  0  0
M  CHG  1   8  -1
M  END
> <s_m_source_file>
AV-unprocessed.smi

> <i_m_source_file_index>
2056

> <i_lp_mmshare_version>
43012

> <i_f3d_flags>
0

> <s_epik_input>
W0NIM11DKFtDSDNdKShbQ0gzXSlbQ0gyXUMoPU8pW05IXWMxbmMoW2NIXXMxKVtDSDJdQyg9TylbTkgyXQ==

> <s_epik_cmdline>
J2VwaWtfcHl0aG9uJywgJy1waCcsICc3LjAnLCAnLXRuJywgJzgnLCAnLW1hJywgJzIwMCcsICctbWV0YWxfYmluZGluZycsICctaW1hZScsICc8aW5maWxlLm1hZT4nLCAnLW9tYWUnLCAnPG91dGZpbGUubWFlPic=

> <r_lp_tautomer_probability>
1

> <r_epik_Ionization_Penalty>
5.16109

> <r_epik_Ionization_Penalty_Charging>
4.76142

> <r_epik_Ionization_Penalty_Neutral>
0.39967

> <r_epik_State_Penalty>
4.76123

> <r_epik_Charging_Adjusted_Penalty>
9.52265

> <i_epik_Tot_Q>
-1

> <i_epik_Tot_abs_Q>
1

> <r_epik_Metal_State_Penalty>
0.964035

> <b_epik_Metal_Only>
1

> <s_lp_Force_Field>
OPLS_2005

> <r_lp_Energy>
1.47772

> <b_lp_Chiralities_Consistent>
1

> <s_lp_Variant>
AV-unprocessed.smi:2056-2

> <Gold.Version>
5.8.1

> <Gold.Id.Protein>
6NUR|6NUR_protein|mol2

> <Gold.PLP.Fitness>
48.7549

> <Gold.PLP.PLP>
-32.3396

> <Gold.PLP.part.hbond>
-6.0000

> <Gold.PLP.part.metal>
0.0000

> <Gold.PLP.part.buried>
-3.8935

> <Gold.PLP.part.nonpolar>
-22.3169

> <Gold.PLP.part.repulsive>
0.1951

> <Gold.PLP.ligand.clash>
0.0000

> <Gold.PLP.ligand.torsion>
0.3771

> <Gold.PLP.Chemscore.Hbond>
5.6800

> <Gold.PLP.Chemscore.CHOScore>
0.0000

> <Gold.PLP.Chemscore.Metal>
0.0000

> <Gold.Chemscore.Hbonds>
donor molecule, donor type, donor heavy atom, donor atom, acceptor molecule, acceptor atom, score
      L1  H    14    31       P1  7957  0.38
      L1  H    14    32       P1  7948  1.00
      P1  H  6896  6907       L1     8  2.00
      P1  H  6931  6943       L1     7  0.58
      P1  H  6934  6947       L1     7  0.54
      P1  H  7989  7998       L1    15  1.00

> <Gold.PLP.Chemscore.Internal.Correction>
0.1295

> <Gold.Rescore>
     Score         DG    S(hbond)    S(metal)    S(lipo)     H(rot)  DE(clash)    DE(int)     intcor
     17.07     -19.90       3.89        0.00      59.53       2.16       0.03       2.80       ----

> <Gold.Chemscore.Fitness>
17.0674

> <Gold.Chemscore.DG>
-19.8967

> <Gold.Chemscore.ZeroCoef>
-5.4800

> <Gold.Chemscore.Hbond>
3.8861

> <Gold.Chemscore.Metal>
0.0000

> <Gold.Chemscore.Lipo>
59.5333

> <Gold.Chemscore.Internal_Hbond>
0.0000

> <Gold.Chemscore.DEClash>
0.0255

> <Gold.Chemscore.DEInternal>
2.8038

> <Gold.Chemscore.Rot>
2.1594

> <Gold.Chemscore.Internal.Correction>
   9.000000E+99

> <Gold.Chemscore.Hbonds>
donor molecule, donor type, donor heavy atom, donor atom, acceptor molecule, acceptor atom, score
      L1  H    14    31       P1  7957  0.38
      L1  H    14    32       P1  7948  0.91
      P1  H  6896  6907       L1     8  0.54
      P1  H  6931  6943       L1     7  0.57
      P1  H  6934  6947       L1     7  0.53
      P1  H  7989  7998       L1    15  0.75

> <Gold.Chemscore.Hbond.Weighted>
-12.9794

> <Gold.Chemscore.Metal.Weighted>
-0.0000

> <Gold.Chemscore.Lipo.Weighted>
-6.9654

> <Gold.Chemscore.Internal_Hbond.Weighted>
0.0000

> <Gold.Chemscore.DEClash.Weighted>
0.0255

> <Gold.Chemscore.DEInternal.Weighted>
2.8038

> <Gold.Chemscore.Rot.Weighted>
5.5281

> <Gold.Chemscore.Internal.Correction.Weighted>
   9.000000E+99

> <Gold.Protein.RotatedTorsions>
[ 6907 6896 6895 6894 ] final  -57.84 input  -60.11 | X-H torsion
[ 7974 7965 7964 7962 ] final  -95.70 input  175.53 | X-H torsion
[ 8008 7997 7996 7995 ] final   12.75 input   59.86 | X-H torsion
[ 10167 10162 10161 10158 ] final   83.66 input  -65.29 | X-H torsion
[ 10718 10713 10712 10709 ] final   70.16 input   66.30 | X-H torsion
[ 10763 10752 10751 10750 ] final   41.09 input  -60.55 | X-H torsion
[ 11005 11000 10999 10996 ] final   97.08 input  -57.11 | X-H torsion

> <Gold.Protein.ActiveResidues>
 VAL166  LYS551  ARG553  GLY616  TRP617  ASP618  TYR619  PRO620  LYS621  CYS622 
 ASP623  PHE694  ASN695  SER759  ASP760  ASP761  ALA762  ILE779  LEU786  VAL792 
 PHE793  MET794  SER795  GLU796  ALA797  LYS798  CYS799  TRP800  GLU811  SER814 

> <Gold.Protein.RotatedAtoms>
  150.8054  134.7176  159.6639 H   0  0  0  0  0  0  0  0  0  0  0  0  # atno 6907 bound_to 6896
  152.4173  134.6015  160.0011 H   0  0  0  0  0  0  0  0  0  0  0  0  # atno 6908 bound_to 6896
  151.6240  133.3300  159.3130 H   0  0  0  0  0  0  0  0  0  0  0  0  # atno 6909 bound_to 6896
  145.3566  140.9485  143.2524 H   0  0  0  0  0  0  0  0  0  0  0  0  # atno 7974 bound_to 7965
  154.8250  140.2890  155.5761 H   0  0  0  0  0  0  0  0  0  0  0  0  # atno 8008 bound_to 7997
  156.3001  140.2543  156.3095 H   0  0  0  0  0  0  0  0  0  0  0  0  # atno 8009 bound_to 7997
  154.9296  140.0384  157.2030 H   0  0  0  0  0  0  0  0  0  0  0  0  # atno 8010 bound_to 7997
  139.9161  144.6242  150.8488 H   0  0  0  0  0  0  0  0  0  0  0  0  # atno 10167 bound_to 10162
  157.6385  130.9463  150.0613 H   0  0  0  0  0  0  0  0  0  0  0  0  # atno 10718 bound_to 10713
  152.9918  135.6172  154.2731 H   0  0  0  0  0  0  0  0  0  0  0  0  # atno 10763 bound_to 10752
  154.2463  135.2787  155.2836 H   0  0  0  0  0  0  0  0  0  0  0  0  # atno 10764 bound_to 10752
  154.5326  135.5784  153.6829 H   0  0  0  0  0  0  0  0  0  0  0  0  # atno 10765 bound_to 10752
  139.8778  134.8983  156.4254 H   0  0  0  0  0  0  0  0  0  0  0  0  # atno 11005 bound_to 11000
  144.8678  139.5083  143.6782 LP  0  0  0  0  0  0  0  0  0  0  0  0  # atno 17320 bound_to 7965
  146.2945  139.7238  142.9136 LP  0  0  0  0  0  0  0  0  0  0  0  0  # atno 17321 bound_to 7965
  140.7674  143.3331  151.2368 LP  0  0  0  0  0  0  0  0  0  0  0  0  # atno 17342 bound_to 10162
  139.6901  143.9706  152.2855 LP  0  0  0  0  0  0  0  0  0  0  0  0  # atno 17343 bound_to 10162
  156.1645  130.3644  149.9252 LP  0  0  0  0  0  0  0  0  0  0  0  0  # atno 17370 bound_to 10713
  156.7242  130.9018  151.3620 LP  0  0  0  0  0  0  0  0  0  0  0  0  # atno 17371 bound_to 10713
  140.9104  133.7716  155.9785 LP  0  0  0  0  0  0  0  0  0  0  0  0  # atno 17394 bound_to 11000
  140.8552  134.2906  157.5258 LP  0  0  0  0  0  0  0  0  0  0  0  0  # atno 17395 bound_to 11000

$$$$
