AV-unprocessed.smi:1030|AV-procd|sdf|4479|dock4
  -GOLD-   22720 2453D 1   1.00000     0.00000
 Structure written by MMmdl.
 28 29  0  0  0  0  0  0  0  0  2 V2000
  154.0475  138.3332  157.9469 N   0  5  0  0  0  0  0  0  0  0  0  0
  152.7170  138.4173  158.8572 S   0  0  0  0  0  0  0  0  0  0  0  0
  151.5099  138.0136  158.1191 O   0  0  0  0  0  0  0  0  0  0  0  0
  152.9080  137.8640  160.2072 O   0  0  0  0  0  0  0  0  0  0  0  0
  152.6495  140.2126  159.0268 C   0  0  0  0  0  0  0  0  0  0  0  0
  153.2919  140.8159  160.1289 C   0  0  0  0  0  0  0  0  0  0  0  0
  153.2436  142.2162  160.2631 C   0  0  0  0  0  0  0  0  0  0  0  0
  152.5545  142.9573  159.2853 C   0  0  0  0  0  0  0  0  0  0  0  0
  151.9349  142.3935  158.2275 N   0  0  0  0  0  0  0  0  0  0  0  0
  151.9745  141.0441  158.0935 C   0  0  0  0  0  0  0  0  0  0  0  0
  151.3051  140.4960  156.9886 N   0  0  0  0  0  0  0  0  0  0  0  0
  150.4228  141.4286  156.3011 C   0  0  0  0  0  0  0  0  0  0  0  0
  149.6031  140.6785  155.2373 C   0  0  0  0  0  0  0  0  0  0  0  0
  150.4844  140.0003  154.3450 O   0  0  0  0  0  0  0  0  0  0  0  0
  151.2949  139.0404  155.0191 C   0  0  0  0  0  0  0  0  0  0  0  0
  152.1592  139.7455  156.0788 C   0  0  0  0  0  0  0  0  0  0  0  0
  154.0507  137.4179  157.4820 H   0  0  0  0  0  0  0  0  0  0  0  0
  153.8136  140.2251  160.8665 H   0  0  0  0  0  0  0  0  0  0  0  0
  153.7236  142.7089  161.0954 H   0  0  0  0  0  0  0  0  0  0  0  0
  152.4970  144.0333  159.3554 H   0  0  0  0  0  0  0  0  0  0  0  0
  149.7570  141.9077  157.0200 H   0  0  0  0  0  0  0  0  0  0  0  0
  151.0130  142.2159  155.8300 H   0  0  0  0  0  0  0  0  0  0  0  0
  148.9211  139.9656  155.7042 H   0  0  0  0  0  0  0  0  0  0  0  0
  148.9917  141.3802  154.6699 H   0  0  0  0  0  0  0  0  0  0  0  0
  150.6655  138.2761  155.4782 H   0  0  0  0  0  0  0  0  0  0  0  0
  151.9295  138.5355  154.2911 H   0  0  0  0  0  0  0  0  0  0  0  0
  152.8658  140.4207  155.5942 H   0  0  0  0  0  0  0  0  0  0  0  0
  152.7410  139.0117  156.6382 H   0  0  0  0  0  0  0  0  0  0  0  0
  1  2  1  0  0  0  0
  1 17  1  0  0  0  0
  2  3  2  0  0  0  0
  2  4  2  0  0  0  0
  2  5  1  0  0  0  0
  5 10  1  0  0  0  0
  5  6  2  0  0  0  0
  6  7  1  0  0  0  0
  6 18  1  0  0  0  0
  7  8  2  0  0  0  0
  7 19  1  0  0  0  0
  8  9  1  0  0  0  0
  8 20  1  0  0  0  0
  9 10  2  0  0  0  0
 10 11  1  0  0  0  0
 11 16  1  0  0  0  0
 11 12  1  0  0  0  0
 12 13  1  0  0  0  0
 12 21  1  0  0  0  0
 12 22  1  0  0  0  0
 13 14  1  0  0  0  0
 13 23  1  0  0  0  0
 13 24  1  0  0  0  0
 14 15  1  0  0  0  0
 15 16  1  0  0  0  0
 15 25  1  0  0  0  0
 15 26  1  0  0  0  0
 16 27  1  0  0  0  0
 16 28  1  0  0  0  0
M  CHG  1   1  -1
M  END
> <s_m_source_file>
AV-unprocessed.smi

> <i_m_source_file_index>
1030

> <i_lp_mmshare_version>
43012

> <i_f3d_flags>
0

> <s_epik_input>
W05IMl1TKD1PKSg9TyljMVtjSF1bY0hdW2NIXW5jMU4yW0NIMl1bQ0gyXU9bQ0gyXVtDSDJdMg==

> <s_epik_cmdline>
J2VwaWtfcHl0aG9uJywgJy1waCcsICc3LjAnLCAnLXRuJywgJzgnLCAnLW1hJywgJzIwMCcsICctbWV0YWxfYmluZGluZycsICctaW1hZScsICc8aW5maWxlLm1hZT4nLCAnLW9tYWUnLCAnPG91dGZpbGUubWFlPic=

> <r_lp_tautomer_probability>
1

> <r_epik_Ionization_Penalty>
3.31232

> <r_epik_Ionization_Penalty_Charging>
3.30848

> <r_epik_Ionization_Penalty_Neutral>
0.00383963

> <r_epik_State_Penalty>
3.30625

> <r_epik_Charging_Adjusted_Penalty>
6.61473

> <i_epik_Tot_Q>
-1

> <i_epik_Tot_abs_Q>
1

> <r_epik_Metal_State_Penalty>
0.483198

> <b_epik_Metal_Only>
1

> <s_lp_Force_Field>
OPLS_2005

> <r_lp_Energy>
26.4459

> <b_lp_Chiralities_Consistent>
1

> <s_lp_Variant>
AV-unprocessed.smi:1030-2

> <Gold.Version>
5.8.1

> <Gold.Id.Protein>
6NUR|6NUR_protein|mol2

> <Gold.PLP.Fitness>
38.3916

> <Gold.PLP.PLP>
-29.5716

> <Gold.PLP.part.hbond>
-2.0000

> <Gold.PLP.part.metal>
0.0000

> <Gold.PLP.part.buried>
-4.2116

> <Gold.PLP.part.nonpolar>
-23.9927

> <Gold.PLP.part.repulsive>
0.1368

> <Gold.PLP.ligand.clash>
0.0000

> <Gold.PLP.ligand.torsion>
1.1938

> <Gold.PLP.Chemscore.Hbond>
2.9840

> <Gold.PLP.Chemscore.CHOScore>
0.0000

> <Gold.PLP.Chemscore.Metal>
0.0000

> <Gold.Chemscore.Hbonds>
donor molecule, donor type, donor heavy atom, donor atom, acceptor molecule, acceptor atom, score
      P1  H  7989  7998       L1    14  1.00
      P1  H  7997  8008       L1     1  2.00

> <Gold.PLP.Chemscore.Internal.Correction>
2.2556

> <Gold.Rescore>
     Score         DG    S(hbond)    S(metal)    S(lipo)     H(rot)  DE(clash)    DE(int)     intcor
     11.30     -15.49       1.42        0.00      66.84       1.00       0.00       4.18       ----

> <Gold.Chemscore.Fitness>
11.3013

> <Gold.Chemscore.DG>
-15.4873

> <Gold.Chemscore.ZeroCoef>
-5.4800

> <Gold.Chemscore.Hbond>
1.4213

> <Gold.Chemscore.Metal>
0.0000

> <Gold.Chemscore.Lipo>
66.8396

> <Gold.Chemscore.Internal_Hbond>
0.0000

> <Gold.Chemscore.DEClash>
0.0017

> <Gold.Chemscore.DEInternal>
4.1843

> <Gold.Chemscore.Rot>
1.0000

> <Gold.Chemscore.Internal.Correction>
   9.000000E+99

> <Gold.Chemscore.Hbonds>
donor molecule, donor type, donor heavy atom, donor atom, acceptor molecule, acceptor atom, score
      P1  H  7989  7998       L1    14  0.34
      P1  H  7997  8008       L1     1  0.90

> <Gold.Chemscore.Hbond.Weighted>
-4.7471

> <Gold.Chemscore.Metal.Weighted>
-0.0000

> <Gold.Chemscore.Lipo.Weighted>
-7.8202

> <Gold.Chemscore.Internal_Hbond.Weighted>
0.0000

> <Gold.Chemscore.DEClash.Weighted>
0.0017

> <Gold.Chemscore.DEInternal.Weighted>
4.1843

> <Gold.Chemscore.Rot.Weighted>
2.5600

> <Gold.Chemscore.Internal.Correction.Weighted>
   9.000000E+99

> <Gold.Protein.RotatedTorsions>
[ 6907 6896 6895 6894 ] final -172.10 input  -60.11 | X-H torsion
[ 7974 7965 7964 7962 ] final  100.38 input  175.53 | X-H torsion
[ 8008 7997 7996 7995 ] final  -98.05 input   59.86 | X-H torsion
[ 10167 10162 10161 10158 ] final   70.03 input  -65.29 | X-H torsion
[ 10718 10713 10712 10709 ] final  119.83 input   66.30 | X-H torsion
[ 10763 10752 10751 10750 ] final   55.68 input  -60.55 | X-H torsion
[ 11005 11000 10999 10996 ] final  161.17 input  -57.11 | X-H torsion

> <Gold.Protein.ActiveResidues>
 VAL166  LYS551  ARG553  GLY616  TRP617  ASP618  TYR619  PRO620  LYS621  CYS622 
 ASP623  PHE694  ASN695  SER759  ASP760  ASP761  ALA762  ILE779  LEU786  VAL792 
 PHE793  MET794  SER795  GLU796  ALA797  LYS798  CYS799  TRP800  GLU811  SER814 

> <Gold.Protein.RotatedAtoms>
  151.5346  133.3443  159.2924 H   0  0  0  0  0  0  0  0  0  0  0  0  # atno 6907 bound_to 6896
  150.8573  134.7917  159.7066 H   0  0  0  0  0  0  0  0  0  0  0  0  # atno 6908 bound_to 6896
  152.4603  134.5209  159.9834 H   0  0  0  0  0  0  0  0  0  0  0  0  # atno 6909 bound_to 6896
  145.3864  139.2370  143.3375 H   0  0  0  0  0  0  0  0  0  0  0  0  # atno 7974 bound_to 7965
  154.7960  140.0458  157.1237 H   0  0  0  0  0  0  0  0  0  0  0  0  # atno 8008 bound_to 7997
  154.9535  140.3068  155.5044 H   0  0  0  0  0  0  0  0  0  0  0  0  # atno 8009 bound_to 7997
  156.2956  140.2284  156.4614 H   0  0  0  0  0  0  0  0  0  0  0  0  # atno 8010 bound_to 7997
  140.0613  144.5230  150.7292 H   0  0  0  0  0  0  0  0  0  0  0  0  # atno 10167 bound_to 10162
  157.5934  131.1061  150.7951 H   0  0  0  0  0  0  0  0  0  0  0  0  # atno 10718 bound_to 10713
  152.9820  135.5702  154.5106 H   0  0  0  0  0  0  0  0  0  0  0  0  # atno 10763 bound_to 10752
  154.4610  135.2781  155.1714 H   0  0  0  0  0  0  0  0  0  0  0  0  # atno 10764 bound_to 10752
  154.3302  135.6251  153.5601 H   0  0  0  0  0  0  0  0  0  0  0  0  # atno 10765 bound_to 10752
  140.2131  134.8252  157.3142 H   0  0  0  0  0  0  0  0  0  0  0  0  # atno 11005 bound_to 11000
  146.2818  140.4540  142.8773 LP  0  0  0  0  0  0  0  0  0  0  0  0  # atno 17320 bound_to 7965
  144.8471  140.6945  143.6192 LP  0  0  0  0  0  0  0  0  0  0  0  0  # atno 17321 bound_to 7965
  140.7170  143.2554  151.4401 LP  0  0  0  0  0  0  0  0  0  0  0  0  # atno 17342 bound_to 10162
  139.5892  144.1537  152.2067 LP  0  0  0  0  0  0  0  0  0  0  0  0  # atno 17343 bound_to 10162
  156.8368  130.5034  149.5325 LP  0  0  0  0  0  0  0  0  0  0  0  0  # atno 17370 bound_to 10713
  156.0992  130.5956  150.9865 LP  0  0  0  0  0  0  0  0  0  0  0  0  # atno 17371 bound_to 10713
  140.1929  134.4349  155.7705 LP  0  0  0  0  0  0  0  0  0  0  0  0  # atno 17394 bound_to 11000
  141.2225  133.7035  156.8057 LP  0  0  0  0  0  0  0  0  0  0  0  0  # atno 17395 bound_to 11000

$$$$
