AV-unprocessed.smi:876|AV-procd|sdf|4025|dock8
  -GOLD-   22720 1513D 1   1.00000     0.00000
 Structure written by MMmdl.
 40 41  0  0  0  0  0  0  0  0  1 V2000
  152.0720  139.8744  155.5954 C   0  0  0  0  0  0  0  0  0  0  0  0
  150.9287  140.7781  155.6213 N   0  0  0  0  0  0  0  0  0  0  0  0
  151.0574  142.0964  156.2339 C   0  0  0  0  0  0  0  0  0  0  0  0
  149.7052  140.3961  155.0247 C   0  0  0  0  0  0  0  0  0  0  0  0
  148.6875  141.3433  154.7507 C   0  0  0  0  0  0  0  0  0  0  0  0
  147.4862  140.9147  154.1534 C   0  0  0  0  0  0  0  0  0  0  0  0
  147.3286  139.5465  153.8341 C   0  0  0  0  0  0  0  0  0  0  0  0
  146.1627  138.9842  153.2472 N   0  0  0  0  0  0  0  0  0  0  0  0
  145.8246  137.6894  153.1218 C   0  0  0  0  0  0  0  0  0  0  0  0
  146.4868  136.7350  153.5284 O   0  0  0  0  0  0  0  0  0  0  0  0
  144.6430  137.5571  152.5032 N   0  0  0  0  0  0  0  0  0  0  0  0
  143.9867  136.2853  152.2212 C   0  0  2  0  0  0  0  0  0  0  0  0
  143.8649  135.4653  153.4759 C   0  0  0  0  0  0  0  0  0  0  0  0
  144.4622  134.2802  153.3760 C   0  0  0  0  0  0  0  0  0  0  0  0
  145.1281  134.0701  152.0400 C   0  0  1  0  0  0  0  0  0  0  0  0
  144.6283  132.8069  151.3178 C   0  0  0  0  0  0  0  0  0  0  0  0
  145.2742  132.6579  150.0705 O   0  0  0  0  0  0  0  0  0  0  0  0
  144.8119  135.3782  151.2704 C   0  0  0  0  0  0  0  0  0  0  0  0
  148.3891  138.6774  154.1558 C   0  0  0  0  0  0  0  0  0  0  0  0
  149.5414  139.0838  154.7272 N   0  0  0  0  0  0  0  0  0  0  0  0
  142.9853  136.4578  151.8228 H   0  0  0  0  0  0  0  0  0  0  0  0
  146.2040  133.9973  152.2060 H   0  0  0  0  0  0  0  0  0  0  0  0
  152.3452  139.6302  154.5685 H   0  0  0  0  0  0  0  0  0  0  0  0
  151.8424  138.9498  156.1261 H   0  0  0  0  0  0  0  0  0  0  0  0
  152.9436  140.3231  156.0721 H   0  0  0  0  0  0  0  0  0  0  0  0
  150.3177  142.2266  157.0242 H   0  0  0  0  0  0  0  0  0  0  0  0
  150.9114  142.8800  155.4899 H   0  0  0  0  0  0  0  0  0  0  0  0
  152.0437  142.2355  156.6764 H   0  0  0  0  0  0  0  0  0  0  0  0
  148.8011  142.3900  154.9891 H   0  0  0  0  0  0  0  0  0  0  0  0
  146.7114  141.6418  153.9675 H   0  0  0  0  0  0  0  0  0  0  0  0
  145.4768  139.6528  152.9283 H   0  0  0  0  0  0  0  0  0  0  0  0
  144.1613  138.3937  152.2080 H   0  0  0  0  0  0  0  0  0  0  0  0
  143.3326  135.8207  154.3460 H   0  0  0  0  0  0  0  0  0  0  0  0
  144.4950  133.5348  154.1570 H   0  0  0  0  0  0  0  0  0  0  0  0
  144.8061  131.9168  151.9228 H   0  0  0  0  0  0  0  0  0  0  0  0
  143.5537  132.8707  151.1439 H   0  0  0  0  0  0  0  0  0  0  0  0
  145.3577  133.5104  149.6713 H   0  0  0  0  0  0  0  0  0  0  0  0
  144.2402  135.1762  150.3637 H   0  0  0  0  0  0  0  0  0  0  0  0
  145.7375  135.8598  150.9514 H   0  0  0  0  0  0  0  0  0  0  0  0
  148.3150  137.6203  153.9454 H   0  0  0  0  0  0  0  0  0  0  0  0
  1  2  1  0  0  0  0
  1 23  1  0  0  0  0
  1 24  1  0  0  0  0
  1 25  1  0  0  0  0
  2  3  1  0  0  0  0
  2  4  1  0  0  0  0
  3 26  1  0  0  0  0
  3 27  1  0  0  0  0
  3 28  1  0  0  0  0
  4 20  1  0  0  0  0
  4  5  2  0  0  0  0
  5  6  1  0  0  0  0
  5 29  1  0  0  0  0
  6  7  2  0  0  0  0
  6 30  1  0  0  0  0
  7  8  1  0  0  0  0
  7 19  1  0  0  0  0
  8  9  1  0  0  0  0
  8 31  1  0  0  0  0
  9 10  2  0  0  0  0
  9 11  1  0  0  0  0
 11 12  1  0  0  0  0
 11 32  1  0  0  0  0
 12 21  1  0  0  0  0
 12 18  1  0  0  0  0
 12 13  1  0  0  0  0
 13 14  2  0  0  0  0
 13 33  1  0  0  0  0
 14 15  1  0  0  0  0
 14 34  1  0  0  0  0
 15 22  1  0  0  0  0
 15 16  1  0  0  0  0
 15 18  1  0  0  0  0
 16 17  1  0  0  0  0
 16 35  1  0  0  0  0
 16 36  1  0  0  0  0
 17 37  1  0  0  0  0
 18 38  1  0  0  0  0
 18 39  1  0  0  0  0
 19 20  2  0  0  0  0
 19 40  1  0  0  0  0
M  END
> <s_m_source_file>
AV-unprocessed.smi

> <i_m_source_file_index>
876

> <i_lp_mmshare_version>
43012

> <i_f3d_flags>
0

> <s_epik_input>
W0NIM11OKFtDSDNdKWMxW2NIXVtjSF1jKFtjSF1uMSlbTkhdQyg9TylbTkhdW0NAQEhdMltDSF09W0NIXVtDQEBIXShbQ0gyXTIpW0NIMl1bT0hd

> <s_epik_cmdline>
J2VwaWtfcHl0aG9uJywgJy1waCcsICc3LjAnLCAnLXRuJywgJzgnLCAnLW1hJywgJzIwMCcsICctbWV0YWxfYmluZGluZycsICctaW1hZScsICc8aW5maWxlLm1hZT4nLCAnLW9tYWUnLCAnPG91dGZpbGUubWFlPic=

> <r_lp_tautomer_probability>
1

> <r_epik_Ionization_Penalty>
0.617998

> <r_epik_Ionization_Penalty_Charging>
0

> <r_epik_Ionization_Penalty_Neutral>
0.617998

> <r_epik_State_Penalty>
0.632637

> <r_epik_Charging_Adjusted_Penalty>
0.632637

> <i_epik_Tot_Q>
0

> <i_epik_Tot_abs_Q>
0

> <r_epik_Metal_State_Penalty>
0.305596

> <b_epik_Metal_Only>
0

> <s_lp_Force_Field>
OPLS_2005

> <r_lp_Energy>
20.6099

> <b_lp_Chiralities_Consistent>
1

> <s_lp_Variant>
AV-unprocessed.smi:876-7

> <Gold.Version>
5.8.1

> <Gold.Id.Protein>
6NUR|6NUR_protein|mol2

> <Gold.PLP.Fitness>
46.3271

> <Gold.PLP.PLP>
-35.3395

> <Gold.PLP.part.hbond>
-4.0000

> <Gold.PLP.part.metal>
0.0000

> <Gold.PLP.part.buried>
-3.5100

> <Gold.PLP.part.nonpolar>
-29.2314

> <Gold.PLP.part.repulsive>
1.6608

> <Gold.PLP.ligand.clash>
0.0000

> <Gold.PLP.ligand.torsion>
0.1536

> <Gold.PLP.Chemscore.Hbond>
2.7599

> <Gold.PLP.Chemscore.CHOScore>
1.0000

> <Gold.PLP.Chemscore.Metal>
0.0000

> <Gold.Chemscore.Hbonds>
donor molecule, donor type, donor heavy atom, donor atom, acceptor molecule, acceptor atom, score
      L1  H     8    31       P1 10175  1.00
      L1  H    11    32       P1 10175  0.78
      L1  C    19    40       P1  7948  0.89

> <Gold.PLP.Chemscore.Internal.Correction>
0.0152

> <Gold.Rescore>
     Score         DG    S(hbond)    S(metal)    S(lipo)     H(rot)  DE(clash)    DE(int)     intcor
     12.34     -15.76       2.27        0.00      62.31       1.80       0.68       2.74       ----

> <Gold.Chemscore.Fitness>
12.3404

> <Gold.Chemscore.DG>
-15.7611

> <Gold.Chemscore.ZeroCoef>
-5.4800

> <Gold.Chemscore.Hbond>
2.2735

> <Gold.Chemscore.Metal>
0.0000

> <Gold.Chemscore.Lipo>
62.3118

> <Gold.Chemscore.Internal_Hbond>
0.0000

> <Gold.Chemscore.DEClash>
0.6776

> <Gold.Chemscore.DEInternal>
2.7430

> <Gold.Chemscore.Rot>
1.7980

> <Gold.Chemscore.Internal.Correction>
   9.000000E+99

> <Gold.Chemscore.Hbonds>
donor molecule, donor type, donor heavy atom, donor atom, acceptor molecule, acceptor atom, score
      L1  H     8    31       P1 10175  0.93
      L1  H    11    32       P1 10175  0.74

> <Gold.Chemscore.Hbond.Weighted>
-7.5935

> <Gold.Chemscore.Metal.Weighted>
-0.0000

> <Gold.Chemscore.Lipo.Weighted>
-7.2905

> <Gold.Chemscore.Internal_Hbond.Weighted>
0.0000

> <Gold.Chemscore.DEClash.Weighted>
0.6776

> <Gold.Chemscore.DEInternal.Weighted>
2.7430

> <Gold.Chemscore.Rot.Weighted>
4.6029

> <Gold.Chemscore.Internal.Correction.Weighted>
   9.000000E+99

> <Gold.Protein.RotatedTorsions>
[ 6907 6896 6895 6894 ] final  109.00 input  -60.11 | X-H torsion
[ 7974 7965 7964 7962 ] final   53.54 input  175.53 | X-H torsion
[ 8008 7997 7996 7995 ] final   34.01 input   59.86 | X-H torsion
[ 10167 10162 10161 10158 ] final  -59.32 input  -65.29 | X-H torsion
[ 10718 10713 10712 10709 ] final  149.88 input   66.30 | X-H torsion
[ 10763 10752 10751 10750 ] final  -67.72 input  -60.55 | X-H torsion
[ 11005 11000 10999 10996 ] final  162.09 input  -57.11 | X-H torsion

> <Gold.Protein.ActiveResidues>
 VAL166  LYS551  ARG553  GLY616  TRP617  ASP618  TYR619  PRO620  LYS621  CYS622 
 ASP623  PHE694  ASN695  SER759  ASP760  ASP761  ALA762  ILE779  LEU786  VAL792 
 PHE793  MET794  SER795  GLU796  ALA797  LYS798  CYS799  TRP800  GLU811  SER814 

> <Gold.Protein.RotatedAtoms>
  152.5087  133.9007  159.7439 H   0  0  0  0  0  0  0  0  0  0  0  0  # atno 6907 bound_to 6896
  150.9424  133.6633  159.2795 H   0  0  0  0  0  0  0  0  0  0  0  0  # atno 6908 bound_to 6896
  151.3940  135.0965  159.9588 H   0  0  0  0  0  0  0  0  0  0  0  0  # atno 6909 bound_to 6896
  145.9701  139.4140  143.0195 H   0  0  0  0  0  0  0  0  0  0  0  0  # atno 7974 bound_to 7965
  155.1478  140.3272  155.4438 H   0  0  0  0  0  0  0  0  0  0  0  0  # atno 8008 bound_to 7997
  156.2584  140.1982  156.6541 H   0  0  0  0  0  0  0  0  0  0  0  0  # atno 8009 bound_to 7997
  154.6495  140.0560  156.9925 H   0  0  0  0  0  0  0  0  0  0  0  0  # atno 8010 bound_to 7997
  140.6142  143.2397  151.5637 H   0  0  0  0  0  0  0  0  0  0  0  0  # atno 10167 bound_to 10162
  157.2905  131.0852  151.1465 H   0  0  0  0  0  0  0  0  0  0  0  0  # atno 10718 bound_to 10713
  154.3786  135.6079  153.5779 H   0  0  0  0  0  0  0  0  0  0  0  0  # atno 10763 bound_to 10752
  152.9788  135.5855  154.4437 H   0  0  0  0  0  0  0  0  0  0  0  0  # atno 10764 bound_to 10752
  154.4202  135.2845  155.1958 H   0  0  0  0  0  0  0  0  0  0  0  0  # atno 10765 bound_to 10752
  140.2223  134.8187  157.3232 H   0  0  0  0  0  0  0  0  0  0  0  0  # atno 11005 bound_to 11000
  145.7918  140.9811  143.1045 LP  0  0  0  0  0  0  0  0  0  0  0  0  # atno 17320 bound_to 7965
  144.6835  139.9692  143.7482 LP  0  0  0  0  0  0  0  0  0  0  0  0  # atno 17321 bound_to 7965
  139.5385  144.2713  152.1302 LP  0  0  0  0  0  0  0  0  0  0  0  0  # atno 17342 bound_to 10162
  140.1919  144.4744  150.6475 LP  0  0  0  0  0  0  0  0  0  0  0  0  # atno 17343 bound_to 10162
  157.2864  130.6775  149.6092 LP  0  0  0  0  0  0  0  0  0  0  0  0  # atno 17370 bound_to 10713
  155.9667  130.4434  150.5420 LP  0  0  0  0  0  0  0  0  0  0  0  0  # atno 17371 bound_to 10713
  140.1837  134.4458  155.7756 LP  0  0  0  0  0  0  0  0  0  0  0  0  # atno 17394 bound_to 11000
  141.2222  133.6995  156.7911 LP  0  0  0  0  0  0  0  0  0  0  0  0  # atno 17395 bound_to 11000

$$$$
