AV-unprocessed.smi:2252|AV-procd|sdf|9111|dock7
  -GOLD-   2272012313D 1   1.00000     0.00000
 Structure written by MMmdl.
 44 46  0  0  0  0  0  0  0  0  3 V2000
  152.0483  144.4190  157.9229 C   0  0  0  0  0  0  0  0  0  0  0  0
  152.2331  143.4498  158.9862 N   0  0  0  0  0  0  0  0  0  0  0  0
  152.5340  143.7471  160.3091 C   0  0  0  0  0  0  0  0  0  0  0  0
  152.6273  142.5484  160.9724 C   0  0  0  0  0  0  0  0  0  0  0  0
  152.3901  141.5100  160.0800 N   0  0  0  0  0  0  0  0  0  0  0  0
  152.1537  142.1041  158.9103 C   0  0  0  0  0  0  0  0  0  0  0  0
  151.8395  141.3585  157.6360 C   0  0  0  0  0  0  0  0  0  0  0  0
  150.5750  141.8327  156.8788 C   0  0  0  0  0  0  0  0  0  0  0  0
  150.3365  141.0033  155.6997 N   0  5  0  0  0  0  0  0  0  0  0  0
  149.3385  140.0812  155.5962 C   0  0  0  0  0  0  0  0  0  0  0  0
  148.5361  139.6727  156.4411 O   0  0  0  0  0  0  0  0  0  0  0  0
  149.2287  139.5354  154.1599 C   0  0  2  0  0  0  0  0  0  0  0  0
  147.8610  139.9110  153.5416 C   0  0  0  0  0  0  0  0  0  0  0  0
  147.2528  141.2809  153.7525 C   0  0  0  0  0  0  0  0  0  0  0  0
  146.6376  140.0764  154.4170 C   0  0  0  0  0  0  0  0  0  0  0  0
  149.4830  138.0668  154.1200 N   0  3  0  0  0  0  0  0  0  0  0  0
  150.8752  137.6425  154.3844 C   0  0  0  0  0  0  0  0  0  0  0  0
  150.8046  136.1946  154.8899 C   0  0  0  0  0  0  0  0  0  0  0  0
  149.3144  135.8885  155.0582 C   0  0  0  0  0  0  0  0  0  0  0  0
  148.6374  137.2552  155.0194 C   0  0  0  0  0  0  0  0  0  0  0  0
  152.1378  145.4317  158.3172 H   0  0  0  0  0  0  0  0  0  0  0  0
  151.0588  144.3015  157.4807 H   0  0  0  0  0  0  0  0  0  0  0  0
  152.8070  144.2727  157.1538 H   0  0  0  0  0  0  0  0  0  0  0  0
  152.6540  144.7615  160.6600 H   0  0  0  0  0  0  0  0  0  0  0  0
  152.8455  142.3541  162.0122 H   0  0  0  0  0  0  0  0  0  0  0  0
  152.6990  141.4246  156.9691 H   0  0  0  0  0  0  0  0  0  0  0  0
  151.7444  140.2988  157.8768 H   0  0  0  0  0  0  0  0  0  0  0  0
  149.7239  141.7978  157.5591 H   0  0  0  0  0  0  0  0  0  0  0  0
  150.6933  142.8860  156.6216 H   0  0  0  0  0  0  0  0  0  0  0  0
  150.0068  140.0182  153.5658 H   0  0  0  0  0  0  0  0  0  0  0  0
  147.6766  139.4529  152.5711 H   0  0  0  0  0  0  0  0  0  0  0  0
  147.7873  141.9838  154.3884 H   0  0  0  0  0  0  0  0  0  0  0  0
  146.7167  141.7242  152.9160 H   0  0  0  0  0  0  0  0  0  0  0  0
  145.6903  139.7116  154.0254 H   0  0  0  0  0  0  0  0  0  0  0  0
  146.7662  139.9781  155.4931 H   0  0  0  0  0  0  0  0  0  0  0  0
  151.4883  137.7353  153.4874 H   0  0  0  0  0  0  0  0  0  0  0  0
  151.3135  138.2722  155.1599 H   0  0  0  0  0  0  0  0  0  0  0  0
  151.2663  135.5007  154.1865 H   0  0  0  0  0  0  0  0  0  0  0  0
  151.3318  136.1001  155.8399 H   0  0  0  0  0  0  0  0  0  0  0  0
  148.9679  135.2851  154.2184 H   0  0  0  0  0  0  0  0  0  0  0  0
  149.0957  135.3389  155.9742 H   0  0  0  0  0  0  0  0  0  0  0  0
  148.6342  137.6959  156.0177 H   0  0  0  0  0  0  0  0  0  0  0  0
  147.6049  137.1927  154.6739 H   0  0  0  0  0  0  0  0  0  0  0  0
  149.2625  137.7665  153.1803 H   0  0  0  0  0  0  0  0  0  0  0  0
  1  2  1  0  0  0  0
  1 21  1  0  0  0  0
  1 22  1  0  0  0  0
  1 23  1  0  0  0  0
  2  6  1  0  0  0  0
  2  3  1  0  0  0  0
  3  4  2  0  0  0  0
  3 24  1  0  0  0  0
  4  5  1  0  0  0  0
  4 25  1  0  0  0  0
  5  6  2  0  0  0  0
  6  7  1  0  0  0  0
  7  8  1  0  0  0  0
  7 26  1  0  0  0  0
  7 27  1  0  0  0  0
  8  9  1  0  0  0  0
  8 28  1  0  0  0  0
  8 29  1  0  0  0  0
  9 10  1  0  0  0  0
 10 11  2  0  0  0  0
 10 12  1  0  0  0  0
 12 13  1  0  0  0  0
 12 16  1  0  0  0  0
 12 30  1  0  0  0  0
 13 15  1  0  0  0  0
 13 14  1  0  0  0  0
 13 31  1  0  0  0  0
 14 15  1  0  0  0  0
 14 32  1  0  0  0  0
 14 33  1  0  0  0  0
 15 34  1  0  0  0  0
 15 35  1  0  0  0  0
 16 20  1  0  0  0  0
 16 17  1  0  0  0  0
 16 44  1  0  0  0  0
 17 18  1  0  0  0  0
 17 36  1  0  0  0  0
 17 37  1  0  0  0  0
 18 19  1  0  0  0  0
 18 38  1  0  0  0  0
 18 39  1  0  0  0  0
 19 20  1  0  0  0  0
 19 40  1  0  0  0  0
 19 41  1  0  0  0  0
 20 42  1  0  0  0  0
 20 43  1  0  0  0  0
M  CHG  1   9  -1
M  CHG  1  16   1
M  END
> <s_m_source_file>
AV-unprocessed.smi

> <i_m_source_file_index>
2252

> <i_lp_mmshare_version>
43012

> <i_f3d_flags>
0

> <s_epik_input>
W0NIM11uMVtjSF1bY0hdbmMxW0NIMl1bQ0gyXVtOSF1DKD1PKVtDQEhdKFtDSF0yW0NIMl1bQ0gyXTIpTjNbQ0gyXVtDSDJdW0NIMl1bQ0gyXTM=

> <s_epik_cmdline>
J2VwaWtfcHl0aG9uJywgJy1waCcsICc3LjAnLCAnLXRuJywgJzgnLCAnLW1hJywgJzIwMCcsICctbWV0YWxfYmluZGluZycsICctaW1hZScsICc8aW5maWxlLm1hZT4nLCAnLW9tYWUnLCAnPG91dGZpbGUubWFlPic=

> <r_lp_tautomer_probability>
1

> <r_epik_Ionization_Penalty>
7.86289

> <r_epik_Ionization_Penalty_Charging>
7.86289

> <r_epik_Ionization_Penalty_Neutral>
4.79398e-13

> <r_epik_State_Penalty>
7.18546

> <r_epik_Charging_Adjusted_Penalty>
15.0484

> <i_epik_Tot_Q>
0

> <i_epik_Tot_abs_Q>
2

> <r_epik_Metal_State_Penalty>
3.4294

> <b_epik_Metal_Only>
1

> <s_lp_Force_Field>
OPLS_2005

> <r_lp_Energy>
29.989

> <b_lp_Chiralities_Consistent>
1

> <s_lp_Variant>
AV-unprocessed.smi:2252-9

> <Gold.Version>
5.8.1

> <Gold.Id.Protein>
6NUR|6NUR_protein|mol2

> <Gold.PLP.Fitness>
43.6923

> <Gold.PLP.PLP>
-38.1585

> <Gold.PLP.part.hbond>
-1.0386

> <Gold.PLP.part.metal>
0.0000

> <Gold.PLP.part.buried>
-2.4133

> <Gold.PLP.part.nonpolar>
-34.9293

> <Gold.PLP.part.repulsive>
0.0909

> <Gold.PLP.ligand.clash>
0.0000

> <Gold.PLP.ligand.torsion>
0.8352

> <Gold.PLP.Chemscore.Hbond>
1.9825

> <Gold.PLP.Chemscore.CHOScore>
0.0000

> <Gold.PLP.Chemscore.Metal>
0.0000

> <Gold.Chemscore.Hbonds>
donor molecule, donor type, donor heavy atom, donor atom, acceptor molecule, acceptor atom, score
      L1  H    16    44       P1  7948  1.98

> <Gold.PLP.Chemscore.Internal.Correction>
1.2565

> <Gold.Rescore>
     Score         DG    S(hbond)    S(metal)    S(lipo)     H(rot)  DE(clash)    DE(int)     intcor
     11.15     -15.19       1.01        0.00      95.44       1.88       0.54       3.50       ----

> <Gold.Chemscore.Fitness>
11.1547

> <Gold.Chemscore.DG>
-15.1935

> <Gold.Chemscore.ZeroCoef>
-5.4800

> <Gold.Chemscore.Hbond>
1.0069

> <Gold.Chemscore.Metal>
0.0000

> <Gold.Chemscore.Lipo>
95.4415

> <Gold.Chemscore.Internal_Hbond>
0.0000

> <Gold.Chemscore.DEClash>
0.5413

> <Gold.Chemscore.DEInternal>
3.4975

> <Gold.Chemscore.Rot>
1.8814

> <Gold.Chemscore.Internal.Correction>
   9.000000E+99

> <Gold.Chemscore.Hbonds>
donor molecule, donor type, donor heavy atom, donor atom, acceptor molecule, acceptor atom, score
      L1  H    16    44       P1  7948  0.87

> <Gold.Chemscore.Hbond.Weighted>
-3.3631

> <Gold.Chemscore.Metal.Weighted>
-0.0000

> <Gold.Chemscore.Lipo.Weighted>
-11.1667

> <Gold.Chemscore.Internal_Hbond.Weighted>
0.0000

> <Gold.Chemscore.DEClash.Weighted>
0.5413

> <Gold.Chemscore.DEInternal.Weighted>
3.4975

> <Gold.Chemscore.Rot.Weighted>
4.8163

> <Gold.Chemscore.Internal.Correction.Weighted>
   9.000000E+99

> <Gold.Protein.RotatedTorsions>
[ 6907 6896 6895 6894 ] final   47.49 input  -60.11 | X-H torsion
[ 7974 7965 7964 7962 ] final -102.14 input  175.53 | X-H torsion
[ 8008 7997 7996 7995 ] final  -87.48 input   59.86 | X-H torsion
[ 10167 10162 10161 10158 ] final    7.90 input  -65.29 | X-H torsion
[ 10718 10713 10712 10709 ] final  -25.29 input   66.30 | X-H torsion
[ 10763 10752 10751 10750 ] final   -0.11 input  -60.55 | X-H torsion
[ 11005 11000 10999 10996 ] final -163.08 input  -57.11 | X-H torsion

> <Gold.Protein.ActiveResidues>
 VAL166  LYS551  ARG553  GLY616  TRP617  ASP618  TYR619  PRO620  LYS621  CYS622 
 ASP623  PHE694  ASN695  SER759  ASP760  ASP761  ALA762  ILE779  LEU786  VAL792 
 PHE793  MET794  SER795  GLU796  ALA797  LYS798  CYS799  TRP800  GLU811  SER814 

> <Gold.Protein.RotatedAtoms>
  152.2686  134.7957  160.0417 H   0  0  0  0  0  0  0  0  0  0  0  0  # atno 6907 bound_to 6896
  151.8577  133.3446  159.3702 H   0  0  0  0  0  0  0  0  0  0  0  0  # atno 6908 bound_to 6896
  150.7143  134.5164  159.5676 H   0  0  0  0  0  0  0  0  0  0  0  0  # atno 6909 bound_to 6896
  145.2726  140.9303  143.2978 H   0  0  0  0  0  0  0  0  0  0  0  0  # atno 7974 bound_to 7965
  154.6637  140.0565  157.0090 H   0  0  0  0  0  0  0  0  0  0  0  0  # atno 8008 bound_to 7997
  155.1190  140.3245  155.4483 H   0  0  0  0  0  0  0  0  0  0  0  0  # atno 8009 bound_to 7997
  156.2629  140.2001  156.6313 H   0  0  0  0  0  0  0  0  0  0  0  0  # atno 8010 bound_to 7997
  140.6345  143.7917  150.7340 H   0  0  0  0  0  0  0  0  0  0  0  0  # atno 10167 bound_to 10162
  156.4663  130.4515  149.6897 H   0  0  0  0  0  0  0  0  0  0  0  0  # atno 10718 bound_to 10713
  153.3276  135.6973  153.6975 H   0  0  0  0  0  0  0  0  0  0  0  0  # atno 10763 bound_to 10752
  153.5790  135.3501  155.2868 H   0  0  0  0  0  0  0  0  0  0  0  0  # atno 10764 bound_to 10752
  154.8611  135.4290  154.2457 H   0  0  0  0  0  0  0  0  0  0  0  0  # atno 10765 bound_to 10752
  140.6021  134.4936  157.5206 H   0  0  0  0  0  0  0  0  0  0  0  0  # atno 11005 bound_to 11000
  144.9322  139.4285  143.6489 LP  0  0  0  0  0  0  0  0  0  0  0  0  # atno 17320 bound_to 7965
  146.3242  139.8239  142.8921 LP  0  0  0  0  0  0  0  0  0  0  0  0  # atno 17321 bound_to 7965
  140.1536  143.4336  152.2115 LP  0  0  0  0  0  0  0  0  0  0  0  0  # atno 17342 bound_to 10162
  139.5556  144.7370  151.4303 LP  0  0  0  0  0  0  0  0  0  0  0  0  # atno 17343 bound_to 10162
  156.3664  130.7508  151.2486 LP  0  0  0  0  0  0  0  0  0  0  0  0  # atno 17370 bound_to 10713
  157.7494  131.0335  150.4277 LP  0  0  0  0  0  0  0  0  0  0  0  0  # atno 17371 bound_to 10713
  139.9228  134.8115  156.1160 LP  0  0  0  0  0  0  0  0  0  0  0  0  # atno 17394 bound_to 11000
  141.0865  133.6732  156.2447 LP  0  0  0  0  0  0  0  0  0  0  0  0  # atno 17395 bound_to 11000

$$$$
