AV-unprocessed.smi:2049|AV-procd|sdf|8323|dock1
  -GOLD-   2272010583D 1   1.00000     0.00000
 Structure written by MMmdl.
 50 52  0  0  0  0  0  0  0  0  1 V2000
  145.9398  136.9478  154.3892 O   0  0  0  0  0  0  0  0  0  0  0  0
  146.1593  137.8287  153.5576 C   0  0  0  0  0  0  0  0  0  0  0  0
  145.9734  137.5455  152.0622 C   0  0  0  0  0  0  0  0  0  0  0  0
  145.1988  136.3182  151.8212 N   0  0  0  0  0  0  0  0  0  0  0  0
  145.8150  135.2918  151.0858 C   0  0  0  0  0  0  0  0  0  0  0  0
  145.1706  134.1432  150.8349 C   0  0  0  0  0  0  0  0  0  0  0  0
  143.8068  134.0296  151.3678 C   0  0  0  0  0  0  0  0  0  0  0  0
  143.2433  134.9617  152.0417 N   0  0  0  0  0  0  0  0  0  0  0  0
  143.9229  136.1659  152.3064 C   0  0  0  0  0  0  0  0  0  0  0  0
  143.3890  137.0647  152.9577 O   0  0  0  0  0  0  0  0  0  0  0  0
  146.5651  139.0663  153.8761 N   0  0  0  0  0  0  0  0  0  0  0  0
  146.7153  139.6018  155.2286 C   0  0  0  0  0  0  0  0  0  0  0  0
  147.7199  140.8030  155.2899 C   0  0  0  0  0  0  0  0  0  0  0  0
  149.1172  140.2845  155.4555 N   0  0  0  0  0  0  0  0  0  0  0  0
  150.1415  141.3231  155.6402 C   0  0  0  0  0  0  0  0  0  0  0  0
  151.5254  140.7318  155.9545 C   0  0  0  0  0  0  0  0  0  0  0  0
  151.9129  139.8474  154.9121 O   0  0  0  0  0  0  0  0  0  0  0  0
  150.9857  138.7840  154.7405 C   0  0  0  0  0  0  0  0  0  0  0  0
  149.5907  139.3503  154.4231 C   0  0  0  0  0  0  0  0  0  0  0  0
  147.5782  141.6240  153.9625 C   0  0  0  0  0  0  0  0  0  0  0  0
  146.2077  142.2973  153.7579 C   0  0  0  0  0  0  0  0  0  0  0  0
  145.8585  143.2007  154.9467 C   0  0  0  0  0  0  0  0  0  0  0  0
  145.9280  142.4269  156.2695 C   0  0  0  0  0  0  0  0  0  0  0  0
  147.2971  141.7447  156.4615 C   0  0  0  0  0  0  0  0  0  0  0  0
  145.4857  138.3924  151.5751 H   0  0  0  0  0  0  0  0  0  0  0  0
  146.9610  137.4786  151.6038 H   0  0  0  0  0  0  0  0  0  0  0  0
  146.8229  135.4941  150.7538 H   0  0  0  0  0  0  0  0  0  0  0  0
  145.5855  133.3149  150.2800 H   0  0  0  0  0  0  0  0  0  0  0  0
  143.2971  133.0877  151.1497 H   0  0  0  0  0  0  0  0  0  0  0  0
  146.7190  139.7162  153.1191 H   0  0  0  0  0  0  0  0  0  0  0  0
  145.7391  139.8585  155.6353 H   0  0  0  0  0  0  0  0  0  0  0  0
  147.0464  138.7864  155.8703 H   0  0  0  0  0  0  0  0  0  0  0  0
  150.2205  141.9370  154.7429 H   0  0  0  0  0  0  0  0  0  0  0  0
  149.8848  141.9916  156.4588 H   0  0  0  0  0  0  0  0  0  0  0  0
  152.2663  141.5266  156.0401 H   0  0  0  0  0  0  0  0  0  0  0  0
  151.5116  140.2022  156.9083 H   0  0  0  0  0  0  0  0  0  0  0  0
  151.3275  138.1435  153.9273 H   0  0  0  0  0  0  0  0  0  0  0  0
  150.9559  138.1685  155.6412 H   0  0  0  0  0  0  0  0  0  0  0  0
  148.9281  138.4942  154.3282 H   0  0  0  0  0  0  0  0  0  0  0  0
  149.6248  139.8410  153.4508 H   0  0  0  0  0  0  0  0  0  0  0  0
  148.2901  142.4458  153.9420 H   0  0  0  0  0  0  0  0  0  0  0  0
  147.8193  141.0062  153.0973 H   0  0  0  0  0  0  0  0  0  0  0  0
  146.2313  142.8938  152.8456 H   0  0  0  0  0  0  0  0  0  0  0  0
  145.4227  141.5590  153.6023 H   0  0  0  0  0  0  0  0  0  0  0  0
  146.5520  144.0419  154.9805 H   0  0  0  0  0  0  0  0  0  0  0  0
  144.8633  143.6259  154.8136 H   0  0  0  0  0  0  0  0  0  0  0  0
  145.7435  143.1102  157.0989 H   0  0  0  0  0  0  0  0  0  0  0  0
  145.1266  141.6896  156.3096 H   0  0  0  0  0  0  0  0  0  0  0  0
  147.2757  141.1967  157.4035 H   0  0  0  0  0  0  0  0  0  0  0  0
  148.0359  142.5344  156.5929 H   0  0  0  0  0  0  0  0  0  0  0  0
  1  2  2  0  0  0  0
  2  3  1  0  0  0  0
  2 11  1  0  0  0  0
  3  4  1  0  0  0  0
  3 25  1  0  0  0  0
  3 26  1  0  0  0  0
  4  9  1  0  0  0  0
  4  5  1  0  0  0  0
  5  6  2  0  0  0  0
  5 27  1  0  0  0  0
  6  7  1  0  0  0  0
  6 28  1  0  0  0  0
  7  8  2  0  0  0  0
  7 29  1  0  0  0  0
  8  9  1  0  0  0  0
  9 10  2  0  0  0  0
 11 12  1  0  0  0  0
 11 30  1  0  0  0  0
 12 13  1  0  0  0  0
 12 31  1  0  0  0  0
 12 32  1  0  0  0  0
 13 24  1  0  0  0  0
 13 14  1  0  0  0  0
 13 20  1  0  0  0  0
 14 19  1  0  0  0  0
 14 15  1  0  0  0  0
 15 16  1  0  0  0  0
 15 33  1  0  0  0  0
 15 34  1  0  0  0  0
 16 17  1  0  0  0  0
 16 35  1  0  0  0  0
 16 36  1  0  0  0  0
 17 18  1  0  0  0  0
 18 19  1  0  0  0  0
 18 37  1  0  0  0  0
 18 38  1  0  0  0  0
 19 39  1  0  0  0  0
 19 40  1  0  0  0  0
 20 21  1  0  0  0  0
 20 41  1  0  0  0  0
 20 42  1  0  0  0  0
 21 22  1  0  0  0  0
 21 43  1  0  0  0  0
 21 44  1  0  0  0  0
 22 23  1  0  0  0  0
 22 45  1  0  0  0  0
 22 46  1  0  0  0  0
 23 24  1  0  0  0  0
 23 47  1  0  0  0  0
 23 48  1  0  0  0  0
 24 49  1  0  0  0  0
 24 50  1  0  0  0  0
M  END
> <s_m_source_file>
AV-unprocessed.smi

> <i_m_source_file_index>
2049

> <i_lp_mmshare_version>
43012

> <i_f3d_flags>
0

> <s_epik_input>
Tz1jMW5bY0hdW2NIXVtjSF1uMVtDSDJdQyg9TylbTkhdW0NIMl1DMihbQ0gyXVtDSDJdW0NIMl1bQ0gyXVtDSDJdMilOM1tDSDJdW0NIMl1PW0NIMl1bQ0gyXTM=

> <s_epik_cmdline>
J2VwaWtfcHl0aG9uJywgJy1waCcsICc3LjAnLCAnLXRuJywgJzgnLCAnLW1hJywgJzIwMCcsICctbWV0YWxfYmluZGluZycsICctaW1hZScsICc8aW5maWxlLm1hZT4nLCAnLW9tYWUnLCAnPG91dGZpbGUubWFlPic=

> <r_lp_tautomer_probability>
1

> <r_epik_Ionization_Penalty>
0.421133

> <r_epik_Ionization_Penalty_Charging>
1.67008e-08

> <r_epik_Ionization_Penalty_Neutral>
0.421133

> <r_epik_State_Penalty>
0.421833

> <r_epik_Charging_Adjusted_Penalty>
0.421833

> <i_epik_Tot_Q>
0

> <i_epik_Tot_abs_Q>
0

> <r_epik_Metal_State_Penalty>
0.421832

> <b_epik_Metal_Only>
0

> <s_lp_Force_Field>
OPLS_2005

> <r_lp_Energy>
55.5371

> <b_lp_Chiralities_Consistent>
1

> <s_lp_Variant>
AV-unprocessed.smi:2049-2

> <Gold.Version>
5.8.1

> <Gold.Id.Protein>
6NUR|6NUR_protein|mol2

> <Gold.PLP.Fitness>
43.6980

> <Gold.PLP.PLP>
-39.3837

> <Gold.PLP.part.hbond>
-1.0000

> <Gold.PLP.part.metal>
0.0000

> <Gold.PLP.part.buried>
-7.0526

> <Gold.PLP.part.nonpolar>
-32.3058

> <Gold.PLP.part.repulsive>
0.5475

> <Gold.PLP.ligand.clash>
0.0000

> <Gold.PLP.ligand.torsion>
0.8500

> <Gold.PLP.Chemscore.Hbond>
0.9280

> <Gold.PLP.Chemscore.CHOScore>
1.0000

> <Gold.PLP.Chemscore.Metal>
0.0000

> <Gold.Chemscore.Hbonds>
donor molecule, donor type, donor heavy atom, donor atom, acceptor molecule, acceptor atom, score
      P1  H  7989  7998       L1    17  0.93
      L1  C     5    27       P1  7948  1.00

> <Gold.PLP.Chemscore.Internal.Correction>
0.2303

> <Gold.Rescore>
     Score         DG    S(hbond)    S(metal)    S(lipo)     H(rot)  DE(clash)    DE(int)     intcor
      9.32     -10.48       0.06        0.00      83.89       1.95       0.04       1.12       ----

> <Gold.Chemscore.Fitness>
9.3215

> <Gold.Chemscore.DG>
-10.4810

> <Gold.Chemscore.ZeroCoef>
-5.4800

> <Gold.Chemscore.Hbond>
0.0558

> <Gold.Chemscore.Metal>
0.0000

> <Gold.Chemscore.Lipo>
83.8859

> <Gold.Chemscore.Internal_Hbond>
0.0000

> <Gold.Chemscore.DEClash>
0.0436

> <Gold.Chemscore.DEInternal>
1.1159

> <Gold.Chemscore.Rot>
1.9531

> <Gold.Chemscore.Internal.Correction>
   9.000000E+99

> <Gold.Chemscore.Hbonds>
donor molecule, donor type, donor heavy atom, donor atom, acceptor molecule, acceptor atom, score
      P1  H  7989  7998       L1    17  0.12

> <Gold.Chemscore.Hbond.Weighted>
-0.1863

> <Gold.Chemscore.Metal.Weighted>
-0.0000

> <Gold.Chemscore.Lipo.Weighted>
-9.8146

> <Gold.Chemscore.Internal_Hbond.Weighted>
0.0000

> <Gold.Chemscore.DEClash.Weighted>
0.0436

> <Gold.Chemscore.DEInternal.Weighted>
1.1159

> <Gold.Chemscore.Rot.Weighted>
5.0000

> <Gold.Chemscore.Internal.Correction.Weighted>
   9.000000E+99

> <Gold.Protein.RotatedTorsions>
[ 6907 6896 6895 6894 ] final   80.29 input  -60.11 | X-H torsion
[ 7974 7965 7964 7962 ] final -143.54 input  175.53 | X-H torsion
[ 8008 7997 7996 7995 ] final  169.89 input   59.86 | X-H torsion
[ 10167 10162 10161 10158 ] final  133.96 input  -65.29 | X-H torsion
[ 10718 10713 10712 10709 ] final   49.05 input   66.30 | X-H torsion
[ 10763 10752 10751 10750 ] final  -48.51 input  -60.55 | X-H torsion
[ 11005 11000 10999 10996 ] final -166.73 input  -57.11 | X-H torsion

> <Gold.Protein.ActiveResidues>
 VAL166  LYS551  ARG553  GLY616  TRP617  ASP618  TYR619  PRO620  LYS621  CYS622 
 ASP623  PHE694  ASN695  SER759  ASP760  ASP761  ALA762  ILE779  LEU786  VAL792 
 PHE793  MET794  SER795  GLU796  ALA797  LYS798  CYS799  TRP800  GLU811  SER814 

> <Gold.Protein.RotatedAtoms>
  152.5229  134.3380  159.9206 H   0  0  0  0  0  0  0  0  0  0  0  0  # atno 6907 bound_to 6896
  151.3329  133.3987  159.2672 H   0  0  0  0  0  0  0  0  0  0  0  0  # atno 6908 bound_to 6896
  150.9865  134.9227  159.7933 H   0  0  0  0  0  0  0  0  0  0  0  0  # atno 6909 bound_to 6896
  144.8362  140.5822  143.5482 H   0  0  0  0  0  0  0  0  0  0  0  0  # atno 7974 bound_to 7965
  156.1416  140.1552  156.8911 H   0  0  0  0  0  0  0  0  0  0  0  0  # atno 8008 bound_to 7997
  154.4993  140.0830  156.7801 H   0  0  0  0  0  0  0  0  0  0  0  0  # atno 8009 bound_to 7997
  155.4067  140.3417  155.4263 H   0  0  0  0  0  0  0  0  0  0  0  0  # atno 8010 bound_to 7997
  139.5275  144.6590  151.5071 H   0  0  0  0  0  0  0  0  0  0  0  0  # atno 10167 bound_to 10162
  157.4748  130.8278  149.8028 H   0  0  0  0  0  0  0  0  0  0  0  0  # atno 10718 bound_to 10713
  154.0789  135.6594  153.4835 H   0  0  0  0  0  0  0  0  0  0  0  0  # atno 10763 bound_to 10752
  153.0363  135.5175  154.7493 H   0  0  0  0  0  0  0  0  0  0  0  0  # atno 10764 bound_to 10752
  154.6582  135.3011  154.9868 H   0  0  0  0  0  0  0  0  0  0  0  0  # atno 10765 bound_to 10752
  140.5611  134.5332  157.5143 H   0  0  0  0  0  0  0  0  0  0  0  0  # atno 11005 bound_to 11000
  145.4789  139.1497  143.3773 LP  0  0  0  0  0  0  0  0  0  0  0  0  # atno 17320 bound_to 7965
  146.2661  140.4925  142.8833 LP  0  0  0  0  0  0  0  0  0  0  0  0  # atno 17321 bound_to 7965
  140.6430  143.8851  150.6709 LP  0  0  0  0  0  0  0  0  0  0  0  0  # atno 17342 bound_to 10162
  140.2192  143.3822  152.1656 LP  0  0  0  0  0  0  0  0  0  0  0  0  # atno 17343 bound_to 10162
  156.0091  130.3841  150.2326 LP  0  0  0  0  0  0  0  0  0  0  0  0  # atno 17370 bound_to 10713
  157.0509  131.0062  151.3254 LP  0  0  0  0  0  0  0  0  0  0  0  0  # atno 17371 bound_to 10713
  139.9407  134.7792  156.0686 LP  0  0  0  0  0  0  0  0  0  0  0  0  # atno 17394 bound_to 11000
  141.1114  133.6642  156.2987 LP  0  0  0  0  0  0  0  0  0  0  0  0  # atno 17395 bound_to 11000

$$$$
