#       Name:                AV-unprocessed.smi:1325
#       Creating user name   scv26
#       Creation time:       Fri Mar 27 05:04:16 2020


#       File generated by GOLD software.
#

@<TRIPOS>MOLECULE
AV-unprocessed.smi:1325
    41    42     1
SMALL
NO_CHARGES


@<TRIPOS>ATOM
      1 ****        -2.8190   2.5796   0.5432 C.3            1 S1                 0.0000
      2 ****        -2.4702   1.1167   0.5997 C.2            1 S1                 0.0000
      3 ****        -1.2124   0.8201   0.6158 N.2            1 S1                 0.0000
      4 ****        -0.7825  -0.4921   0.6635 N.am           1 S1                 0.0000
      5 ****         0.6782  -0.6421   0.6552 C.3            1 S1                 0.0000
      6 ****         1.2589  -0.5911  -0.7752 C.3            1 S1                 0.0000
      7 ****         1.0562  -1.8427  -1.4012 O.3            1 S1                 0.0000
      8 ****         2.7350  -0.2239  -0.7514 C.ar           1 S1                 0.0000
      9 ****         3.1498   1.0573  -1.1743 C.ar           1 S1                 0.0000
     10 ****         4.5142   1.4069  -1.1483 C.ar           1 S1                 0.0000
     11 ****         5.4715   0.4782  -0.6972 C.ar           1 S1                 0.0000
     12 ****         5.0638  -0.8002  -0.2706 C.ar           1 S1                 0.0000
     13 ****         3.6998  -1.1502  -0.2966 C.ar           1 S1                 0.0000
     14 ****        -1.6065  -1.5779   0.6992 C.2            1 S1                 0.0000
     15 ****        -1.1825  -2.7337   0.7398 O.2            1 S1                 0.0000
     16 ****        -3.0303  -1.2345   0.6820 C.2            1 S1                 0.0000
     17 ****        -3.9289  -2.3429   0.7166 C.1            1 S1                 0.0000
     18 ****        -4.6743  -3.2282   0.7445 N.1            1 S1                 0.0000
     19 ****        -3.4649   0.0497   0.6348 C.2            1 S1                 0.0000
     20 ****        -4.9313   0.4588   0.6140 C.3            1 S1                 0.0000
     21 ****        -3.4088   2.8714   1.4125 H              1 S1                 0.0000
     22 ****        -3.3993   2.8045  -0.3518 H              1 S1                 0.0000
     23 ****        -1.9283   3.2096   0.5231 H              1 S1                 0.0000
     24 ****         1.0899   0.1886   1.2320 H              1 S1                 0.0000
     25 ****         1.0109  -1.5374   1.1839 H              1 S1                 0.0000
     26 ****         0.7292   0.1604  -1.3623 H              1 S1                 0.0000
     27 ****         1.3489  -1.7802  -2.2975 H              1 S1                 0.0000
     28 ****         2.4234   1.7784  -1.5194 H              1 S1                 0.0000
     29 ****         4.8260   2.3883  -1.4741 H              1 S1                 0.0000
     30 ****         6.5174   0.7466  -0.6769 H              1 S1                 0.0000
     31 ****         5.7972  -1.5125   0.0777 H              1 S1                 0.0000
     32 ****         3.3958  -2.1321   0.0357 H              1 S1                 0.0000
     33 ****        -5.6004  -0.4004   0.6471 H              1 S1                 0.0000
     34 ****        -5.1598   1.0168  -0.2947 H              1 S1                 0.0000
     35 ****        -5.1656   1.0888   1.4727 H              1 S1                 0.0000
     36 ****        -0.5358   1.5562   0.5932 LP             1 S1                 0.0000
     37 ****         0.0844  -2.0775  -1.3793 LP             1 S1                 0.0000
     38 ****         1.5803  -2.5477  -0.9235 LP             1 S1                 0.0000
     39 ****        -0.1973  -2.9048   0.7476 LP             1 S1                 0.0000
     40 ****        -1.8235  -3.5008   0.7649 LP             1 S1                 0.0000
     41 ****        -5.3182  -3.9929   0.7686 LP             1 S1                 0.0000
@<TRIPOS>BOND
    1    1    2 1     
    2    1   21 1     
    3    1   22 1     
    4    1   23 1     
    5    2   19 1     
    6    2    3 2     
    7    3    4 1     
    8    4    5 1     
    9    4   14 am    
   10    5    6 1     
   11    5   24 1     
   12    5   25 1     
   13    6    7 1     
   14    6    8 1     
   15    6   26 1     
   16    7   27 1     
   17    8   13 ar    
   18    8    9 ar    
   19    9   10 ar    
   20    9   28 1     
   21   10   11 ar    
   22   10   29 1     
   23   11   12 ar    
   24   11   30 1     
   25   12   13 ar    
   26   12   31 1     
   27   13   32 1     
   28   14   15 2     
   29   14   16 1     
   30   16   17 1     
   31   16   19 2     
   32   17   18 3     
   33   19   20 1     
   34   20   33 1     
   35   20   34 1     
   36   20   35 1     
   37    3   36 1     
   38    7   37 1     
   39    7   38 1     
   40   15   39 1     
   41   15   40 1     
   42   18   41 1     
@<TRIPOS>SUBSTRUCTURE
      1 S1             1
@<TRIPOS>SET
LONE_PAIRS      STATIC     ATOMS    <user>   **** ""
6 36 37 38 39 40 41
DONOR_HYDROGENS      STATIC     ATOMS    <user>   **** ""
1 27
ATOM$BLUE        STATIC     ATOMS    COLORGROUP SYSTEM
6 36 37 38 39 40 41
ATOM$RED        STATIC     ATOMS    COLORGROUP SYSTEM
1 27
