AV-unprocessed.smi:1677|AV-procd|sdf|6727|dock7
  -GOLD-   22720 7473D 1   1.00000     0.00000
 Structure written by MMmdl.
 36 37  0  0  0  0  0  0  0  0  1 V2000
  149.5440  138.1418  158.4805 C   0  0  0  0  0  0  0  0  0  0  0  0
  151.0677  138.3474  158.4767 C   0  0  1  0  0  0  0  0  0  0  0  0
  151.7620  137.7417  157.2377 C   0  0  0  0  0  0  0  0  0  0  0  0
  151.2591  138.2855  155.9904 N   0  0  0  0  0  0  0  0  0  0  0  0
  150.6052  137.5926  154.9802 C   0  0  0  0  0  0  0  0  0  0  0  0
  150.3180  138.5110  153.9958 C   0  0  0  0  0  0  0  0  0  0  0  0
  150.7856  139.7671  154.3756 N   0  0  0  0  0  0  0  0  0  0  0  0
  151.3332  139.5544  155.5652 C   0  0  0  0  0  0  0  0  0  0  0  0
  151.3554  139.7758  158.5638 N   0  0  0  0  0  0  0  0  0  0  0  0
  152.5805  140.3232  158.6041 C   0  0  0  0  0  0  0  0  0  0  0  0
  153.6181  139.6616  158.5578 O   0  0  0  0  0  0  0  0  0  0  0  0
  152.6411  141.8528  158.7084 C   0  0  1  0  0  0  0  0  0  0  0  0
  151.6667  142.5181  157.7101 C   0  0  0  0  0  0  0  0  0  0  0  0
  151.5259  144.0098  157.9571 C   0  0  0  0  0  0  0  0  0  0  0  0
  151.9128  144.6100  159.0958 C   0  0  0  0  0  0  0  0  0  0  0  0
  152.5284  143.8640  160.2666 C   0  0  0  0  0  0  0  0  0  0  0  0
  152.3534  142.3379  160.1438 C   0  0  0  0  0  0  0  0  0  0  0  0
  149.2827  137.0838  158.5076 H   0  0  0  0  0  0  0  0  0  0  0  0
  149.0825  138.5769  157.5935 H   0  0  0  0  0  0  0  0  0  0  0  0
  149.0888  138.6077  159.3551 H   0  0  0  0  0  0  0  0  0  0  0  0
  151.4624  137.8575  159.3691 H   0  0  0  0  0  0  0  0  0  0  0  0
  152.8383  137.9151  157.2831 H   0  0  0  0  0  0  0  0  0  0  0  0
  151.6217  136.6601  157.2128 H   0  0  0  0  0  0  0  0  0  0  0  0
  150.4032  136.5334  155.0451 H   0  0  0  0  0  0  0  0  0  0  0  0
  149.8155  138.3654  153.0508 H   0  0  0  0  0  0  0  0  0  0  0  0
  151.7942  140.3416  156.1437 H   0  0  0  0  0  0  0  0  0  0  0  0
  150.5605  140.3970  158.6032 H   0  0  0  0  0  0  0  0  0  0  0  0
  153.6542  142.1702  158.4534 H   0  0  0  0  0  0  0  0  0  0  0  0
  152.0232  142.3669  156.6905 H   0  0  0  0  0  0  0  0  0  0  0  0
  150.6727  142.0723  157.7683 H   0  0  0  0  0  0  0  0  0  0  0  0
  151.0786  144.5947  157.1667 H   0  0  0  0  0  0  0  0  0  0  0  0
  151.7987  145.6786  159.2048 H   0  0  0  0  0  0  0  0  0  0  0  0
  153.5875  144.1199  160.3099 H   0  0  0  0  0  0  0  0  0  0  0  0
  152.0780  144.2159  161.1949 H   0  0  0  0  0  0  0  0  0  0  0  0
  151.3304  142.0749  160.4189 H   0  0  0  0  0  0  0  0  0  0  0  0
  153.0031  141.8349  160.8614 H   0  0  0  0  0  0  0  0  0  0  0  0
  1  2  1  0  0  0  0
  1 18  1  0  0  0  0
  1 19  1  0  0  0  0
  1 20  1  0  0  0  0
  2  3  1  0  0  0  0
  2  9  1  0  0  0  0
  2 21  1  0  0  0  0
  3  4  1  0  0  0  0
  3 22  1  0  0  0  0
  3 23  1  0  0  0  0
  4  8  1  0  0  0  0
  4  5  1  0  0  0  0
  5  6  2  0  0  0  0
  5 24  1  0  0  0  0
  6  7  1  0  0  0  0
  6 25  1  0  0  0  0
  7  8  2  0  0  0  0
  8 26  1  0  0  0  0
  9 10  1  0  0  0  0
  9 27  1  0  0  0  0
 10 11  2  0  0  0  0
 10 12  1  0  0  0  0
 12 17  1  0  0  0  0
 12 13  1  0  0  0  0
 12 28  1  0  0  0  0
 13 14  1  0  0  0  0
 13 29  1  0  0  0  0
 13 30  1  0  0  0  0
 14 15  2  0  0  0  0
 14 31  1  0  0  0  0
 15 16  1  0  0  0  0
 15 32  1  0  0  0  0
 16 17  1  0  0  0  0
 16 33  1  0  0  0  0
 16 34  1  0  0  0  0
 17 35  1  0  0  0  0
 17 36  1  0  0  0  0
M  END
> <s_m_source_file>
AV-unprocessed.smi

> <i_m_source_file_index>
1677

> <i_lp_mmshare_version>
43012

> <i_f3d_flags>
0

> <s_epik_input>
W2NIXTFuW2NIXVtjSF1uMVtDSDJdW0NAQEhdKFtDSDNdKVtOSF1DKD1PKVtDQEBIXTJbQ0gyXVtDSF09W0NIXVtDSDJdW0NIMl0y

> <s_epik_cmdline>
J2VwaWtfcHl0aG9uJywgJy1waCcsICc3LjAnLCAnLXRuJywgJzgnLCAnLW1hJywgJzIwMCcsICctbWV0YWxfYmluZGluZycsICctaW1hZScsICc8aW5maWxlLm1hZT4nLCAnLW9tYWUnLCAnPG91dGZpbGUubWFlPic=

> <r_lp_tautomer_probability>
1

> <r_epik_Ionization_Penalty>
0.640435

> <r_epik_Ionization_Penalty_Charging>
0.640435

> <r_epik_Ionization_Penalty_Neutral>
2.11108e-08

> <r_epik_State_Penalty>
0.658069

> <r_epik_Charging_Adjusted_Penalty>
1.2985

> <i_epik_Tot_Q>
0

> <i_epik_Tot_abs_Q>
0

> <r_epik_Metal_State_Penalty>
0.311689

> <b_epik_Metal_Only>
0

> <s_lp_Force_Field>
OPLS_2005

> <r_lp_Energy>
10.2331

> <b_lp_Chiralities_Consistent>
1

> <s_lp_Variant>
AV-unprocessed.smi:1677-8

> <Gold.Version>
5.8.1

> <Gold.Id.Protein>
6NUR|6NUR_protein|mol2

> <Gold.PLP.Fitness>
45.3152

> <Gold.PLP.PLP>
-34.5350

> <Gold.PLP.part.hbond>
-2.0000

> <Gold.PLP.part.metal>
0.0000

> <Gold.PLP.part.buried>
-5.7327

> <Gold.PLP.part.nonpolar>
-27.6236

> <Gold.PLP.part.repulsive>
0.2587

> <Gold.PLP.ligand.clash>
0.0000

> <Gold.PLP.ligand.torsion>
0.4208

> <Gold.PLP.Chemscore.Hbond>
2.0000

> <Gold.PLP.Chemscore.CHOScore>
1.8623

> <Gold.PLP.Chemscore.Metal>
0.0000

> <Gold.Chemscore.Hbonds>
donor molecule, donor type, donor heavy atom, donor atom, acceptor molecule, acceptor atom, score
      P1  H  7989  7998       L1     7  1.00
      P1  H  7997  8008       L1    11  1.00
      L1  C     6    25       P1  7948  0.96
      L1  C     6    25       P1  7957  0.95

> <Gold.PLP.Chemscore.Internal.Correction>
0.0348

> <Gold.Rescore>
     Score         DG    S(hbond)    S(metal)    S(lipo)     H(rot)  DE(clash)    DE(int)     intcor
     15.64     -18.13       1.92        0.00      91.67       1.75       0.00       2.49       ----

> <Gold.Chemscore.Fitness>
15.6359

> <Gold.Chemscore.DG>
-18.1288

> <Gold.Chemscore.ZeroCoef>
-5.4800

> <Gold.Chemscore.Hbond>
1.9153

> <Gold.Chemscore.Metal>
0.0000

> <Gold.Chemscore.Lipo>
91.6689

> <Gold.Chemscore.Internal_Hbond>
0.0000

> <Gold.Chemscore.DEClash>
0.0000

> <Gold.Chemscore.DEInternal>
2.4929

> <Gold.Chemscore.Rot>
1.7475

> <Gold.Chemscore.Internal.Correction>
   9.000000E+99

> <Gold.Chemscore.Hbonds>
donor molecule, donor type, donor heavy atom, donor atom, acceptor molecule, acceptor atom, score
      P1  H  7989  7998       L1     7  0.82
      P1  H  7997  8008       L1    11  0.82

> <Gold.Chemscore.Hbond.Weighted>
-6.3971

> <Gold.Chemscore.Metal.Weighted>
-0.0000

> <Gold.Chemscore.Lipo.Weighted>
-10.7253

> <Gold.Chemscore.Internal_Hbond.Weighted>
0.0000

> <Gold.Chemscore.DEClash.Weighted>
0.0000

> <Gold.Chemscore.DEInternal.Weighted>
2.4929

> <Gold.Chemscore.Rot.Weighted>
4.4735

> <Gold.Chemscore.Internal.Correction.Weighted>
   9.000000E+99

> <Gold.Protein.RotatedTorsions>
[ 6907 6896 6895 6894 ] final   56.42 input  -60.11 | X-H torsion
[ 7974 7965 7964 7962 ] final  -71.75 input  175.53 | X-H torsion
[ 8008 7997 7996 7995 ] final  -87.53 input   59.86 | X-H torsion
[ 10167 10162 10161 10158 ] final  -90.02 input  -65.29 | X-H torsion
[ 10718 10713 10712 10709 ] final  159.48 input   66.30 | X-H torsion
[ 10763 10752 10751 10750 ] final  -51.87 input  -60.55 | X-H torsion
[ 11005 11000 10999 10996 ] final   51.74 input  -57.11 | X-H torsion

> <Gold.Protein.ActiveResidues>
 VAL166  LYS551  ARG553  GLY616  TRP617  ASP618  TYR619  PRO620  LYS621  CYS622 
 ASP623  PHE694  ASN695  SER759  ASP760  ASP761  ALA762  ILE779  LEU786  VAL792 
 PHE793  MET794  SER795  GLU796  ALA797  LYS798  CYS799  TRP800  GLU811  SER814 

> <Gold.Protein.RotatedAtoms>
  152.3634  134.6839  160.0199 H   0  0  0  0  0  0  0  0  0  0  0  0  # atno 6907 bound_to 6896
  151.7154  133.3308  159.3309 H   0  0  0  0  0  0  0  0  0  0  0  0  # atno 6908 bound_to 6896
  150.7621  134.6429  159.6291 H   0  0  0  0  0  0  0  0  0  0  0  0  # atno 6909 bound_to 6896
  145.6740  140.9211  143.0868 H   0  0  0  0  0  0  0  0  0  0  0  0  # atno 7974 bound_to 7965
  154.6643  140.0565  157.0096 H   0  0  0  0  0  0  0  0  0  0  0  0  # atno 8008 bound_to 7997
  155.1183  140.3245  155.4485 H   0  0  0  0  0  0  0  0  0  0  0  0  # atno 8009 bound_to 7997
  156.2631  140.2002  156.6305 H   0  0  0  0  0  0  0  0  0  0  0  0  # atno 8010 bound_to 7997
  140.3591  143.2851  151.9636 H   0  0  0  0  0  0  0  0  0  0  0  0  # atno 10167 bound_to 10162
  157.1636  131.0593  151.2219 H   0  0  0  0  0  0  0  0  0  0  0  0  # atno 10718 bound_to 10713
  154.1335  135.6516  153.4927 H   0  0  0  0  0  0  0  0  0  0  0  0  # atno 10763 bound_to 10752
  153.0188  135.5298  154.6977 H   0  0  0  0  0  0  0  0  0  0  0  0  # atno 10764 bound_to 10752
  154.6218  135.2965  155.0287 H   0  0  0  0  0  0  0  0  0  0  0  0  # atno 10765 bound_to 10752
  140.0908  134.5212  155.8854 H   0  0  0  0  0  0  0  0  0  0  0  0  # atno 11005 bound_to 11000
  144.7047  139.8610  143.7433 LP  0  0  0  0  0  0  0  0  0  0  0  0  # atno 17320 bound_to 7965
  146.1021  139.4017  143.0340 LP  0  0  0  0  0  0  0  0  0  0  0  0  # atno 17321 bound_to 7965
  139.4816  144.6009  151.7608 LP  0  0  0  0  0  0  0  0  0  0  0  0  # atno 17342 bound_to 10162
  140.5145  144.0974  150.6004 LP  0  0  0  0  0  0  0  0  0  0  0  0  # atno 17343 bound_to 10162
  157.4109  130.7385  149.6838 LP  0  0  0  0  0  0  0  0  0  0  0  0  # atno 17370 bound_to 10713
  155.9750  130.4095  150.3884 LP  0  0  0  0  0  0  0  0  0  0  0  0  # atno 17371 bound_to 10713
  141.2077  133.6666  156.6323 LP  0  0  0  0  0  0  0  0  0  0  0  0  # atno 17394 bound_to 11000
  140.3355  134.7892  157.4359 LP  0  0  0  0  0  0  0  0  0  0  0  0  # atno 17395 bound_to 11000

$$$$
