AV-unprocessed.smi:111|AV-procd|sdf|1079|dock3
  -GOLD-   2262018163D 1   1.00000     0.00000
 Structure written by MMmdl.
 46 48  0  0  0  0  0  0  0  0  1 V2000
  147.7690  138.1329  155.8361 O   0  0  0  0  0  0  0  0  0  0  0  0
  147.9006  137.5831  156.9312 C   0  0  0  0  0  0  0  0  0  0  0  0
  146.7766  137.0902  157.7190 C   0  0  0  0  0  0  0  0  0  0  0  0
  145.5262  137.2132  157.2427 F   0  0  0  0  0  0  0  0  0  0  0  0
  146.9702  136.5163  158.9253 C   0  0  0  0  0  0  0  0  0  0  0  0
  148.2225  136.3564  159.4930 N   0  0  0  0  0  0  0  0  0  0  0  0
  148.3877  135.7264  160.8576 C   0  0  2  0  0  0  0  0  0  0  0  0
  147.8078  134.3080  160.8608 C   0  0  0  0  0  0  0  0  0  0  0  0
  146.4136  134.5415  161.4012 C   0  0  0  0  0  0  0  0  0  0  0  0
  146.6533  135.6794  162.3868 C   0  0  0  0  0  0  0  0  0  0  0  0
  147.6741  136.4792  161.7960 O   0  0  0  0  0  0  0  0  0  0  0  0
  149.3719  136.7766  158.7884 C   0  0  0  0  0  0  0  0  0  0  0  0
  150.4961  136.6115  159.2669 O   0  0  0  0  0  0  0  0  0  0  0  0
  149.1717  137.3878  157.5268 N   0  0  0  0  0  0  0  0  0  0  0  0
  150.3322  137.8735  156.7931 C   0  0  0  0  0  0  0  0  0  0  0  0
  150.2687  139.3778  156.4362 C   0  0  2  0  0  0  0  0  0  0  0  0
  151.3509  139.6658  155.5746 O   0  0  0  0  0  0  0  0  0  0  0  0
  150.3234  140.3322  157.6535 C   0  0  0  0  0  0  0  0  0  0  0  0
  150.8261  141.7471  157.3177 C   0  0  0  0  0  0  0  0  0  0  0  0
  151.1657  142.5698  158.5490 C   0  0  0  0  0  0  0  0  0  0  0  0
  151.5307  141.9349  159.7553 C   0  0  0  0  0  0  0  0  0  0  0  0
  151.8457  142.7034  160.8927 C   0  0  0  0  0  0  0  0  0  0  0  0
  151.7930  144.1093  160.8306 C   0  0  0  0  0  0  0  0  0  0  0  0
  151.4258  144.7466  159.6300 C   0  0  0  0  0  0  0  0  0  0  0  0
  151.1129  143.9786  158.4917 C   0  0  0  0  0  0  0  0  0  0  0  0
  146.0985  136.1725  159.4615 H   0  0  0  0  0  0  0  0  0  0  0  0
  149.4525  135.7713  161.0921 H   0  0  0  0  0  0  0  0  0  0  0  0
  147.8328  133.8452  159.8733 H   0  0  0  0  0  0  0  0  0  0  0  0
  148.3884  133.6972  161.5531 H   0  0  0  0  0  0  0  0  0  0  0  0
  145.7473  134.8659  160.6010 H   0  0  0  0  0  0  0  0  0  0  0  0
  145.9810  133.6566  161.8683 H   0  0  0  0  0  0  0  0  0  0  0  0
  145.7531  136.2618  162.5847 H   0  0  0  0  0  0  0  0  0  0  0  0
  147.0214  135.2877  163.3361 H   0  0  0  0  0  0  0  0  0  0  0  0
  151.2387  137.6279  157.3473 H   0  0  0  0  0  0  0  0  0  0  0  0
  150.3896  137.2591  155.8921 H   0  0  0  0  0  0  0  0  0  0  0  0
  149.3716  139.5719  155.8494 H   0  0  0  0  0  0  0  0  0  0  0  0
  151.9907  138.9750  155.6551 H   0  0  0  0  0  0  0  0  0  0  0  0
  149.3496  140.4085  158.1335 H   0  0  0  0  0  0  0  0  0  0  0  0
  150.9733  139.9105  158.4217 H   0  0  0  0  0  0  0  0  0  0  0  0
  151.7239  141.6740  156.7030 H   0  0  0  0  0  0  0  0  0  0  0  0
  150.0882  142.2734  156.7108 H   0  0  0  0  0  0  0  0  0  0  0  0
  151.5760  140.8571  159.8108 H   0  0  0  0  0  0  0  0  0  0  0  0
  152.1311  142.2139  161.8121 H   0  0  0  0  0  0  0  0  0  0  0  0
  152.0383  144.6985  161.7019 H   0  0  0  0  0  0  0  0  0  0  0  0
  151.3902  145.8248  159.5798 H   0  0  0  0  0  0  0  0  0  0  0  0
  150.8378  144.4738  157.5721 H   0  0  0  0  0  0  0  0  0  0  0  0
  1  2  2  0  0  0  0
  2 14  1  0  0  0  0
  2  3  1  0  0  0  0
  3  4  1  0  0  0  0
  3  5  2  0  0  0  0
  5  6  1  0  0  0  0
  5 26  1  0  0  0  0
  6  7  1  0  0  0  0
  6 12  1  0  0  0  0
  7 11  1  0  0  0  0
  7  8  1  0  0  0  0
  7 27  1  0  0  0  0
  8  9  1  0  0  0  0
  8 28  1  0  0  0  0
  8 29  1  0  0  0  0
  9 10  1  0  0  0  0
  9 30  1  0  0  0  0
  9 31  1  0  0  0  0
 10 11  1  0  0  0  0
 10 32  1  0  0  0  0
 10 33  1  0  0  0  0
 12 13  2  0  0  0  0
 12 14  1  0  0  0  0
 14 15  1  0  0  0  0
 15 16  1  0  0  0  0
 15 34  1  0  0  0  0
 15 35  1  0  0  0  0
 16 17  1  0  0  0  0
 16 18  1  0  0  0  0
 16 36  1  0  0  0  0
 17 37  1  0  0  0  0
 18 19  1  0  0  0  0
 18 38  1  0  0  0  0
 18 39  1  0  0  0  0
 19 20  1  0  0  0  0
 19 40  1  0  0  0  0
 19 41  1  0  0  0  0
 20 25  1  0  0  0  0
 20 21  2  0  0  0  0
 21 22  1  0  0  0  0
 21 42  1  0  0  0  0
 22 23  2  0  0  0  0
 22 43  1  0  0  0  0
 23 24  1  0  0  0  0
 23 44  1  0  0  0  0
 24 25  2  0  0  0  0
 24 45  1  0  0  0  0
 25 46  1  0  0  0  0
M  END
> <s_m_source_file>
AV-unprocessed.smi

> <i_m_source_file_index>
111

> <i_lp_mmshare_version>
43012

> <i_f3d_flags>
0

> <s_epik_input>
TzFbQ0gyXVtDSDJdW0NIMl1bQ0BIXTFuKFtjSF1jKEYpYzI9TyljKD1PKW4yW0NIMl1bQ0BIXShbT0hdKVtDSDJdW0NIMl1jM1tjSF1bY0hdW2NIXVtjSF1bY0hdMw==

> <s_epik_cmdline>
J2VwaWtfcHl0aG9uJywgJy1waCcsICc3LjAnLCAnLXRuJywgJzgnLCAnLW1hJywgJzIwMCcsICctbWV0YWxfYmluZGluZycsICctaW1hZScsICc8aW5maWxlLm1hZT4nLCAnLW9tYWUnLCAnPG91dGZpbGUubWFlPic=

> <r_lp_tautomer_probability>
1

> <r_epik_Ionization_Penalty>
1.88248e-07

> <r_epik_Ionization_Penalty_Charging>
4.03974e-08

> <r_epik_Ionization_Penalty_Neutral>
1.47851e-07

> <r_epik_State_Penalty>
-0

> <r_epik_Charging_Adjusted_Penalty>
4.03974e-08

> <i_epik_Tot_Q>
0

> <i_epik_Tot_abs_Q>
0

> <r_epik_Metal_State_Penalty>
-0

> <b_epik_Metal_Only>
0

> <s_epik_Chemistry_Notes>
This compound contains an acetal/aminal-like group ( X-CH(R)-Y where X, Y are N, S, or O) that may be acid/base labile, releasing an aldehyde.

> <s_lp_Force_Field>
OPLS_2005

> <r_lp_Energy>
34.4162

> <b_lp_Chiralities_Consistent>
1

> <s_lp_Variant>
AV-unprocessed.smi:111-1

> <Gold.Version>
5.8.1

> <Gold.Id.Protein>
6NUR|6NUR_protein|mol2

> <Gold.PLP.Fitness>
52.6185

> <Gold.PLP.PLP>
-43.7110

> <Gold.PLP.part.hbond>
-3.8577

> <Gold.PLP.part.metal>
0.0000

> <Gold.PLP.part.buried>
-5.7357

> <Gold.PLP.part.nonpolar>
-33.6982

> <Gold.PLP.part.repulsive>
0.0216

> <Gold.PLP.ligand.clash>
0.0000

> <Gold.PLP.ligand.torsion>
0.6965

> <Gold.PLP.Chemscore.Hbond>
3.4119

> <Gold.PLP.Chemscore.CHOScore>
0.0000

> <Gold.PLP.Chemscore.Metal>
0.0000

> <Gold.Chemscore.Hbonds>
donor molecule, donor type, donor heavy atom, donor atom, acceptor molecule, acceptor atom, score
      P1  H  6896  6908       L1    13  1.00
      P1  H  6931  6943       L1    11  0.48
      P1  H  7989  7998       L1    17  0.05

> <Gold.PLP.Chemscore.Internal.Correction>
0.0649

> <Gold.Rescore>
     Score         DG    S(hbond)    S(metal)    S(lipo)     H(rot)  DE(clash)    DE(int)     intcor
     18.47     -20.11       2.68        0.00     107.06       2.67       0.01       1.63       ----

> <Gold.Chemscore.Fitness>
18.4722

> <Gold.Chemscore.DG>
-20.1071

> <Gold.Chemscore.ZeroCoef>
-5.4800

> <Gold.Chemscore.Hbond>
2.6788

> <Gold.Chemscore.Metal>
0.0000

> <Gold.Chemscore.Lipo>
107.0623

> <Gold.Chemscore.Internal_Hbond>
0.0000

> <Gold.Chemscore.DEClash>
0.0052

> <Gold.Chemscore.DEInternal>
1.6297

> <Gold.Chemscore.Rot>
2.6743

> <Gold.Chemscore.Internal.Correction>
   9.000000E+99

> <Gold.Chemscore.Hbonds>
donor molecule, donor type, donor heavy atom, donor atom, acceptor molecule, acceptor atom, score
      P1  H  6896  6908       L1    13  1.00
      P1  H  6931  6943       L1    11  0.11
      P1  H  7989  7998       L1    17  0.08

> <Gold.Chemscore.Hbond.Weighted>
-8.9471

> <Gold.Chemscore.Metal.Weighted>
-0.0000

> <Gold.Chemscore.Lipo.Weighted>
-12.5263

> <Gold.Chemscore.Internal_Hbond.Weighted>
0.0000

> <Gold.Chemscore.DEClash.Weighted>
0.0052

> <Gold.Chemscore.DEInternal.Weighted>
1.6297

> <Gold.Chemscore.Rot.Weighted>
6.8463

> <Gold.Chemscore.Internal.Correction.Weighted>
   9.000000E+99

> <Gold.Protein.RotatedTorsions>
[ 6907 6896 6895 6894 ] final -149.58 input  -60.11 | X-H torsion
[ 7974 7965 7964 7962 ] final  121.76 input  175.53 | X-H torsion
[ 8008 7997 7996 7995 ] final  106.41 input   59.86 | X-H torsion
[ 10167 10162 10161 10158 ] final  118.89 input  -65.29 | X-H torsion
[ 10718 10713 10712 10709 ] final  154.02 input   66.30 | X-H torsion
[ 10763 10752 10751 10750 ] final -167.34 input  -60.55 | X-H torsion
[ 11005 11000 10999 10996 ] final -115.36 input  -57.11 | X-H torsion

> <Gold.Protein.ActiveResidues>
 VAL166  LYS551  ARG553  GLY616  TRP617  ASP618  TYR619  PRO620  LYS621  CYS622 
 ASP623  PHE694  ASN695  SER759  ASP760  ASP761  ALA762  ILE779  LEU786  VAL792 
 PHE793  MET794  SER795  GLU796  ALA797  LYS798  CYS799  TRP800  GLU811  SER814 

> <Gold.Protein.RotatedAtoms>
  151.1861  133.4695  159.2594 H   0  0  0  0  0  0  0  0  0  0  0  0  # atno 6907 bound_to 6896
  151.1210  135.0079  159.8548 H   0  0  0  0  0  0  0  0  0  0  0  0  # atno 6908 bound_to 6896
  152.5456  134.1772  159.8674 H   0  0  0  0  0  0  0  0  0  0  0  0  # atno 6909 bound_to 6896
  145.1155  139.3424  143.4741 H   0  0  0  0  0  0  0  0  0  0  0  0  # atno 7974 bound_to 7965
  156.1741  140.3113  155.9026 H   0  0  0  0  0  0  0  0  0  0  0  0  # atno 8008 bound_to 7997
  155.3525  140.0472  157.3063 H   0  0  0  0  0  0  0  0  0  0  0  0  # atno 8009 bound_to 7997
  154.5271  140.2218  155.8880 H   0  0  0  0  0  0  0  0  0  0  0  0  # atno 8010 bound_to 7997
  139.6082  144.7075  151.2905 H   0  0  0  0  0  0  0  0  0  0  0  0  # atno 10167 bound_to 10162
  157.2371  131.0751  151.1816 H   0  0  0  0  0  0  0  0  0  0  0  0  # atno 10718 bound_to 10713
  154.6741  135.2944  154.9702 H   0  0  0  0  0  0  0  0  0  0  0  0  # atno 10763 bound_to 10752
  154.0719  135.6617  153.4829 H   0  0  0  0  0  0  0  0  0  0  0  0  # atno 10764 bound_to 10752
  153.0505  135.5177  154.7752 H   0  0  0  0  0  0  0  0  0  0  0  0  # atno 10765 bound_to 10752
  141.0493  133.9713  157.2864 H   0  0  0  0  0  0  0  0  0  0  0  0  # atno 11005 bound_to 11000
  146.3524  140.1092  142.8604 LP  0  0  0  0  0  0  0  0  0  0  0  0  # atno 17320 bound_to 7965
  145.0799  140.9213  143.4832 LP  0  0  0  0  0  0  0  0  0  0  0  0  # atno 17321 bound_to 7965
  140.7300  143.6892  150.7936 LP  0  0  0  0  0  0  0  0  0  0  0  0  # atno 17342 bound_to 10162
  140.0482  143.5277  152.2686 LP  0  0  0  0  0  0  0  0  0  0  0  0  # atno 17343 bound_to 10162
  157.3417  130.7037  149.6386 LP  0  0  0  0  0  0  0  0  0  0  0  0  # atno 17370 bound_to 10713
  155.9672  130.4278  150.4759 LP  0  0  0  0  0  0  0  0  0  0  0  0  # atno 17371 bound_to 10713
  139.9337  135.0198  156.8485 LP  0  0  0  0  0  0  0  0  0  0  0  0  # atno 17394 bound_to 11000
  140.6087  134.0103  155.7567 LP  0  0  0  0  0  0  0  0  0  0  0  0  # atno 17395 bound_to 11000

$$$$
