#       Name:                AV-unprocessed.smi:3287
#       Creating user name   scv26
#       Creation time:       Fri Mar 27 18:51:35 2020


#       File generated by GOLD software.
#

@<TRIPOS>MOLECULE
AV-unprocessed.smi:3287
    46    47     1
SMALL
NO_CHARGES


@<TRIPOS>ATOM
      1 ****        -4.6142   0.0262   0.3271 C.3            1 S1                 0.0000
      2 ****        -3.4211   0.9488   0.0195 C.3            1 S1                 0.0000
      3 ****        -2.9360   0.7112  -1.4250 C.3            1 S1                 0.0000
      4 ****        -1.7449   1.6098  -1.7953 C.3            1 S1                 0.0000
      5 ****        -0.5740   1.4509  -0.8111 C.3            1 S1                 0.0000
      6 ****         0.0690   0.1273  -0.9812 N.4            1 S1                 1.0000
      7 ****         1.4239  -0.0044  -0.4031 C.3            1 S1                 0.0000
      8 ****         2.0014  -1.4092  -0.6468 C.3            1 S1                 0.0000
      9 ****         1.1769  -2.3573   0.0037 O.3            1 S1                 0.0000
     10 ****         3.4442  -1.4985  -0.1753 C.ar           1 S1                 0.0000
     11 ****         4.5045  -1.4427  -1.1041 C.ar           1 S1                 0.0000
     12 ****         5.8268  -1.5220  -0.6231 C.ar           1 S1                 0.0000
     13 ****         6.1334  -1.6467   0.6858 N.ar           1 S1                 0.0000
     14 ****         5.1154  -1.6972   1.5713 C.ar           1 S1                 0.0000
     15 ****         3.7593  -1.6257   1.1953 C.ar           1 S1                 0.0000
     16 ****        -1.0626   1.6865   0.6334 C.3            1 S1                 0.0000
     17 ****        -2.2512   0.7812   1.0251 C.3            1 S1                 0.0000
     18 ****        -2.6654   1.0674   2.4795 C.3            1 S1                 0.0000
     19 ****        -4.3104  -1.0206   0.3555 H              1 S1                 0.0000
     20 ****        -5.3903   0.1247  -0.4324 H              1 S1                 0.0000
     21 ****        -5.0780   0.2679   1.2830 H              1 S1                 0.0000
     22 ****        -3.7783   1.9780   0.0829 H              1 S1                 0.0000
     23 ****        -2.6588  -0.3361  -1.5521 H              1 S1                 0.0000
     24 ****        -3.7527   0.8944  -2.1244 H              1 S1                 0.0000
     25 ****        -1.4162   1.3961  -2.8131 H              1 S1                 0.0000
     26 ****        -2.0731   2.6503  -1.7962 H              1 S1                 0.0000
     27 ****         0.1711   2.2086  -1.0586 H              1 S1                 0.0000
     28 ****        -0.5290  -0.5786  -0.5749 H              1 S1                 0.0000
     29 ****         2.0715   0.7429  -0.8637 H              1 S1                 0.0000
     30 ****         1.4036   0.2062   0.6662 H              1 S1                 0.0000
     31 ****         1.9737  -1.6311  -1.7147 H              1 S1                 0.0000
     32 ****         1.5147  -3.2220  -0.1760 H              1 S1                 0.0000
     33 ****         4.3157  -1.3407  -2.1629 H              1 S1                 0.0000
     34 ****         6.6603  -1.4826  -1.3089 H              1 S1                 0.0000
     35 ****         5.3891  -1.7955   2.6113 H              1 S1                 0.0000
     36 ****         2.9834  -1.6673   1.9459 H              1 S1                 0.0000
     37 ****        -0.2444   1.5607   1.3418 H              1 S1                 0.0000
     38 ****        -1.3690   2.7293   0.7296 H              1 S1                 0.0000
     39 ****        -1.9121  -0.2549   0.9838 H              1 S1                 0.0000
     40 ****        -3.0858   2.0680   2.5834 H              1 S1                 0.0000
     41 ****        -1.8095   0.9974   3.1512 H              1 S1                 0.0000
     42 ****        -3.4054   0.3529   2.8387 H              1 S1                 0.0000
     43 ****         0.1456  -0.0531  -1.9720 H              1 S1                 0.0000
     44 ****         0.2408  -2.2826  -0.3401 LP             1 S1                 0.0000
     45 ****         1.1841  -2.1905   0.9897 LP             1 S1                 0.0000
     46 ****         7.0845  -1.7000   0.9899 LP             1 S1                 0.0000
@<TRIPOS>BOND
    1    1    2 1     
    2    1   19 1     
    3    1   20 1     
    4    1   21 1     
    5    2   17 1     
    6    2    3 1     
    7    2   22 1     
    8    3    4 1     
    9    3   23 1     
   10    3   24 1     
   11    4    5 1     
   12    4   25 1     
   13    4   26 1     
   14    5    6 1     
   15    5   16 1     
   16    5   27 1     
   17    6    7 1     
   18    6   28 1     
   19    6   43 1     
   20    7    8 1     
   21    7   29 1     
   22    7   30 1     
   23    8    9 1     
   24    8   10 1     
   25    8   31 1     
   26    9   32 1     
   27   10   15 ar    
   28   10   11 ar    
   29   11   12 ar    
   30   11   33 1     
   31   12   13 ar    
   32   12   34 1     
   33   13   14 ar    
   34   14   15 ar    
   35   14   35 1     
   36   15   36 1     
   37   16   17 1     
   38   16   37 1     
   39   16   38 1     
   40   17   18 1     
   41   17   39 1     
   42   18   40 1     
   43   18   41 1     
   44   18   42 1     
   45    9   44 1     
   46    9   45 1     
   47   13   46 1     
@<TRIPOS>SUBSTRUCTURE
      1 S1             1
@<TRIPOS>SET
LONE_PAIRS      STATIC     ATOMS    <user>   **** ""
3 44 45 46
DONOR_HYDROGENS      STATIC     ATOMS    <user>   **** ""
3 28 43 32
ATOM$BLUE        STATIC     ATOMS    COLORGROUP SYSTEM
3 44 45 46
ATOM$RED        STATIC     ATOMS    COLORGROUP SYSTEM
3 28 43 32
