AV-unprocessed.smi:1381|AV-procd|sdf|5612|dock5
  -GOLD-   22720 5223D 1   1.00000     0.00000
 Structure written by MMmdl.
 42 43  0  0  0  0  0  0  0  0  3 V2000
  152.2470  140.8117  159.1892 C   0  0  0  0  0  0  0  0  0  0  0  0
  151.9407  140.5440  157.7551 C   0  0  0  0  0  0  0  0  0  0  0  0
  150.9082  140.9179  156.9428 C   0  0  0  0  0  0  0  0  0  0  0  0
  151.2424  140.3213  155.6965 C   0  0  0  0  0  0  0  0  0  0  0  0
  150.5159  140.3922  154.5703 N   0  5  0  0  0  0  0  0  0  0  0  0
  149.1648  140.4023  154.6314 C   0  0  0  0  0  0  0  0  0  0  0  0
  148.4771  140.5281  155.6472 O   0  0  0  0  0  0  0  0  0  0  0  0
  148.5721  140.2518  153.4397 N   0  0  0  0  0  0  0  0  0  0  0  0
  147.1336  140.2057  153.2154 C   0  0  0  0  0  0  0  0  0  0  0  0
  146.7793  139.0357  152.2842 C   0  0  0  0  0  0  0  0  0  0  0  0
  145.5601  138.3084  152.7178 N   0  3  1  0  0  0  0  0  0  0  0  0
  145.3808  137.0318  151.9863 C   0  0  0  0  0  0  0  0  0  0  0  0
  144.0799  136.3317  152.4224 C   0  0  1  0  0  0  0  0  0  0  0  0
  143.9048  134.9666  151.7477 C   0  0  0  0  0  0  0  0  0  0  0  0
  144.1112  136.1275  153.8304 O   0  0  0  0  0  0  0  0  0  0  0  0
  144.1899  137.3484  154.5577 C   0  0  1  0  0  0  0  0  0  0  0  0
  144.1213  137.0195  156.0531 C   0  0  0  0  0  0  0  0  0  0  0  0
  145.4948  138.0755  154.1822 C   0  0  0  0  0  0  0  0  0  0  0  0
  152.3706  139.6332  155.7516 N   0  0  0  0  0  0  0  0  0  0  0  0
  152.8283  139.7762  157.0670 O   0  0  0  0  0  0  0  0  0  0  0  0
  151.4871  140.3699  159.8335 H   0  0  0  0  0  0  0  0  0  0  0  0
  152.2732  141.8837  159.3835 H   0  0  0  0  0  0  0  0  0  0  0  0
  153.2136  140.3935  159.4708 H   0  0  0  0  0  0  0  0  0  0  0  0
  150.0516  141.5235  157.1978 H   0  0  0  0  0  0  0  0  0  0  0  0
  149.1703  140.1562  152.6320 H   0  0  0  0  0  0  0  0  0  0  0  0
  146.6293  140.1012  154.1762 H   0  0  0  0  0  0  0  0  0  0  0  0
  146.8104  141.1518  152.7788 H   0  0  0  0  0  0  0  0  0  0  0  0
  146.6151  139.4368  151.2827 H   0  0  0  0  0  0  0  0  0  0  0  0
  147.6156  138.3392  152.2051 H   0  0  0  0  0  0  0  0  0  0  0  0
  145.3514  137.2241  150.9128 H   0  0  0  0  0  0  0  0  0  0  0  0
  146.2391  136.3838  152.1727 H   0  0  0  0  0  0  0  0  0  0  0  0
  143.2220  136.9572  152.1687 H   0  0  0  0  0  0  0  0  0  0  0  0
  143.8589  135.0667  150.6630 H   0  0  0  0  0  0  0  0  0  0  0  0
  142.9831  134.4849  152.0757 H   0  0  0  0  0  0  0  0  0  0  0  0
  144.7323  134.2981  151.9879 H   0  0  0  0  0  0  0  0  0  0  0  0
  143.3332  137.9745  154.3022 H   0  0  0  0  0  0  0  0  0  0  0  0
  144.1693  137.9260  156.6570 H   0  0  0  0  0  0  0  0  0  0  0  0
  144.9459  136.3726  156.3541 H   0  0  0  0  0  0  0  0  0  0  0  0
  143.1901  136.5073  156.2970 H   0  0  0  0  0  0  0  0  0  0  0  0
  146.3583  137.4864  154.4957 H   0  0  0  0  0  0  0  0  0  0  0  0
  145.5416  139.0213  154.7205 H   0  0  0  0  0  0  0  0  0  0  0  0
  144.7724  138.8913  152.4727 H   0  0  0  0  0  0  0  0  0  0  0  0
  1  2  1  0  0  0  0
  1 21  1  0  0  0  0
  1 22  1  0  0  0  0
  1 23  1  0  0  0  0
  2 20  1  0  0  0  0
  2  3  2  0  0  0  0
  3  4  1  0  0  0  0
  3 24  1  0  0  0  0
  4  5  1  0  0  0  0
  4 19  2  0  0  0  0
  5  6  1  0  0  0  0
  6  7  2  0  0  0  0
  6  8  1  0  0  0  0
  8  9  1  0  0  0  0
  8 25  1  0  0  0  0
  9 10  1  0  0  0  0
  9 26  1  0  0  0  0
  9 27  1  0  0  0  0
 10 11  1  0  0  0  0
 10 28  1  0  0  0  0
 10 29  1  0  0  0  0
 11 18  1  0  0  0  0
 11 12  1  0  0  0  0
 11 42  1  0  0  0  0
 12 13  1  0  0  0  0
 12 30  1  0  0  0  0
 12 31  1  0  0  0  0
 13 14  1  0  0  0  0
 13 15  1  0  0  0  0
 13 32  1  0  0  0  0
 14 33  1  0  0  0  0
 14 34  1  0  0  0  0
 14 35  1  0  0  0  0
 15 16  1  0  0  0  0
 16 17  1  0  0  0  0
 16 18  1  0  0  0  0
 16 36  1  0  0  0  0
 17 37  1  0  0  0  0
 17 38  1  0  0  0  0
 17 39  1  0  0  0  0
 18 40  1  0  0  0  0
 18 41  1  0  0  0  0
 19 20  1  0  0  0  0
M  CHG  1   5  -1
M  CHG  1  11   1
M  END
> <s_m_source_file>
AV-unprocessed.smi

> <i_m_source_file_index>
1381

> <i_lp_mmshare_version>
43012

> <i_f3d_flags>
0

> <s_epik_input>
W0NIM11jMVtjSF1jKG5vMSlbTkhdQyg9TylbTkhdW0NIMl1bQ0gyXU4yW0NIMl1bQ0BASF0oW0NIM10pT1tDQEBIXShbQ0gzXSlbQ0gyXTI=

> <s_epik_cmdline>
J2VwaWtfcHl0aG9uJywgJy1waCcsICc3LjAnLCAnLXRuJywgJzgnLCAnLW1hJywgJzIwMCcsICctbWV0YWxfYmluZGluZycsICctaW1hZScsICc8aW5maWxlLm1hZT4nLCAnLW9tYWUnLCAnPG91dGZpbGUubWFlPic=

> <r_epik_Ionization_Penalty>
6.73511

> <r_epik_Ionization_Penalty_Charging>
6.73502

> <r_epik_Ionization_Penalty_Neutral>
9.26583e-05

> <r_epik_State_Penalty>
6.93549

> <r_epik_Charging_Adjusted_Penalty>
13.6705

> <i_epik_Tot_Q>
0

> <i_epik_Tot_abs_Q>
2

> <r_epik_Metal_State_Penalty>
2.87211

> <b_epik_Metal_Only>
1

> <s_lp_Force_Field>
OPLS_2005

> <r_lp_Energy>
2.9367

> <b_lp_Chiralities_Consistent>
1

> <s_lp_Variant>
AV-unprocessed.smi:1381-11

> <Gold.Version>
5.8.1

> <Gold.Id.Protein>
6NUR|6NUR_protein|mol2

> <Gold.PLP.Fitness>
43.9594

> <Gold.PLP.PLP>
-30.3813

> <Gold.PLP.part.hbond>
-4.6530

> <Gold.PLP.part.metal>
0.0000

> <Gold.PLP.part.buried>
-2.4569

> <Gold.PLP.part.nonpolar>
-22.4821

> <Gold.PLP.part.repulsive>
0.3483

> <Gold.PLP.ligand.clash>
0.0000

> <Gold.PLP.ligand.torsion>
0.7591

> <Gold.PLP.Chemscore.Hbond>
5.0000

> <Gold.PLP.Chemscore.CHOScore>
0.0000

> <Gold.PLP.Chemscore.Metal>
0.0000

> <Gold.Chemscore.Hbonds>
donor molecule, donor type, donor heavy atom, donor atom, acceptor molecule, acceptor atom, score
      L1  H     8    25       P1  7957  1.00
      L1  H    11    42       P1 10175  2.00
      P1  H  7989  7998       L1     5  1.00
      P1  H  7997  8008       L1    20  1.00

> <Gold.PLP.Chemscore.Internal.Correction>
0.0962

> <Gold.Rescore>
     Score         DG    S(hbond)    S(metal)    S(lipo)     H(rot)  DE(clash)    DE(int)     intcor
     15.22     -17.55       2.99        0.00      52.49       1.58       0.14       2.19       ----

> <Gold.Chemscore.Fitness>
15.2206

> <Gold.Chemscore.DG>
-17.5522

> <Gold.Chemscore.ZeroCoef>
-5.4800

> <Gold.Chemscore.Hbond>
2.9861

> <Gold.Chemscore.Metal>
0.0000

> <Gold.Chemscore.Lipo>
52.4899

> <Gold.Chemscore.Internal_Hbond>
0.0000

> <Gold.Chemscore.DEClash>
0.1423

> <Gold.Chemscore.DEInternal>
2.1893

> <Gold.Chemscore.Rot>
1.5792

> <Gold.Chemscore.Internal.Correction>
   9.000000E+99

> <Gold.Chemscore.Hbonds>
donor molecule, donor type, donor heavy atom, donor atom, acceptor molecule, acceptor atom, score
      L1  H     8    25       P1  7957  0.94
      L1  H    11    42       P1 10175  0.99
      P1  H  7989  7998       L1     5  0.34
      P1  H  7997  8008       L1    20  0.43

> <Gold.Chemscore.Hbond.Weighted>
-9.9737

> <Gold.Chemscore.Metal.Weighted>
-0.0000

> <Gold.Chemscore.Lipo.Weighted>
-6.1413

> <Gold.Chemscore.Internal_Hbond.Weighted>
0.0000

> <Gold.Chemscore.DEClash.Weighted>
0.1423

> <Gold.Chemscore.DEInternal.Weighted>
2.1893

> <Gold.Chemscore.Rot.Weighted>
4.0428

> <Gold.Chemscore.Internal.Correction.Weighted>
   9.000000E+99

> <Gold.Protein.RotatedTorsions>
[ 6907 6896 6895 6894 ] final -108.96 input  -60.11 | X-H torsion
[ 7974 7965 7964 7962 ] final -155.42 input  175.53 | X-H torsion
[ 8008 7997 7996 7995 ] final  -76.94 input   59.86 | X-H torsion
[ 10167 10162 10161 10158 ] final   88.93 input  -65.29 | X-H torsion
[ 10718 10713 10712 10709 ] final  112.08 input   66.30 | X-H torsion
[ 10763 10752 10751 10750 ] final -141.02 input  -60.55 | X-H torsion
[ 11005 11000 10999 10996 ] final  -36.16 input  -57.11 | X-H torsion

> <Gold.Protein.ActiveResidues>
 VAL166  LYS551  ARG553  GLY616  TRP617  ASP618  TYR619  PRO620  LYS621  CYS622 
 ASP623  PHE694  ASN695  SER759  ASP760  ASP761  ALA762  ILE779  LEU786  VAL792 
 PHE793  MET794  SER795  GLU796  ALA797  LYS798  CYS799  TRP800  GLU811  SER814 

> <Gold.Protein.RotatedAtoms>
  150.7533  133.9600  159.3512 H   0  0  0  0  0  0  0  0  0  0  0  0  # atno 6907 bound_to 6896
  151.7525  135.0827  160.0342 H   0  0  0  0  0  0  0  0  0  0  0  0  # atno 6908 bound_to 6896
  152.3457  133.6082  159.5944 H   0  0  0  0  0  0  0  0  0  0  0  0  # atno 6909 bound_to 6896
  144.7641  140.4251  143.5955 H   0  0  0  0  0  0  0  0  0  0  0  0  # atno 7974 bound_to 7965
  154.5551  140.0718  156.8730 H   0  0  0  0  0  0  0  0  0  0  0  0  # atno 8008 bound_to 7997
  155.2918  140.3378  155.4234 H   0  0  0  0  0  0  0  0  0  0  0  0  # atno 8009 bound_to 7997
  156.1995  140.1716  156.7915 H   0  0  0  0  0  0  0  0  0  0  0  0  # atno 8010 bound_to 7997
  139.8623  144.6537  150.9044 H   0  0  0  0  0  0  0  0  0  0  0  0  # atno 10167 bound_to 10162
  157.6411  131.0961  150.6842 H   0  0  0  0  0  0  0  0  0  0  0  0  # atno 10718 bound_to 10713
  154.8559  135.3536  154.5801 H   0  0  0  0  0  0  0  0  0  0  0  0  # atno 10763 bound_to 10752
  153.6412  135.6998  153.5246 H   0  0  0  0  0  0  0  0  0  0  0  0  # atno 10764 bound_to 10752
  153.2970  135.4218  155.1177 H   0  0  0  0  0  0  0  0  0  0  0  0  # atno 10765 bound_to 10752
  140.9853  133.7034  156.1754 H   0  0  0  0  0  0  0  0  0  0  0  0  # atno 11005 bound_to 11000
  145.6526  139.1567  143.2853 LP  0  0  0  0  0  0  0  0  0  0  0  0  # atno 17320 bound_to 7965
  146.1732  140.6613  142.9223 LP  0  0  0  0  0  0  0  0  0  0  0  0  # atno 17321 bound_to 7965
  140.7773  143.3733  151.1608 LP  0  0  0  0  0  0  0  0  0  0  0  0  # atno 17342 bound_to 10162
  139.7362  143.8996  152.3035 LP  0  0  0  0  0  0  0  0  0  0  0  0  # atno 17343 bound_to 10162
  156.7166  130.4668  149.5533 LP  0  0  0  0  0  0  0  0  0  0  0  0  # atno 17370 bound_to 10713
  156.1694  130.6427  151.0818 LP  0  0  0  0  0  0  0  0  0  0  0  0  # atno 17371 bound_to 10713
  140.7124  134.4447  157.5580 LP  0  0  0  0  0  0  0  0  0  0  0  0  # atno 17394 bound_to 11000
  139.8968  134.8652  156.2073 LP  0  0  0  0  0  0  0  0  0  0  0  0  # atno 17395 bound_to 11000

$$$$
