#       Name:                AV-unprocessed.smi:2973
#       Creating user name   scv26
#       Creation time:       Fri Mar 27 16:25:48 2020


#       File generated by GOLD software.
#

@<TRIPOS>MOLECULE
AV-unprocessed.smi:2973
    56    58     1
SMALL
NO_CHARGES


@<TRIPOS>ATOM
      1 ****        -5.0205   1.3489   0.8799 C.3            1 S1                 0.0000
      2 ****        -3.9617   2.4091   1.2491 C.3            1 S1                 0.0000
      3 ****        -4.0242   2.7432   2.7555 C.3            1 S1                 0.0000
      4 ****        -3.0469   3.8690   3.1280 C.3            1 S1                 0.0000
      5 ****        -1.6086   3.5232   2.7180 C.3            1 S1                 0.0000
      6 ****        -1.5230   3.1861   1.2186 C.3            1 S1                 0.0000
      7 ****        -2.5084   2.0698   0.7888 C.3            1 S1                 0.0000
      8 ****        -2.4414   1.8901  -0.6513 N.am           1 S1                 0.0000
      9 ****        -1.9967   0.6807  -1.0129 C.2            1 S1                 0.0000
     10 ****        -1.8366   0.3007  -2.1717 O.2            1 S1                 0.0000
     11 ****        -1.7589  -0.0325   0.1017 N.am           1 S1                 0.0000
     12 ****        -1.2348  -1.4042   0.1038 C.3            1 S1                 0.0000
     13 ****         0.2945  -1.4633  -0.0148 C.2            1 S1                 0.0000
     14 ****         0.9940  -0.5072   0.3232 O.2            1 S1                 0.0000
     15 ****         0.8018  -2.6095  -0.4923 N.am           1 S1                 0.0000
     16 ****         2.2210  -2.8791  -0.6891 C.3            1 S1                 0.0000
     17 ****         2.7628  -2.1855  -1.9507 C.3            1 S1                 0.0000
     18 ****         4.2293  -2.4880  -2.1866 C.ar           1 S1                 0.0000
     19 ****         5.2532  -1.6114  -1.7666 C.ar           1 S1                 0.0000
     20 ****         6.5988  -1.9567  -2.0111 C.ar           1 S1                 0.0000
     21 ****         6.8916  -3.1699  -2.6684 C.ar           1 S1                 0.0000
     22 ****         5.8299  -4.0090  -3.0638 C.ar           1 S1                 0.0000
     23 ****         4.5540  -3.6436  -2.8106 N.pl3          1 S1                 1.0000
     24 ****        -2.0183   0.6811   1.2058 C.2            1 S1                 0.0000
     25 ****        -1.8881   0.3054   2.3709 O.2            1 S1                 0.0000
     26 ****        -4.8496   0.4064   1.4006 H              1 S1                 0.0000
     27 ****        -5.0291   1.1431  -0.1904 H              1 S1                 0.0000
     28 ****        -6.0200   1.6915   1.1485 H              1 S1                 0.0000
     29 ****        -4.2513   3.3171   0.7176 H              1 S1                 0.0000
     30 ****        -5.0363   3.0464   3.0249 H              1 S1                 0.0000
     31 ****        -3.8080   1.8562   3.3512 H              1 S1                 0.0000
     32 ****        -3.3526   4.7943   2.6380 H              1 S1                 0.0000
     33 ****        -3.0909   4.0594   4.2006 H              1 S1                 0.0000
     34 ****        -0.9497   4.3618   2.9444 H              1 S1                 0.0000
     35 ****        -1.2469   2.6866   3.3156 H              1 S1                 0.0000
     36 ****        -1.7311   4.0894   0.6434 H              1 S1                 0.0000
     37 ****        -0.4974   2.9064   0.9711 H              1 S1                 0.0000
     38 ****        -2.6918   2.6195  -1.3030 H              1 S1                 0.0000
     39 ****        -1.5308  -1.9242   1.0164 H              1 S1                 0.0000
     40 ****        -1.6844  -1.9671  -0.7163 H              1 S1                 0.0000
     41 ****         0.1564  -3.3467  -0.7379 H              1 S1                 0.0000
     42 ****         2.7838  -2.5646   0.1915 H              1 S1                 0.0000
     43 ****         2.3495  -3.9586  -0.7711 H              1 S1                 0.0000
     44 ****         2.1913  -2.4997  -2.8253 H              1 S1                 0.0000
     45 ****         2.6365  -1.1046  -1.8744 H              1 S1                 0.0000
     46 ****         5.0126  -0.6868  -1.2617 H              1 S1                 0.0000
     47 ****         7.3966  -1.2993  -1.6977 H              1 S1                 0.0000
     48 ****         7.9155  -3.4526  -2.8651 H              1 S1                 0.0000
     49 ****         5.9610  -4.9538  -3.5708 H              1 S1                 0.0000
     50 ****         3.8017  -4.2663  -3.1059 H              1 S1                 0.0000
     51 ****        -2.0442   0.9154  -2.9326 LP             1 S1                 0.0000
     52 ****        -1.4988  -0.6230  -2.3528 LP             1 S1                 0.0000
     53 ****         0.5668   0.3231   0.6811 LP             1 S1                 0.0000
     54 ****         1.9891  -0.5615   0.2398 LP             1 S1                 0.0000
     55 ****        -2.1090   0.9253   3.1239 LP             1 S1                 0.0000
     56 ****        -1.5614  -0.6197   2.5644 LP             1 S1                 0.0000
@<TRIPOS>BOND
    1    1    2 1     
    2    1   26 1     
    3    1   27 1     
    4    1   28 1     
    5    2    7 1     
    6    2    3 1     
    7    2   29 1     
    8    3    4 1     
    9    3   30 1     
   10    3   31 1     
   11    4    5 1     
   12    4   32 1     
   13    4   33 1     
   14    5    6 1     
   15    5   34 1     
   16    5   35 1     
   17    6    7 1     
   18    6   36 1     
   19    6   37 1     
   20    7   24 1     
   21    7    8 1     
   22    8    9 am    
   23    8   38 1     
   24    9   10 2     
   25    9   11 am    
   26   11   12 1     
   27   11   24 am    
   28   12   13 1     
   29   12   39 1     
   30   12   40 1     
   31   13   14 2     
   32   13   15 am    
   33   15   16 1     
   34   15   41 1     
   35   16   17 1     
   36   16   42 1     
   37   16   43 1     
   38   17   18 1     
   39   17   44 1     
   40   17   45 1     
   41   18   23 ar    
   42   18   19 ar    
   43   19   20 ar    
   44   19   46 1     
   45   20   21 ar    
   46   20   47 1     
   47   21   22 ar    
   48   21   48 1     
   49   22   23 ar    
   50   22   49 1     
   51   23   50 1     
   52   24   25 2     
   53   10   51 1     
   54   10   52 1     
   55   14   53 1     
   56   14   54 1     
   57   25   55 1     
   58   25   56 1     
@<TRIPOS>SUBSTRUCTURE
      1 S1             1
@<TRIPOS>SET
LONE_PAIRS      STATIC     ATOMS    <user>   **** ""
6 51 52 53 54 55 56
DONOR_HYDROGENS      STATIC     ATOMS    <user>   **** ""
3 38 41 50
ATOM$BLUE        STATIC     ATOMS    COLORGROUP SYSTEM
6 51 52 53 54 55 56
ATOM$RED        STATIC     ATOMS    COLORGROUP SYSTEM
3 38 41 50
