AV-unprocessed.smi:1406|AV-procd|sdf|5713|dock8
  -GOLD-   22720 5343D 1   1.00000     0.00000
 Structure written by MMmdl.
 41 43  0  0  0  0  0  0  0  0  2 V2000
  147.5483  140.5296  153.1468 C   0  0  0  0  0  0  0  0  0  0  0  0
  147.9862  141.5825  154.1853 C   0  0  2  0  0  0  0  0  0  0  0  0
  149.3705  141.2897  154.7861 C   0  0  0  0  0  0  0  0  0  0  0  0
  150.0244  140.3138  154.4171 O   0  0  0  0  0  0  0  0  0  0  0  0
  149.8079  142.1515  155.7181 N   0  0  0  0  0  0  0  0  0  0  0  0
  151.0751  142.0452  156.4346 C   0  0  2  0  0  0  0  0  0  0  0  0
  151.3723  140.6131  156.9132 C   0  0  0  0  0  0  0  0  0  0  0  0
  152.0405  140.7734  158.2929 C   0  0  0  0  0  0  0  0  0  0  0  0
  152.1833  142.2285  158.4915 N   0  3  2  0  0  0  0  0  0  0  0  0
  152.2723  142.7128  159.8862 C   0  0  0  0  0  0  0  0  0  0  0  0
  152.5042  144.2370  159.8807 C   0  0  0  0  0  0  0  0  0  0  0  0
  151.4425  144.9736  159.0389 C   0  0  0  0  0  0  0  0  0  0  0  0
  151.3290  144.3642  157.6282 C   0  0  0  0  0  0  0  0  0  0  0  0
  151.0836  142.8494  157.7376 C   0  0  1  0  0  0  0  0  0  0  0  0
  146.9994  141.7481  155.2454 N   0  0  0  0  0  0  0  0  0  0  0  0
  145.6658  141.7444  155.1850 C   0  0  0  0  0  0  0  0  0  0  0  0
  145.0731  141.9711  156.3488 N   0  0  0  0  0  0  0  0  0  0  0  0
  146.1760  142.1240  157.1404 C   0  0  0  0  0  0  0  0  0  0  0  0
  147.3544  142.0107  156.5281 N   0  0  0  0  0  0  0  0  0  0  0  0
  148.2696  140.4566  152.3321 H   0  0  0  0  0  0  0  0  0  0  0  0
  146.5867  140.7956  152.7072 H   0  0  0  0  0  0  0  0  0  0  0  0
  147.4461  139.5368  153.5870 H   0  0  0  0  0  0  0  0  0  0  0  0
  148.0582  142.5382  153.6628 H   0  0  0  0  0  0  0  0  0  0  0  0
  149.2085  142.9264  155.9629 H   0  0  0  0  0  0  0  0  0  0  0  0
  151.9020  142.3713  155.7997 H   0  0  0  0  0  0  0  0  0  0  0  0
  150.4568  140.0282  157.0146 H   0  0  0  0  0  0  0  0  0  0  0  0
  152.0181  140.0895  156.2072 H   0  0  0  0  0  0  0  0  0  0  0  0
  151.4016  140.3487  159.0689 H   0  0  0  0  0  0  0  0  0  0  0  0
  153.0111  140.2794  158.3451 H   0  0  0  0  0  0  0  0  0  0  0  0
  151.3559  142.4672  160.4253 H   0  0  0  0  0  0  0  0  0  0  0  0
  153.0935  142.2088  160.3971 H   0  0  0  0  0  0  0  0  0  0  0  0
  152.5028  144.6194  160.9019 H   0  0  0  0  0  0  0  0  0  0  0  0
  153.4943  144.4493  159.4747 H   0  0  0  0  0  0  0  0  0  0  0  0
  150.4757  144.9100  159.5397 H   0  0  0  0  0  0  0  0  0  0  0  0
  151.6860  146.0342  158.9717 H   0  0  0  0  0  0  0  0  0  0  0  0
  150.5158  144.8438  157.0834 H   0  0  0  0  0  0  0  0  0  0  0  0
  152.2425  144.5577  157.0643 H   0  0  0  0  0  0  0  0  0  0  0  0
  150.1492  142.6709  158.2751 H   0  0  0  0  0  0  0  0  0  0  0  0
  145.1167  141.5771  154.2699 H   0  0  0  0  0  0  0  0  0  0  0  0
  146.1086  142.3318  158.1981 H   0  0  0  0  0  0  0  0  0  0  0  0
  153.0368  142.4995  158.0242 H   0  0  0  0  0  0  0  0  0  0  0  0
  1  2  1  0  0  0  0
  1 20  1  0  0  0  0
  1 21  1  0  0  0  0
  1 22  1  0  0  0  0
  2  3  1  0  0  0  0
  2 15  1  0  0  0  0
  2 23  1  0  0  0  0
  3  4  2  0  0  0  0
  3  5  1  0  0  0  0
  5  6  1  0  0  0  0
  5 24  1  0  0  0  0
  6 14  1  0  0  0  0
  6  7  1  0  0  0  0
  6 25  1  0  0  0  0
  7  8  1  0  0  0  0
  7 26  1  0  0  0  0
  7 27  1  0  0  0  0
  8  9  1  0  0  0  0
  8 28  1  0  0  0  0
  8 29  1  0  0  0  0
  9 14  1  0  0  0  0
  9 10  1  0  0  0  0
  9 41  1  0  0  0  0
 10 11  1  0  0  0  0
 10 30  1  0  0  0  0
 10 31  1  0  0  0  0
 11 12  1  0  0  0  0
 11 32  1  0  0  0  0
 11 33  1  0  0  0  0
 12 13  1  0  0  0  0
 12 34  1  0  0  0  0
 12 35  1  0  0  0  0
 13 14  1  0  0  0  0
 13 36  1  0  0  0  0
 13 37  1  0  0  0  0
 14 38  1  0  0  0  0
 15 19  1  0  0  0  0
 15 16  1  0  0  0  0
 16 17  2  0  0  0  0
 16 39  1  0  0  0  0
 17 18  1  0  0  0  0
 18 19  2  0  0  0  0
 18 40  1  0  0  0  0
M  CHG  1   9   1
M  END
> <s_m_source_file>
AV-unprocessed.smi

> <i_m_source_file_index>
1406

> <i_lp_mmshare_version>
43012

> <i_f3d_flags>
0

> <s_epik_input>
bjFbY0hdbltjSF1uMVtDQEhdKFtDSDNdKUMoPU8pW05IXVtDQEhdKFtDSDJdW0NIMl0yKVtDQEBIXShOMjMpW0NIMl1bQ0gyXVtDSDJdW0NIMl0z

> <s_epik_cmdline>
J2VwaWtfcHl0aG9uJywgJy1waCcsICc3LjAnLCAnLXRuJywgJzgnLCAnLW1hJywgJzIwMCcsICctbWV0YWxfYmluZGluZycsICctaW1hZScsICc8aW5maWxlLm1hZT4nLCAnLW9tYWUnLCAnPG91dGZpbGUubWFlPic=

> <r_lp_tautomer_probability>
1

> <r_epik_Ionization_Penalty>
0.00197066

> <r_epik_Ionization_Penalty_Charging>
0.00196223

> <r_epik_Ionization_Penalty_Neutral>
8.43107e-06

> <r_epik_State_Penalty>
0.00133866

> <r_epik_Charging_Adjusted_Penalty>
0.00330089

> <i_epik_Tot_Q>
1

> <i_epik_Tot_abs_Q>
1

> <r_epik_Metal_State_Penalty>
-0

> <b_epik_Metal_Only>
0

> <s_lp_Force_Field>
OPLS_2005

> <r_lp_Energy>
39.8757

> <b_lp_Chiralities_Consistent>
1

> <s_lp_Variant>
AV-unprocessed.smi:1406-5

> <Gold.Version>
5.8.1

> <Gold.Id.Protein>
6NUR|6NUR_protein|mol2

> <Gold.PLP.Fitness>
46.2387

> <Gold.PLP.PLP>
-39.1286

> <Gold.PLP.part.hbond>
-2.0000

> <Gold.PLP.part.metal>
0.0000

> <Gold.PLP.part.buried>
-3.7041

> <Gold.PLP.part.nonpolar>
-34.9457

> <Gold.PLP.part.repulsive>
0.6950

> <Gold.PLP.ligand.clash>
0.0000

> <Gold.PLP.ligand.torsion>
0.8511

> <Gold.PLP.Chemscore.Hbond>
1.9360

> <Gold.PLP.Chemscore.CHOScore>
0.9666

> <Gold.PLP.Chemscore.Metal>
0.0000

> <Gold.Chemscore.Hbonds>
donor molecule, donor type, donor heavy atom, donor atom, acceptor molecule, acceptor atom, score
      L1  H     5    24       P1  8028  0.88
      P1  H  7989  7998       L1     4  0.94
      L1  C    16    39       P1 10175  1.00

> <Gold.PLP.Chemscore.Internal.Correction>
0.1047

> <Gold.Rescore>
     Score         DG    S(hbond)    S(metal)    S(lipo)     H(rot)  DE(clash)    DE(int)     intcor
     13.78     -17.21       1.59        0.00      96.16       1.89       0.13       3.30       ----

> <Gold.Chemscore.Fitness>
13.7840

> <Gold.Chemscore.DG>
-17.2069

> <Gold.Chemscore.ZeroCoef>
-5.4800

> <Gold.Chemscore.Hbond>
1.5885

> <Gold.Chemscore.Metal>
0.0000

> <Gold.Chemscore.Lipo>
96.1602

> <Gold.Chemscore.Internal_Hbond>
0.0000

> <Gold.Chemscore.DEClash>
0.1258

> <Gold.Chemscore.DEInternal>
3.2971

> <Gold.Chemscore.Rot>
1.8865

> <Gold.Chemscore.Internal.Correction>
   9.000000E+99

> <Gold.Chemscore.Hbonds>
donor molecule, donor type, donor heavy atom, donor atom, acceptor molecule, acceptor atom, score
      L1  H     5    24       P1  8028  0.86
      P1  H  7989  7998       L1     4  0.67

> <Gold.Chemscore.Hbond.Weighted>
-5.3057

> <Gold.Chemscore.Metal.Weighted>
-0.0000

> <Gold.Chemscore.Lipo.Weighted>
-11.2507

> <Gold.Chemscore.Internal_Hbond.Weighted>
0.0000

> <Gold.Chemscore.DEClash.Weighted>
0.1258

> <Gold.Chemscore.DEInternal.Weighted>
3.2971

> <Gold.Chemscore.Rot.Weighted>
4.8295

> <Gold.Chemscore.Internal.Correction.Weighted>
   9.000000E+99

> <Gold.Protein.RotatedTorsions>
[ 6907 6896 6895 6894 ] final  157.58 input  -60.11 | X-H torsion
[ 7974 7965 7964 7962 ] final   81.04 input  175.53 | X-H torsion
[ 8008 7997 7996 7995 ] final  120.63 input   59.86 | X-H torsion
[ 10167 10162 10161 10158 ] final  105.87 input  -65.29 | X-H torsion
[ 10718 10713 10712 10709 ] final  106.66 input   66.30 | X-H torsion
[ 10763 10752 10751 10750 ] final   47.88 input  -60.55 | X-H torsion
[ 11005 11000 10999 10996 ] final  -31.77 input  -57.11 | X-H torsion

> <Gold.Protein.ActiveResidues>
 VAL166  LYS551  ARG553  GLY616  TRP617  ASP618  TYR619  PRO620  LYS621  CYS622 
 ASP623  PHE694  ASN695  SER759  ASP760  ASP761  ALA762  ILE779  LEU786  VAL792 
 PHE793  MET794  SER795  GLU796  ALA797  LYS798  CYS799  TRP800  GLU811  SER814 

> <Gold.Protein.RotatedAtoms>
  152.0131  133.3869  159.4227 H   0  0  0  0  0  0  0  0  0  0  0  0  # atno 6907 bound_to 6896
  150.6897  134.3709  159.5001 H   0  0  0  0  0  0  0  0  0  0  0  0  # atno 6908 bound_to 6896
  152.1472  134.9016  160.0601 H   0  0  0  0  0  0  0  0  0  0  0  0  # atno 6909 bound_to 6896
  145.6434  139.2430  143.2018 H   0  0  0  0  0  0  0  0  0  0  0  0  # atno 7974 bound_to 7965
  156.2651  140.2826  156.1180 H   0  0  0  0  0  0  0  0  0  0  0  0  # atno 8008 bound_to 7997
  155.1186  140.0392  157.2761 H   0  0  0  0  0  0  0  0  0  0  0  0  # atno 8009 bound_to 7997
  154.6688  140.2583  155.7036 H   0  0  0  0  0  0  0  0  0  0  0  0  # atno 8010 bound_to 7997
  139.7056  144.7087  151.1112 H   0  0  0  0  0  0  0  0  0  0  0  0  # atno 10167 bound_to 10162
  157.6659  131.0855  150.6039 H   0  0  0  0  0  0  0  0  0  0  0  0  # atno 10718 bound_to 10713
  152.9796  135.5962  154.3835 H   0  0  0  0  0  0  0  0  0  0  0  0  # atno 10763 bound_to 10752
  154.3497  135.2767  155.2380 H   0  0  0  0  0  0  0  0  0  0  0  0  # atno 10764 bound_to 10752
  154.4425  135.6009  153.6193 H   0  0  0  0  0  0  0  0  0  0  0  0  # atno 10765 bound_to 10752
  140.9496  133.7229  156.1200 H   0  0  0  0  0  0  0  0  0  0  0  0  # atno 11005 bound_to 11000
  146.1263  140.7244  142.9433 LP  0  0  0  0  0  0  0  0  0  0  0  0  # atno 17320 bound_to 7965
  144.7149  140.4174  143.7052 LP  0  0  0  0  0  0  0  0  0  0  0  0  # atno 17321 bound_to 7965
  140.7721  143.5363  150.9365 LP  0  0  0  0  0  0  0  0  0  0  0  0  # atno 17342 bound_to 10162
  139.9046  143.6794  152.3125 LP  0  0  0  0  0  0  0  0  0  0  0  0  # atno 17343 bound_to 10162
  156.6340  130.4440  149.5776 LP  0  0  0  0  0  0  0  0  0  0  0  0  # atno 17370 bound_to 10713
  156.2260  130.6766  151.1416 LP  0  0  0  0  0  0  0  0  0  0  0  0  # atno 17371 bound_to 10713
  140.7621  134.3928  157.5524 LP  0  0  0  0  0  0  0  0  0  0  0  0  # atno 17394 bound_to 11000
  139.8843  134.8968  156.2709 LP  0  0  0  0  0  0  0  0  0  0  0  0  # atno 17395 bound_to 11000

$$$$
