AV-unprocessed.smi:1191|AV-procd|sdf|4984|dock9
  -GOLD-   22720 3583D 1   1.00000     0.00000
 Structure written by MMmdl.
 47 48  0  0  0  0  0  0  0  0  2 V2000
  148.2962  141.5991  154.2752 C   0  0  0  0  0  0  0  0  0  0  0  0
  149.4763  140.7936  154.7329 C   0  0  0  0  0  0  0  0  0  0  0  0
  150.3194  141.0234  155.8556 C   0  0  0  0  0  0  0  0  0  0  0  0
  151.2264  140.0024  155.8115 C   0  0  0  0  0  0  0  0  0  0  0  0
  152.3709  139.6937  156.7198 C   0  0  0  0  0  0  0  0  0  0  0  0
  150.9076  139.2294  154.7083 N   0  0  0  0  0  0  0  0  0  0  0  0
  151.5581  138.0283  154.2069 C   0  0  0  0  0  0  0  0  0  0  0  0
  150.9985  136.7726  154.8788 C   0  0  0  0  0  0  0  0  0  0  0  0
  151.6613  136.1763  155.7277 O   0  0  0  0  0  0  0  0  0  0  0  0
  149.7693  136.3875  154.5028 N   0  0  0  0  0  0  0  0  0  0  0  0
  149.0522  135.2439  155.0528 C   0  0  0  0  0  0  0  0  0  0  0  0
  147.5515  135.3062  154.7075 C   0  0  0  0  0  0  0  0  0  0  0  0
  147.2764  134.9381  153.2956 N   0  3  1  0  0  0  0  0  0  0  0  0
  147.4541  133.4829  153.0533 C   0  0  0  0  0  0  0  0  0  0  0  0
  147.3073  133.1470  151.5609 C   0  0  0  0  0  0  0  0  0  0  0  0
  145.9546  133.6272  151.0207 C   0  0  0  0  0  0  0  0  0  0  0  0
  145.7707  135.1276  151.3035 C   0  0  1  0  0  0  0  0  0  0  0  0
  144.4123  135.6315  150.7952 C   0  0  0  0  0  0  0  0  0  0  0  0
  145.9537  135.4147  152.8075 C   0  0  0  0  0  0  0  0  0  0  0  0
  149.8333  139.7179  154.0513 N   0  0  0  0  0  0  0  0  0  0  0  0
  148.1826  142.5054  154.8704 H   0  0  0  0  0  0  0  0  0  0  0  0
  147.3729  141.0260  154.3635 H   0  0  0  0  0  0  0  0  0  0  0  0
  148.4056  141.8994  153.2327 H   0  0  0  0  0  0  0  0  0  0  0  0
  150.2653  141.8187  156.5841 H   0  0  0  0  0  0  0  0  0  0  0  0
  152.3752  140.3635  157.5799 H   0  0  0  0  0  0  0  0  0  0  0  0
  153.3217  139.8109  156.1998 H   0  0  0  0  0  0  0  0  0  0  0  0
  152.3094  138.6715  157.0930 H   0  0  0  0  0  0  0  0  0  0  0  0
  151.4297  137.9836  153.1246 H   0  0  0  0  0  0  0  0  0  0  0  0
  152.6311  138.0892  154.3952 H   0  0  0  0  0  0  0  0  0  0  0  0
  149.2962  136.9300  153.7942 H   0  0  0  0  0  0  0  0  0  0  0  0
  149.5117  134.3476  154.6386 H   0  0  0  0  0  0  0  0  0  0  0  0
  149.1954  135.1964  156.1338 H   0  0  0  0  0  0  0  0  0  0  0  0
  147.0212  134.6120  155.3612 H   0  0  0  0  0  0  0  0  0  0  0  0
  147.1453  136.2965  154.9193 H   0  0  0  0  0  0  0  0  0  0  0  0
  148.4418  133.1685  153.3929 H   0  0  0  0  0  0  0  0  0  0  0  0
  146.7239  132.9231  153.6400 H   0  0  0  0  0  0  0  0  0  0  0  0
  148.1154  133.6155  150.9976 H   0  0  0  0  0  0  0  0  0  0  0  0
  147.4079  132.0718  151.4095 H   0  0  0  0  0  0  0  0  0  0  0  0
  145.8932  133.4327  149.9492 H   0  0  0  0  0  0  0  0  0  0  0  0
  145.1500  133.0576  151.4879 H   0  0  0  0  0  0  0  0  0  0  0  0
  146.5454  135.6711  150.7600 H   0  0  0  0  0  0  0  0  0  0  0  0
  143.5873  135.1278  151.2999 H   0  0  0  0  0  0  0  0  0  0  0  0
  144.3044  135.4554  149.7247 H   0  0  0  0  0  0  0  0  0  0  0  0
  144.3019  136.7031  150.9641 H   0  0  0  0  0  0  0  0  0  0  0  0
  145.1603  134.9350  153.3835 H   0  0  0  0  0  0  0  0  0  0  0  0
  145.8572  136.4868  152.9735 H   0  0  0  0  0  0  0  0  0  0  0  0
  147.9808  135.4014  152.7393 H   0  0  0  0  0  0  0  0  0  0  0  0
  1  2  1  0  0  0  0
  1 21  1  0  0  0  0
  1 22  1  0  0  0  0
  1 23  1  0  0  0  0
  2 20  2  0  0  0  0
  2  3  1  0  0  0  0
  3  4  2  0  0  0  0
  3 24  1  0  0  0  0
  4  5  1  0  0  0  0
  4  6  1  0  0  0  0
  5 25  1  0  0  0  0
  5 26  1  0  0  0  0
  5 27  1  0  0  0  0
  6  7  1  0  0  0  0
  6 20  1  0  0  0  0
  7  8  1  0  0  0  0
  7 28  1  0  0  0  0
  7 29  1  0  0  0  0
  8  9  2  0  0  0  0
  8 10  1  0  0  0  0
 10 11  1  0  0  0  0
 10 30  1  0  0  0  0
 11 12  1  0  0  0  0
 11 31  1  0  0  0  0
 11 32  1  0  0  0  0
 12 13  1  0  0  0  0
 12 33  1  0  0  0  0
 12 34  1  0  0  0  0
 13 19  1  0  0  0  0
 13 14  1  0  0  0  0
 13 47  1  0  0  0  0
 14 15  1  0  0  0  0
 14 35  1  0  0  0  0
 14 36  1  0  0  0  0
 15 16  1  0  0  0  0
 15 37  1  0  0  0  0
 15 38  1  0  0  0  0
 16 17  1  0  0  0  0
 16 39  1  0  0  0  0
 16 40  1  0  0  0  0
 17 18  1  0  0  0  0
 17 19  1  0  0  0  0
 17 41  1  0  0  0  0
 18 42  1  0  0  0  0
 18 43  1  0  0  0  0
 18 44  1  0  0  0  0
 19 45  1  0  0  0  0
 19 46  1  0  0  0  0
M  CHG  1  13   1
M  END
> <s_m_source_file>
AV-unprocessed.smi

> <i_m_source_file_index>
1191

> <i_lp_mmshare_version>
43012

> <i_f3d_flags>
0

> <s_epik_input>
W0NIM11jMVtjSF1jKFtDSDNdKW4objEpW0NIMl1DKD1PKVtOSF1bQ0gyXVtDSDJdTjJbQ0gyXVtDSDJdW0NIMl1bQ0BASF0oW0NIM10pW0NIMl0y

> <s_epik_cmdline>
J2VwaWtfcHl0aG9uJywgJy1waCcsICc3LjAnLCAnLXRuJywgJzgnLCAnLW1hJywgJzIwMCcsICctbWV0YWxfYmluZGluZycsICctaW1hZScsICc8aW5maWxlLm1hZT4nLCAnLW9tYWUnLCAnPG91dGZpbGUubWFlPic=

> <r_lp_tautomer_probability>
1

> <r_epik_Ionization_Penalty>
0.00249932

> <r_epik_Ionization_Penalty_Charging>
0.00230623

> <r_epik_Ionization_Penalty_Neutral>
0.000193092

> <r_epik_State_Penalty>
-0

> <r_epik_Charging_Adjusted_Penalty>
0.00230623

> <i_epik_Tot_Q>
1

> <i_epik_Tot_abs_Q>
1

> <r_epik_Metal_State_Penalty>
-0

> <b_epik_Metal_Only>
0

> <s_lp_Force_Field>
OPLS_2005

> <r_lp_Energy>
14.3844

> <b_lp_Chiralities_Consistent>
1

> <s_lp_Variant>
AV-unprocessed.smi:1191-1

> <Gold.Version>
5.8.1

> <Gold.Id.Protein>
6NUR|6NUR_protein|mol2

> <Gold.PLP.Fitness>
46.1915

> <Gold.PLP.PLP>
-37.3883

> <Gold.PLP.part.hbond>
-3.5819

> <Gold.PLP.part.metal>
0.0000

> <Gold.PLP.part.buried>
-2.3751

> <Gold.PLP.part.nonpolar>
-33.3737

> <Gold.PLP.part.repulsive>
2.3119

> <Gold.PLP.ligand.clash>
0.0000

> <Gold.PLP.ligand.torsion>
0.8163

> <Gold.PLP.Chemscore.Hbond>
3.4680

> <Gold.PLP.Chemscore.CHOScore>
0.0000

> <Gold.PLP.Chemscore.Metal>
0.0000

> <Gold.Chemscore.Hbonds>
donor molecule, donor type, donor heavy atom, donor atom, acceptor molecule, acceptor atom, score
      L1  H    10    30       P1  7948  0.41
      L1  H    13    47       P1  7948  2.00
      P1  H 10752 10763       L1     9  0.95

> <Gold.PLP.Chemscore.Internal.Correction>
0.0318

> <Gold.Rescore>
     Score         DG    S(hbond)    S(metal)    S(lipo)     H(rot)  DE(clash)    DE(int)     intcor
     16.07     -17.43       2.04        0.00      80.38       1.67       0.65       0.72       ----

> <Gold.Chemscore.Fitness>
16.0660

> <Gold.Chemscore.DG>
-17.4303

> <Gold.Chemscore.ZeroCoef>
-5.4800

> <Gold.Chemscore.Hbond>
2.0390

> <Gold.Chemscore.Metal>
0.0000

> <Gold.Chemscore.Lipo>
80.3773

> <Gold.Chemscore.Internal_Hbond>
0.0000

> <Gold.Chemscore.DEClash>
0.6455

> <Gold.Chemscore.DEInternal>
0.7188

> <Gold.Chemscore.Rot>
1.6657

> <Gold.Chemscore.Internal.Correction>
   9.000000E+99

> <Gold.Chemscore.Hbonds>
donor molecule, donor type, donor heavy atom, donor atom, acceptor molecule, acceptor atom, score
      L1  H    10    30       P1  7948  0.40
      L1  H    13    47       P1  7948  0.93
      P1  H 10752 10763       L1     9  0.21

> <Gold.Chemscore.Hbond.Weighted>
-6.8103

> <Gold.Chemscore.Metal.Weighted>
-0.0000

> <Gold.Chemscore.Lipo.Weighted>
-9.4041

> <Gold.Chemscore.Internal_Hbond.Weighted>
0.0000

> <Gold.Chemscore.DEClash.Weighted>
0.6455

> <Gold.Chemscore.DEInternal.Weighted>
0.7188

> <Gold.Chemscore.Rot.Weighted>
4.2641

> <Gold.Chemscore.Internal.Correction.Weighted>
   9.000000E+99

> <Gold.Protein.RotatedTorsions>
[ 6907 6896 6895 6894 ] final -155.49 input  -60.11 | X-H torsion
[ 7974 7965 7964 7962 ] final  151.72 input  175.53 | X-H torsion
[ 8008 7997 7996 7995 ] final  -73.51 input   59.86 | X-H torsion
[ 10167 10162 10161 10158 ] final -113.26 input  -65.29 | X-H torsion
[ 10718 10713 10712 10709 ] final -165.88 input   66.30 | X-H torsion
[ 10763 10752 10751 10750 ] final   63.78 input  -60.55 | X-H torsion
[ 11005 11000 10999 10996 ] final  -33.34 input  -57.11 | X-H torsion

> <Gold.Protein.ActiveResidues>
 VAL166  LYS551  ARG553  GLY616  TRP617  ASP618  TYR619  PRO620  LYS621  CYS622 
 ASP623  PHE694  ASN695  SER759  ASP760  ASP761  ALA762  ILE779  LEU786  VAL792 
 PHE793  MET794  SER795  GLU796  ALA797  LYS798  CYS799  TRP800  GLU811  SER814 

> <Gold.Protein.RotatedAtoms>
  151.2734  133.4244  159.2622 H   0  0  0  0  0  0  0  0  0  0  0  0  # atno 6907 bound_to 6896
  151.0425  134.9617  159.8179 H   0  0  0  0  0  0  0  0  0  0  0  0  # atno 6908 bound_to 6896
  152.5368  134.2691  159.9017 H   0  0  0  0  0  0  0  0  0  0  0  0  # atno 6909 bound_to 6896
  144.8272  139.6575  143.6074 H   0  0  0  0  0  0  0  0  0  0  0  0  # atno 7974 bound_to 7965
  154.5253  140.0778  156.8247 H   0  0  0  0  0  0  0  0  0  0  0  0  # atno 8008 bound_to 7997
  155.3489  140.3411  155.4221 H   0  0  0  0  0  0  0  0  0  0  0  0  # atno 8009 bound_to 7997
  156.1725  140.1624  156.8409 H   0  0  0  0  0  0  0  0  0  0  0  0  # atno 8010 bound_to 7997
  140.1138  143.4504  152.1735 H   0  0  0  0  0  0  0  0  0  0  0  0  # atno 10167 bound_to 10162
  156.6598  130.9041  151.3027 H   0  0  0  0  0  0  0  0  0  0  0  0  # atno 10718 bound_to 10713
  153.0031  135.5416  154.6406 H   0  0  0  0  0  0  0  0  0  0  0  0  # atno 10763 bound_to 10752
  154.5662  135.2838  155.0873 H   0  0  0  0  0  0  0  0  0  0  0  0  # atno 10764 bound_to 10752
  154.2057  135.6476  153.5152 H   0  0  0  0  0  0  0  0  0  0  0  0  # atno 10765 bound_to 10752
  140.9627  133.7155  156.1395 H   0  0  0  0  0  0  0  0  0  0  0  0  # atno 11005 bound_to 11000
  146.2577  139.6339  142.9383 LP  0  0  0  0  0  0  0  0  0  0  0  0  # atno 17320 bound_to 7965
  145.4974  141.0438  143.2559 LP  0  0  0  0  0  0  0  0  0  0  0  0  # atno 17321 bound_to 7965
  139.5605  144.7402  151.4169 LP  0  0  0  0  0  0  0  0  0  0  0  0  # atno 17342 bound_to 10162
  140.6911  143.7859  150.7257 LP  0  0  0  0  0  0  0  0  0  0  0  0  # atno 17343 bound_to 10162
  157.7113  130.9444  150.1100 LP  0  0  0  0  0  0  0  0  0  0  0  0  # atno 17370 bound_to 10713
  156.2019  130.3661  149.8777 LP  0  0  0  0  0  0  0  0  0  0  0  0  # atno 17371 bound_to 10713
  140.7444  134.4114  157.5550 LP  0  0  0  0  0  0  0  0  0  0  0  0  # atno 17394 bound_to 11000
  139.8883  134.8858  156.2478 LP  0  0  0  0  0  0  0  0  0  0  0  0  # atno 17395 bound_to 11000

$$$$
