AV-unprocessed.smi:1445|AV-procd|sdf|5886|dock5
  -GOLD-   22720 5563D 1   1.00000     0.00000
 Structure written by MMmdl.
 46 47  0  0  0  0  0  0  0  0  2 V2000
  152.6169  137.8386  154.4887 C   0  0  0  0  0  0  0  0  0  0  0  0
  151.2438  138.1165  154.2364 O   0  0  0  0  0  0  0  0  0  0  0  0
  150.7167  139.3076  154.6983 C   0  0  0  0  0  0  0  0  0  0  0  0
  151.4745  140.0719  155.5244 N   0  0  0  0  0  0  0  0  0  0  0  0
  150.9599  141.2334  155.9780 C   0  0  0  0  0  0  0  0  0  0  0  0
  149.6715  141.6883  155.6427 C   0  0  0  0  0  0  0  0  0  0  0  0
  148.8836  140.8975  154.7862 C   0  0  0  0  0  0  0  0  0  0  0  0
  149.4166  139.6843  154.2875 C   0  0  0  0  0  0  0  0  0  0  0  0
  148.6968  138.8068  153.4307 N   0  0  0  0  0  0  0  0  0  0  0  0
  147.3707  138.7561  153.2215 C   0  0  0  0  0  0  0  0  0  0  0  0
  146.5368  139.4849  153.7594 O   0  0  0  0  0  0  0  0  0  0  0  0
  147.0529  137.8169  152.3189 N   0  0  0  0  0  0  0  0  0  0  0  0
  145.6977  137.5390  151.8573 C   0  0  0  0  0  0  0  0  0  0  0  0
  145.5880  136.1219  151.2617 C   0  0  0  0  0  0  0  0  0  0  0  0
  146.2226  135.0958  152.1260 N   0  3  2  0  0  0  0  0  0  0  0  0
  146.2532  133.7578  151.4808 C   0  0  0  0  0  0  0  0  0  0  0  0
  147.0435  132.7501  152.3303 C   0  0  0  0  0  0  0  0  0  0  0  0
  146.4711  132.6608  153.7518 C   0  0  0  0  0  0  0  0  0  0  0  0
  146.3790  134.0520  154.4055 C   0  0  1  0  0  0  0  0  0  0  0  0
  147.7499  134.6002  154.8383 C   0  0  0  0  0  0  0  0  0  0  0  0
  145.6220  135.0332  153.4869 C   0  0  0  0  0  0  0  0  0  0  0  0
  152.8730  136.8690  154.0621 H   0  0  0  0  0  0  0  0  0  0  0  0
  152.8254  137.7941  155.5586 H   0  0  0  0  0  0  0  0  0  0  0  0
  153.2660  138.5844  154.0276 H   0  0  0  0  0  0  0  0  0  0  0  0
  151.5917  141.8140  156.6337 H   0  0  0  0  0  0  0  0  0  0  0  0
  149.2944  142.6199  156.0380 H   0  0  0  0  0  0  0  0  0  0  0  0
  147.8858  141.2269  154.5409 H   0  0  0  0  0  0  0  0  0  0  0  0
  149.2658  138.2096  152.8485 H   0  0  0  0  0  0  0  0  0  0  0  0
  147.7973  137.2611  151.9232 H   0  0  0  0  0  0  0  0  0  0  0  0
  145.0218  137.6371  152.7072 H   0  0  0  0  0  0  0  0  0  0  0  0
  145.4008  138.3030  151.1382 H   0  0  0  0  0  0  0  0  0  0  0  0
  144.5480  135.8482  151.0763 H   0  0  0  0  0  0  0  0  0  0  0  0
  146.0793  136.1310  150.2876 H   0  0  0  0  0  0  0  0  0  0  0  0
  145.2328  133.4033  151.3255 H   0  0  0  0  0  0  0  0  0  0  0  0
  146.7169  133.8318  150.4963 H   0  0  0  0  0  0  0  0  0  0  0  0
  147.0172  131.7672  151.8588 H   0  0  0  0  0  0  0  0  0  0  0  0
  148.0936  133.0418  152.3676 H   0  0  0  0  0  0  0  0  0  0  0  0
  145.4745  132.2198  153.7059 H   0  0  0  0  0  0  0  0  0  0  0  0
  147.0742  131.9882  154.3628 H   0  0  0  0  0  0  0  0  0  0  0  0
  145.7923  133.9417  155.3185 H   0  0  0  0  0  0  0  0  0  0  0  0
  148.4081  134.7728  153.9870 H   0  0  0  0  0  0  0  0  0  0  0  0
  148.2534  133.9064  155.5119 H   0  0  0  0  0  0  0  0  0  0  0  0
  147.6412  135.5473  155.3672 H   0  0  0  0  0  0  0  0  0  0  0  0
  145.6088  136.0204  153.9475 H   0  0  0  0  0  0  0  0  0  0  0  0
  144.5793  134.7228  153.3996 H   0  0  0  0  0  0  0  0  0  0  0  0
  147.1871  135.3735  152.2402 H   0  0  0  0  0  0  0  0  0  0  0  0
  1  2  1  0  0  0  0
  1 22  1  0  0  0  0
  1 23  1  0  0  0  0
  1 24  1  0  0  0  0
  2  3  1  0  0  0  0
  3  8  1  0  0  0  0
  3  4  2  0  0  0  0
  4  5  1  0  0  0  0
  5  6  2  0  0  0  0
  5 25  1  0  0  0  0
  6  7  1  0  0  0  0
  6 26  1  0  0  0  0
  7  8  2  0  0  0  0
  7 27  1  0  0  0  0
  8  9  1  0  0  0  0
  9 10  1  0  0  0  0
  9 28  1  0  0  0  0
 10 11  2  0  0  0  0
 10 12  1  0  0  0  0
 12 13  1  0  0  0  0
 12 29  1  0  0  0  0
 13 14  1  0  0  0  0
 13 30  1  0  0  0  0
 13 31  1  0  0  0  0
 14 15  1  0  0  0  0
 14 32  1  0  0  0  0
 14 33  1  0  0  0  0
 15 21  1  0  0  0  0
 15 16  1  0  0  0  0
 15 46  1  0  0  0  0
 16 17  1  0  0  0  0
 16 34  1  0  0  0  0
 16 35  1  0  0  0  0
 17 18  1  0  0  0  0
 17 36  1  0  0  0  0
 17 37  1  0  0  0  0
 18 19  1  0  0  0  0
 18 38  1  0  0  0  0
 18 39  1  0  0  0  0
 19 20  1  0  0  0  0
 19 21  1  0  0  0  0
 19 40  1  0  0  0  0
 20 41  1  0  0  0  0
 20 42  1  0  0  0  0
 20 43  1  0  0  0  0
 21 44  1  0  0  0  0
 21 45  1  0  0  0  0
M  CHG  1  15   1
M  END
> <s_m_source_file>
AV-unprocessed.smi

> <i_m_source_file_index>
1445

> <i_lp_mmshare_version>
43012

> <i_f3d_flags>
0

> <s_epik_input>
W0NIM11PYzFuW2NIXVtjSF1bY0hdYzFbTkhdQyg9TylbTkhdW0NIMl1bQ0gyXU4yW0NIMl1bQ0gyXVtDSDJdW0NAQEhdKFtDSDNdKVtDSDJdMg==

> <s_epik_cmdline>
J2VwaWtfcHl0aG9uJywgJy1waCcsICc3LjAnLCAnLXRuJywgJzgnLCAnLW1hJywgJzIwMCcsICctbWV0YWxfYmluZGluZycsICctaW1hZScsICc8aW5maWxlLm1hZT4nLCAnLW9tYWUnLCAnPG91dGZpbGUubWFlPic=

> <r_lp_tautomer_probability>
1

> <r_epik_Ionization_Penalty>
0.00179544

> <r_epik_Ionization_Penalty_Charging>
0.00171832

> <r_epik_Ionization_Penalty_Neutral>
7.71118e-05

> <r_epik_State_Penalty>
0.0011618

> <r_epik_Charging_Adjusted_Penalty>
0.00288012

> <i_epik_Tot_Q>
1

> <i_epik_Tot_abs_Q>
1

> <r_epik_Metal_State_Penalty>
-0

> <b_epik_Metal_Only>
0

> <s_lp_Force_Field>
OPLS_2005

> <r_lp_Energy>
21.8434

> <b_lp_Chiralities_Consistent>
1

> <s_lp_Variant>
AV-unprocessed.smi:1445-2

> <Gold.Version>
5.8.1

> <Gold.Id.Protein>
6NUR|6NUR_protein|mol2

> <Gold.PLP.Fitness>
41.8008

> <Gold.PLP.PLP>
-32.2287

> <Gold.PLP.part.hbond>
-4.8655

> <Gold.PLP.part.metal>
0.0000

> <Gold.PLP.part.buried>
1.8762

> <Gold.PLP.part.nonpolar>
-29.5312

> <Gold.PLP.part.repulsive>
0.5505

> <Gold.PLP.ligand.clash>
0.0000

> <Gold.PLP.ligand.torsion>
0.3646

> <Gold.PLP.Chemscore.Hbond>
3.4145

> <Gold.PLP.Chemscore.CHOScore>
0.0000

> <Gold.PLP.Chemscore.Metal>
0.0000

> <Gold.Chemscore.Hbonds>
donor molecule, donor type, donor heavy atom, donor atom, acceptor molecule, acceptor atom, score
      L1  H     9    28       P1  7948  0.42
      L1  H    12    29       P1  7948  0.99
      L1  H    15    46       P1  7948  2.00

> <Gold.PLP.Chemscore.Internal.Correction>
0.0578

> <Gold.Rescore>
     Score         DG    S(hbond)    S(metal)    S(lipo)     H(rot)  DE(clash)    DE(int)     intcor
     14.36     -17.41       2.23        0.00      75.80       1.71       1.49       1.57       ----

> <Gold.Chemscore.Fitness>
14.3611

> <Gold.Chemscore.DG>
-17.4137

> <Gold.Chemscore.ZeroCoef>
-5.4800

> <Gold.Chemscore.Hbond>
2.2290

> <Gold.Chemscore.Metal>
0.0000

> <Gold.Chemscore.Lipo>
75.7961

> <Gold.Chemscore.Internal_Hbond>
0.0000

> <Gold.Chemscore.DEClash>
1.4851

> <Gold.Chemscore.DEInternal>
1.5675

> <Gold.Chemscore.Rot>
1.7107

> <Gold.Chemscore.Internal.Correction>
   9.000000E+99

> <Gold.Chemscore.Hbonds>
donor molecule, donor type, donor heavy atom, donor atom, acceptor molecule, acceptor atom, score
      L1  H     9    28       P1  7948  0.40
      L1  H    12    29       P1  7948  0.92
      L1  H    15    46       P1  7948  0.97

> <Gold.Chemscore.Hbond.Weighted>
-7.4450

> <Gold.Chemscore.Metal.Weighted>
-0.0000

> <Gold.Chemscore.Lipo.Weighted>
-8.8681

> <Gold.Chemscore.Internal_Hbond.Weighted>
0.0000

> <Gold.Chemscore.DEClash.Weighted>
1.4851

> <Gold.Chemscore.DEInternal.Weighted>
1.5675

> <Gold.Chemscore.Rot.Weighted>
4.3794

> <Gold.Chemscore.Internal.Correction.Weighted>
   9.000000E+99

> <Gold.Protein.RotatedTorsions>
[ 6907 6896 6895 6894 ] final   58.31 input  -60.11 | X-H torsion
[ 7974 7965 7964 7962 ] final -115.77 input  175.53 | X-H torsion
[ 8008 7997 7996 7995 ] final -153.25 input   59.86 | X-H torsion
[ 10167 10162 10161 10158 ] final -120.23 input  -65.29 | X-H torsion
[ 10718 10713 10712 10709 ] final   -0.04 input   66.30 | X-H torsion
[ 10763 10752 10751 10750 ] final  -56.87 input  -60.55 | X-H torsion
[ 11005 11000 10999 10996 ] final   59.53 input  -57.11 | X-H torsion

> <Gold.Protein.ActiveResidues>
 VAL166  LYS551  ARG553  GLY616  TRP617  ASP618  TYR619  PRO620  LYS621  CYS622 
 ASP623  PHE694  ASN695  SER759  ASP760  ASP761  ALA762  ILE779  LEU786  VAL792 
 PHE793  MET794  SER795  GLU796  ALA797  LYS798  CYS799  TRP800  GLU811  SER814 

> <Gold.Protein.RotatedAtoms>
  152.3812  134.6587  160.0141 H   0  0  0  0  0  0  0  0  0  0  0  0  # atno 6907 bound_to 6896
  151.6850  133.3306  159.3237 H   0  0  0  0  0  0  0  0  0  0  0  0  # atno 6908 bound_to 6896
  150.7749  134.6684  159.6423 H   0  0  0  0  0  0  0  0  0  0  0  0  # atno 6909 bound_to 6896
  145.1045  140.8573  143.3906 H   0  0  0  0  0  0  0  0  0  0  0  0  # atno 7974 bound_to 7965
  155.6679  140.0730  157.2530 H   0  0  0  0  0  0  0  0  0  0  0  0  # atno 8008 bound_to 7997
  154.4129  140.1704  156.1898 H   0  0  0  0  0  0  0  0  0  0  0  0  # atno 8009 bound_to 7997
  155.9641  140.3367  155.6520 H   0  0  0  0  0  0  0  0  0  0  0  0  # atno 8010 bound_to 7997
  140.0381  143.5181  152.2144 H   0  0  0  0  0  0  0  0  0  0  0  0  # atno 10167 bound_to 10162
  156.8263  130.5473  149.5691 H   0  0  0  0  0  0  0  0  0  0  0  0  # atno 10718 bound_to 10713
  154.2135  135.6390  153.5122 H   0  0  0  0  0  0  0  0  0  0  0  0  # atno 10763 bound_to 10752
  152.9984  135.5479  154.6190 H   0  0  0  0  0  0  0  0  0  0  0  0  # atno 10764 bound_to 10752
  154.5633  135.2910  155.0872 H   0  0  0  0  0  0  0  0  0  0  0  0  # atno 10765 bound_to 10752
  140.0297  134.6030  155.9524 H   0  0  0  0  0  0  0  0  0  0  0  0  # atno 11005 bound_to 11000
  145.0917  139.2885  143.5731 LP  0  0  0  0  0  0  0  0  0  0  0  0  # atno 17320 bound_to 7965
  146.3528  140.0456  142.8639 LP  0  0  0  0  0  0  0  0  0  0  0  0  # atno 17321 bound_to 7965
  139.6032  144.7588  151.3123 LP  0  0  0  0  0  0  0  0  0  0  0  0  # atno 17342 bound_to 10162
  140.7272  143.6968  150.7877 LP  0  0  0  0  0  0  0  0  0  0  0  0  # atno 17343 bound_to 10162
  156.0959  130.5932  150.9813 LP  0  0  0  0  0  0  0  0  0  0  0  0  # atno 17370 bound_to 10713
  157.6430  131.0908  150.8212 LP  0  0  0  0  0  0  0  0  0  0  0  0  # atno 17371 bound_to 10713
  141.1823  133.6549  156.5073 LP  0  0  0  0  0  0  0  0  0  0  0  0  # atno 17394 bound_to 11000
  140.4247  134.7156  157.4909 LP  0  0  0  0  0  0  0  0  0  0  0  0  # atno 17395 bound_to 11000

$$$$
