AV-unprocessed.smi:1056|AV-procd|sdf|4641|dock3
  -GOLD-   22720 3143D 1   1.00000     0.00000
 Structure written by MMmdl.
 45 47  0  0  0  0  0  0  0  0  2 V2000
  152.0413  144.9728  160.1972 C   0  0  0  0  0  0  0  0  0  0  0  0
  151.8842  143.7602  159.2955 C   0  0  0  0  0  0  0  0  0  0  0  0
  151.0608  143.8715  158.1525 C   0  0  0  0  0  0  0  0  0  0  0  0
  150.9393  142.7459  157.3461 C   0  0  0  0  0  0  0  0  0  0  0  0
  150.2183  142.5395  156.1682 N   0  3  0  0  0  0  0  0  0  0  0  0
  150.4102  141.2626  155.7362 C   0  0  0  0  0  0  0  0  0  0  0  0
  151.2416  140.6494  156.6214 N   0  0  0  0  0  0  0  0  0  0  0  0
  151.7600  139.2737  156.6211 C   0  0  0  0  0  0  0  0  0  0  0  0
  151.7836  138.6410  155.2156 C   0  0  1  0  0  0  0  0  0  0  0  0
  153.0705  138.1151  154.9567 O   0  0  0  0  0  0  0  0  0  0  0  0
  150.7518  137.5003  155.0908 C   0  0  0  0  0  0  0  0  0  0  0  0
  151.2452  136.1487  155.4084 N   0  0  0  0  0  0  0  0  0  0  0  0
  150.4572  135.0701  154.8007 C   0  0  0  0  0  0  0  0  0  0  0  0
  149.0283  134.9580  155.3698 C   0  0  0  0  0  0  0  0  0  0  0  0
  148.9930  135.1304  156.8214 N   0  0  0  0  0  0  0  0  0  0  0  0
  150.0046  135.6149  157.5624 C   0  0  0  0  0  0  0  0  0  0  0  0
  149.8962  135.7895  158.7736 O   0  0  0  0  0  0  0  0  0  0  0  0
  151.3417  135.9252  156.8593 C   0  0  0  0  0  0  0  0  0  0  0  0
  151.5995  141.5377  157.6431 C   0  0  0  0  0  0  0  0  0  0  0  0
  152.4148  141.4120  158.7656 C   0  0  0  0  0  0  0  0  0  0  0  0
  152.5528  142.5458  159.5978 C   0  0  0  0  0  0  0  0  0  0  0  0
  153.4394  142.4379  160.8268 C   0  0  0  0  0  0  0  0  0  0  0  0
  151.4845  145.8291  159.8154 H   0  0  0  0  0  0  0  0  0  0  0  0
  153.0896  145.2635  160.2705 H   0  0  0  0  0  0  0  0  0  0  0  0
  151.6711  144.7550  161.1993 H   0  0  0  0  0  0  0  0  0  0  0  0
  150.5494  144.7931  157.9157 H   0  0  0  0  0  0  0  0  0  0  0  0
  149.9798  140.8166  154.8511 H   0  0  0  0  0  0  0  0  0  0  0  0
  152.7481  139.2596  157.0818 H   0  0  0  0  0  0  0  0  0  0  0  0
  151.1116  138.6910  157.2766 H   0  0  0  0  0  0  0  0  0  0  0  0
  151.5803  139.4276  154.4905 H   0  0  0  0  0  0  0  0  0  0  0  0
  153.7118  138.7077  155.3195 H   0  0  0  0  0  0  0  0  0  0  0  0
  149.9189  137.7403  155.7540 H   0  0  0  0  0  0  0  0  0  0  0  0
  150.3265  137.5157  154.0869 H   0  0  0  0  0  0  0  0  0  0  0  0
  150.4286  135.1586  153.7161 H   0  0  0  0  0  0  0  0  0  0  0  0
  150.9716  134.1253  154.9850 H   0  0  0  0  0  0  0  0  0  0  0  0
  148.3853  135.7169  154.9231 H   0  0  0  0  0  0  0  0  0  0  0  0
  148.5935  133.9924  155.1113 H   0  0  0  0  0  0  0  0  0  0  0  0
  148.1275  134.9056  157.2908 H   0  0  0  0  0  0  0  0  0  0  0  0
  151.9969  135.0722  157.0406 H   0  0  0  0  0  0  0  0  0  0  0  0
  151.8245  136.7724  157.3485 H   0  0  0  0  0  0  0  0  0  0  0  0
  152.9304  140.4906  158.9927 H   0  0  0  0  0  0  0  0  0  0  0  0
  153.8403  141.4305  160.9425 H   0  0  0  0  0  0  0  0  0  0  0  0
  152.8768  142.6763  161.7295 H   0  0  0  0  0  0  0  0  0  0  0  0
  154.2820  143.1254  160.7510 H   0  0  0  0  0  0  0  0  0  0  0  0
  149.6385  143.2184  155.6917 H   0  0  0  0  0  0  0  0  0  0  0  0
  1  2  1  0  0  0  0
  1 23  1  0  0  0  0
  1 24  1  0  0  0  0
  1 25  1  0  0  0  0
  2 21  1  0  0  0  0
  2  3  2  0  0  0  0
  3  4  1  0  0  0  0
  3 26  1  0  0  0  0
  4 19  2  0  0  0  0
  4  5  1  0  0  0  0
  5  6  2  0  0  0  0
  5 45  1  0  0  0  0
  6  7  1  0  0  0  0
  6 27  1  0  0  0  0
  7  8  1  0  0  0  0
  7 19  1  0  0  0  0
  8  9  1  0  0  0  0
  8 28  1  0  0  0  0
  8 29  1  0  0  0  0
  9 10  1  0  0  0  0
  9 11  1  0  0  0  0
  9 30  1  0  0  0  0
 10 31  1  0  0  0  0
 11 12  1  0  0  0  0
 11 32  1  0  0  0  0
 11 33  1  0  0  0  0
 12 18  1  0  0  0  0
 12 13  1  0  0  0  0
 13 14  1  0  0  0  0
 13 34  1  0  0  0  0
 13 35  1  0  0  0  0
 14 15  1  0  0  0  0
 14 36  1  0  0  0  0
 14 37  1  0  0  0  0
 15 16  1  0  0  0  0
 15 38  1  0  0  0  0
 16 17  2  0  0  0  0
 16 18  1  0  0  0  0
 18 39  1  0  0  0  0
 18 40  1  0  0  0  0
 19 20  1  0  0  0  0
 20 21  2  0  0  0  0
 20 41  1  0  0  0  0
 21 22  1  0  0  0  0
 22 42  1  0  0  0  0
 22 43  1  0  0  0  0
 22 44  1  0  0  0  0
M  CHG  1   5   1
M  END
> <s_m_source_file>
AV-unprocessed.smi

> <i_m_source_file_index>
1056

> <i_lp_mmshare_version>
43012

> <i_f3d_flags>
0

> <s_epik_input>
W0NIM11jKFtjSF0xKWMoW0NIM10pW2NIXWMoYzEyKW4oW2NIXW4yKVtDSDJdW0NASF0oW09IXSlbQ0gyXU4zW0NIMl1bQ0gyXVtOSF1DKD1PKVtDSDJdMw==

> <s_epik_cmdline>
J2VwaWtfcHl0aG9uJywgJy1waCcsICc3LjAnLCAnLXRuJywgJzgnLCAnLW1hJywgJzIwMCcsICctbWV0YWxfYmluZGluZycsICctaW1hZScsICc8aW5maWxlLm1hZT4nLCAnLW9tYWUnLCAnPG91dGZpbGUubWFlPic=

> <r_epik_Ionization_Penalty>
2.47196

> <r_epik_Ionization_Penalty_Charging>
1.21809

> <r_epik_Ionization_Penalty_Neutral>
1.25387

> <r_epik_State_Penalty>
2.6255

> <r_epik_Charging_Adjusted_Penalty>
3.84359

> <i_epik_Tot_Q>
1

> <i_epik_Tot_abs_Q>
1

> <r_epik_Metal_State_Penalty>
2.76698

> <b_epik_Metal_Only>
0

> <s_lp_Force_Field>
OPLS_2005

> <r_lp_Energy>
37.879

> <b_lp_Chiralities_Consistent>
1

> <s_lp_Variant>
AV-unprocessed.smi:1056-12

> <Gold.Version>
5.8.1

> <Gold.Id.Protein>
6NUR|6NUR_protein|mol2

> <Gold.PLP.Fitness>
53.3992

> <Gold.PLP.PLP>
-44.8324

> <Gold.PLP.part.hbond>
-4.0000

> <Gold.PLP.part.metal>
0.0000

> <Gold.PLP.part.buried>
-6.4665

> <Gold.PLP.part.nonpolar>
-36.5199

> <Gold.PLP.part.repulsive>
0.2553

> <Gold.PLP.ligand.clash>
0.0000

> <Gold.PLP.ligand.torsion>
1.6505

> <Gold.PLP.Chemscore.Hbond>
3.9500

> <Gold.PLP.Chemscore.CHOScore>
0.0000

> <Gold.PLP.Chemscore.Metal>
0.0000

> <Gold.Chemscore.Hbonds>
donor molecule, donor type, donor heavy atom, donor atom, acceptor molecule, acceptor atom, score
      L1  H     5    45       P1  8028  2.00
      P1  H  6896  6908       L1    17  1.00
      P1  H 10752 10763       L1    12  0.85

> <Gold.PLP.Chemscore.Internal.Correction>
0.0178

> <Gold.Rescore>
     Score         DG    S(hbond)    S(metal)    S(lipo)     H(rot)  DE(clash)    DE(int)     intcor
     17.71     -19.46       1.97        0.00     115.05       2.37       0.02       1.73       ----

> <Gold.Chemscore.Fitness>
17.7117

> <Gold.Chemscore.DG>
-19.4613

> <Gold.Chemscore.ZeroCoef>
-5.4800

> <Gold.Chemscore.Hbond>
1.9743

> <Gold.Chemscore.Metal>
0.0000

> <Gold.Chemscore.Lipo>
115.0471

> <Gold.Chemscore.Internal_Hbond>
0.0000

> <Gold.Chemscore.DEClash>
0.0212

> <Gold.Chemscore.DEInternal>
1.7284

> <Gold.Chemscore.Rot>
2.3724

> <Gold.Chemscore.Internal.Correction>
   9.000000E+99

> <Gold.Chemscore.Hbonds>
donor molecule, donor type, donor heavy atom, donor atom, acceptor molecule, acceptor atom, score
      L1  H     5    45       P1  8028  0.94
      P1  H  6896  6908       L1    17  0.68
      P1  H 10752 10763       L1    12  0.04

> <Gold.Chemscore.Hbond.Weighted>
-6.5942

> <Gold.Chemscore.Metal.Weighted>
-0.0000

> <Gold.Chemscore.Lipo.Weighted>
-13.4605

> <Gold.Chemscore.Internal_Hbond.Weighted>
0.0000

> <Gold.Chemscore.DEClash.Weighted>
0.0212

> <Gold.Chemscore.DEInternal.Weighted>
1.7284

> <Gold.Chemscore.Rot.Weighted>
6.0734

> <Gold.Chemscore.Internal.Correction.Weighted>
   9.000000E+99

> <Gold.Protein.RotatedTorsions>
[ 6907 6896 6895 6894 ] final  169.08 input  -60.11 | X-H torsion
[ 7974 7965 7964 7962 ] final   28.76 input  175.53 | X-H torsion
[ 8008 7997 7996 7995 ] final -154.00 input   59.86 | X-H torsion
[ 10167 10162 10161 10158 ] final   18.58 input  -65.29 | X-H torsion
[ 10718 10713 10712 10709 ] final -139.14 input   66.30 | X-H torsion
[ 10763 10752 10751 10750 ] final   74.03 input  -60.55 | X-H torsion
[ 11005 11000 10999 10996 ] final   59.71 input  -57.11 | X-H torsion

> <Gold.Protein.ActiveResidues>
 VAL166  LYS551  ARG553  GLY616  TRP617  ASP618  TYR619  PRO620  LYS621  CYS622 
 ASP623  PHE694  ASN695  SER759  ASP760  ASP761  ALA762  ILE779  LEU786  VAL792 
 PHE793  MET794  SER795  GLU796  ALA797  LYS798  CYS799  TRP800  GLU811  SER814 

> <Gold.Protein.RotatedAtoms>
  151.8375  133.3418  159.3632 H   0  0  0  0  0  0  0  0  0  0  0  0  # atno 6907 bound_to 6896
  150.7245  134.5423  159.5763 H   0  0  0  0  0  0  0  0  0  0  0  0  # atno 6908 bound_to 6896
  152.2890  134.7744  160.0433 H   0  0  0  0  0  0  0  0  0  0  0  0  # atno 6909 bound_to 6896
  146.1710  139.7013  142.8967 H   0  0  0  0  0  0  0  0  0  0  0  0  # atno 7974 bound_to 7965
  155.6795  140.0742  157.2490 H   0  0  0  0  0  0  0  0  0  0  0  0  # atno 8008 bound_to 7997
  154.4108  140.1684  156.2019 H   0  0  0  0  0  0  0  0  0  0  0  0  # atno 8009 bound_to 7997
  155.9547  140.3374  155.6441 H   0  0  0  0  0  0  0  0  0  0  0  0  # atno 8010 bound_to 7997
  140.5642  143.9280  150.6665 H   0  0  0  0  0  0  0  0  0  0  0  0  # atno 10167 bound_to 10162
  156.3073  130.7462  151.1529 H   0  0  0  0  0  0  0  0  0  0  0  0  # atno 10718 bound_to 10713
  153.0560  135.5041  154.7982 H   0  0  0  0  0  0  0  0  0  0  0  0  # atno 10763 bound_to 10752
  154.6808  135.2968  154.9618 H   0  0  0  0  0  0  0  0  0  0  0  0  # atno 10764 bound_to 10752
  154.0405  135.6717  153.4842 H   0  0  0  0  0  0  0  0  0  0  0  0  # atno 10765 bound_to 10752
  140.0284  134.6048  155.9541 H   0  0  0  0  0  0  0  0  0  0  0  0  # atno 11005 bound_to 11000
  145.4339  141.0417  143.2895 LP  0  0  0  0  0  0  0  0  0  0  0  0  # atno 17320 bound_to 7965
  144.8164  139.5870  143.7006 LP  0  0  0  0  0  0  0  0  0  0  0  0  # atno 17321 bound_to 7965
  140.2739  143.3436  152.1213 LP  0  0  0  0  0  0  0  0  0  0  0  0  # atno 17342 bound_to 10162
  139.5085  144.6851  151.5909 LP  0  0  0  0  0  0  0  0  0  0  0  0  # atno 17343 bound_to 10162
  157.7382  131.0543  150.5306 LP  0  0  0  0  0  0  0  0  0  0  0  0  # atno 17370 bound_to 10713
  156.5441  130.4215  149.6139 LP  0  0  0  0  0  0  0  0  0  0  0  0  # atno 17371 bound_to 10713
  141.1816  133.6547  156.5046 LP  0  0  0  0  0  0  0  0  0  0  0  0  # atno 17394 bound_to 11000
  140.4267  134.7139  157.4919 LP  0  0  0  0  0  0  0  0  0  0  0  0  # atno 17395 bound_to 11000

$$$$
