AV-unprocessed.smi:516|AV-procd|sdf|2787|dock7
  -GOLD-   2262023263D 1   1.00000     0.00000
 Structure written by MMmdl.
 44 46  0  0  0  0  0  0  0  0  3 V2000
  152.0862  131.6385  156.8709 C   0  0  0  0  0  0  0  0  0  0  0  0
  151.2058  132.4185  157.6593 O   0  0  0  0  0  0  0  0  0  0  0  0
  150.3060  133.1864  156.8779 C   0  0  0  0  0  0  0  0  0  0  0  0
  151.0838  134.0442  155.8686 C   0  0  0  0  0  0  0  0  0  0  0  0
  150.3252  135.2165  155.4396 N   0  0  0  0  0  0  0  0  0  0  0  0
  149.0711  135.2339  154.9154 C   0  0  0  0  0  0  0  0  0  0  0  0
  148.2433  134.0008  154.6872 C   0  0  0  0  0  0  0  0  0  0  0  0
  147.6350  134.2021  153.3479 N   0  3  0  0  0  0  0  0  0  0  0  0
  147.4708  132.9303  152.6062 C   0  0  0  0  0  0  0  0  0  0  0  0
  146.9046  133.1971  151.2012 C   0  0  0  0  0  0  0  0  0  0  0  0
  145.6713  133.8972  151.3082 O   0  0  0  0  0  0  0  0  0  0  0  0
  145.8297  135.1608  151.9417 C   0  0  0  0  0  0  0  0  0  0  0  0
  146.3576  134.9591  153.3716 C   0  0  0  0  0  0  0  0  0  0  0  0
  148.6200  136.4544  154.6146 N   0  0  0  0  0  0  0  0  0  0  0  0
  149.6744  137.2799  154.9733 C   0  0  0  0  0  0  0  0  0  0  0  0
  150.7159  136.5595  155.4682 C   0  0  0  0  0  0  0  0  0  0  0  0
  151.9887  137.1632  155.9241 C   0  0  0  0  0  0  0  0  0  0  0  0
  152.9103  136.4662  156.3425 O   0  0  0  0  0  0  0  0  0  0  0  0
  151.9808  138.5294  155.8151 N   0  5  0  0  0  0  0  0  0  0  0  0
  150.9451  139.2981  155.3290 C   0  0  0  0  0  0  0  0  0  0  0  0
  151.0181  140.5260  155.2707 O   0  0  0  0  0  0  0  0  0  0  0  0
  149.7939  138.6939  154.8968 N   0  0  0  0  0  0  0  0  0  0  0  0
  148.6781  139.4851  154.3699 C   0  0  0  0  0  0  0  0  0  0  0  0
  152.7564  131.0754  157.5203 H   0  0  0  0  0  0  0  0  0  0  0  0
  152.6967  132.2679  156.2222 H   0  0  0  0  0  0  0  0  0  0  0  0
  151.5373  130.9264  156.2535 H   0  0  0  0  0  0  0  0  0  0  0  0
  149.6187  132.5225  156.3516 H   0  0  0  0  0  0  0  0  0  0  0  0
  149.7064  133.8306  157.5226 H   0  0  0  0  0  0  0  0  0  0  0  0
  152.0309  134.3670  156.2992 H   0  0  0  0  0  0  0  0  0  0  0  0
  151.3649  133.4498  155.0020 H   0  0  0  0  0  0  0  0  0  0  0  0
  148.9097  133.1372  154.6862 H   0  0  0  0  0  0  0  0  0  0  0  0
  147.4908  133.8366  155.4573 H   0  0  0  0  0  0  0  0  0  0  0  0
  148.4333  132.4241  152.5233 H   0  0  0  0  0  0  0  0  0  0  0  0
  146.8043  132.2669  153.1596 H   0  0  0  0  0  0  0  0  0  0  0  0
  147.6112  133.7697  150.5981 H   0  0  0  0  0  0  0  0  0  0  0  0
  146.7321  132.2550  150.6804 H   0  0  0  0  0  0  0  0  0  0  0  0
  146.5065  135.7910  151.3625 H   0  0  0  0  0  0  0  0  0  0  0  0
  144.8646  135.6671  151.9657 H   0  0  0  0  0  0  0  0  0  0  0  0
  145.6218  134.4178  153.9683 H   0  0  0  0  0  0  0  0  0  0  0  0
  146.4964  135.9326  153.8421 H   0  0  0  0  0  0  0  0  0  0  0  0
  149.0082  140.1100  153.5390 H   0  0  0  0  0  0  0  0  0  0  0  0
  148.2748  140.1365  155.1461 H   0  0  0  0  0  0  0  0  0  0  0  0
  147.8599  138.8668  154.0023 H   0  0  0  0  0  0  0  0  0  0  0  0
  148.2961  134.7556  152.8208 H   0  0  0  0  0  0  0  0  0  0  0  0
  1  2  1  0  0  0  0
  1 24  1  0  0  0  0
  1 25  1  0  0  0  0
  1 26  1  0  0  0  0
  2  3  1  0  0  0  0
  3  4  1  0  0  0  0
  3 27  1  0  0  0  0
  3 28  1  0  0  0  0
  4  5  1  0  0  0  0
  4 29  1  0  0  0  0
  4 30  1  0  0  0  0
  5 16  1  0  0  0  0
  5  6  1  0  0  0  0
  6  7  1  0  0  0  0
  6 14  2  0  0  0  0
  7  8  1  0  0  0  0
  7 31  1  0  0  0  0
  7 32  1  0  0  0  0
  8 13  1  0  0  0  0
  8  9  1  0  0  0  0
  8 44  1  0  0  0  0
  9 10  1  0  0  0  0
  9 33  1  0  0  0  0
  9 34  1  0  0  0  0
 10 11  1  0  0  0  0
 10 35  1  0  0  0  0
 10 36  1  0  0  0  0
 11 12  1  0  0  0  0
 12 13  1  0  0  0  0
 12 37  1  0  0  0  0
 12 38  1  0  0  0  0
 13 39  1  0  0  0  0
 13 40  1  0  0  0  0
 14 15  1  0  0  0  0
 15 22  1  0  0  0  0
 15 16  2  0  0  0  0
 16 17  1  0  0  0  0
 17 18  2  0  0  0  0
 17 19  1  0  0  0  0
 19 20  1  0  0  0  0
 20 21  2  0  0  0  0
 20 22  1  0  0  0  0
 22 23  1  0  0  0  0
 23 41  1  0  0  0  0
 23 42  1  0  0  0  0
 23 43  1  0  0  0  0
M  CHG  1   8   1
M  CHG  1  19  -1
M  END
> <s_m_source_file>
AV-unprocessed.smi

> <i_m_source_file_index>
516

> <i_lp_mmshare_version>
43012

> <i_f3d_flags>
0

> <s_epik_input>
W0NIM11uMWMoPU8pW25IXWMoPU8pYyhjMTIpbihbQ0gyXVtDSDJdT1tDSDNdKWMobjIpW0NIMl1OM1tDSDJdW0NIMl1PW0NIMl1bQ0gyXTM=

> <s_epik_cmdline>
J2VwaWtfcHl0aG9uJywgJy1waCcsICc3LjAnLCAnLXRuJywgJzgnLCAnLW1hJywgJzIwMCcsICctbWV0YWxfYmluZGluZycsICctaW1hZScsICc8aW5maWxlLm1hZT4nLCAnLW9tYWUnLCAnPG91dGZpbGUubWFlPic=

> <r_epik_Ionization_Penalty>
5.20946

> <r_epik_Ionization_Penalty_Charging>
1.12908

> <r_epik_Ionization_Penalty_Neutral>
4.08038

> <r_epik_State_Penalty>
5.2587

> <r_epik_Charging_Adjusted_Penalty>
6.38778

> <i_epik_Tot_Q>
0

> <i_epik_Tot_abs_Q>
2

> <r_epik_Metal_State_Penalty>
1.732

> <b_epik_Metal_Only>
1

> <s_lp_Force_Field>
OPLS_2005

> <r_lp_Energy>
35.9619

> <b_lp_Chiralities_Consistent>
1

> <s_lp_Variant>
AV-unprocessed.smi:516-4

> <Gold.Version>
5.8.1

> <Gold.Id.Protein>
6NUR|6NUR_protein|mol2

> <Gold.PLP.Fitness>
40.4101

> <Gold.PLP.PLP>
-27.0172

> <Gold.PLP.part.hbond>
-4.0000

> <Gold.PLP.part.metal>
0.0000

> <Gold.PLP.part.buried>
-3.9962

> <Gold.PLP.part.nonpolar>
-22.3834

> <Gold.PLP.part.repulsive>
2.6825

> <Gold.PLP.ligand.clash>
0.0000

> <Gold.PLP.ligand.torsion>
0.7784

> <Gold.PLP.Chemscore.Hbond>
4.9600

> <Gold.PLP.Chemscore.CHOScore>
0.0000

> <Gold.PLP.Chemscore.Metal>
0.0000

> <Gold.Chemscore.Hbonds>
donor molecule, donor type, donor heavy atom, donor atom, acceptor molecule, acceptor atom, score
      L1  H     8    44       P1  7948  2.00
      P1  H  6896  6909       L1     2  1.00
      P1  H  7989  7998       L1    21  0.96
      P1  H 10752 10764       L1    18  0.88

> <Gold.PLP.Chemscore.Internal.Correction>
0.0696

> <Gold.Rescore>
     Score         DG    S(hbond)    S(metal)    S(lipo)     H(rot)  DE(clash)    DE(int)     intcor
     14.19     -17.00       3.37        0.00      47.36       2.07       1.80       1.01       ----

> <Gold.Chemscore.Fitness>
14.1878

> <Gold.Chemscore.DG>
-16.9957

> <Gold.Chemscore.ZeroCoef>
-5.4800

> <Gold.Chemscore.Hbond>
3.3747

> <Gold.Chemscore.Metal>
0.0000

> <Gold.Chemscore.Lipo>
47.3644

> <Gold.Chemscore.Internal_Hbond>
0.0000

> <Gold.Chemscore.DEClash>
1.8019

> <Gold.Chemscore.DEInternal>
1.0059

> <Gold.Chemscore.Rot>
2.0693

> <Gold.Chemscore.Internal.Correction>
   9.000000E+99

> <Gold.Chemscore.Hbonds>
donor molecule, donor type, donor heavy atom, donor atom, acceptor molecule, acceptor atom, score
      L1  H     8    44       P1  7948  0.55
      P1  H  6896  6909       L1     2  0.70
      P1  H  7989  7998       L1    21  0.46
      P1  H 10752 10764       L1    18  0.30

> <Gold.Chemscore.Hbond.Weighted>
-11.2715

> <Gold.Chemscore.Metal.Weighted>
-0.0000

> <Gold.Chemscore.Lipo.Weighted>
-5.5416

> <Gold.Chemscore.Internal_Hbond.Weighted>
0.0000

> <Gold.Chemscore.DEClash.Weighted>
1.8019

> <Gold.Chemscore.DEInternal.Weighted>
1.0059

> <Gold.Chemscore.Rot.Weighted>
5.2975

> <Gold.Chemscore.Internal.Correction.Weighted>
   9.000000E+99

> <Gold.Protein.RotatedTorsions>
[ 6907 6896 6895 6894 ] final  -52.39 input  -60.11 | X-H torsion
[ 7974 7965 7964 7962 ] final  -35.50 input  175.53 | X-H torsion
[ 8008 7997 7996 7995 ] final -172.65 input   59.86 | X-H torsion
[ 10167 10162 10161 10158 ] final -138.85 input  -65.29 | X-H torsion
[ 10718 10713 10712 10709 ] final  -71.87 input   66.30 | X-H torsion
[ 10763 10752 10751 10750 ] final  -28.27 input  -60.55 | X-H torsion
[ 11005 11000 10999 10996 ] final   84.31 input  -57.11 | X-H torsion

> <Gold.Protein.ActiveResidues>
 VAL166  LYS551  ARG553  GLY616  TRP617  ASP618  TYR619  PRO620  LYS621  CYS622 
 ASP623  PHE694  ASN695  SER759  ASP760  ASP761  ALA762  ILE779  LEU786  VAL792 
 PHE793  MET794  SER795  GLU796  ALA797  LYS798  CYS799  TRP800  GLU811  SER814 

> <Gold.Protein.RotatedAtoms>
  150.8522  134.7850  159.7017 H   0  0  0  0  0  0  0  0  0  0  0  0  # atno 6907 bound_to 6896
  152.4583  134.5238  159.9800 H   0  0  0  0  0  0  0  0  0  0  0  0  # atno 6908 bound_to 6896
  151.5356  133.3403  159.2962 H   0  0  0  0  0  0  0  0  0  0  0  0  # atno 6909 bound_to 6896
  146.0741  140.6167  142.8939 H   0  0  0  0  0  0  0  0  0  0  0  0  # atno 7974 bound_to 7965
  155.9473  140.1119  157.1006 H   0  0  0  0  0  0  0  0  0  0  0  0  # atno 8008 bound_to 7997
  154.4102  140.1207  156.5071 H   0  0  0  0  0  0  0  0  0  0  0  0  # atno 8009 bound_to 7997
  155.6887  140.3472  155.4887 H   0  0  0  0  0  0  0  0  0  0  0  0  # atno 8010 bound_to 7997
  139.8438  143.7288  152.2662 H   0  0  0  0  0  0  0  0  0  0  0  0  # atno 10167 bound_to 10162
  156.0344  130.4360  150.2508 H   0  0  0  0  0  0  0  0  0  0  0  0  # atno 10718 bound_to 10713
  153.7457  135.6929  153.4957 H   0  0  0  0  0  0  0  0  0  0  0  0  # atno 10763 bound_to 10752
  153.2038  135.4427  155.0297 H   0  0  0  0  0  0  0  0  0  0  0  0  # atno 10764 bound_to 10752
  154.8205  135.3420  154.6980 H   0  0  0  0  0  0  0  0  0  0  0  0  # atno 10765 bound_to 10752
  139.9004  134.8207  156.2427 H   0  0  0  0  0  0  0  0  0  0  0  0  # atno 11005 bound_to 11000
  144.7250  140.4496  143.6980 LP  0  0  0  0  0  0  0  0  0  0  0  0  # atno 17320 bound_to 7965
  145.6338  139.1540  143.2954 LP  0  0  0  0  0  0  0  0  0  0  0  0  # atno 17321 bound_to 7965
  139.7533  144.7528  151.0474 LP  0  0  0  0  0  0  0  0  0  0  0  0  # atno 17342 bound_to 10162
  140.7795  143.4835  150.9987 LP  0  0  0  0  0  0  0  0  0  0  0  0  # atno 17343 bound_to 10162
  157.0608  131.0089  151.3223 LP  0  0  0  0  0  0  0  0  0  0  0  0  # atno 17370 bound_to 10713
  157.5072  130.7916  149.7666 LP  0  0  0  0  0  0  0  0  0  0  0  0  # atno 17371 bound_to 10713
  141.0274  133.7007  156.1372 LP  0  0  0  0  0  0  0  0  0  0  0  0  # atno 17394 bound_to 11000
  140.7146  134.4425  157.5579 LP  0  0  0  0  0  0  0  0  0  0  0  0  # atno 17395 bound_to 11000

$$$$
