AV-unprocessed.smi:1261|AV-procd|sdf|5307|dock10
  -GOLD-   22720 4433D 1   1.00000     0.00000
 Structure written by MMmdl.
 50 51  0  0  0  0  0  0  0  0  2 V2000
  152.2548  141.0386  158.7681 C   0  0  0  0  0  0  0  0  0  0  0  0
  151.0244  140.8582  157.8679 C   0  0  2  0  0  0  0  0  0  0  0  0
  151.3313  139.9292  156.6801 C   0  0  0  0  0  0  0  0  0  0  0  0
  150.1088  139.7918  155.7556 C   0  0  2  0  0  0  0  0  0  0  0  0
  150.4170  138.8897  154.5523 C   0  0  0  0  0  0  0  0  0  0  0  0
  149.6276  141.1867  155.3035 C   0  0  0  0  0  0  0  0  0  0  0  0
  149.3239  142.0763  156.4550 N   0  3  1  0  0  0  0  0  0  0  0  0
  148.0401  141.7517  157.1335 C   0  0  0  0  0  0  0  0  0  0  0  0
  146.8299  141.8778  156.1930 C   0  0  0  0  0  0  0  0  0  0  0  0
  145.5125  141.4855  156.8815 C   0  0  0  0  0  0  0  0  0  0  0  0
  145.1032  142.4841  157.8612 N   0  0  0  0  0  0  0  0  0  0  0  0
  145.0179  142.2815  159.1874 C   0  0  0  0  0  0  0  0  0  0  0  0
  145.2873  141.2014  159.7116 O   0  0  0  0  0  0  0  0  0  0  0  0
  144.5726  143.4537  160.0798 C   0  0  0  0  0  0  0  0  0  0  0  0
  145.5080  144.5891  160.1317 N   0  0  0  0  0  0  0  0  0  0  0  0
  145.0933  145.6961  159.4065 N   0  0  0  0  0  0  0  0  0  0  0  0
  145.8277  146.7563  159.3711 C   0  0  0  0  0  0  0  0  0  0  0  0
  145.3785  147.8301  158.6428 O   0  0  0  0  0  0  0  0  0  0  0  0
  147.0883  146.8169  160.0775 C   0  0  0  0  0  0  0  0  0  0  0  0
  147.4829  145.7346  160.7831 C   0  0  0  0  0  0  0  0  0  0  0  0
  146.6721  144.5174  160.8480 C   0  0  0  0  0  0  0  0  0  0  0  0
  147.0001  143.5227  161.4939 O   0  0  0  0  0  0  0  0  0  0  0  0
  150.4956  142.2188  157.3626 C   0  0  0  0  0  0  0  0  0  0  0  0
  144.7836  147.4698  158.0034 H   0  0  0  0  0  0  0  0  0  0  0  0
  153.0779  141.5071  158.2275 H   0  0  0  0  0  0  0  0  0  0  0  0
  152.6087  140.0792  159.1466 H   0  0  0  0  0  0  0  0  0  0  0  0
  152.0227  141.6656  159.6294 H   0  0  0  0  0  0  0  0  0  0  0  0
  150.2528  140.3863  158.4761 H   0  0  0  0  0  0  0  0  0  0  0  0
  152.1776  140.3223  156.1144 H   0  0  0  0  0  0  0  0  0  0  0  0
  151.6329  138.9468  157.0456 H   0  0  0  0  0  0  0  0  0  0  0  0
  149.3065  139.3147  156.3201 H   0  0  0  0  0  0  0  0  0  0  0  0
  151.2169  139.3050  153.9383 H   0  0  0  0  0  0  0  0  0  0  0  0
  149.5388  138.7682  153.9174 H   0  0  0  0  0  0  0  0  0  0  0  0
  150.7279  137.8959  154.8761 H   0  0  0  0  0  0  0  0  0  0  0  0
  150.4028  141.6627  154.7010 H   0  0  0  0  0  0  0  0  0  0  0  0
  148.7540  141.1024  154.6556 H   0  0  0  0  0  0  0  0  0  0  0  0
  148.0803  140.7206  157.4871 H   0  0  0  0  0  0  0  0  0  0  0  0
  147.9014  142.3694  158.0204 H   0  0  0  0  0  0  0  0  0  0  0  0
  146.7454  142.8997  155.8250 H   0  0  0  0  0  0  0  0  0  0  0  0
  146.9825  141.2455  155.3173 H   0  0  0  0  0  0  0  0  0  0  0  0
  144.7170  141.3952  156.1415 H   0  0  0  0  0  0  0  0  0  0  0  0
  145.6045  140.5088  157.3597 H   0  0  0  0  0  0  0  0  0  0  0  0
  144.8620  143.3993  157.5084 H   0  0  0  0  0  0  0  0  0  0  0  0
  143.5886  143.7888  159.7480 H   0  0  0  0  0  0  0  0  0  0  0  0
  144.4148  143.0636  161.0869 H   0  0  0  0  0  0  0  0  0  0  0  0
  147.6941  147.7104  160.0365 H   0  0  0  0  0  0  0  0  0  0  0  0
  148.4222  145.7659  161.3154 H   0  0  0  0  0  0  0  0  0  0  0  0
  150.2570  142.8706  158.2018 H   0  0  0  0  0  0  0  0  0  0  0  0
  151.2855  142.7285  156.8089 H   0  0  0  0  0  0  0  0  0  0  0  0
  149.1742  142.9893  156.0498 H   0  0  0  0  0  0  0  0  0  0  0  0
  1  2  1  0  0  0  0
  1 25  1  0  0  0  0
  1 26  1  0  0  0  0
  1 27  1  0  0  0  0
  2 23  1  0  0  0  0
  2  3  1  0  0  0  0
  2 28  1  0  0  0  0
  3  4  1  0  0  0  0
  3 29  1  0  0  0  0
  3 30  1  0  0  0  0
  4  5  1  0  0  0  0
  4  6  1  0  0  0  0
  4 31  1  0  0  0  0
  5 32  1  0  0  0  0
  5 33  1  0  0  0  0
  5 34  1  0  0  0  0
  6  7  1  0  0  0  0
  6 35  1  0  0  0  0
  6 36  1  0  0  0  0
  7  8  1  0  0  0  0
  7 23  1  0  0  0  0
  7 50  1  0  0  0  0
  8  9  1  0  0  0  0
  8 37  1  0  0  0  0
  8 38  1  0  0  0  0
  9 10  1  0  0  0  0
  9 39  1  0  0  0  0
  9 40  1  0  0  0  0
 10 11  1  0  0  0  0
 10 41  1  0  0  0  0
 10 42  1  0  0  0  0
 11 12  1  0  0  0  0
 11 43  1  0  0  0  0
 12 13  2  0  0  0  0
 12 14  1  0  0  0  0
 14 44  1  0  0  0  0
 14 45  1  0  0  0  0
 14 15  1  0  0  0  0
 15 16  1  0  0  0  0
 15 21  1  0  0  0  0
 16 17  2  0  0  0  0
 17 18  1  0  0  0  0
 17 19  1  0  0  0  0
 18 24  1  0  0  0  0
 19 46  1  0  0  0  0
 19 20  2  0  0  0  0
 20 47  1  0  0  0  0
 20 21  1  0  0  0  0
 21 22  2  0  0  0  0
 23 48  1  0  0  0  0
 23 49  1  0  0  0  0
M  CHG  1   7   1
M  END
> <s_m_source_file>
AV-unprocessed.smi

> <i_m_source_file_index>
1261

> <i_lp_mmshare_version>
43012

> <i_f3d_flags>
0

> <s_epik_input>
W0NIM11bQ0BASF0xW0NIMl1bQ0BASF0oW0NIM10pW0NIMl1OKFtDSDJdMSlbQ0gyXVtDSDJdW0NIMl1bTkhdQyg9TylbQ0gyXW4yW25IXWMoPU8pW2NIXVtjSF1jMj1P

> <s_epik_cmdline>
J2VwaWtfcHl0aG9uJywgJy1waCcsICc3LjAnLCAnLXRuJywgJzgnLCAnLW1hJywgJzIwMCcsICctbWV0YWxfYmluZGluZycsICctaW1hZScsICc8aW5maWxlLm1hZT4nLCAnLW9tYWUnLCAnPG91dGZpbGUubWFlPic=

> <r_lp_tautomer_probability>
0.9996

> <r_epik_Ionization_Penalty>
2.1425

> <r_epik_Ionization_Penalty_Charging>
0.000312112

> <r_epik_Ionization_Penalty_Neutral>
2.14218

> <r_epik_State_Penalty>
1.71978

> <r_epik_Charging_Adjusted_Penalty>
1.72009

> <i_epik_Tot_Q>
1

> <i_epik_Tot_abs_Q>
1

> <r_epik_Metal_State_Penalty>
1.71978

> <b_epik_Metal_Only>
0

> <s_lp_Force_Field>
OPLS_2005

> <r_lp_Energy>
29.2022

> <b_lp_Chiralities_Consistent>
1

> <s_lp_Variant>
AV-unprocessed.smi:1261-7

> <Gold.Version>
5.8.1

> <Gold.Id.Protein>
6NUR|6NUR_protein|mol2

> <Gold.PLP.Fitness>
45.3181

> <Gold.PLP.PLP>
-34.9578

> <Gold.PLP.part.hbond>
-3.4813

> <Gold.PLP.part.metal>
0.0000

> <Gold.PLP.part.buried>
-5.7944

> <Gold.PLP.part.nonpolar>
-26.1706

> <Gold.PLP.part.repulsive>
0.2394

> <Gold.PLP.ligand.clash>
0.0000

> <Gold.PLP.ligand.torsion>
0.2970

> <Gold.PLP.Chemscore.Hbond>
3.6160

> <Gold.PLP.Chemscore.CHOScore>
0.0000

> <Gold.PLP.Chemscore.Metal>
0.0000

> <Gold.Chemscore.Hbonds>
donor molecule, donor type, donor heavy atom, donor atom, acceptor molecule, acceptor atom, score
      L1  H     7    50       P1  8028  2.00
      P1  H  6933  6944       L1    22  1.00
      P1  H  6934  6946       L1    13  0.85

> <Gold.PLP.Chemscore.Internal.Correction>
0.1065

> <Gold.Rescore>
     Score         DG    S(hbond)    S(metal)    S(lipo)     H(rot)  DE(clash)    DE(int)     intcor
     14.60     -15.12       2.87        0.00      69.16       3.14       0.15       0.37       ----

> <Gold.Chemscore.Fitness>
14.5961

> <Gold.Chemscore.DG>
-15.1215

> <Gold.Chemscore.ZeroCoef>
-5.4800

> <Gold.Chemscore.Hbond>
2.8669

> <Gold.Chemscore.Metal>
0.0000

> <Gold.Chemscore.Lipo>
69.1640

> <Gold.Chemscore.Internal_Hbond>
0.0000

> <Gold.Chemscore.DEClash>
0.1510

> <Gold.Chemscore.DEInternal>
0.3744

> <Gold.Chemscore.Rot>
3.1352

> <Gold.Chemscore.Internal.Correction>
   9.000000E+99

> <Gold.Chemscore.Hbonds>
donor molecule, donor type, donor heavy atom, donor atom, acceptor molecule, acceptor atom, score
      L1  H     7    50       P1  8028  1.00
      P1  H  6933  6944       L1    22  0.98
      P1  H  6934  6946       L1    13  0.83

> <Gold.Chemscore.Hbond.Weighted>
-9.5753

> <Gold.Chemscore.Metal.Weighted>
-0.0000

> <Gold.Chemscore.Lipo.Weighted>
-8.0922

> <Gold.Chemscore.Internal_Hbond.Weighted>
0.0000

> <Gold.Chemscore.DEClash.Weighted>
0.1510

> <Gold.Chemscore.DEInternal.Weighted>
0.3744

> <Gold.Chemscore.Rot.Weighted>
8.0260

> <Gold.Chemscore.Internal.Correction.Weighted>
   9.000000E+99

> <Gold.Protein.RotatedTorsions>
[ 6907 6896 6895 6894 ] final  168.23 input  -60.11 | X-H torsion
[ 7974 7965 7964 7962 ] final   87.67 input  175.53 | X-H torsion
[ 8008 7997 7996 7995 ] final   36.85 input   59.86 | X-H torsion
[ 10167 10162 10161 10158 ] final  109.96 input  -65.29 | X-H torsion
[ 10718 10713 10712 10709 ] final -129.67 input   66.30 | X-H torsion
[ 10763 10752 10751 10750 ] final   -2.70 input  -60.55 | X-H torsion
[ 11005 11000 10999 10996 ] final  -23.13 input  -57.11 | X-H torsion

> <Gold.Protein.ActiveResidues>
 VAL166  LYS551  ARG553  GLY616  TRP617  ASP618  TYR619  PRO620  LYS621  CYS622 
 ASP623  PHE694  ASN695  SER759  ASP760  ASP761  ALA762  ILE779  LEU786  VAL792 
 PHE793  MET794  SER795  GLU796  ALA797  LYS798  CYS799  TRP800  GLU811  SER814 

> <Gold.Protein.RotatedAtoms>
  151.8508  133.3439  159.3672 H   0  0  0  0  0  0  0  0  0  0  0  0  # atno 6907 bound_to 6896
  150.7207  134.5301  159.5705 H   0  0  0  0  0  0  0  0  0  0  0  0  # atno 6908 bound_to 6896
  152.2794  134.7846  160.0450 H   0  0  0  0  0  0  0  0  0  0  0  0  # atno 6909 bound_to 6896
  145.5559  139.2299  143.2487 H   0  0  0  0  0  0  0  0  0  0  0  0  # atno 7974 bound_to 7965
  155.1941  140.3310  155.4353 H   0  0  0  0  0  0  0  0  0  0  0  0  # atno 8008 bound_to 7997
  156.2431  140.1905  156.6982 H   0  0  0  0  0  0  0  0  0  0  0  0  # atno 8009 bound_to 7997
  154.6186  140.0598  156.9571 H   0  0  0  0  0  0  0  0  0  0  0  0  # atno 8010 bound_to 7997
  139.6726  144.7124  151.1660 H   0  0  0  0  0  0  0  0  0  0  0  0  # atno 10167 bound_to 10162
  156.2069  130.6893  151.0605 H   0  0  0  0  0  0  0  0  0  0  0  0  # atno 10718 bound_to 10713
  153.3615  135.6990  153.6709 H   0  0  0  0  0  0  0  0  0  0  0  0  # atno 10763 bound_to 10752
  153.5396  135.3575  155.2713 H   0  0  0  0  0  0  0  0  0  0  0  0  # atno 10764 bound_to 10752
  154.8668  135.4200  154.2873 H   0  0  0  0  0  0  0  0  0  0  0  0  # atno 10765 bound_to 10752
  140.8722  133.7712  156.0201 H   0  0  0  0  0  0  0  0  0  0  0  0  # atno 11005 bound_to 11000
  146.1885  140.6382  142.9156 LP  0  0  0  0  0  0  0  0  0  0  0  0  # atno 17320 bound_to 7965
  144.7507  140.5182  143.6804 LP  0  0  0  0  0  0  0  0  0  0  0  0  # atno 17321 bound_to 7965
  140.7623  143.5821  150.8884 LP  0  0  0  0  0  0  0  0  0  0  0  0  # atno 17342 bound_to 10162
  139.9487  143.6297  152.3035 LP  0  0  0  0  0  0  0  0  0  0  0  0  # atno 17343 bound_to 10162
  157.7017  131.0773  150.6798 LP  0  0  0  0  0  0  0  0  0  0  0  0  # atno 17370 bound_to 10713
  156.6857  130.4580  149.5614 LP  0  0  0  0  0  0  0  0  0  0  0  0  # atno 17371 bound_to 10713
  140.8559  134.2898  157.5255 LP  0  0  0  0  0  0  0  0  0  0  0  0  # atno 17394 bound_to 11000
  139.8713  134.9493  156.4020 LP  0  0  0  0  0  0  0  0  0  0  0  0  # atno 17395 bound_to 11000

$$$$
