AV-unprocessed.smi:625|AV-procd|sdf|3107|dock3
  -GOLD-   22720 0 33D 1   1.00000     0.00000
 Structure written by MMmdl.
 49 51  0  0  0  0  0  0  0  0  1 V2000
  146.9833  145.0487  159.9730 C   0  0  0  0  0  0  0  0  0  0  0  0
  146.8010  144.0759  158.9063 N   0  0  0  0  0  0  0  0  0  0  0  0
  146.2724  142.8524  159.0735 C   0  0  0  0  0  0  0  0  0  0  0  0
  145.8953  142.4564  160.1777 O   0  0  0  0  0  0  0  0  0  0  0  0
  146.1963  142.0665  157.8394 C   0  0  0  0  0  0  0  0  0  0  0  0
  145.1595  141.0760  157.5891 C   0  0  0  0  0  0  0  0  0  0  0  0
  145.1446  140.3747  156.4386 C   0  0  0  0  0  0  0  0  0  0  0  0
  146.1572  140.5761  155.3986 C   0  0  0  0  0  0  0  0  0  0  0  0
  146.1501  139.9349  154.3470 O   0  0  0  0  0  0  0  0  0  0  0  0
  147.1094  141.5201  155.6708 N   0  0  0  0  0  0  0  0  0  0  0  0
  148.1807  141.8044  154.7017 C   0  0  0  0  0  0  0  0  0  0  0  0
  149.5371  141.2436  155.1475 C   0  0  0  0  0  0  0  0  0  0  0  0
  150.1186  140.4023  154.4614 O   0  0  0  0  0  0  0  0  0  0  0  0
  150.0206  141.7220  156.3041 N   0  0  0  0  0  0  0  0  0  0  0  0
  151.3239  141.4060  156.8843 C   0  0  2  0  0  0  0  0  0  0  0  0
  151.5429  139.8862  156.8280 C   0  0  0  0  0  0  0  0  0  0  0  0
  151.3960  141.9542  158.3292 C   0  0  1  0  0  0  0  0  0  0  0  0
  152.8047  141.9330  158.9640 C   0  0  0  0  0  0  0  0  0  0  0  0
  152.9560  143.3616  159.5201 C   0  0  1  0  0  0  0  0  0  0  0  0
  153.1915  144.3346  158.3504 C   0  0  0  0  0  0  0  0  0  0  0  0
  151.8069  144.3985  157.6810 C   0  0  0  0  0  0  0  0  0  0  0  0
  150.9667  143.4293  158.5383 C   0  0  2  0  0  0  0  0  0  0  0  0
  151.5280  143.7036  159.9297 C   0  0  0  0  0  0  0  0  0  0  0  0
  147.1221  142.2477  156.8771 C   0  0  0  0  0  0  0  0  0  0  0  0
  147.4422  145.9536  159.5752 H   0  0  0  0  0  0  0  0  0  0  0  0
  147.6327  144.6522  160.7544 H   0  0  0  0  0  0  0  0  0  0  0  0
  146.0255  145.3195  160.4190 H   0  0  0  0  0  0  0  0  0  0  0  0
  147.0927  144.3484  157.9790 H   0  0  0  0  0  0  0  0  0  0  0  0
  144.3830  140.8792  158.3136 H   0  0  0  0  0  0  0  0  0  0  0  0
  144.3660  139.6442  156.2759 H   0  0  0  0  0  0  0  0  0  0  0  0
  147.9119  141.3994  153.7238 H   0  0  0  0  0  0  0  0  0  0  0  0
  148.2926  142.8781  154.5454 H   0  0  0  0  0  0  0  0  0  0  0  0
  149.4614  142.4015  156.7990 H   0  0  0  0  0  0  0  0  0  0  0  0
  152.1187  141.8693  156.2985 H   0  0  0  0  0  0  0  0  0  0  0  0
  152.5186  139.6106  157.2286 H   0  0  0  0  0  0  0  0  0  0  0  0
  151.4982  139.5224  155.8009 H   0  0  0  0  0  0  0  0  0  0  0  0
  150.7849  139.3527  157.4027 H   0  0  0  0  0  0  0  0  0  0  0  0
  150.7386  141.3398  158.9475 H   0  0  0  0  0  0  0  0  0  0  0  0
  152.8513  141.1936  159.7644 H   0  0  0  0  0  0  0  0  0  0  0  0
  153.5931  141.6945  158.2490 H   0  0  0  0  0  0  0  0  0  0  0  0
  153.6983  143.4459  160.3144 H   0  0  0  0  0  0  0  0  0  0  0  0
  153.4860  145.3195  158.7154 H   0  0  0  0  0  0  0  0  0  0  0  0
  153.9675  143.9843  157.6689 H   0  0  0  0  0  0  0  0  0  0  0  0
  151.4022  145.4093  157.7451 H   0  0  0  0  0  0  0  0  0  0  0  0
  151.8371  144.1309  156.6258 H   0  0  0  0  0  0  0  0  0  0  0  0
  149.8918  143.5894  158.4470 H   0  0  0  0  0  0  0  0  0  0  0  0
  151.1279  143.0418  160.6997 H   0  0  0  0  0  0  0  0  0  0  0  0
  151.4055  144.7397  160.2508 H   0  0  0  0  0  0  0  0  0  0  0  0
  147.9382  142.9514  156.9644 H   0  0  0  0  0  0  0  0  0  0  0  0
  1  2  1  0  0  0  0
  1 25  1  0  0  0  0
  1 26  1  0  0  0  0
  1 27  1  0  0  0  0
  2  3  1  0  0  0  0
  2 28  1  0  0  0  0
  3  4  2  0  0  0  0
  3  5  1  0  0  0  0
  5 24  2  0  0  0  0
  5  6  1  0  0  0  0
  6  7  2  0  0  0  0
  6 29  1  0  0  0  0
  7  8  1  0  0  0  0
  7 30  1  0  0  0  0
  8  9  2  0  0  0  0
  8 10  1  0  0  0  0
 10 11  1  0  0  0  0
 10 24  1  0  0  0  0
 11 12  1  0  0  0  0
 11 31  1  0  0  0  0
 11 32  1  0  0  0  0
 12 13  2  0  0  0  0
 12 14  1  0  0  0  0
 14 15  1  0  0  0  0
 14 33  1  0  0  0  0
 15 16  1  0  0  0  0
 15 17  1  0  0  0  0
 15 34  1  0  0  0  0
 16 35  1  0  0  0  0
 16 36  1  0  0  0  0
 16 37  1  0  0  0  0
 17 22  1  0  0  0  0
 17 18  1  0  0  0  0
 17 38  1  0  0  0  0
 18 19  1  0  0  0  0
 18 39  1  0  0  0  0
 18 40  1  0  0  0  0
 19 23  1  0  0  0  0
 19 20  1  0  0  0  0
 19 41  1  0  0  0  0
 20 21  1  0  0  0  0
 20 42  1  0  0  0  0
 20 43  1  0  0  0  0
 21 22  1  0  0  0  0
 21 44  1  0  0  0  0
 21 45  1  0  0  0  0
 22 23  1  0  0  0  0
 22 46  1  0  0  0  0
 23 47  1  0  0  0  0
 23 48  1  0  0  0  0
 24 49  1  0  0  0  0
M  END
> <s_m_source_file>
AV-unprocessed.smi

> <i_m_source_file_index>
625

> <i_lp_mmshare_version>
43012

> <i_f3d_flags>
0

> <s_epik_input>
W0NIM11bTkhdQyg9TyljMVtjSF1bY0hdYyg9TyluKFtjSF0xKVtDSDJdQyg9TylbTkhdW0NASF0oW0NIM10pW0NASF0oW0NIMl1bQ0BIXTIzKVtDQEhdKFtDSDJdMylbQ0gyXVtDSDJdMg==

> <s_epik_cmdline>
J2VwaWtfcHl0aG9uJywgJy1waCcsICc3LjAnLCAnLXRuJywgJzgnLCAnLW1hJywgJzIwMCcsICctbWV0YWxfYmluZGluZycsICctaW1hZScsICc8aW5maWxlLm1hZT4nLCAnLW9tYWUnLCAnPG91dGZpbGUubWFlPic=

> <r_lp_tautomer_probability>
1

> <r_epik_Ionization_Penalty>
3.7129e-07

> <r_epik_Ionization_Penalty_Charging>
5.04114e-08

> <r_epik_Ionization_Penalty_Neutral>
3.20879e-07

> <r_epik_State_Penalty>
-0

> <r_epik_Charging_Adjusted_Penalty>
5.04114e-08

> <i_epik_Tot_Q>
0

> <i_epik_Tot_abs_Q>
0

> <r_epik_Metal_State_Penalty>
-0

> <b_epik_Metal_Only>
0

> <s_lp_Force_Field>
OPLS_2005

> <r_lp_Energy>
63.4891

> <b_lp_Chiralities_Consistent>
1

> <s_lp_Variant>
AV-unprocessed.smi:625-7

> <Gold.Version>
5.8.1

> <Gold.Id.Protein>
6NUR|6NUR_protein|mol2

> <Gold.PLP.Fitness>
48.8144

> <Gold.PLP.PLP>
-40.0038

> <Gold.PLP.part.hbond>
-3.2929

> <Gold.PLP.part.metal>
0.0000

> <Gold.PLP.part.buried>
-5.4188

> <Gold.PLP.part.nonpolar>
-30.8452

> <Gold.PLP.part.repulsive>
0.3713

> <Gold.PLP.ligand.clash>
0.0000

> <Gold.PLP.ligand.torsion>
0.7812

> <Gold.PLP.Chemscore.Hbond>
2.5940

> <Gold.PLP.Chemscore.CHOScore>
0.8365

> <Gold.PLP.Chemscore.Metal>
0.0000

> <Gold.Chemscore.Hbonds>
donor molecule, donor type, donor heavy atom, donor atom, acceptor molecule, acceptor atom, score
      L1  H     2    28       P1  8029  0.67
      P1  H  6934  6946       L1     4  1.00
      P1  H  7989  7998       L1    13  0.93
      L1  C    24    49       P1  8028  0.83

> <Gold.PLP.Chemscore.Internal.Correction>
0.0816

> <Gold.Rescore>
     Score         DG    S(hbond)    S(metal)    S(lipo)     H(rot)  DE(clash)    DE(int)     intcor
     16.49     -20.25       1.91        0.00     108.20       1.67       0.54       3.21       ----

> <Gold.Chemscore.Fitness>
16.4919

> <Gold.Chemscore.DG>
-20.2476

> <Gold.Chemscore.ZeroCoef>
-5.4800

> <Gold.Chemscore.Hbond>
1.9117

> <Gold.Chemscore.Metal>
0.0000

> <Gold.Chemscore.Lipo>
108.2042

> <Gold.Chemscore.Internal_Hbond>
0.0000

> <Gold.Chemscore.DEClash>
0.5429

> <Gold.Chemscore.DEInternal>
3.2127

> <Gold.Chemscore.Rot>
1.6709

> <Gold.Chemscore.Internal.Correction>
   9.000000E+99

> <Gold.Chemscore.Hbonds>
donor molecule, donor type, donor heavy atom, donor atom, acceptor molecule, acceptor atom, score
      L1  H     2    28       P1  8029  0.24
      P1  H  6934  6946       L1     4  0.77
      P1  H  7989  7998       L1    13  0.89

> <Gold.Chemscore.Hbond.Weighted>
-6.3851

> <Gold.Chemscore.Metal.Weighted>
-0.0000

> <Gold.Chemscore.Lipo.Weighted>
-12.6599

> <Gold.Chemscore.Internal_Hbond.Weighted>
0.0000

> <Gold.Chemscore.DEClash.Weighted>
0.5429

> <Gold.Chemscore.DEInternal.Weighted>
3.2127

> <Gold.Chemscore.Rot.Weighted>
4.2774

> <Gold.Chemscore.Internal.Correction.Weighted>
   9.000000E+99

> <Gold.Protein.RotatedTorsions>
[ 6907 6896 6895 6894 ] final  -52.20 input  -60.11 | X-H torsion
[ 7974 7965 7964 7962 ] final  166.13 input  175.53 | X-H torsion
[ 8008 7997 7996 7995 ] final   73.96 input   59.86 | X-H torsion
[ 10167 10162 10161 10158 ] final  157.80 input  -65.29 | X-H torsion
[ 10718 10713 10712 10709 ] final   11.42 input   66.30 | X-H torsion
[ 10763 10752 10751 10750 ] final   48.25 input  -60.55 | X-H torsion
[ 11005 11000 10999 10996 ] final -145.11 input  -57.11 | X-H torsion

> <Gold.Protein.ActiveResidues>
 VAL166  LYS551  ARG553  GLY616  TRP617  ASP618  TYR619  PRO620  LYS621  CYS622 
 ASP623  PHE694  ASN695  SER759  ASP760  ASP761  ALA762  ILE779  LEU786  VAL792 
 PHE793  MET794  SER795  GLU796  ALA797  LYS798  CYS799  TRP800  GLU811  SER814 

> <Gold.Protein.RotatedAtoms>
  150.8540  134.7874  159.7030 H   0  0  0  0  0  0  0  0  0  0  0  0  # atno 6907 bound_to 6896
  152.4597  134.5209  159.9792 H   0  0  0  0  0  0  0  0  0  0  0  0  # atno 6908 bound_to 6896
  151.5324  133.3408  159.2956 H   0  0  0  0  0  0  0  0  0  0  0  0  # atno 6909 bound_to 6896
  144.7475  139.8570  143.6377 H   0  0  0  0  0  0  0  0  0  0  0  0  # atno 7974 bound_to 7965
  155.7913  140.3479  155.5351 H   0  0  0  0  0  0  0  0  0  0  0  0  # atno 8008 bound_to 7997
  155.8631  140.0974  157.1621 H   0  0  0  0  0  0  0  0  0  0  0  0  # atno 8009 bound_to 7997
  154.4013  140.1355  156.3973 H   0  0  0  0  0  0  0  0  0  0  0  0  # atno 8010 bound_to 7997
  139.4824  144.4884  151.8344 H   0  0  0  0  0  0  0  0  0  0  0  0  # atno 10167 bound_to 10162
  156.9953  130.6058  149.5690 H   0  0  0  0  0  0  0  0  0  0  0  0  # atno 10718 bound_to 10713
  152.9793  135.5950  154.3894 H   0  0  0  0  0  0  0  0  0  0  0  0  # atno 10763 bound_to 10752
  154.3551  135.2767  155.2352 H   0  0  0  0  0  0  0  0  0  0  0  0  # atno 10764 bound_to 10752
  154.4374  135.6021  153.6162 H   0  0  0  0  0  0  0  0  0  0  0  0  # atno 10765 bound_to 10752
  140.7956  134.2917  157.4997 H   0  0  0  0  0  0  0  0  0  0  0  0  # atno 11005 bound_to 11000
  146.1375  139.4424  143.0129 LP  0  0  0  0  0  0  0  0  0  0  0  0  # atno 17320 bound_to 7965
  145.7068  141.0119  143.1474 LP  0  0  0  0  0  0  0  0  0  0  0  0  # atno 17321 bound_to 7965
  140.4366  144.2043  150.5889 LP  0  0  0  0  0  0  0  0  0  0  0  0  # atno 17342 bound_to 10162
  140.4725  143.2408  151.9068 LP  0  0  0  0  0  0  0  0  0  0  0  0  # atno 17343 bound_to 10162
  156.0191  130.5286  150.8224 LP  0  0  0  0  0  0  0  0  0  0  0  0  # atno 17370 bound_to 10713
  157.5429  131.0941  150.9802 LP  0  0  0  0  0  0  0  0  0  0  0  0  # atno 17371 bound_to 10713
  139.8726  134.9400  156.3757 LP  0  0  0  0  0  0  0  0  0  0  0  0  # atno 17394 bound_to 11000
  140.9346  133.7556  156.0068 LP  0  0  0  0  0  0  0  0  0  0  0  0  # atno 17395 bound_to 11000

$$$$
