AV-unprocessed.smi:2658|AV-procd|sdf|10310|dock3
  -GOLD-   2272014323D 1   1.00000     0.00000
 Structure written by MMmdl.
 47 49  0  0  0  0  0  0  0  0  2 V2000
  151.9185  145.0272  160.3140 C   0  0  0  0  0  0  0  0  0  0  0  0
  151.8463  143.7812  159.4475 C   0  0  0  0  0  0  0  0  0  0  0  0
  151.1145  143.8407  158.2402 C   0  0  0  0  0  0  0  0  0  0  0  0
  151.0598  142.6825  157.4737 C   0  0  0  0  0  0  0  0  0  0  0  0
  150.4255  142.4204  156.2574 N   0  3  0  0  0  0  0  0  0  0  0  0
  150.6521  141.1273  155.8963 C   0  0  0  0  0  0  0  0  0  0  0  0
  151.4225  140.5595  156.8633 N   0  0  0  0  0  0  0  0  0  0  0  0
  151.9406  139.1877  156.9634 C   0  0  0  0  0  0  0  0  0  0  0  0
  152.4362  138.6394  155.6093 C   0  0  2  0  0  0  0  0  0  0  0  0
  153.0425  139.6460  154.8238 O   0  0  0  0  0  0  0  0  0  0  0  0
  151.3385  137.9513  154.7822 C   0  0  0  0  0  0  0  0  0  0  0  0
  151.3481  136.5488  155.0369 O   0  0  0  0  0  0  0  0  0  0  0  0
  150.1757  135.8413  154.8695 C   0  0  0  0  0  0  0  0  0  0  0  0
  150.2480  134.4650  154.5833 C   0  0  0  0  0  0  0  0  0  0  0  0
  149.0387  133.7643  154.4182 C   0  0  0  0  0  0  0  0  0  0  0  0
  149.0385  132.2800  154.1039 C   0  0  0  0  0  0  0  0  0  0  0  0
  147.8423  134.5029  154.5586 C   0  0  0  0  0  0  0  0  0  0  0  0
  146.4804  133.8508  154.4103 C   0  0  0  0  0  0  0  0  0  0  0  0
  147.8372  135.8283  154.8334 N   0  0  0  0  0  0  0  0  0  0  0  0
  148.9887  136.4907  154.9857 N   0  0  0  0  0  0  0  0  0  0  0  0
  151.7039  141.4935  157.8678 C   0  0  0  0  0  0  0  0  0  0  0  0
  152.4329  141.4197  159.0525 C   0  0  0  0  0  0  0  0  0  0  0  0
  152.4980  142.5861  159.8480 C   0  0  0  0  0  0  0  0  0  0  0  0
  153.2816  142.5330  161.1483 C   0  0  0  0  0  0  0  0  0  0  0  0
  151.3695  145.8565  159.8670 H   0  0  0  0  0  0  0  0  0  0  0  0
  152.9532  145.3444  160.4449 H   0  0  0  0  0  0  0  0  0  0  0  0
  151.4883  144.8346  161.2970 H   0  0  0  0  0  0  0  0  0  0  0  0
  150.6153  144.7467  157.9296 H   0  0  0  0  0  0  0  0  0  0  0  0
  150.2839  140.6393  155.0052 H   0  0  0  0  0  0  0  0  0  0  0  0
  152.7660  139.2083  157.6761 H   0  0  0  0  0  0  0  0  0  0  0  0
  151.1748  138.5485  157.4033 H   0  0  0  0  0  0  0  0  0  0  0  0
  153.2154  137.9013  155.8028 H   0  0  0  0  0  0  0  0  0  0  0  0
  152.5029  140.4208  154.8628 H   0  0  0  0  0  0  0  0  0  0  0  0
  150.3641  138.3894  155.0064 H   0  0  0  0  0  0  0  0  0  0  0  0
  151.5381  138.1200  153.7225 H   0  0  0  0  0  0  0  0  0  0  0  0
  151.2029  133.9682  154.4936 H   0  0  0  0  0  0  0  0  0  0  0  0
  148.5135  132.0888  153.1678 H   0  0  0  0  0  0  0  0  0  0  0  0
  148.5436  131.7215  154.8987 H   0  0  0  0  0  0  0  0  0  0  0  0
  150.0547  131.8976  154.0044 H   0  0  0  0  0  0  0  0  0  0  0  0
  146.3736  133.0278  155.1173 H   0  0  0  0  0  0  0  0  0  0  0  0
  146.3552  133.4588  153.4008 H   0  0  0  0  0  0  0  0  0  0  0  0
  145.6746  134.5614  154.5987 H   0  0  0  0  0  0  0  0  0  0  0  0
  152.9251  140.5095  159.3611 H   0  0  0  0  0  0  0  0  0  0  0  0
  153.7200  141.5478  161.3103 H   0  0  0  0  0  0  0  0  0  0  0  0
  152.6320  142.7515  161.9963 H   0  0  0  0  0  0  0  0  0  0  0  0
  154.0933  143.2607  161.1365 H   0  0  0  0  0  0  0  0  0  0  0  0
  149.8750  143.0729  155.7140 H   0  0  0  0  0  0  0  0  0  0  0  0
  1  2  1  0  0  0  0
  1 25  1  0  0  0  0
  1 26  1  0  0  0  0
  1 27  1  0  0  0  0
  2 23  1  0  0  0  0
  2  3  2  0  0  0  0
  3  4  1  0  0  0  0
  3 28  1  0  0  0  0
  4 21  2  0  0  0  0
  4  5  1  0  0  0  0
  5  6  2  0  0  0  0
  5 47  1  0  0  0  0
  6  7  1  0  0  0  0
  6 29  1  0  0  0  0
  7  8  1  0  0  0  0
  7 21  1  0  0  0  0
  8  9  1  0  0  0  0
  8 30  1  0  0  0  0
  8 31  1  0  0  0  0
  9 10  1  0  0  0  0
  9 11  1  0  0  0  0
  9 32  1  0  0  0  0
 10 33  1  0  0  0  0
 11 12  1  0  0  0  0
 11 34  1  0  0  0  0
 11 35  1  0  0  0  0
 12 13  1  0  0  0  0
 13 20  1  0  0  0  0
 13 14  2  0  0  0  0
 14 15  1  0  0  0  0
 14 36  1  0  0  0  0
 15 16  1  0  0  0  0
 15 17  2  0  0  0  0
 16 37  1  0  0  0  0
 16 38  1  0  0  0  0
 16 39  1  0  0  0  0
 17 18  1  0  0  0  0
 17 19  1  0  0  0  0
 18 40  1  0  0  0  0
 18 41  1  0  0  0  0
 18 42  1  0  0  0  0
 19 20  2  0  0  0  0
 21 22  1  0  0  0  0
 22 23  2  0  0  0  0
 22 43  1  0  0  0  0
 23 24  1  0  0  0  0
 24 44  1  0  0  0  0
 24 45  1  0  0  0  0
 24 46  1  0  0  0  0
M  CHG  1   5   1
M  END
> <s_m_source_file>
AV-unprocessed.smi

> <i_m_source_file_index>
2658

> <i_lp_mmshare_version>
43012

> <i_f3d_flags>
0

> <s_epik_input>
W0NIM11jKFtjSF0xKWMoW0NIM10pW2NIXWMoYzEyKW4oW2NIXW4yKVtDSDJdW0NASF0oW09IXSlbQ0gyXU9jM1tjSF1jKFtDSDNdKWMoW0NIM10pbm4z

> <s_epik_cmdline>
J2VwaWtfcHl0aG9uJywgJy1waCcsICc3LjAnLCAnLXRuJywgJzgnLCAnLW1hJywgJzIwMCcsICctbWV0YWxfYmluZGluZycsICctaW1hZScsICc8aW5maWxlLm1hZT4nLCAnLW9tYWUnLCAnPG91dGZpbGUubWFlPic=

> <r_lp_tautomer_probability>
1

> <r_epik_Ionization_Penalty>
1.0494

> <r_epik_Ionization_Penalty_Charging>
1.04926

> <r_epik_Ionization_Penalty_Neutral>
0.000140304

> <r_epik_State_Penalty>
1.10197

> <r_epik_Charging_Adjusted_Penalty>
2.15123

> <i_epik_Tot_Q>
1

> <i_epik_Tot_abs_Q>
1

> <r_epik_Metal_State_Penalty>
1.19636

> <b_epik_Metal_Only>
0

> <s_lp_Force_Field>
OPLS_2005

> <r_lp_Energy>
21.5781

> <b_lp_Chiralities_Consistent>
1

> <s_lp_Variant>
AV-unprocessed.smi:2658-3

> <Gold.Version>
5.8.1

> <Gold.Id.Protein>
6NUR|6NUR_protein|mol2

> <Gold.PLP.Fitness>
59.1772

> <Gold.PLP.PLP>
-50.3611

> <Gold.PLP.part.hbond>
-4.0000

> <Gold.PLP.part.metal>
0.0000

> <Gold.PLP.part.buried>
-6.8775

> <Gold.PLP.part.nonpolar>
-41.2027

> <Gold.PLP.part.repulsive>
0.4736

> <Gold.PLP.ligand.clash>
0.0000

> <Gold.PLP.ligand.torsion>
1.5849

> <Gold.PLP.Chemscore.Hbond>
3.9840

> <Gold.PLP.Chemscore.CHOScore>
0.0000

> <Gold.PLP.Chemscore.Metal>
0.0000

> <Gold.Chemscore.Hbonds>
donor molecule, donor type, donor heavy atom, donor atom, acceptor molecule, acceptor atom, score
      L1  H     5    47       P1  8028  1.92
      P1  H  7997  8010       L1    10  1.00
      P1  H 10752 10763       L1    12  1.00

> <Gold.PLP.Chemscore.Internal.Correction>
0.0339

> <Gold.Rescore>
     Score         DG    S(hbond)    S(metal)    S(lipo)     H(rot)  DE(clash)    DE(int)     intcor
     20.38     -21.91       2.56        0.00     121.26       2.47       0.01       1.52       ----

> <Gold.Chemscore.Fitness>
20.3806

> <Gold.Chemscore.DG>
-21.9083

> <Gold.Chemscore.ZeroCoef>
-5.4800

> <Gold.Chemscore.Hbond>
2.5629

> <Gold.Chemscore.Metal>
0.0000

> <Gold.Chemscore.Lipo>
121.2620

> <Gold.Chemscore.Internal_Hbond>
0.0000

> <Gold.Chemscore.DEClash>
0.0082

> <Gold.Chemscore.DEInternal>
1.5196

> <Gold.Chemscore.Rot>
2.4685

> <Gold.Chemscore.Internal.Correction>
   9.000000E+99

> <Gold.Chemscore.Hbonds>
donor molecule, donor type, donor heavy atom, donor atom, acceptor molecule, acceptor atom, score
      L1  H     5    47       P1  8028  0.92
      P1  H  7997  8010       L1    10  0.21
      P1  H 10752 10763       L1    12  0.85

> <Gold.Chemscore.Hbond.Weighted>
-8.5600

> <Gold.Chemscore.Metal.Weighted>
-0.0000

> <Gold.Chemscore.Lipo.Weighted>
-14.1877

> <Gold.Chemscore.Internal_Hbond.Weighted>
0.0000

> <Gold.Chemscore.DEClash.Weighted>
0.0082

> <Gold.Chemscore.DEInternal.Weighted>
1.5196

> <Gold.Chemscore.Rot.Weighted>
6.3194

> <Gold.Chemscore.Internal.Correction.Weighted>
   9.000000E+99

> <Gold.Protein.RotatedTorsions>
[ 6907 6896 6895 6894 ] final  -48.20 input  -60.11 | X-H torsion
[ 7974 7965 7964 7962 ] final -123.90 input  175.53 | X-H torsion
[ 8008 7997 7996 7995 ] final  119.29 input   59.86 | X-H torsion
[ 10167 10162 10161 10158 ] final  -15.07 input  -65.29 | X-H torsion
[ 10718 10713 10712 10709 ] final    9.00 input   66.30 | X-H torsion
[ 10763 10752 10751 10750 ] final   56.13 input  -60.55 | X-H torsion
[ 11005 11000 10999 10996 ] final   57.80 input  -57.11 | X-H torsion

> <Gold.Protein.ActiveResidues>
 VAL166  LYS551  ARG553  GLY616  TRP617  ASP618  TYR619  PRO620  LYS621  CYS622 
 ASP623  PHE694  ASN695  SER759  ASP760  ASP761  ALA762  ILE779  LEU786  VAL792 
 PHE793  MET794  SER795  GLU796  ALA797  LYS798  CYS799  TRP800  GLU811  SER814 

> <Gold.Protein.RotatedAtoms>
  150.8929  134.8335  159.7306 H   0  0  0  0  0  0  0  0  0  0  0  0  # atno 6907 bound_to 6896
  152.4848  134.4620  159.9618 H   0  0  0  0  0  0  0  0  0  0  0  0  # atno 6908 bound_to 6896
  151.4680  133.3537  159.2854 H   0  0  0  0  0  0  0  0  0  0  0  0  # atno 6909 bound_to 6896
  145.0138  140.7929  143.4422 H   0  0  0  0  0  0  0  0  0  0  0  0  # atno 7974 bound_to 7965
  156.2588  140.2856  156.0968 H   0  0  0  0  0  0  0  0  0  0  0  0  # atno 8008 bound_to 7997
  155.1403  140.0395  157.2814 H   0  0  0  0  0  0  0  0  0  0  0  0  # atno 8009 bound_to 7997
  154.6535  140.2550  155.7194 H   0  0  0  0  0  0  0  0  0  0  0  0  # atno 8010 bound_to 7997
  140.7212  143.5256  150.9581 H   0  0  0  0  0  0  0  0  0  0  0  0  # atno 10167 bound_to 10162
  156.9599  130.5929  149.5661 H   0  0  0  0  0  0  0  0  0  0  0  0  # atno 10718 bound_to 10713
  152.9827  135.5687  154.5179 H   0  0  0  0  0  0  0  0  0  0  0  0  # atno 10763 bound_to 10752
  154.4672  135.2783  155.1671 H   0  0  0  0  0  0  0  0  0  0  0  0  # atno 10764 bound_to 10752
  154.3234  135.6264  153.5571 H   0  0  0  0  0  0  0  0  0  0  0  0  # atno 10765 bound_to 10752
  140.0425  134.5853  155.9364 H   0  0  0  0  0  0  0  0  0  0  0  0  # atno 11005 bound_to 11000
  145.1987  139.2263  143.5204 LP  0  0  0  0  0  0  0  0  0  0  0  0  # atno 17320 bound_to 7965
  146.3474  140.1800  142.8589 LP  0  0  0  0  0  0  0  0  0  0  0  0  # atno 17321 bound_to 7965
  139.8974  143.6877  152.3136 LP  0  0  0  0  0  0  0  0  0  0  0  0  # atno 17342 bound_to 10162
  139.7215  144.7601  151.0948 LP  0  0  0  0  0  0  0  0  0  0  0  0  # atno 17343 bound_to 10162
  156.0326  130.5416  150.8574 LP  0  0  0  0  0  0  0  0  0  0  0  0  # atno 17370 bound_to 10713
  157.5665  131.0946  150.9482 LP  0  0  0  0  0  0  0  0  0  0  0  0  # atno 17371 bound_to 10713
  141.1890  133.6564  156.5350 LP  0  0  0  0  0  0  0  0  0  0  0  0  # atno 17394 bound_to 11000
  140.4046  134.7326  157.4800 LP  0  0  0  0  0  0  0  0  0  0  0  0  # atno 17395 bound_to 11000

$$$$
