AV-unprocessed.smi:142|AV-procd|sdf|1190|dock3
  -GOLD-   2262018343D 1   1.00000     0.00000
 Structure written by MMmdl.
 52 55  0  0  0  0  0  0  0  0  1 V2000
  152.8904  136.7345  158.2789 C   0  0  0  0  0  0  0  0  0  0  0  0
  151.8818  137.5829  157.4929 C   0  0  1  0  0  0  0  0  0  0  0  0
  150.5669  136.9485  157.5534 N   0  0  0  0  0  0  0  0  0  0  0  0
  149.8899  136.6828  158.6808 C   0  0  0  0  0  0  0  0  0  0  0  0
  150.2886  137.0065  159.8003 O   0  0  0  0  0  0  0  0  0  0  0  0
  148.5600  135.9356  158.5088 C   0  0  0  0  0  0  0  0  0  0  0  0
  148.4738  134.7292  159.3598 N   0  0  0  0  0  0  0  0  0  0  0  0
  148.4679  134.8794  160.7690 C   0  0  0  0  0  0  0  0  0  0  0  0
  148.5249  135.9921  161.2944 O   0  0  0  0  0  0  0  0  0  0  0  0
  148.3943  133.6395  161.5336 C   0  0  0  0  0  0  0  0  0  0  0  0
  148.3632  133.6866  162.8763 F   0  0  0  0  0  0  0  0  0  0  0  0
  148.3531  132.4420  160.9141 C   0  0  0  0  0  0  0  0  0  0  0  0
  148.3804  132.3096  159.5376 N   0  0  0  0  0  0  0  0  0  0  0  0
  148.3382  130.9506  158.8734 C   0  0  2  0  0  0  0  0  0  0  0  0
  148.3112  129.8438  159.9332 C   0  0  0  0  0  0  0  0  0  0  0  0
  149.7826  129.5241  160.0836 C   0  0  0  0  0  0  0  0  0  0  0  0
  150.2853  129.7152  158.6570 C   0  0  0  0  0  0  0  0  0  0  0  0
  149.4998  130.7740  158.1140 O   0  0  0  0  0  0  0  0  0  0  0  0
  148.4336  133.4636  158.7265 C   0  0  0  0  0  0  0  0  0  0  0  0
  148.4437  133.3694  157.4967 O   0  0  0  0  0  0  0  0  0  0  0  0
  151.8714  139.0244  157.9945 C   0  0  0  0  0  0  0  0  0  0  0  0
  151.1013  140.0194  157.3497 C   0  0  0  0  0  0  0  0  0  0  0  0
  151.1059  141.3445  157.8249 C   0  0  0  0  0  0  0  0  0  0  0  0
  151.8765  141.6881  158.9536 C   0  0  0  0  0  0  0  0  0  0  0  0
  151.8859  143.0141  159.4336 C   0  0  0  0  0  0  0  0  0  0  0  0
  152.6577  143.3499  160.5630 C   0  0  0  0  0  0  0  0  0  0  0  0
  153.4214  142.3627  161.2156 C   0  0  0  0  0  0  0  0  0  0  0  0
  153.4157  141.0367  160.7405 C   0  0  0  0  0  0  0  0  0  0  0  0
  152.6449  140.6946  159.6099 C   0  0  0  0  0  0  0  0  0  0  0  0
  152.6364  139.3692  159.1292 C   0  0  0  0  0  0  0  0  0  0  0  0
  153.8960  137.1481  158.1979 H   0  0  0  0  0  0  0  0  0  0  0  0
  152.9246  135.7120  157.9012 H   0  0  0  0  0  0  0  0  0  0  0  0
  152.6334  136.6910  159.3379 H   0  0  0  0  0  0  0  0  0  0  0  0
  152.1997  137.5901  156.4483 H   0  0  0  0  0  0  0  0  0  0  0  0
  150.1624  136.6537  156.6766 H   0  0  0  0  0  0  0  0  0  0  0  0
  147.7490  136.6370  158.7089 H   0  0  0  0  0  0  0  0  0  0  0  0
  148.4245  135.6652  157.4598 H   0  0  0  0  0  0  0  0  0  0  0  0
  148.2932  131.5591  161.5326 H   0  0  0  0  0  0  0  0  0  0  0  0
  147.4669  130.9605  158.2164 H   0  0  0  0  0  0  0  0  0  0  0  0
  147.8264  130.1609  160.8572 H   0  0  0  0  0  0  0  0  0  0  0  0
  147.7732  128.9863  159.5272 H   0  0  0  0  0  0  0  0  0  0  0  0
  150.2588  130.2413  160.7535 H   0  0  0  0  0  0  0  0  0  0  0  0
  149.9668  128.5213  160.4697 H   0  0  0  0  0  0  0  0  0  0  0  0
  151.3503  129.9441  158.6138 H   0  0  0  0  0  0  0  0  0  0  0  0
  150.1074  128.8135  158.0699 H   0  0  0  0  0  0  0  0  0  0  0  0
  150.5018  139.7743  156.4852 H   0  0  0  0  0  0  0  0  0  0  0  0
  150.5152  142.0940  157.3186 H   0  0  0  0  0  0  0  0  0  0  0  0
  151.3032  143.7776  158.9391 H   0  0  0  0  0  0  0  0  0  0  0  0
  152.6638  144.3661  160.9288 H   0  0  0  0  0  0  0  0  0  0  0  0
  154.0127  142.6224  162.0815 H   0  0  0  0  0  0  0  0  0  0  0  0
  154.0053  140.2859  161.2465 H   0  0  0  0  0  0  0  0  0  0  0  0
  153.2229  138.6123  159.6302 H   0  0  0  0  0  0  0  0  0  0  0  0
  1  2  1  0  0  0  0
  1 31  1  0  0  0  0
  1 32  1  0  0  0  0
  1 33  1  0  0  0  0
  2  3  1  0  0  0  0
  2 21  1  0  0  0  0
  2 34  1  0  0  0  0
  3  4  1  0  0  0  0
  3 35  1  0  0  0  0
  4  5  2  0  0  0  0
  4  6  1  0  0  0  0
  6  7  1  0  0  0  0
  6 36  1  0  0  0  0
  6 37  1  0  0  0  0
  7 19  1  0  0  0  0
  7  8  1  0  0  0  0
  8  9  2  0  0  0  0
  8 10  1  0  0  0  0
 10 11  1  0  0  0  0
 10 12  2  0  0  0  0
 12 13  1  0  0  0  0
 12 38  1  0  0  0  0
 13 14  1  0  0  0  0
 13 19  1  0  0  0  0
 14 18  1  0  0  0  0
 14 15  1  0  0  0  0
 14 39  1  0  0  0  0
 15 16  1  0  0  0  0
 15 40  1  0  0  0  0
 15 41  1  0  0  0  0
 16 17  1  0  0  0  0
 16 42  1  0  0  0  0
 16 43  1  0  0  0  0
 17 18  1  0  0  0  0
 17 44  1  0  0  0  0
 17 45  1  0  0  0  0
 19 20  2  0  0  0  0
 21 30  1  0  0  0  0
 21 22  2  0  0  0  0
 22 23  1  0  0  0  0
 22 46  1  0  0  0  0
 23 24  2  0  0  0  0
 23 47  1  0  0  0  0
 24 29  1  0  0  0  0
 24 25  1  0  0  0  0
 25 26  2  0  0  0  0
 25 48  1  0  0  0  0
 26 27  1  0  0  0  0
 26 49  1  0  0  0  0
 27 28  2  0  0  0  0
 27 50  1  0  0  0  0
 28 29  1  0  0  0  0
 28 51  1  0  0  0  0
 29 30  2  0  0  0  0
 30 52  1  0  0  0  0
M  END
> <s_m_source_file>
AV-unprocessed.smi

> <i_m_source_file_index>
142

> <i_lp_mmshare_version>
43012

> <i_f3d_flags>
0

> <s_epik_input>
W2NIXTFbY0hdW2NIXVtjSF1jKGMxMilbY0hdYyhbY0hdW2NIXTIpW0NASF0oW0NIM10pW05IXUMoPU8pW0NIMl1uM2MoPU8pYyhGKVtjSF1uKGMzPU8pW0NAQEhdNFtDSDJdW0NIMl1bQ0gyXU80

> <s_epik_cmdline>
J2VwaWtfcHl0aG9uJywgJy1waCcsICc3LjAnLCAnLXRuJywgJzgnLCAnLW1hJywgJzIwMCcsICctbWV0YWxfYmluZGluZycsICctaW1hZScsICc8aW5maWxlLm1hZT4nLCAnLW9tYWUnLCAnPG91dGZpbGUubWFlPic=

> <r_lp_tautomer_probability>
1

> <r_epik_Ionization_Penalty>
3.35688e-08

> <r_epik_Ionization_Penalty_Charging>
3.59856e-09

> <r_epik_Ionization_Penalty_Neutral>
2.99702e-08

> <r_epik_State_Penalty>
-0

> <r_epik_Charging_Adjusted_Penalty>
3.59856e-09

> <i_epik_Tot_Q>
0

> <i_epik_Tot_abs_Q>
0

> <r_epik_Metal_State_Penalty>
-0

> <b_epik_Metal_Only>
0

> <s_epik_Chemistry_Notes>
This compound contains an acetal/aminal-like group ( X-CH(R)-Y where X, Y are N, S, or O) that may be acid/base labile, releasing an aldehyde.

> <s_lp_Force_Field>
OPLS_2005

> <r_lp_Energy>
30.4955

> <b_lp_Chiralities_Consistent>
1

> <s_lp_Variant>
AV-unprocessed.smi:142-2

> <Gold.Version>
5.8.1

> <Gold.Id.Protein>
6NUR|6NUR_protein|mol2

> <Gold.PLP.Fitness>
60.4864

> <Gold.PLP.PLP>
-55.4573

> <Gold.PLP.part.hbond>
-3.0000

> <Gold.PLP.part.metal>
0.0000

> <Gold.PLP.part.buried>
-6.5474

> <Gold.PLP.part.nonpolar>
-45.7846

> <Gold.PLP.part.repulsive>
0.0515

> <Gold.PLP.ligand.clash>
0.0000

> <Gold.PLP.ligand.torsion>
0.1406

> <Gold.PLP.Chemscore.Hbond>
1.7440

> <Gold.PLP.Chemscore.CHOScore>
0.0000

> <Gold.PLP.Chemscore.Metal>
0.0000

> <Gold.Chemscore.Hbonds>
donor molecule, donor type, donor heavy atom, donor atom, acceptor molecule, acceptor atom, score
      P1  H  6931  6943       L1     9  0.11

> <Gold.PLP.Chemscore.Internal.Correction>
0.0783

> <Gold.Rescore>
     Score         DG    S(hbond)    S(metal)    S(lipo)     H(rot)  DE(clash)    DE(int)     intcor
     16.13     -20.49       1.68        0.00     124.46       2.02       0.20       4.16       ----

> <Gold.Chemscore.Fitness>
16.1254

> <Gold.Chemscore.DG>
-20.4852

> <Gold.Chemscore.ZeroCoef>
-5.4800

> <Gold.Chemscore.Hbond>
1.6792

> <Gold.Chemscore.Metal>
0.0000

> <Gold.Chemscore.Lipo>
124.4582

> <Gold.Chemscore.Internal_Hbond>
0.0000

> <Gold.Chemscore.DEClash>
0.1993

> <Gold.Chemscore.DEInternal>
4.1606

> <Gold.Chemscore.Rot>
2.0175

> <Gold.Chemscore.Internal.Correction>
   9.000000E+99

> <Gold.Chemscore.Hbonds>
donor molecule, donor type, donor heavy atom, donor atom, acceptor molecule, acceptor atom, score
      P1  H  6931  6943       L1     9  0.14

> <Gold.Chemscore.Hbond.Weighted>
-5.6085

> <Gold.Chemscore.Metal.Weighted>
-0.0000

> <Gold.Chemscore.Lipo.Weighted>
-14.5616

> <Gold.Chemscore.Internal_Hbond.Weighted>
0.0000

> <Gold.Chemscore.DEClash.Weighted>
0.1993

> <Gold.Chemscore.DEInternal.Weighted>
4.1606

> <Gold.Chemscore.Rot.Weighted>
5.1648

> <Gold.Chemscore.Internal.Correction.Weighted>
   9.000000E+99

> <Gold.Protein.RotatedTorsions>
[ 6907 6896 6895 6894 ] final   49.62 input  -60.11 | X-H torsion
[ 7974 7965 7964 7962 ] final   25.88 input  175.53 | X-H torsion
[ 8008 7997 7996 7995 ] final -166.92 input   59.86 | X-H torsion
[ 10167 10162 10161 10158 ] final -138.18 input  -65.29 | X-H torsion
[ 10718 10713 10712 10709 ] final   52.16 input   66.30 | X-H torsion
[ 10763 10752 10751 10750 ] final  -42.15 input  -60.55 | X-H torsion
[ 11005 11000 10999 10996 ] final  136.56 input  -57.11 | X-H torsion

> <Gold.Protein.ActiveResidues>
 VAL166  LYS551  ARG553  GLY616  TRP617  ASP618  TYR619  PRO620  LYS621  CYS622 
 ASP623  PHE694  ASN695  SER759  ASP760  ASP761  ALA762  ILE779  LEU786  VAL792 
 PHE793  MET794  SER795  GLU796  ALA797  LYS798  CYS799  TRP800  GLU811  SER814 

> <Gold.Protein.RotatedAtoms>
  152.2927  134.7702  160.0374 H   0  0  0  0  0  0  0  0  0  0  0  0  # atno 6907 bound_to 6896
  151.8242  133.3394  159.3602 H   0  0  0  0  0  0  0  0  0  0  0  0  # atno 6908 bound_to 6896
  150.7238  134.5473  159.5821 H   0  0  0  0  0  0  0  0  0  0  0  0  # atno 6909 bound_to 6896
  146.1866  139.7405  142.8862 H   0  0  0  0  0  0  0  0  0  0  0  0  # atno 7974 bound_to 7965
  155.8705  140.0992  157.1553 H   0  0  0  0  0  0  0  0  0  0  0  0  # atno 8008 bound_to 7997
  154.3997  140.1348  156.4135 H   0  0  0  0  0  0  0  0  0  0  0  0  # atno 8009 bound_to 7997
  155.7756  140.3460  155.5272 H   0  0  0  0  0  0  0  0  0  0  0  0  # atno 8010 bound_to 7997
  139.8503  143.7207  152.2658 H   0  0  0  0  0  0  0  0  0  0  0  0  # atno 10167 bound_to 10162
  157.5049  130.8462  149.8362 H   0  0  0  0  0  0  0  0  0  0  0  0  # atno 10718 bound_to 10713
  153.9743  135.6724  153.4748 H   0  0  0  0  0  0  0  0  0  0  0  0  # atno 10763 bound_to 10752
  153.0778  135.4939  154.8437 H   0  0  0  0  0  0  0  0  0  0  0  0  # atno 10764 bound_to 10752
  154.7201  135.3115  154.9022 H   0  0  0  0  0  0  0  0  0  0  0  0  # atno 10765 bound_to 10752
  140.0054  134.9461  157.0163 H   0  0  0  0  0  0  0  0  0  0  0  0  # atno 11005 bound_to 11000
  145.3919  141.0373  143.3119 LP  0  0  0  0  0  0  0  0  0  0  0  0  # atno 17320 bound_to 7965
  144.8409  139.5474  143.6901 LP  0  0  0  0  0  0  0  0  0  0  0  0  # atno 17321 bound_to 7965
  139.7471  144.7544  151.0562 LP  0  0  0  0  0  0  0  0  0  0  0  0  # atno 17342 bound_to 10162
  140.7788  143.4903  150.9902 LP  0  0  0  0  0  0  0  0  0  0  0  0  # atno 17343 bound_to 10162
  156.0252  130.3782  150.1844 LP  0  0  0  0  0  0  0  0  0  0  0  0  # atno 17370 bound_to 10713
  157.0034  130.9929  151.3385 LP  0  0  0  0  0  0  0  0  0  0  0  0  # atno 17371 bound_to 10713
  140.4651  134.1444  155.7196 LP  0  0  0  0  0  0  0  0  0  0  0  0  # atno 17394 bound_to 11000
  141.1673  133.8678  157.1677 LP  0  0  0  0  0  0  0  0  0  0  0  0  # atno 17395 bound_to 11000

$$$$
