AV-unprocessed.smi:1859|AV-procd|sdf|7546|dock3
  -GOLD-   22720 9263D 1   1.00000     0.00000
 Structure written by MMmdl.
 46 48  0  0  0  0  0  0  0  0  2 V2000
  152.6532  139.9397  155.3851 O   0  0  0  0  0  0  0  0  0  0  0  0
  151.8090  139.1765  155.8558 C   0  0  0  0  0  0  0  0  0  0  0  0
  151.2238  139.3861  157.0450 N   0  0  0  0  0  0  0  0  0  0  0  0
  151.5397  140.4891  157.9436 C   0  0  0  0  0  0  0  0  0  0  0  0
  151.0020  141.8252  157.4025 C   0  0  0  0  0  0  0  0  0  0  0  0
  151.3455  142.9886  158.3110 C   0  0  0  0  0  0  0  0  0  0  0  0
  152.1762  142.8408  159.4429 C   0  0  0  0  0  0  0  0  0  0  0  0
  152.4444  143.9652  160.2514 C   0  0  0  0  0  0  0  0  0  0  0  0
  151.8768  145.2109  159.9117 C   0  0  0  0  0  0  0  0  0  0  0  0
  151.0543  145.3013  158.7701 C   0  0  0  0  0  0  0  0  0  0  0  0
  150.8208  144.2012  158.0212 N   0  3  0  0  0  0  0  0  0  0  0  0
  151.3768  137.9065  155.0990 C   0  0  1  0  0  0  0  0  0  0  0  0
  150.5469  136.9312  155.9746 C   0  0  0  0  0  0  0  0  0  0  0  0
  149.0612  137.3318  156.1146 C   0  0  0  0  0  0  0  0  0  0  0  0
  148.4447  137.6835  154.7491 C   0  0  0  0  0  0  0  0  0  0  0  0
  149.2554  138.7362  154.1201 N   0  0  0  0  0  0  0  0  0  0  0  0
  148.9009  140.0385  153.9798 C   0  0  0  0  0  0  0  0  0  0  0  0
  149.6725  140.8852  153.5257 O   0  0  0  0  0  0  0  0  0  0  0  0
  147.5149  140.4154  154.3982 C   0  0  0  0  0  0  0  0  0  0  0  0
  146.6120  141.0709  153.3694 C   0  0  0  0  0  0  0  0  0  0  0  0
  147.2040  141.8954  154.4816 C   0  0  0  0  0  0  0  0  0  0  0  0
  150.6039  138.2449  153.8005 C   0  0  0  0  0  0  0  0  0  0  0  0
  150.5356  138.7180  157.3613 H   0  0  0  0  0  0  0  0  0  0  0  0
  151.1373  140.2847  158.9372 H   0  0  0  0  0  0  0  0  0  0  0  0
  152.6234  140.5410  158.0518 H   0  0  0  0  0  0  0  0  0  0  0  0
  151.4063  142.0151  156.4074 H   0  0  0  0  0  0  0  0  0  0  0  0
  149.9176  141.7821  157.2888 H   0  0  0  0  0  0  0  0  0  0  0  0
  152.6010  141.8789  159.6916 H   0  0  0  0  0  0  0  0  0  0  0  0
  153.0762  143.8724  161.1227 H   0  0  0  0  0  0  0  0  0  0  0  0
  152.0689  146.0838  160.5183 H   0  0  0  0  0  0  0  0  0  0  0  0
  150.5788  146.2120  158.4362 H   0  0  0  0  0  0  0  0  0  0  0  0
  152.2925  137.3846  154.8162 H   0  0  0  0  0  0  0  0  0  0  0  0
  150.5940  135.9409  155.5201 H   0  0  0  0  0  0  0  0  0  0  0  0
  150.9967  136.8234  156.9626 H   0  0  0  0  0  0  0  0  0  0  0  0
  148.5025  136.5172  156.5759 H   0  0  0  0  0  0  0  0  0  0  0  0
  148.9615  138.1831  156.7880 H   0  0  0  0  0  0  0  0  0  0  0  0
  148.4410  136.8023  154.1058 H   0  0  0  0  0  0  0  0  0  0  0  0
  147.3968  137.9491  154.8777 H   0  0  0  0  0  0  0  0  0  0  0  0
  147.0227  139.7456  155.1012 H   0  0  0  0  0  0  0  0  0  0  0  0
  146.9939  141.2483  152.3657 H   0  0  0  0  0  0  0  0  0  0  0  0
  145.5517  140.8325  153.4206 H   0  0  0  0  0  0  0  0  0  0  0  0
  146.5498  142.2159  155.2897 H   0  0  0  0  0  0  0  0  0  0  0  0
  147.9917  142.5999  154.2190 H   0  0  0  0  0  0  0  0  0  0  0  0
  151.1740  138.9504  153.1937 H   0  0  0  0  0  0  0  0  0  0  0  0
  150.5169  137.3497  153.1829 H   0  0  0  0  0  0  0  0  0  0  0  0
  150.2218  144.2883  157.1997 H   0  0  0  0  0  0  0  0  0  0  0  0
  1  2  2  0  0  0  0
  2  3  1  0  0  0  0
  2 12  1  0  0  0  0
  3  4  1  0  0  0  0
  3 23  1  0  0  0  0
  4  5  1  0  0  0  0
  4 24  1  0  0  0  0
  4 25  1  0  0  0  0
  5  6  1  0  0  0  0
  5 26  1  0  0  0  0
  5 27  1  0  0  0  0
  6 11  1  0  0  0  0
  6  7  2  0  0  0  0
  7  8  1  0  0  0  0
  7 28  1  0  0  0  0
  8  9  2  0  0  0  0
  8 29  1  0  0  0  0
  9 10  1  0  0  0  0
  9 30  1  0  0  0  0
 10 11  2  0  0  0  0
 10 31  1  0  0  0  0
 11 46  1  0  0  0  0
 12 22  1  0  0  0  0
 12 13  1  0  0  0  0
 12 32  1  0  0  0  0
 13 14  1  0  0  0  0
 13 33  1  0  0  0  0
 13 34  1  0  0  0  0
 14 15  1  0  0  0  0
 14 35  1  0  0  0  0
 14 36  1  0  0  0  0
 15 16  1  0  0  0  0
 15 37  1  0  0  0  0
 15 38  1  0  0  0  0
 16 17  1  0  0  0  0
 16 22  1  0  0  0  0
 17 18  2  0  0  0  0
 17 19  1  0  0  0  0
 19 21  1  0  0  0  0
 19 20  1  0  0  0  0
 19 39  1  0  0  0  0
 20 21  1  0  0  0  0
 20 40  1  0  0  0  0
 20 41  1  0  0  0  0
 21 42  1  0  0  0  0
 21 43  1  0  0  0  0
 22 44  1  0  0  0  0
 22 45  1  0  0  0  0
M  CHG  1  11   1
M  END
> <s_m_source_file>
AV-unprocessed.smi

> <i_m_source_file_index>
1859

> <i_lp_mmshare_version>
43012

> <i_f3d_flags>
0

> <s_epik_input>
W0NIMl0xW0NIMl1bQ0hdMUMoPU8pTihbQ0gyXTIpW0NIMl1bQ0gyXVtDSDJdW0NASF0yQyg9TylbTkhdW0NIMl1bQ0gyXWMzW2NIXVtjSF1bY0hdW2NIXW4z

> <s_epik_cmdline>
J2VwaWtfcHl0aG9uJywgJy1waCcsICc3LjAnLCAnLXRuJywgJzgnLCAnLW1hJywgJzIwMCcsICctbWV0YWxfYmluZGluZycsICctaW1hZScsICc8aW5maWxlLm1hZT4nLCAnLW9tYWUnLCAnPG91dGZpbGUubWFlPic=

> <r_epik_Ionization_Penalty>
1.84754

> <r_epik_Ionization_Penalty_Charging>
1.84754

> <r_epik_Ionization_Penalty_Neutral>
7.35743e-08

> <r_epik_State_Penalty>
1.96477

> <r_epik_Charging_Adjusted_Penalty>
3.81231

> <i_epik_Tot_Q>
1

> <i_epik_Tot_abs_Q>
1

> <r_epik_Metal_State_Penalty>
1.99062

> <b_epik_Metal_Only>
0

> <s_lp_Force_Field>
OPLS_2005

> <r_lp_Energy>
29.7098

> <b_lp_Chiralities_Consistent>
1

> <s_lp_Variant>
AV-unprocessed.smi:1859-4

> <Gold.Version>
5.8.1

> <Gold.Id.Protein>
6NUR|6NUR_protein|mol2

> <Gold.PLP.Fitness>
50.5026

> <Gold.PLP.PLP>
-38.2905

> <Gold.PLP.part.hbond>
-4.9462

> <Gold.PLP.part.metal>
0.0000

> <Gold.PLP.part.buried>
-0.0499

> <Gold.PLP.part.nonpolar>
-37.2553

> <Gold.PLP.part.repulsive>
4.2087

> <Gold.PLP.ligand.clash>
0.0000

> <Gold.PLP.ligand.torsion>
0.4134

> <Gold.PLP.Chemscore.Hbond>
4.3025

> <Gold.PLP.Chemscore.CHOScore>
0.0000

> <Gold.PLP.Chemscore.Metal>
0.0000

> <Gold.Chemscore.Hbonds>
donor molecule, donor type, donor heavy atom, donor atom, acceptor molecule, acceptor atom, score
      L1  H    11    46       P1  8028  1.89
      P1  H  7989  7998       L1    18  0.32
      P1  H  7997  8010       L1     1  1.00
      P1  H  8011  8017       L1    18  1.00

> <Gold.PLP.Chemscore.Internal.Correction>
0.1313

> <Gold.Rescore>
     Score         DG    S(hbond)    S(metal)    S(lipo)     H(rot)  DE(clash)    DE(int)     intcor
     21.35     -24.89       3.21        0.00     111.33       1.70       3.10       0.43       ----

> <Gold.Chemscore.Fitness>
21.3544

> <Gold.Chemscore.DG>
-24.8900

> <Gold.Chemscore.ZeroCoef>
-5.4800

> <Gold.Chemscore.Hbond>
3.2130

> <Gold.Chemscore.Metal>
0.0000

> <Gold.Chemscore.Lipo>
111.3289

> <Gold.Chemscore.Internal_Hbond>
0.0000

> <Gold.Chemscore.DEClash>
3.1021

> <Gold.Chemscore.DEInternal>
0.4335

> <Gold.Chemscore.Rot>
1.6980

> <Gold.Chemscore.Internal.Correction>
   9.000000E+99

> <Gold.Chemscore.Hbonds>
donor molecule, donor type, donor heavy atom, donor atom, acceptor molecule, acceptor atom, score
      L1  H    11    46       P1  8028  0.67
      P1  H  7989  7998       L1    18  0.32
      P1  H  7997  8010       L1     1  1.00
      P1  H  8011  8017       L1    18  0.97

> <Gold.Chemscore.Hbond.Weighted>
-10.7314

> <Gold.Chemscore.Metal.Weighted>
-0.0000

> <Gold.Chemscore.Lipo.Weighted>
-13.0255

> <Gold.Chemscore.Internal_Hbond.Weighted>
0.0000

> <Gold.Chemscore.DEClash.Weighted>
3.1021

> <Gold.Chemscore.DEInternal.Weighted>
0.4335

> <Gold.Chemscore.Rot.Weighted>
4.3469

> <Gold.Chemscore.Internal.Correction.Weighted>
   9.000000E+99

> <Gold.Protein.RotatedTorsions>
[ 6907 6896 6895 6894 ] final  -96.66 input  -60.11 | X-H torsion
[ 7974 7965 7964 7962 ] final -164.15 input  175.53 | X-H torsion
[ 8008 7997 7996 7995 ] final   95.87 input   59.86 | X-H torsion
[ 10167 10162 10161 10158 ] final   84.58 input  -65.29 | X-H torsion
[ 10718 10713 10712 10709 ] final  -34.43 input   66.30 | X-H torsion
[ 10763 10752 10751 10750 ] final  -82.63 input  -60.55 | X-H torsion
[ 11005 11000 10999 10996 ] final   93.72 input  -57.11 | X-H torsion

> <Gold.Protein.ActiveResidues>
 VAL166  LYS551  ARG553  GLY616  TRP617  ASP618  TYR619  PRO620  LYS621  CYS622 
 ASP623  PHE694  ASN695  SER759  ASP760  ASP761  ALA762  ILE779  LEU786  VAL792 
 PHE793  MET794  SER795  GLU796  ALA797  LYS798  CYS799  TRP800  GLU811  SER814 

> <Gold.Protein.RotatedAtoms>
  150.6994  134.1469  159.4125 H   0  0  0  0  0  0  0  0  0  0  0  0  # atno 6907 bound_to 6896
  151.9452  135.0192  160.0548 H   0  0  0  0  0  0  0  0  0  0  0  0  # atno 6908 bound_to 6896
  152.2059  133.4840  159.5120 H   0  0  0  0  0  0  0  0  0  0  0  0  # atno 6909 bound_to 6896
  144.7305  140.3003  143.6205 H   0  0  0  0  0  0  0  0  0  0  0  0  # atno 7974 bound_to 7965
  156.0735  140.3280  155.7605 H   0  0  0  0  0  0  0  0  0  0  0  0  # atno 8008 bound_to 7997
  155.5267  140.0590  157.2914 H   0  0  0  0  0  0  0  0  0  0  0  0  # atno 8009 bound_to 7997
  154.4543  140.1934  156.0444 H   0  0  0  0  0  0  0  0  0  0  0  0  # atno 8010 bound_to 7997
  139.9066  144.6297  150.8581 H   0  0  0  0  0  0  0  0  0  0  0  0  # atno 10167 bound_to 10162
  156.3507  130.4308  149.7707 H   0  0  0  0  0  0  0  0  0  0  0  0  # atno 10718 bound_to 10713
  154.5781  135.5584  153.7158 H   0  0  0  0  0  0  0  0  0  0  0  0  # atno 10763 bound_to 10752
  153.0071  135.6313  154.2021 H   0  0  0  0  0  0  0  0  0  0  0  0  # atno 10764 bound_to 10752
  154.1962  135.2880  155.2986 H   0  0  0  0  0  0  0  0  0  0  0  0  # atno 10765 bound_to 10752
  139.8806  134.8806  156.3760 H   0  0  0  0  0  0  0  0  0  0  0  0  # atno 11005 bound_to 11000
  145.7767  139.1876  143.2181 LP  0  0  0  0  0  0  0  0  0  0  0  0  # atno 17320 bound_to 7965
  146.0867  140.7702  142.9615 LP  0  0  0  0  0  0  0  0  0  0  0  0  # atno 17321 bound_to 7965
  140.7695  143.3396  151.2235 LP  0  0  0  0  0  0  0  0  0  0  0  0  # atno 17342 bound_to 10162
  139.6979  143.9583  152.2891 LP  0  0  0  0  0  0  0  0  0  0  0  0  # atno 17343 bound_to 10162
  156.4908  130.8084  151.3094 LP  0  0  0  0  0  0  0  0  0  0  0  0  # atno 17370 bound_to 10713
  157.7460  130.9976  150.2821 LP  0  0  0  0  0  0  0  0  0  0  0  0  # atno 17371 bound_to 10713
  140.9432  133.7501  156.0173 LP  0  0  0  0  0  0  0  0  0  0  0  0  # atno 17394 bound_to 11000
  140.8195  134.3306  157.5386 LP  0  0  0  0  0  0  0  0  0  0  0  0  # atno 17395 bound_to 11000

$$$$
