#       Name:                AV-unprocessed.smi:72
#       Creating user name   scv26
#       Creation time:       Thu Mar 26 17:07:08 2020


#       File generated by GOLD software.
#

@<TRIPOS>MOLECULE
AV-unprocessed.smi:72
    41    42     1
SMALL
NO_CHARGES


@<TRIPOS>ATOM
      1 ****        -4.0576   2.6231   1.9354 N.2            1 S1                 0.0000
      2 ****        -3.0728   2.1558   1.3018 C.2            1 S1                 0.0000
      3 ****        -1.8229   1.9098   1.9865 N.2            1 S1                 0.0000
      4 ****        -0.8482   1.3952   1.3016 C.2            1 S1                 0.0000
      5 ****        -0.9933   1.0511  -0.1093 N.am           1 S1                 0.0000
      6 ****         0.1377   0.4451  -0.9280 C.3            1 S1                 0.0000
      7 ****         1.3082   0.3911  -0.1623 O.3            1 S1                 0.0000
      8 ****         1.4669  -0.9142   0.3862 C.3            1 S1                 0.0000
      9 ****         2.9107  -1.1464   0.8637 C.3            1 S1                 0.0000
     10 ****         3.0844  -0.5962   2.1521 O.3            1 S1                 0.0000
     11 ****         0.9949  -1.8014  -0.7692 C.3            1 S1                 0.0000
     12 ****         2.0328  -1.9720  -1.7213 O.3            1 S1                 0.0000
     13 ****        -0.1900  -1.0117  -1.3253 C.3            1 S1                 0.0000
     14 ****        -0.3547  -1.1917  -2.7197 O.3            1 S1                 0.0000
     15 ****        -2.2189   1.3506  -0.7642 C.2            1 S1                 0.0000
     16 ****        -2.3096   1.1022  -1.9669 O.2            1 S1                 0.0000
     17 ****        -3.2353   1.8969  -0.0407 N.pl3          1 S1                -1.0000
     18 ****         0.2826   1.1263  -1.7685 H              1 S1                 0.0000
     19 ****         0.7739  -1.0475   1.2190 H              1 S1                 0.0000
     20 ****         0.6891  -2.7888  -0.4220 H              1 S1                 0.0000
     21 ****        -1.1006  -1.3296  -0.8148 H              1 S1                 0.0000
     22 ****        -4.8714   2.7523   1.3522 H              1 S1                 0.0000
     23 ****         0.1275   1.1942   1.7433 H              1 S1                 0.0000
     24 ****         3.1165  -2.2149   0.9332 H              1 S1                 0.0000
     25 ****         3.6350  -0.7181   0.1700 H              1 S1                 0.0000
     26 ****         2.9173   0.3329   2.1040 H              1 S1                 0.0000
     27 ****         1.6607  -2.3720  -2.4928 H              1 S1                 0.0000
     28 ****        -1.0793  -0.6530  -3.0019 H              1 S1                 0.0000
     29 ****        -4.0350   2.8423   2.9108 LP             1 S1                 0.0000
     30 ****        -1.7134   2.1291   2.9560 LP             1 S1                 0.0000
     31 ****         1.2501   1.0584   0.5802 LP             1 S1                 0.0000
     32 ****         2.0942   0.6053  -0.7422 LP             1 S1                 0.0000
     33 ****         4.0210  -0.7553   2.4640 LP             1 S1                 0.0000
     34 ****         2.4435  -1.0222   2.7906 LP             1 S1                 0.0000
     35 ****         2.7456  -2.5628  -1.3435 LP             1 S1                 0.0000
     36 ****         2.4264  -1.0833  -1.9566 LP             1 S1                 0.0000
     37 ****        -0.5497  -2.1525  -2.9168 LP             1 S1                 0.0000
     38 ****         0.4791  -0.9159  -3.1980 LP             1 S1                 0.0000
     39 ****        -1.5341   0.7013  -2.4546 LP             1 S1                 0.0000
     40 ****        -3.1588   1.3015  -2.4560 LP             1 S1                 0.0000
     41 ****        -4.1043   2.1111  -0.4869 LP             1 S1                 0.0000
@<TRIPOS>BOND
    1    1    2 2     
    2    1   22 1     
    3    2   17 1     
    4    2    3 1     
    5    3    4 2     
    6    4    5 1     
    7    4   23 1     
    8    5    6 1     
    9    5   15 am    
   10    6   18 1     
   11    6   13 1     
   12    6    7 1     
   13    7    8 1     
   14    8   19 1     
   15    8    9 1     
   16    8   11 1     
   17    9   10 1     
   18    9   24 1     
   19    9   25 1     
   20   10   26 1     
   21   11   20 1     
   22   11   12 1     
   23   11   13 1     
   24   12   27 1     
   25   13   21 1     
   26   13   14 1     
   27   14   28 1     
   28   15   16 2     
   29   15   17 1     
   30    1   29 1     
   31    3   30 1     
   32    7   31 1     
   33    7   32 1     
   34   10   33 1     
   35   10   34 1     
   36   12   35 1     
   37   12   36 1     
   38   14   37 1     
   39   14   38 1     
   40   16   39 1     
   41   16   40 1     
   42   17   41 1     
@<TRIPOS>SUBSTRUCTURE
      1 S1             1
@<TRIPOS>SET
LONE_PAIRS      STATIC     ATOMS    <user>   **** ""
13 29 30 31 32 33 34 35 36 37 38 39 40 41
DONOR_HYDROGENS      STATIC     ATOMS    <user>   **** ""
4 22 26 27 28
ATOM$BLUE        STATIC     ATOMS    COLORGROUP SYSTEM
13 29 30 31 32 33 34 35 36 37 38 39 40 41
ATOM$RED        STATIC     ATOMS    COLORGROUP SYSTEM
4 22 26 27 28
