AV-unprocessed.smi:1230|AV-procd|sdf|5159|dock3
  -GOLD-   22720 4233D 1   1.00000     0.00000
 Structure written by MMmdl.
 39 40  0  0  0  0  0  0  0  0  1 V2000
  152.3943  140.8312  159.4197 C   0  0  0  0  0  0  0  0  0  0  0  0
  151.7959  142.2433  159.5302 C   0  0  1  0  0  0  0  0  0  0  0  0
  152.6464  143.1212  160.4701 C   0  0  0  0  0  0  0  0  0  0  0  0
  152.0771  144.5425  160.5944 C   0  0  0  0  0  0  0  0  0  0  0  0
  151.9409  145.2033  159.2160 C   0  0  0  0  0  0  0  0  0  0  0  0
  151.0852  144.3430  158.2745 C   0  0  0  0  0  0  0  0  0  0  0  0
  151.6470  142.9112  158.1442 C   0  0  2  0  0  0  0  0  0  0  0  0
  150.7532  142.1188  157.3715 O   0  0  0  0  0  0  0  0  0  0  0  0
  150.7127  142.4543  155.9931 C   0  0  0  0  0  0  0  0  0  0  0  0
  149.7092  141.5236  155.2958 C   0  0  0  0  0  0  0  0  0  0  0  0
  150.2336  140.1991  155.0759 N   0  0  0  0  0  0  0  0  0  0  0  0
  151.4677  139.7976  155.5645 C   0  0  0  0  0  0  0  0  0  0  0  0
  151.9754  138.5615  155.3464 C   0  0  0  0  0  0  0  0  0  0  0  0
  153.2471  138.1639  155.8537 C   0  0  0  0  0  0  0  0  0  0  0  0
  154.2809  137.8235  156.2468 N   0  0  0  0  0  0  0  0  0  0  0  0
  151.2302  137.5743  154.5669 C   0  0  0  0  0  0  0  0  0  0  0  0
  151.6019  136.4294  154.3163 O   0  0  0  0  0  0  0  0  0  0  0  0
  149.9967  138.0294  154.0895 N   0  0  0  0  0  0  0  0  0  0  0  0
  149.4605  139.3010  154.3027 C   0  0  0  0  0  0  0  0  0  0  0  0
  148.3652  139.5932  153.8222 O   0  0  0  0  0  0  0  0  0  0  0  0
  149.4478  137.3838  153.5402 H   0  0  0  0  0  0  0  0  0  0  0  0
  153.3867  140.8554  158.9684 H   0  0  0  0  0  0  0  0  0  0  0  0
  151.7679  140.1802  158.8096 H   0  0  0  0  0  0  0  0  0  0  0  0
  152.4868  140.3664  160.4017 H   0  0  0  0  0  0  0  0  0  0  0  0
  150.8017  142.1491  159.9697 H   0  0  0  0  0  0  0  0  0  0  0  0
  152.7007  142.6646  161.4590 H   0  0  0  0  0  0  0  0  0  0  0  0
  153.6709  143.1735  160.0988 H   0  0  0  0  0  0  0  0  0  0  0  0
  151.1022  144.5056  161.0821 H   0  0  0  0  0  0  0  0  0  0  0  0
  152.7212  145.1462  161.2343 H   0  0  0  0  0  0  0  0  0  0  0  0
  151.4974  146.1939  159.3207 H   0  0  0  0  0  0  0  0  0  0  0  0
  152.9298  145.3509  158.7801 H   0  0  0  0  0  0  0  0  0  0  0  0
  150.0627  144.3008  158.6524 H   0  0  0  0  0  0  0  0  0  0  0  0
  151.0322  144.8257  157.2992 H   0  0  0  0  0  0  0  0  0  0  0  0
  152.6302  142.9444  157.6705 H   0  0  0  0  0  0  0  0  0  0  0  0
  150.4222  143.4962  155.8599 H   0  0  0  0  0  0  0  0  0  0  0  0
  151.7030  142.3296  155.5525 H   0  0  0  0  0  0  0  0  0  0  0  0
  148.8123  141.3995  155.9046 H   0  0  0  0  0  0  0  0  0  0  0  0
  149.3738  141.9140  154.3324 H   0  0  0  0  0  0  0  0  0  0  0  0
  152.0549  140.4977  156.1422 H   0  0  0  0  0  0  0  0  0  0  0  0
  1  2  1  0  0  0  0
  1 22  1  0  0  0  0
  1 23  1  0  0  0  0
  1 24  1  0  0  0  0
  2  7  1  0  0  0  0
  2  3  1  0  0  0  0
  2 25  1  0  0  0  0
  3  4  1  0  0  0  0
  3 26  1  0  0  0  0
  3 27  1  0  0  0  0
  4  5  1  0  0  0  0
  4 28  1  0  0  0  0
  4 29  1  0  0  0  0
  5  6  1  0  0  0  0
  5 30  1  0  0  0  0
  5 31  1  0  0  0  0
  6  7  1  0  0  0  0
  6 32  1  0  0  0  0
  6 33  1  0  0  0  0
  7  8  1  0  0  0  0
  7 34  1  0  0  0  0
  8  9  1  0  0  0  0
  9 10  1  0  0  0  0
  9 35  1  0  0  0  0
  9 36  1  0  0  0  0
 10 11  1  0  0  0  0
 10 37  1  0  0  0  0
 10 38  1  0  0  0  0
 11 19  1  0  0  0  0
 11 12  1  0  0  0  0
 12 13  2  0  0  0  0
 12 39  1  0  0  0  0
 13 14  1  0  0  0  0
 13 16  1  0  0  0  0
 14 15  3  0  0  0  0
 16 17  2  0  0  0  0
 16 18  1  0  0  0  0
 18 21  1  0  0  0  0
 18 19  1  0  0  0  0
 19 20  2  0  0  0  0
M  END
> <s_m_source_file>
AV-unprocessed.smi

> <i_m_source_file_index>
1230

> <i_lp_mmshare_version>
43012

> <i_f3d_flags>
0

> <s_epik_input>
W0NIM11bQ0BASF0xW0NIMl1bQ0gyXVtDSDJdW0NIMl1bQ0BIXTFPW0NIMl1bQ0gyXW4yW2NIXWMoQyNOKWMoPU8pW25IXWMyPU8=

> <s_epik_cmdline>
J2VwaWtfcHl0aG9uJywgJy1waCcsICc3LjAnLCAnLXRuJywgJzgnLCAnLW1hJywgJzIwMCcsICctbWV0YWxfYmluZGluZycsICctaW1hZScsICc8aW5maWxlLm1hZT4nLCAnLW9tYWUnLCAnPG91dGZpbGUubWFlPic=

> <r_epik_Ionization_Penalty>
0.421541

> <r_epik_Ionization_Penalty_Charging>
0.421541

> <r_epik_Ionization_Penalty_Neutral>
2.29267e-11

> <r_epik_State_Penalty>
0.422277

> <r_epik_Charging_Adjusted_Penalty>
0.843818

> <i_epik_Tot_Q>
0

> <i_epik_Tot_abs_Q>
0

> <r_epik_Metal_State_Penalty>
4.11629

> <b_epik_Metal_Only>
0

> <s_lp_Force_Field>
OPLS_2005

> <r_lp_Energy>
13.3669

> <b_lp_Chiralities_Consistent>
1

> <s_lp_Variant>
AV-unprocessed.smi:1230-8

> <Gold.Version>
5.8.1

> <Gold.Id.Protein>
6NUR|6NUR_protein|mol2

> <Gold.PLP.Fitness>
48.3281

> <Gold.PLP.PLP>
-43.0032

> <Gold.PLP.part.hbond>
-3.6239

> <Gold.PLP.part.metal>
0.0000

> <Gold.PLP.part.buried>
-4.1349

> <Gold.PLP.part.nonpolar>
-38.5223

> <Gold.PLP.part.repulsive>
2.1482

> <Gold.PLP.ligand.clash>
0.0000

> <Gold.PLP.ligand.torsion>
0.1698

> <Gold.PLP.Chemscore.Hbond>
1.8775

> <Gold.PLP.Chemscore.CHOScore>
0.0000

> <Gold.PLP.Chemscore.Metal>
0.0000

> <Gold.Chemscore.Hbonds>
donor molecule, donor type, donor heavy atom, donor atom, acceptor molecule, acceptor atom, score
      L1  H    18    21       P1  7948  0.91
      P1  H 10752 10765       L1    17  1.00

> <Gold.PLP.Chemscore.Internal.Correction>
0.0320

> <Gold.Rescore>
     Score         DG    S(hbond)    S(metal)    S(lipo)     H(rot)  DE(clash)    DE(int)     intcor
     16.40     -19.03       1.81        0.00     106.44       1.94       1.43       1.20       ----

> <Gold.Chemscore.Fitness>
16.3989

> <Gold.Chemscore.DG>
-19.0316

> <Gold.Chemscore.ZeroCoef>
-5.4800

> <Gold.Chemscore.Hbond>
1.8146

> <Gold.Chemscore.Metal>
0.0000

> <Gold.Chemscore.Lipo>
106.4383

> <Gold.Chemscore.Internal_Hbond>
0.0000

> <Gold.Chemscore.DEClash>
1.4322

> <Gold.Chemscore.DEInternal>
1.2004

> <Gold.Chemscore.Rot>
1.9385

> <Gold.Chemscore.Internal.Correction>
   9.000000E+99

> <Gold.Chemscore.Hbonds>
donor molecule, donor type, donor heavy atom, donor atom, acceptor molecule, acceptor atom, score
      L1  H    18    21       P1  7948  0.81
      P1  H 10752 10765       L1    17  0.94

> <Gold.Chemscore.Hbond.Weighted>
-6.0608

> <Gold.Chemscore.Metal.Weighted>
-0.0000

> <Gold.Chemscore.Lipo.Weighted>
-12.4533

> <Gold.Chemscore.Internal_Hbond.Weighted>
0.0000

> <Gold.Chemscore.DEClash.Weighted>
1.4322

> <Gold.Chemscore.DEInternal.Weighted>
1.2004

> <Gold.Chemscore.Rot.Weighted>
4.9625

> <Gold.Chemscore.Internal.Correction.Weighted>
   9.000000E+99

> <Gold.Protein.RotatedTorsions>
[ 6907 6896 6895 6894 ] final  148.06 input  -60.11 | X-H torsion
[ 7974 7965 7964 7962 ] final  -14.39 input  175.53 | X-H torsion
[ 8008 7997 7996 7995 ] final  128.76 input   59.86 | X-H torsion
[ 10167 10162 10161 10158 ] final -118.50 input  -65.29 | X-H torsion
[ 10718 10713 10712 10709 ] final   51.20 input   66.30 | X-H torsion
[ 10763 10752 10751 10750 ] final  166.36 input  -60.55 | X-H torsion
[ 11005 11000 10999 10996 ] final  106.37 input  -57.11 | X-H torsion

> <Gold.Protein.ActiveResidues>
 VAL166  LYS551  ARG553  GLY616  TRP617  ASP618  TYR619  PRO620  LYS621  CYS622 
 ASP623  PHE694  ASN695  SER759  ASP760  ASP761  ALA762  ILE779  LEU786  VAL792 
 PHE793  MET794  SER795  GLU796  ALA797  LYS798  CYS799  TRP800  GLU811  SER814 

> <Gold.Protein.RotatedAtoms>
  152.1465  133.4496  159.4792 H   0  0  0  0  0  0  0  0  0  0  0  0  # atno 6907 bound_to 6896
  150.6891  134.2241  159.4417 H   0  0  0  0  0  0  0  0  0  0  0  0  # atno 6908 bound_to 6896
  152.0135  134.9862  160.0619 H   0  0  0  0  0  0  0  0  0  0  0  0  # atno 6909 bound_to 6896
  146.2076  140.3341  142.8402 H   0  0  0  0  0  0  0  0  0  0  0  0  # atno 7974 bound_to 7965
  156.2922  140.2637  156.2488 H   0  0  0  0  0  0  0  0  0  0  0  0  # atno 8008 bound_to 7997
  154.9904  140.0389  157.2335 H   0  0  0  0  0  0  0  0  0  0  0  0  # atno 8009 bound_to 7997
  154.7691  140.2775  155.6157 H   0  0  0  0  0  0  0  0  0  0  0  0  # atno 8010 bound_to 7997
  140.0568  143.5006  152.2053 H   0  0  0  0  0  0  0  0  0  0  0  0  # atno 10167 bound_to 10162
  157.4958  130.8405  149.8257 H   0  0  0  0  0  0  0  0  0  0  0  0  # atno 10718 bound_to 10713
  154.3378  135.2754  155.2438 H   0  0  0  0  0  0  0  0  0  0  0  0  # atno 10763 bound_to 10752
  154.4722  135.5880  153.6333 H   0  0  0  0  0  0  0  0  0  0  0  0  # atno 10764 bound_to 10752
  152.9860  135.6091  154.3576 H   0  0  0  0  0  0  0  0  0  0  0  0  # atno 10765 bound_to 10752
  139.8813  134.9367  156.5656 H   0  0  0  0  0  0  0  0  0  0  0  0  # atno 11005 bound_to 11000
  144.8831  140.7427  143.5974 LP  0  0  0  0  0  0  0  0  0  0  0  0  # atno 17320 bound_to 7965
  145.3262  139.1773  143.4561 LP  0  0  0  0  0  0  0  0  0  0  0  0  # atno 17321 bound_to 7965
  139.5918  144.7553  151.3381 LP  0  0  0  0  0  0  0  0  0  0  0  0  # atno 17342 bound_to 10162
  140.7191  143.7186  150.7713 LP  0  0  0  0  0  0  0  0  0  0  0  0  # atno 17343 bound_to 10162
  156.0200  130.3799  150.1992 LP  0  0  0  0  0  0  0  0  0  0  0  0  # atno 17370 bound_to 10713
  157.0181  130.9971  151.3347 LP  0  0  0  0  0  0  0  0  0  0  0  0  # atno 17371 bound_to 10713
  140.8136  133.8409  155.8832 LP  0  0  0  0  0  0  0  0  0  0  0  0  # atno 17394 bound_to 11000
  140.9483  134.1812  157.4747 LP  0  0  0  0  0  0  0  0  0  0  0  0  # atno 17395 bound_to 11000

$$$$
