AV-unprocessed.smi:2446|AV-procd|sdf|9647|dock5
  -GOLD-   2272013283D 1   1.00000     0.00000
 Structure written by MMmdl.
 40 41  0  0  0  0  0  0  0  0  2 V2000
  150.1207  138.7669  154.3482 C   0  0  0  0  0  0  0  0  0  0  0  0
  149.1710  139.9497  154.2605 C   0  0  0  0  0  0  0  0  0  0  0  0
  149.5085  141.1613  154.9022 C   0  0  0  0  0  0  0  0  0  0  0  0
  148.6763  142.2212  154.8304 N   0  3  0  0  0  0  0  0  0  0  0  0
  147.5091  142.1879  154.1547 C   0  0  0  0  0  0  0  0  0  0  0  0
  147.1140  141.0092  153.4916 C   0  0  0  0  0  0  0  0  0  0  0  0
  147.9459  139.8614  153.5504 C   0  0  0  0  0  0  0  0  0  0  0  0
  147.6319  138.6361  152.8979 N   0  0  0  0  0  0  0  0  0  0  0  0
  146.4270  138.1182  152.5884 C   0  0  0  0  0  0  0  0  0  0  0  0
  145.3504  138.6688  152.8072 O   0  0  0  0  0  0  0  0  0  0  0  0
  146.4822  136.9020  152.0143 N   0  0  0  0  0  0  0  0  0  0  0  0
  145.3744  136.0599  151.5561 C   0  0  2  0  0  0  0  0  0  0  0  0
  144.2136  136.1462  152.5630 C   0  0  0  0  0  0  0  0  0  0  0  0
  143.0501  135.2304  152.1532 C   0  0  0  0  0  0  0  0  0  0  0  0
  143.5179  133.7771  151.9767 C   0  0  0  0  0  0  0  0  0  0  0  0
  144.6746  133.6727  150.9606 C   0  0  2  0  0  0  0  0  0  0  0  0
  145.1412  132.2164  150.7582 C   0  0  0  0  0  0  0  0  0  0  0  0
  144.0992  131.3860  150.7097 F   0  0  0  0  0  0  0  0  0  0  0  0
  145.8302  132.1112  149.6219 F   0  0  0  0  0  0  0  0  0  0  0  0
  145.9378  131.8506  151.7627 F   0  0  0  0  0  0  0  0  0  0  0  0
  145.8355  134.5967  151.3849 C   0  0  0  0  0  0  0  0  0  0  0  0
  151.0204  139.0225  154.9088 H   0  0  0  0  0  0  0  0  0  0  0  0
  150.4253  138.4451  153.3518 H   0  0  0  0  0  0  0  0  0  0  0  0
  149.6385  137.9275  154.8500 H   0  0  0  0  0  0  0  0  0  0  0  0
  150.4161  141.3152  155.4678 H   0  0  0  0  0  0  0  0  0  0  0  0
  146.9319  143.1011  154.1590 H   0  0  0  0  0  0  0  0  0  0  0  0
  146.1862  141.0157  152.9409 H   0  0  0  0  0  0  0  0  0  0  0  0
  148.4213  138.0339  152.7153 H   0  0  0  0  0  0  0  0  0  0  0  0
  147.4061  136.5208  151.8678 H   0  0  0  0  0  0  0  0  0  0  0  0
  145.0056  136.4328  150.5986 H   0  0  0  0  0  0  0  0  0  0  0  0
  144.5620  135.8639  153.5576 H   0  0  0  0  0  0  0  0  0  0  0  0
  143.8600  137.1752  152.6396 H   0  0  0  0  0  0  0  0  0  0  0  0
  142.2598  135.2771  152.9030 H   0  0  0  0  0  0  0  0  0  0  0  0
  142.6128  135.5896  151.2209 H   0  0  0  0  0  0  0  0  0  0  0  0
  143.8346  133.3786  152.9414 H   0  0  0  0  0  0  0  0  0  0  0  0
  142.6764  133.1643  151.6526 H   0  0  0  0  0  0  0  0  0  0  0  0
  144.3028  134.0297  149.9986 H   0  0  0  0  0  0  0  0  0  0  0  0
  146.6333  134.5432  150.6442 H   0  0  0  0  0  0  0  0  0  0  0  0
  146.2655  134.2369  152.3209 H   0  0  0  0  0  0  0  0  0  0  0  0
  148.9434  143.0857  155.3021 H   0  0  0  0  0  0  0  0  0  0  0  0
  1  2  1  0  0  0  0
  1 22  1  0  0  0  0
  1 23  1  0  0  0  0
  1 24  1  0  0  0  0
  2  7  1  0  0  0  0
  2  3  2  0  0  0  0
  3  4  1  0  0  0  0
  3 25  1  0  0  0  0
  4  5  2  0  0  0  0
  4 40  1  0  0  0  0
  5  6  1  0  0  0  0
  5 26  1  0  0  0  0
  6  7  2  0  0  0  0
  6 27  1  0  0  0  0
  7  8  1  0  0  0  0
  8  9  1  0  0  0  0
  8 28  1  0  0  0  0
  9 10  2  0  0  0  0
  9 11  1  0  0  0  0
 11 12  1  0  0  0  0
 11 29  1  0  0  0  0
 12 21  1  0  0  0  0
 12 13  1  0  0  0  0
 12 30  1  0  0  0  0
 13 14  1  0  0  0  0
 13 31  1  0  0  0  0
 13 32  1  0  0  0  0
 14 15  1  0  0  0  0
 14 33  1  0  0  0  0
 14 34  1  0  0  0  0
 15 16  1  0  0  0  0
 15 35  1  0  0  0  0
 15 36  1  0  0  0  0
 16 17  1  0  0  0  0
 16 21  1  0  0  0  0
 16 37  1  0  0  0  0
 17 18  1  0  0  0  0
 17 19  1  0  0  0  0
 17 20  1  0  0  0  0
 21 38  1  0  0  0  0
 21 39  1  0  0  0  0
M  CHG  1   4   1
M  END
> <s_m_source_file>
AV-unprocessed.smi

> <i_m_source_file_index>
2446

> <i_lp_mmshare_version>
43012

> <i_f3d_flags>
0

> <s_epik_input>
W0NIM11jMVtjSF1uW2NIXVtjSF1jMVtOSF1DKD1PKVtOSF1bQ0BASF0yW0NIMl1bQ0gyXVtDSDJdW0NAQEhdKEMoRikoRilGKVtDSDJdMg==

> <s_epik_cmdline>
J2VwaWtfcHl0aG9uJywgJy1waCcsICc3LjAnLCAnLXRuJywgJzgnLCAnLW1hJywgJzIwMCcsICctbWV0YWxfYmluZGluZycsICctaW1hZScsICc8aW5maWxlLm1hZT4nLCAnLW9tYWUnLCAnPG91dGZpbGUubWFlPic=

> <r_epik_Ionization_Penalty>
0.736582

> <r_epik_Ionization_Penalty_Charging>
0.736562

> <r_epik_Ionization_Penalty_Neutral>
1.98379e-05

> <r_epik_State_Penalty>
0.762314

> <r_epik_Charging_Adjusted_Penalty>
1.49888

> <i_epik_Tot_Q>
1

> <i_epik_Tot_abs_Q>
1

> <r_epik_Metal_State_Penalty>
0.914579

> <b_epik_Metal_Only>
0

> <s_lp_Force_Field>
OPLS_2005

> <r_lp_Energy>
31.4788

> <b_lp_Chiralities_Consistent>
1

> <s_lp_Variant>
AV-unprocessed.smi:2446-7

> <Gold.Version>
5.8.1

> <Gold.Id.Protein>
6NUR|6NUR_protein|mol2

> <Gold.PLP.Fitness>
50.9304

> <Gold.PLP.PLP>
-41.0354

> <Gold.PLP.part.hbond>
-3.9584

> <Gold.PLP.part.metal>
0.0000

> <Gold.PLP.part.buried>
-4.1765

> <Gold.PLP.part.nonpolar>
-38.9495

> <Gold.PLP.part.repulsive>
4.4764

> <Gold.PLP.ligand.clash>
0.0000

> <Gold.PLP.ligand.torsion>
0.8443

> <Gold.PLP.Chemscore.Hbond>
3.8553

> <Gold.PLP.Chemscore.CHOScore>
0.0000

> <Gold.PLP.Chemscore.Metal>
0.0000

> <Gold.Chemscore.Hbonds>
donor molecule, donor type, donor heavy atom, donor atom, acceptor molecule, acceptor atom, score
      L1  H     4    40       P1  8028  2.00
      L1  H     8    28       P1  7948  0.84
      L1  H    11    29       P1  7948  1.00

> <Gold.PLP.Chemscore.Internal.Correction>
0.0178

> <Gold.Rescore>
     Score         DG    S(hbond)    S(metal)    S(lipo)     H(rot)  DE(clash)    DE(int)     intcor
     16.64     -22.15       2.83        0.00      83.60       1.00       2.05       3.46       ----

> <Gold.Chemscore.Fitness>
16.6414

> <Gold.Chemscore.DG>
-22.1504

> <Gold.Chemscore.ZeroCoef>
-5.4800

> <Gold.Chemscore.Hbond>
2.8291

> <Gold.Chemscore.Metal>
0.0000

> <Gold.Chemscore.Lipo>
83.6008

> <Gold.Chemscore.Internal_Hbond>
0.0000

> <Gold.Chemscore.DEClash>
2.0518

> <Gold.Chemscore.DEInternal>
3.4572

> <Gold.Chemscore.Rot>
1.0000

> <Gold.Chemscore.Internal.Correction>
   9.000000E+99

> <Gold.Chemscore.Hbonds>
donor molecule, donor type, donor heavy atom, donor atom, acceptor molecule, acceptor atom, score
      L1  H     4    40       P1  8028  0.98
      L1  H     8    28       P1  7948  0.79
      L1  H    11    29       P1  7948  0.95

> <Gold.Chemscore.Hbond.Weighted>
-9.4491

> <Gold.Chemscore.Metal.Weighted>
-0.0000

> <Gold.Chemscore.Lipo.Weighted>
-9.7813

> <Gold.Chemscore.Internal_Hbond.Weighted>
0.0000

> <Gold.Chemscore.DEClash.Weighted>
2.0518

> <Gold.Chemscore.DEInternal.Weighted>
3.4572

> <Gold.Chemscore.Rot.Weighted>
2.5600

> <Gold.Chemscore.Internal.Correction.Weighted>
   9.000000E+99

> <Gold.Protein.RotatedTorsions>
[ 6907 6896 6895 6894 ] final -131.52 input  -60.11 | X-H torsion
[ 7974 7965 7964 7962 ] final  -97.29 input  175.53 | X-H torsion
[ 8008 7997 7996 7995 ] final   20.90 input   59.86 | X-H torsion
[ 10167 10162 10161 10158 ] final  168.07 input  -65.29 | X-H torsion
[ 10718 10713 10712 10709 ] final   40.77 input   66.30 | X-H torsion
[ 10763 10752 10751 10750 ] final   31.76 input  -60.55 | X-H torsion
[ 11005 11000 10999 10996 ] final  126.54 input  -57.11 | X-H torsion

> <Gold.Protein.ActiveResidues>
 VAL166  LYS551  ARG553  GLY616  TRP617  ASP618  TYR619  PRO620  LYS621  CYS622 
 ASP623  PHE694  ASN695  SER759  ASP760  ASP761  ALA762  ILE779  LEU786  VAL792 
 PHE793  MET794  SER795  GLU796  ALA797  LYS798  CYS799  TRP800  GLU811  SER814 

> <Gold.Protein.RotatedAtoms>
  150.9518  133.6540  159.2770 H   0  0  0  0  0  0  0  0  0  0  0  0  # atno 6907 bound_to 6896
  151.3894  135.0952  159.9531 H   0  0  0  0  0  0  0  0  0  0  0  0  # atno 6908 bound_to 6896
  152.5113  133.9036  159.7508 H   0  0  0  0  0  0  0  0  0  0  0  0  # atno 6909 bound_to 6896
  145.3357  140.9450  143.2636 H   0  0  0  0  0  0  0  0  0  0  0  0  # atno 7974 bound_to 7965
  154.9425  140.3055  155.5114 H   0  0  0  0  0  0  0  0  0  0  0  0  # atno 8008 bound_to 7997
  156.2994  140.2334  156.4432 H   0  0  0  0  0  0  0  0  0  0  0  0  # atno 8009 bound_to 7997
  154.8132  140.0427  157.1346 H   0  0  0  0  0  0  0  0  0  0  0  0  # atno 8010 bound_to 7997
  139.4959  144.3854  151.9576 H   0  0  0  0  0  0  0  0  0  0  0  0  # atno 10167 bound_to 10162
  157.3860  130.7780  149.7230 H   0  0  0  0  0  0  0  0  0  0  0  0  # atno 10718 bound_to 10713
  153.0298  135.6430  154.1250 H   0  0  0  0  0  0  0  0  0  0  0  0  # atno 10763 bound_to 10752
  154.0973  135.2862  155.3260 H   0  0  0  0  0  0  0  0  0  0  0  0  # atno 10764 bound_to 10752
  154.6423  135.5455  153.7867 H   0  0  0  0  0  0  0  0  0  0  0  0  # atno 10765 bound_to 10752
  139.9461  134.9629  156.8722 H   0  0  0  0  0  0  0  0  0  0  0  0  # atno 11005 bound_to 11000
  144.8829  139.4879  143.6714 LP  0  0  0  0  0  0  0  0  0  0  0  0  # atno 17320 bound_to 7965
  146.3028  139.7481  142.9079 LP  0  0  0  0  0  0  0  0  0  0  0  0  # atno 17321 bound_to 7965
  140.3291  144.3337  150.5991 LP  0  0  0  0  0  0  0  0  0  0  0  0  # atno 17342 bound_to 10162
  140.5660  143.2186  151.7683 LP  0  0  0  0  0  0  0  0  0  0  0  0  # atno 17343 bound_to 10162
  155.9787  130.4049  150.3634 LP  0  0  0  0  0  0  0  0  0  0  0  0  # atno 17370 bound_to 10713
  157.1744  131.0377  151.2779 LP  0  0  0  0  0  0  0  0  0  0  0  0  # atno 17371 bound_to 10713
  140.5831  134.0333  155.7471 LP  0  0  0  0  0  0  0  0  0  0  0  0  # atno 17394 bound_to 11000
  141.1112  133.9614  157.2907 LP  0  0  0  0  0  0  0  0  0  0  0  0  # atno 17395 bound_to 11000

$$$$
