AV-unprocessed.smi:1741|AV-procd|sdf|7016|dock9
  -GOLD-   22720 8233D 1   1.00000     0.00000
 Structure written by MMmdl.
 38 39  0  0  0  0  0  0  0  0  1 V2000
  153.4219  142.5582  162.0112 C   0  0  0  0  0  0  0  0  0  0  0  0
  153.6494  141.9451  160.6241 C   0  0  0  0  0  0  0  0  0  0  0  0
  152.8012  142.5576  159.6204 N   0  0  0  0  0  0  0  0  0  0  0  0
  151.7845  141.9745  158.8902 C   0  0  0  0  0  0  0  0  0  0  0  0
  151.3000  142.9613  158.0786 C   0  0  0  0  0  0  0  0  0  0  0  0
  150.2555  142.9079  157.1214 N   0  0  0  0  0  0  0  0  0  0  0  0
  149.6228  141.8153  156.6638 C   0  0  0  0  0  0  0  0  0  0  0  0
  149.8519  140.6617  157.0275 O   0  0  0  0  0  0  0  0  0  0  0  0
  148.6918  142.1402  155.7550 N   0  0  0  0  0  0  0  0  0  0  0  0
  147.8141  141.2052  155.0525 C   0  0  2  0  0  0  0  0  0  0  0  0
  148.4856  140.7923  153.7345 C   0  0  0  0  0  0  0  0  0  0  0  0
  146.4286  141.8408  154.8150 C   0  0  2  0  0  0  0  0  0  0  0  0
  146.4197  143.0412  153.8670 C   0  0  0  0  0  0  0  0  0  0  0  0
  145.1430  143.7399  154.2739 C   0  0  0  0  0  0  0  0  0  0  0  0
  145.1402  143.5388  155.7870 C   0  0  0  0  0  0  0  0  0  0  0  0
  145.8976  142.3561  156.0332 O   0  0  0  0  0  0  0  0  0  0  0  0
  152.0703  144.1165  158.3715 C   0  0  0  0  0  0  0  0  0  0  0  0
  152.9752  143.8652  159.3051 N   0  0  0  0  0  0  0  0  0  0  0  0
  154.0740  142.0948  162.7516 H   0  0  0  0  0  0  0  0  0  0  0  0
  152.3922  142.4183  162.3413 H   0  0  0  0  0  0  0  0  0  0  0  0
  153.6304  143.6286  162.0070 H   0  0  0  0  0  0  0  0  0  0  0  0
  154.6905  142.0696  160.3243 H   0  0  0  0  0  0  0  0  0  0  0  0
  153.4517  140.8725  160.6458 H   0  0  0  0  0  0  0  0  0  0  0  0
  151.5118  140.9367  159.0137 H   0  0  0  0  0  0  0  0  0  0  0  0
  149.9605  143.7961  156.7432 H   0  0  0  0  0  0  0  0  0  0  0  0
  148.5790  143.1171  155.5275 H   0  0  0  0  0  0  0  0  0  0  0  0
  147.6812  140.3011  155.6494 H   0  0  0  0  0  0  0  0  0  0  0  0
  147.8815  140.0612  153.1967 H   0  0  0  0  0  0  0  0  0  0  0  0
  149.4607  140.3391  153.9156 H   0  0  0  0  0  0  0  0  0  0  0  0
  148.6327  141.6495  153.0766 H   0  0  0  0  0  0  0  0  0  0  0  0
  145.7307  141.0900  154.4401 H   0  0  0  0  0  0  0  0  0  0  0  0
  147.2768  143.6889  154.0574 H   0  0  0  0  0  0  0  0  0  0  0  0
  146.4326  142.7554  152.8148 H   0  0  0  0  0  0  0  0  0  0  0  0
  145.1146  144.7902  153.9826 H   0  0  0  0  0  0  0  0  0  0  0  0
  144.2846  143.2370  153.8266 H   0  0  0  0  0  0  0  0  0  0  0  0
  145.6325  144.3741  156.2860 H   0  0  0  0  0  0  0  0  0  0  0  0
  144.1301  143.4531  156.1879 H   0  0  0  0  0  0  0  0  0  0  0  0
  152.0053  145.1076  157.9474 H   0  0  0  0  0  0  0  0  0  0  0  0
  1  2  1  0  0  0  0
  1 19  1  0  0  0  0
  1 20  1  0  0  0  0
  1 21  1  0  0  0  0
  2  3  1  0  0  0  0
  2 22  1  0  0  0  0
  2 23  1  0  0  0  0
  3 18  1  0  0  0  0
  3  4  1  0  0  0  0
  4  5  2  0  0  0  0
  4 24  1  0  0  0  0
  5  6  1  0  0  0  0
  5 17  1  0  0  0  0
  6  7  1  0  0  0  0
  6 25  1  0  0  0  0
  7  8  2  0  0  0  0
  7  9  1  0  0  0  0
  9 10  1  0  0  0  0
  9 26  1  0  0  0  0
 10 11  1  0  0  0  0
 10 12  1  0  0  0  0
 10 27  1  0  0  0  0
 11 28  1  0  0  0  0
 11 29  1  0  0  0  0
 11 30  1  0  0  0  0
 12 16  1  0  0  0  0
 12 13  1  0  0  0  0
 12 31  1  0  0  0  0
 13 14  1  0  0  0  0
 13 32  1  0  0  0  0
 13 33  1  0  0  0  0
 14 15  1  0  0  0  0
 14 34  1  0  0  0  0
 14 35  1  0  0  0  0
 15 16  1  0  0  0  0
 15 36  1  0  0  0  0
 15 37  1  0  0  0  0
 17 18  2  0  0  0  0
 17 38  1  0  0  0  0
M  END
> <s_m_source_file>
AV-unprocessed.smi

> <i_m_source_file_index>
1741

> <i_lp_mmshare_version>
43012

> <i_f3d_flags>
0

> <s_epik_input>
W0NIM11bQ0gyXW4xW2NIXWMoW2NIXW4xKVtOSF1DKD1PKVtOSF1bQ0BIXShbQ0gzXSlbQ0BASF0yW0NIMl1bQ0gyXVtDSDJdTzI=

> <s_epik_cmdline>
J2VwaWtfcHl0aG9uJywgJy1waCcsICc3LjAnLCAnLXRuJywgJzgnLCAnLW1hJywgJzIwMCcsICctbWV0YWxfYmluZGluZycsICctaW1hZScsICc8aW5maWxlLm1hZT4nLCAnLW9tYWUnLCAnPG91dGZpbGUubWFlPic=

> <r_lp_tautomer_probability>
1

> <r_epik_Ionization_Penalty>
0.000179292

> <r_epik_Ionization_Penalty_Charging>
0

> <r_epik_Ionization_Penalty_Neutral>
0.000179292

> <r_epik_State_Penalty>
-0

> <r_epik_Charging_Adjusted_Penalty>
0

> <i_epik_Tot_Q>
0

> <i_epik_Tot_abs_Q>
0

> <r_epik_Metal_State_Penalty>
-0

> <b_epik_Metal_Only>
0

> <s_lp_Force_Field>
OPLS_2005

> <r_lp_Energy>
21.1803

> <b_lp_Chiralities_Consistent>
1

> <s_lp_Variant>
AV-unprocessed.smi:1741-1

> <Gold.Version>
5.8.1

> <Gold.Id.Protein>
6NUR|6NUR_protein|mol2

> <Gold.PLP.Fitness>
45.0520

> <Gold.PLP.PLP>
-39.9402

> <Gold.PLP.part.hbond>
-2.0000

> <Gold.PLP.part.metal>
0.0000

> <Gold.PLP.part.buried>
-3.9543

> <Gold.PLP.part.nonpolar>
-34.1015

> <Gold.PLP.part.repulsive>
0.2599

> <Gold.PLP.ligand.clash>
0.0000

> <Gold.PLP.ligand.torsion>
0.4516

> <Gold.PLP.Chemscore.Hbond>
2.0000

> <Gold.PLP.Chemscore.CHOScore>
0.0000

> <Gold.PLP.Chemscore.Metal>
0.0000

> <Gold.Chemscore.Hbonds>
donor molecule, donor type, donor heavy atom, donor atom, acceptor molecule, acceptor atom, score
      L1  H     6    25       P1  8028  1.00
      L1  H     9    26       P1  8028  1.00

> <Gold.PLP.Chemscore.Internal.Correction>
0.0150

> <Gold.Rescore>
     Score         DG    S(hbond)    S(metal)    S(lipo)     H(rot)  DE(clash)    DE(int)     intcor
     16.60     -18.43       1.90        0.00      86.63       1.38       0.36       1.47       ----

> <Gold.Chemscore.Fitness>
16.6047

> <Gold.Chemscore.DG>
-18.4299

> <Gold.Chemscore.ZeroCoef>
-5.4800

> <Gold.Chemscore.Hbond>
1.8994

> <Gold.Chemscore.Metal>
0.0000

> <Gold.Chemscore.Lipo>
86.6330

> <Gold.Chemscore.Internal_Hbond>
0.0000

> <Gold.Chemscore.DEClash>
0.3580

> <Gold.Chemscore.DEInternal>
1.4672

> <Gold.Chemscore.Rot>
1.3790

> <Gold.Chemscore.Internal.Correction>
   9.000000E+99

> <Gold.Chemscore.Hbonds>
donor molecule, donor type, donor heavy atom, donor atom, acceptor molecule, acceptor atom, score
      L1  H     6    25       P1  8028  0.94
      L1  H     9    26       P1  8028  0.98

> <Gold.Chemscore.Hbond.Weighted>
-6.3440

> <Gold.Chemscore.Metal.Weighted>
-0.0000

> <Gold.Chemscore.Lipo.Weighted>
-10.1361

> <Gold.Chemscore.Internal_Hbond.Weighted>
0.0000

> <Gold.Chemscore.DEClash.Weighted>
0.3580

> <Gold.Chemscore.DEInternal.Weighted>
1.4672

> <Gold.Chemscore.Rot.Weighted>
3.5302

> <Gold.Chemscore.Internal.Correction.Weighted>
   9.000000E+99

> <Gold.Protein.RotatedTorsions>
[ 6907 6896 6895 6894 ] final  -18.00 input  -60.11 | X-H torsion
[ 7974 7965 7964 7962 ] final  -25.82 input  175.53 | X-H torsion
[ 8008 7997 7996 7995 ] final  117.76 input   59.86 | X-H torsion
[ 10167 10162 10161 10158 ] final  135.39 input  -65.29 | X-H torsion
[ 10718 10713 10712 10709 ] final  -96.71 input   66.30 | X-H torsion
[ 10763 10752 10751 10750 ] final  161.46 input  -60.55 | X-H torsion
[ 11005 11000 10999 10996 ] final -160.32 input  -57.11 | X-H torsion

> <Gold.Protein.ActiveResidues>
 VAL166  LYS551  ARG553  GLY616  TRP617  ASP618  TYR619  PRO620  LYS621  CYS622 
 ASP623  PHE694  ASN695  SER759  ASP760  ASP761  ALA762  ILE779  LEU786  VAL792 
 PHE793  MET794  SER795  GLU796  ALA797  LYS798  CYS799  TRP800  GLU811  SER814 

> <Gold.Protein.RotatedAtoms>
  151.2849  135.0725  159.9182 H   0  0  0  0  0  0  0  0  0  0  0  0  # atno 6907 bound_to 6896
  152.5327  133.9992  159.7897 H   0  0  0  0  0  0  0  0  0  0  0  0  # atno 6908 bound_to 6896
  151.0253  133.5789  159.2697 H   0  0  0  0  0  0  0  0  0  0  0  0  # atno 6909 bound_to 6896
  146.1466  140.4937  142.8629 H   0  0  0  0  0  0  0  0  0  0  0  0  # atno 7974 bound_to 7965
  156.2511  140.2889  156.0729 H   0  0  0  0  0  0  0  0  0  0  0  0  # atno 8008 bound_to 7997
  155.1651  140.0400  157.2868 H   0  0  0  0  0  0  0  0  0  0  0  0  # atno 8009 bound_to 7997
  154.6365  140.2512  155.7378 H   0  0  0  0  0  0  0  0  0  0  0  0  # atno 8010 bound_to 7997
  139.5219  144.6519  151.5276 H   0  0  0  0  0  0  0  0  0  0  0  0  # atno 10167 bound_to 10162
  156.0068  130.5163  150.6267 H   0  0  0  0  0  0  0  0  0  0  0  0  # atno 10718 bound_to 10713
  154.2633  135.2768  155.2769 H   0  0  0  0  0  0  0  0  0  0  0  0  # atno 10763 bound_to 10752
  154.5365  135.5715  153.6806 H   0  0  0  0  0  0  0  0  0  0  0  0  # atno 10764 bound_to 10752
  152.9958  135.6240  154.2785 H   0  0  0  0  0  0  0  0  0  0  0  0  # atno 10765 bound_to 10752
  140.6328  134.4633  157.5230 H   0  0  0  0  0  0  0  0  0  0  0  0  # atno 11005 bound_to 11000
  144.7854  140.5925  143.6577 LP  0  0  0  0  0  0  0  0  0  0  0  0  # atno 17320 bound_to 7965
  145.4923  139.1488  143.3703 LP  0  0  0  0  0  0  0  0  0  0  0  0  # atno 17321 bound_to 7965
  140.6328  143.9043  150.6620 LP  0  0  0  0  0  0  0  0  0  0  0  0  # atno 17342 bound_to 10162
  140.2352  143.3705  152.1532 LP  0  0  0  0  0  0  0  0  0  0  0  0  # atno 17343 bound_to 10162
  157.4072  131.0818  151.1254 LP  0  0  0  0  0  0  0  0  0  0  0  0  # atno 17370 bound_to 10713
  157.1897  130.6346  149.5700 LP  0  0  0  0  0  0  0  0  0  0  0  0  # atno 17371 bound_to 10713
  139.9109  134.8346  156.1531 LP  0  0  0  0  0  0  0  0  0  0  0  0  # atno 17394 bound_to 11000
  141.0663  133.6818  156.2051 LP  0  0  0  0  0  0  0  0  0  0  0  0  # atno 17395 bound_to 11000

$$$$
