AV-unprocessed.smi:2199|AV-procd|sdf|8923|dock2
  -GOLD-   2272012143D 1   1.00000     0.00000
 Structure written by MMmdl.
 26 27  0  0  0  0  0  0  0  0  1 V2000
  151.7875  141.4981  157.4763 O   0  0  0  0  0  0  0  0  0  0  0  0
  150.9778  142.1740  156.8417 C   0  0  0  0  0  0  0  0  0  0  0  0
  149.9442  141.4874  155.9417 C   0  0  0  0  0  0  0  0  0  0  0  0
  150.2939  140.0847  155.6787 N   0  0  0  0  0  0  0  0  0  0  0  0
  150.4563  139.6379  154.3747 C   0  0  0  0  0  0  0  0  0  0  0  0
  150.7849  138.3629  154.0581 C   0  0  0  0  0  0  0  0  0  0  0  0
  150.9904  137.3708  155.1076 C   0  0  0  0  0  0  0  0  0  0  0  0
  151.2906  136.1937  154.9217 O   0  0  0  0  0  0  0  0  0  0  0  0
  150.8188  137.8584  156.4058 N   0  0  0  0  0  0  0  0  0  0  0  0
  150.4796  139.1705  156.7392 C   0  0  0  0  0  0  0  0  0  0  0  0
  150.3534  139.4943  157.9193 O   0  0  0  0  0  0  0  0  0  0  0  0
  150.9379  143.5144  156.8815 N   0  0  0  0  0  0  0  0  0  0  0  0
  151.8100  144.3470  157.6445 C   0  0  0  0  0  0  0  0  0  0  0  0
  152.2534  143.8424  159.0003 C   0  0  0  0  0  0  0  0  0  0  0  0
  151.2599  144.9678  158.9103 C   0  0  0  0  0  0  0  0  0  0  0  0
  150.9518  137.2078  157.1664 H   0  0  0  0  0  0  0  0  0  0  0  0
  148.9564  141.5546  156.4017 H   0  0  0  0  0  0  0  0  0  0  0  0
  149.8590  142.0447  155.0072 H   0  0  0  0  0  0  0  0  0  0  0  0
  150.3178  140.3390  153.5637 H   0  0  0  0  0  0  0  0  0  0  0  0
  150.8973  138.0755  153.0226 H   0  0  0  0  0  0  0  0  0  0  0  0
  150.2371  143.9816  156.3248 H   0  0  0  0  0  0  0  0  0  0  0  0
  152.5375  144.9446  157.0969 H   0  0  0  0  0  0  0  0  0  0  0  0
  151.8842  142.8728  159.3296 H   0  0  0  0  0  0  0  0  0  0  0  0
  153.2644  144.0880  159.3191 H   0  0  0  0  0  0  0  0  0  0  0  0
  151.6063  145.9661  159.1701 H   0  0  0  0  0  0  0  0  0  0  0  0
  150.2277  144.7496  159.1779 H   0  0  0  0  0  0  0  0  0  0  0  0
  1  2  2  0  0  0  0
  2  3  1  0  0  0  0
  2 12  1  0  0  0  0
  3  4  1  0  0  0  0
  3 17  1  0  0  0  0
  3 18  1  0  0  0  0
  4 10  1  0  0  0  0
  4  5  1  0  0  0  0
  5  6  2  0  0  0  0
  5 19  1  0  0  0  0
  6  7  1  0  0  0  0
  6 20  1  0  0  0  0
  7  8  2  0  0  0  0
  7  9  1  0  0  0  0
  9 16  1  0  0  0  0
  9 10  1  0  0  0  0
 10 11  2  0  0  0  0
 12 13  1  0  0  0  0
 12 21  1  0  0  0  0
 13 15  1  0  0  0  0
 13 14  1  0  0  0  0
 13 22  1  0  0  0  0
 14 15  1  0  0  0  0
 14 23  1  0  0  0  0
 14 24  1  0  0  0  0
 15 25  1  0  0  0  0
 15 26  1  0  0  0  0
M  END
> <s_m_source_file>
AV-unprocessed.smi

> <i_m_source_file_index>
2199

> <i_lp_mmshare_version>
43012

> <i_f3d_flags>
0

> <s_epik_input>
W0NIMl0xW0NIMl1bQ0hdMVtOSF1DKD1PKVtDSDJdbjJbY0hdW2NIXWMoPU8pW25IXWMyPU8=

> <s_epik_cmdline>
J2VwaWtfcHl0aG9uJywgJy1waCcsICc3LjAnLCAnLXRuJywgJzgnLCAnLW1hJywgJzIwMCcsICctbWV0YWxfYmluZGluZycsICctaW1hZScsICc8aW5maWxlLm1hZT4nLCAnLW9tYWUnLCAnPG91dGZpbGUubWFlPic=

> <r_lp_tautomer_probability>
0.999537

> <r_epik_Ionization_Penalty>
0.00328918

> <r_epik_Ionization_Penalty_Charging>
0.00328916

> <r_epik_Ionization_Penalty_Neutral>
2.06703e-08

> <r_epik_State_Penalty>
0.00232387

> <r_epik_Charging_Adjusted_Penalty>
0.00561303

> <i_epik_Tot_Q>
0

> <i_epik_Tot_abs_Q>
0

> <r_epik_Metal_State_Penalty>
0.365273

> <b_epik_Metal_Only>
0

> <s_lp_Force_Field>
OPLS_2005

> <r_lp_Energy>
17.907

> <b_lp_Chiralities_Consistent>
1

> <s_lp_Variant>
AV-unprocessed.smi:2199-1

> <Gold.Version>
5.8.1

> <Gold.Id.Protein>
6NUR|6NUR_protein|mol2

> <Gold.PLP.Fitness>
37.8763

> <Gold.PLP.PLP>
-29.7879

> <Gold.PLP.part.hbond>
-2.0000

> <Gold.PLP.part.metal>
0.0000

> <Gold.PLP.part.buried>
-1.7464

> <Gold.PLP.part.nonpolar>
-25.6308

> <Gold.PLP.part.repulsive>
0.2027

> <Gold.PLP.ligand.clash>
0.0000

> <Gold.PLP.ligand.torsion>
0.4755

> <Gold.PLP.Chemscore.Hbond>
2.0000

> <Gold.PLP.Chemscore.CHOScore>
1.0000

> <Gold.PLP.Chemscore.Metal>
0.0000

> <Gold.Chemscore.Hbonds>
donor molecule, donor type, donor heavy atom, donor atom, acceptor molecule, acceptor atom, score
      L1  H    12    21       P1  8028  1.00
      P1  H 10752 10764       L1     8  1.00
      L1  C     5    19       P1  7957  1.00

> <Gold.PLP.Chemscore.Internal.Correction>
0.0394

> <Gold.Rescore>
     Score         DG    S(hbond)    S(metal)    S(lipo)     H(rot)  DE(clash)    DE(int)     intcor
     10.27     -14.59       1.99        0.00      59.95       1.78       0.16       4.17       ----

> <Gold.Chemscore.Fitness>
10.2654

> <Gold.Chemscore.DG>
-14.5914

> <Gold.Chemscore.ZeroCoef>
-5.4800

> <Gold.Chemscore.Hbond>
1.9941

> <Gold.Chemscore.Metal>
0.0000

> <Gold.Chemscore.Lipo>
59.9521

> <Gold.Chemscore.Internal_Hbond>
0.0000

> <Gold.Chemscore.DEClash>
0.1596

> <Gold.Chemscore.DEInternal>
4.1664

> <Gold.Chemscore.Rot>
1.7825

> <Gold.Chemscore.Internal.Correction>
   9.000000E+99

> <Gold.Chemscore.Hbonds>
donor molecule, donor type, donor heavy atom, donor atom, acceptor molecule, acceptor atom, score
      L1  H    12    21       P1  8028  1.00
      P1  H 10752 10764       L1     8  1.00

> <Gold.Chemscore.Hbond.Weighted>
-6.6602

> <Gold.Chemscore.Metal.Weighted>
-0.0000

> <Gold.Chemscore.Lipo.Weighted>
-7.0144

> <Gold.Chemscore.Internal_Hbond.Weighted>
0.0000

> <Gold.Chemscore.DEClash.Weighted>
0.1596

> <Gold.Chemscore.DEInternal.Weighted>
4.1664

> <Gold.Chemscore.Rot.Weighted>
4.5632

> <Gold.Chemscore.Internal.Correction.Weighted>
   9.000000E+99

> <Gold.Protein.RotatedTorsions>
[ 6907 6896 6895 6894 ] final   11.95 input  -60.11 | X-H torsion
[ 7974 7965 7964 7962 ] final  170.64 input  175.53 | X-H torsion
[ 8008 7997 7996 7995 ] final  127.90 input   59.86 | X-H torsion
[ 10167 10162 10161 10158 ] final  -29.44 input  -65.29 | X-H torsion
[ 10718 10713 10712 10709 ] final   58.53 input   66.30 | X-H torsion
[ 10763 10752 10751 10750 ] final  -62.32 input  -60.55 | X-H torsion
[ 11005 11000 10999 10996 ] final  135.97 input  -57.11 | X-H torsion

> <Gold.Protein.ActiveResidues>
 VAL166  LYS551  ARG553  GLY616  TRP617  ASP618  TYR619  PRO620  LYS621  CYS622 
 ASP623  PHE694  ASN695  SER759  ASP760  ASP761  ALA762  ILE779  LEU786  VAL792 
 PHE793  MET794  SER795  GLU796  ALA797  LYS798  CYS799  TRP800  GLU811  SER814 

> <Gold.Protein.RotatedAtoms>
  151.7625  135.0806  160.0347 H   0  0  0  0  0  0  0  0  0  0  0  0  # atno 6907 bound_to 6896
  152.3343  133.5989  159.5840 H   0  0  0  0  0  0  0  0  0  0  0  0  # atno 6908 bound_to 6896
  150.7441  133.9736  159.3595 H   0  0  0  0  0  0  0  0  0  0  0  0  # atno 6909 bound_to 6896
  144.7318  139.9232  143.6421 H   0  0  0  0  0  0  0  0  0  0  0  0  # atno 7974 bound_to 7965
  156.2902  140.2658  156.2348 H   0  0  0  0  0  0  0  0  0  0  0  0  # atno 8008 bound_to 7997
  155.0036  140.0387  157.2389 H   0  0  0  0  0  0  0  0  0  0  0  0  # atno 8009 bound_to 7997
  154.7579  140.2755  155.6243 H   0  0  0  0  0  0  0  0  0  0  0  0  # atno 8010 bound_to 7997
  140.7260  143.3928  151.1399 H   0  0  0  0  0  0  0  0  0  0  0  0  # atno 10167 bound_to 10162
  157.5604  130.8831  149.9101 H   0  0  0  0  0  0  0  0  0  0  0  0  # atno 10718 bound_to 10713
  154.2981  135.6240  153.5413 H   0  0  0  0  0  0  0  0  0  0  0  0  # atno 10763 bound_to 10752
  152.9844  135.5672  154.5314 H   0  0  0  0  0  0  0  0  0  0  0  0  # atno 10764 bound_to 10752
  154.4939  135.2868  155.1451 H   0  0  0  0  0  0  0  0  0  0  0  0  # atno 10765 bound_to 10752
  140.0015  134.9476  157.0082 H   0  0  0  0  0  0  0  0  0  0  0  0  # atno 11005 bound_to 11000
  146.0913  139.3904  143.0404 LP  0  0  0  0  0  0  0  0  0  0  0  0  # atno 17320 bound_to 7965
  145.7706  140.9898  143.1151 LP  0  0  0  0  0  0  0  0  0  0  0  0  # atno 17321 bound_to 7965
  139.7536  143.8741  152.3083 LP  0  0  0  0  0  0  0  0  0  0  0  0  # atno 17342 bound_to 10162
  139.8603  144.7120  150.9107 LP  0  0  0  0  0  0  0  0  0  0  0  0  # atno 17343 bound_to 10162
  156.0657  130.3692  150.0884 LP  0  0  0  0  0  0  0  0  0  0  0  0  # atno 17370 bound_to 10713
  156.9048  130.9632  151.3571 LP  0  0  0  0  0  0  0  0  0  0  0  0  # atno 17371 bound_to 10713
  140.4719  134.1377  155.7204 LP  0  0  0  0  0  0  0  0  0  0  0  0  # atno 17394 bound_to 11000
  141.1645  133.8729  157.1753 LP  0  0  0  0  0  0  0  0  0  0  0  0  # atno 17395 bound_to 11000

$$$$
