AV-unprocessed.smi:2482|AV-procd|sdf|9784|dock7
  -GOLD-   2272013423D 1   1.00000     0.00000
 Structure written by MMmdl.
 34 35  0  0  0  0  0  0  0  0  3 V2000
  153.4677  142.3966  160.5025 C   0  0  0  0  0  0  0  0  0  0  0  0
  152.6243  142.2195  159.2536 C   0  0  0  0  0  0  0  0  0  0  0  0
  152.0442  143.3427  158.7787 N   0  0  0  0  0  0  0  0  0  0  0  0
  151.2882  143.2375  157.6681 C   0  0  0  0  0  0  0  0  0  0  0  0
  151.0766  142.0224  156.9897 C   0  0  0  0  0  0  0  0  0  0  0  0
  151.6701  140.8377  157.4794 C   0  0  0  0  0  0  0  0  0  0  0  0
  151.4825  139.6712  156.8402 N   0  5  0  0  0  0  0  0  0  0  0  0
  151.7252  139.5832  155.5095 C   0  0  0  0  0  0  0  0  0  0  0  0
  152.7209  139.9526  154.8837 O   0  0  0  0  0  0  0  0  0  0  0  0
  150.5486  138.9286  154.7700 C   0  0  1  0  0  0  0  0  0  0  0  0
  150.1971  137.5255  155.3148 C   0  0  0  0  0  0  0  0  0  0  0  0
  149.0207  136.9800  154.6007 N   0  3  1  0  0  0  0  0  0  0  0  0
  148.6691  135.6137  155.0412 C   0  0  0  0  0  0  0  0  0  0  0  0
  147.8775  137.9178  154.6767 C   0  0  0  0  0  0  0  0  0  0  0  0
  148.2937  139.3072  154.1660 C   0  0  0  0  0  0  0  0  0  0  0  0
  149.4104  139.7751  154.9111 O   0  0  0  0  0  0  0  0  0  0  0  0
  152.4728  140.9507  158.6444 C   0  0  0  0  0  0  0  0  0  0  0  0
  153.2603  139.5609  159.3195 Cl  0  0  0  0  0  0  0  0  0  0  0  0
  153.0813  141.7767  161.3119 H   0  0  0  0  0  0  0  0  0  0  0  0
  153.4682  143.4329  160.8430 H   0  0  0  0  0  0  0  0  0  0  0  0
  154.4999  142.1054  160.3066 H   0  0  0  0  0  0  0  0  0  0  0  0
  150.8376  144.1500  157.3073 H   0  0  0  0  0  0  0  0  0  0  0  0
  150.4600  142.0020  156.1029 H   0  0  0  0  0  0  0  0  0  0  0  0
  150.8048  138.8414  153.7112 H   0  0  0  0  0  0  0  0  0  0  0  0
  151.0451  136.8511  155.1857 H   0  0  0  0  0  0  0  0  0  0  0  0
  149.9779  137.5685  156.3834 H   0  0  0  0  0  0  0  0  0  0  0  0
  148.3817  135.6031  156.0934 H   0  0  0  0  0  0  0  0  0  0  0  0
  149.5156  134.9385  154.9106 H   0  0  0  0  0  0  0  0  0  0  0  0
  147.8372  135.2229  154.4547 H   0  0  0  0  0  0  0  0  0  0  0  0
  147.0466  137.5365  154.0820 H   0  0  0  0  0  0  0  0  0  0  0  0
  147.5290  137.9891  155.7083 H   0  0  0  0  0  0  0  0  0  0  0  0
  148.5375  139.2761  153.1030 H   0  0  0  0  0  0  0  0  0  0  0  0
  147.4708  140.0126  154.2832 H   0  0  0  0  0  0  0  0  0  0  0  0
  149.2800  136.9155  153.6265 H   0  0  0  0  0  0  0  0  0  0  0  0
  1  2  1  0  0  0  0
  1 19  1  0  0  0  0
  1 20  1  0  0  0  0
  1 21  1  0  0  0  0
  2 17  1  0  0  0  0
  2  3  2  0  0  0  0
  3  4  1  0  0  0  0
  4  5  2  0  0  0  0
  4 22  1  0  0  0  0
  5  6  1  0  0  0  0
  5 23  1  0  0  0  0
  6  7  1  0  0  0  0
  6 17  2  0  0  0  0
  7  8  1  0  0  0  0
  8  9  2  0  0  0  0
  8 10  1  0  0  0  0
 10 16  1  0  0  0  0
 10 11  1  0  0  0  0
 10 24  1  0  0  0  0
 11 12  1  0  0  0  0
 11 25  1  0  0  0  0
 11 26  1  0  0  0  0
 12 13  1  0  0  0  0
 12 14  1  0  0  0  0
 12 34  1  0  0  0  0
 13 27  1  0  0  0  0
 13 28  1  0  0  0  0
 13 29  1  0  0  0  0
 14 15  1  0  0  0  0
 14 30  1  0  0  0  0
 14 31  1  0  0  0  0
 15 16  1  0  0  0  0
 15 32  1  0  0  0  0
 15 33  1  0  0  0  0
 17 18  1  0  0  0  0
M  CHG  1   7  -1
M  CHG  1  12   1
M  END
> <s_m_source_file>
AV-unprocessed.smi

> <i_m_source_file_index>
2482

> <i_lp_mmshare_version>
43012

> <i_f3d_flags>
0

> <s_epik_input>
W0NIM11jMW5bY0hdW2NIXWMoYzFDbClbTkhdQyg9TylbQ0BASF0yW0NIMl1OKFtDSDNdKVtDSDJdW0NIMl1PMg==

> <s_epik_cmdline>
J2VwaWtfcHl0aG9uJywgJy1waCcsICc3LjAnLCAnLXRuJywgJzgnLCAnLW1hJywgJzIwMCcsICctbWV0YWxfYmluZGluZycsICctaW1hZScsICc8aW5maWxlLm1hZT4nLCAnLW9tYWUnLCAnPG91dGZpbGUubWFlPic=

> <r_epik_Ionization_Penalty>
6.9249

> <r_epik_Ionization_Penalty_Charging>
6.74596

> <r_epik_Ionization_Penalty_Neutral>
0.178941

> <r_epik_State_Penalty>
6.78185

> <r_epik_Charging_Adjusted_Penalty>
13.5278

> <i_epik_Tot_Q>
0

> <i_epik_Tot_abs_Q>
2

> <r_epik_Metal_State_Penalty>
2.70608

> <b_epik_Metal_Only>
1

> <s_lp_Force_Field>
OPLS_2005

> <r_lp_Energy>
14.2833

> <b_lp_Chiralities_Consistent>
1

> <s_lp_Variant>
AV-unprocessed.smi:2482-10

> <Gold.Version>
5.8.1

> <Gold.Id.Protein>
6NUR|6NUR_protein|mol2

> <Gold.PLP.Fitness>
43.0745

> <Gold.PLP.PLP>
-31.4476

> <Gold.PLP.part.hbond>
-3.0000

> <Gold.PLP.part.metal>
0.0000

> <Gold.PLP.part.buried>
-4.0701

> <Gold.PLP.part.nonpolar>
-25.0354

> <Gold.PLP.part.repulsive>
0.1257

> <Gold.PLP.ligand.clash>
0.0000

> <Gold.PLP.ligand.torsion>
0.9288

> <Gold.PLP.Chemscore.Hbond>
3.3442

> <Gold.PLP.Chemscore.CHOScore>
1.0000

> <Gold.PLP.Chemscore.Metal>
0.0000

> <Gold.Chemscore.Hbonds>
donor molecule, donor type, donor heavy atom, donor atom, acceptor molecule, acceptor atom, score
      L1  H    12    34       P1  7948  2.00
      P1  H  7989  7998       L1     9  0.35
      P1  H  7997  8010       L1     9  1.00
      L1  C     4    22       P1  8028  0.85

> <Gold.PLP.Chemscore.Internal.Correction>
0.4521

> <Gold.Rescore>
     Score         DG    S(hbond)    S(metal)    S(lipo)     H(rot)  DE(clash)    DE(int)     intcor
     18.29     -19.20       1.93        0.00      83.91       1.00       0.07       0.84       ----

> <Gold.Chemscore.Fitness>
18.2931

> <Gold.Chemscore.DG>
-19.1988

> <Gold.Chemscore.ZeroCoef>
-5.4800

> <Gold.Chemscore.Hbond>
1.9346

> <Gold.Chemscore.Metal>
0.0000

> <Gold.Chemscore.Lipo>
83.9068

> <Gold.Chemscore.Internal_Hbond>
0.0000

> <Gold.Chemscore.DEClash>
0.0663

> <Gold.Chemscore.DEInternal>
0.8395

> <Gold.Chemscore.Rot>
1.0000

> <Gold.Chemscore.Internal.Correction>
   9.000000E+99

> <Gold.Chemscore.Hbonds>
donor molecule, donor type, donor heavy atom, donor atom, acceptor molecule, acceptor atom, score
      L1  H    12    34       P1  7948  0.93
      P1  H  7989  7998       L1     9  0.04
      P1  H  7997  8010       L1     9  0.92

> <Gold.Chemscore.Hbond.Weighted>
-6.4617

> <Gold.Chemscore.Metal.Weighted>
-0.0000

> <Gold.Chemscore.Lipo.Weighted>
-9.8171

> <Gold.Chemscore.Internal_Hbond.Weighted>
0.0000

> <Gold.Chemscore.DEClash.Weighted>
0.0663

> <Gold.Chemscore.DEInternal.Weighted>
0.8395

> <Gold.Chemscore.Rot.Weighted>
2.5600

> <Gold.Chemscore.Internal.Correction.Weighted>
   9.000000E+99

> <Gold.Protein.RotatedTorsions>
[ 6907 6896 6895 6894 ] final -108.31 input  -60.11 | X-H torsion
[ 7974 7965 7964 7962 ] final  -77.54 input  175.53 | X-H torsion
[ 8008 7997 7996 7995 ] final  112.68 input   59.86 | X-H torsion
[ 10167 10162 10161 10158 ] final   19.44 input  -65.29 | X-H torsion
[ 10718 10713 10712 10709 ] final   57.42 input   66.30 | X-H torsion
[ 10763 10752 10751 10750 ] final -108.12 input  -60.55 | X-H torsion
[ 11005 11000 10999 10996 ] final  173.25 input  -57.11 | X-H torsion

> <Gold.Protein.ActiveResidues>
 VAL166  LYS551  ARG553  GLY616  TRP617  ASP618  TYR619  PRO620  LYS621  CYS622 
 ASP623  PHE694  ASN695  SER759  ASP760  ASP761  ALA762  ILE779  LEU786  VAL792 
 PHE793  MET794  SER795  GLU796  ALA797  LYS798  CYS799  TRP800  GLU811  SER814 

> <Gold.Protein.RotatedAtoms>
  150.7494  133.9697  159.3541 H   0  0  0  0  0  0  0  0  0  0  0  0  # atno 6907 bound_to 6896
  151.7629  135.0803  160.0358 H   0  0  0  0  0  0  0  0  0  0  0  0  # atno 6908 bound_to 6896
  152.3391  133.6008  159.5899 H   0  0  0  0  0  0  0  0  0  0  0  0  # atno 6909 bound_to 6896
  145.5983  140.9414  143.1254 H   0  0  0  0  0  0  0  0  0  0  0  0  # atno 7974 bound_to 7965
  156.2208  140.2995  155.9948 H   0  0  0  0  0  0  0  0  0  0  0  0  # atno 8008 bound_to 7997
  155.2486  140.0425  157.3001 H   0  0  0  0  0  0  0  0  0  0  0  0  # atno 8009 bound_to 7997
  154.5838  140.2382  155.8024 H   0  0  0  0  0  0  0  0  0  0  0  0  # atno 8010 bound_to 7997
  140.5579  143.9391  150.6622 H   0  0  0  0  0  0  0  0  0  0  0  0  # atno 10167 bound_to 10162
  157.5513  130.8768  149.8968 H   0  0  0  0  0  0  0  0  0  0  0  0  # atno 10718 bound_to 10713
  154.8116  135.4649  154.0533 H   0  0  0  0  0  0  0  0  0  0  0  0  # atno 10763 bound_to 10752
  153.1959  135.6862  153.8300 H   0  0  0  0  0  0  0  0  0  0  0  0  # atno 10764 bound_to 10752
  153.7802  135.3257  155.3342 H   0  0  0  0  0  0  0  0  0  0  0  0  # atno 10765 bound_to 10752
  140.3385  134.7297  157.4185 H   0  0  0  0  0  0  0  0  0  0  0  0  # atno 11005 bound_to 11000
  144.7321  139.7695  143.7343 LP  0  0  0  0  0  0  0  0  0  0  0  0  # atno 17320 bound_to 7965
  146.1595  139.4704  142.9997 LP  0  0  0  0  0  0  0  0  0  0  0  0  # atno 17321 bound_to 7965
  140.2834  143.3373  152.1130 LP  0  0  0  0  0  0  0  0  0  0  0  0  # atno 17342 bound_to 10162
  139.5056  144.6798  151.6037 LP  0  0  0  0  0  0  0  0  0  0  0  0  # atno 17343 bound_to 10162
  156.0579  130.3705  150.1048 LP  0  0  0  0  0  0  0  0  0  0  0  0  # atno 17370 bound_to 10713
  156.9220  130.9686  151.3547 LP  0  0  0  0  0  0  0  0  0  0  0  0  # atno 17371 bound_to 10713
  140.0801  134.5743  155.8550 LP  0  0  0  0  0  0  0  0  0  0  0  0  # atno 17394 bound_to 11000
  141.2045  133.6639  156.6123 LP  0  0  0  0  0  0  0  0  0  0  0  0  # atno 17395 bound_to 11000

$$$$
