#       Name:                AV-unprocessed.smi:2855
#       Creating user name   scv26
#       Creation time:       Fri Mar 27 15:44:05 2020


#       File generated by GOLD software.
#

@<TRIPOS>MOLECULE
AV-unprocessed.smi:2855
    53    54     1
SMALL
NO_CHARGES


@<TRIPOS>ATOM
      1 ****        -0.2928  -4.6603   1.8104 C.3            1 S1                 0.0000
      2 ****        -0.7645  -3.2065   1.6647 C.3            1 S1                 0.0000
      3 ****        -0.4242  -2.3738   2.9170 C.3            1 S1                 0.0000
      4 ****        -0.8340  -0.8986   2.7486 C.3            1 S1                 0.0000
      5 ****        -0.1602  -0.2441   1.5160 C.3            1 S1                 0.0000
      6 ****         1.3886  -0.0505   1.6855 C.3            1 S1                 0.0000
      7 ****         1.7637   0.5879   3.0388 C.3            1 S1                 0.0000
      8 ****         2.0356   0.7965   0.5721 C.3            1 S1                 0.0000
      9 ****        -0.6282  -1.0759   0.2816 C.3            1 S1                 0.0000
     10 ****        -0.2462  -0.5169  -1.0117 N.am           1 S1                 0.0000
     11 ****        -0.8234   0.5365  -1.6102 C.2            1 S1                 0.0000
     12 ****        -1.7733   1.1526  -1.1251 O.2            1 S1                 0.0000
     13 ****        -0.2509   0.9301  -2.9785 C.3            1 S1                 0.0000
     14 ****        -0.3143   2.3786  -3.2305 N.am           1 S1                 0.0000
     15 ****        -1.4065   2.8668  -3.9695 C.2            1 S1                 0.0000
     16 ****        -1.5504   4.1774  -4.2437 C.2            1 S1                 0.0000
     17 ****        -0.5358   5.1008  -3.7512 C.2            1 S1                 0.0000
     18 ****        -0.6497   6.3007  -3.9934 O.2            1 S1                 0.0000
     19 ****         0.5040   4.5789  -3.0368 N.pl3          1 S1                -1.0000
     20 ****         0.6376   3.2433  -2.7663 C.2            1 S1                 0.0000
     21 ****         1.5865   2.7940  -2.1230 O.2            1 S1                 0.0000
     22 ****        -0.1945  -2.5510   0.3901 C.3            1 S1                 0.0000
     23 ****         0.7914  -4.7173   1.9114 H              1 S1                 0.0000
     24 ****        -0.5781  -5.2545   0.9419 H              1 S1                 0.0000
     25 ****        -0.7341  -5.1297   2.6901 H              1 S1                 0.0000
     26 ****        -1.8511  -3.2247   1.5683 H              1 S1                 0.0000
     27 ****        -0.9323  -2.7929   3.7862 H              1 S1                 0.0000
     28 ****         0.6428  -2.4398   3.1308 H              1 S1                 0.0000
     29 ****        -1.9175  -0.8499   2.6302 H              1 S1                 0.0000
     30 ****        -0.6361  -0.3404   3.6621 H              1 S1                 0.0000
     31 ****        -0.5915   0.7538   1.4247 H              1 S1                 0.0000
     32 ****         1.8724  -1.0259   1.6637 H              1 S1                 0.0000
     33 ****         1.2363   1.5297   3.1935 H              1 S1                 0.0000
     34 ****         2.8324   0.7961   3.0965 H              1 S1                 0.0000
     35 ****         1.5409  -0.0704   3.8777 H              1 S1                 0.0000
     36 ****         1.5004   1.7355   0.4274 H              1 S1                 0.0000
     37 ****         2.0721   0.2718  -0.3803 H              1 S1                 0.0000
     38 ****         3.0702   1.0440   0.8106 H              1 S1                 0.0000
     39 ****        -1.7204  -1.0810   0.2859 H              1 S1                 0.0000
     40 ****         0.5278  -0.9587  -1.4861 H              1 S1                 0.0000
     41 ****         0.7783   0.5764  -3.0660 H              1 S1                 0.0000
     42 ****        -0.8046   0.3876  -3.7457 H              1 S1                 0.0000
     43 ****        -2.1153   2.1179  -4.2909 H              1 S1                 0.0000
     44 ****        -2.3966   4.5364  -4.8107 H              1 S1                 0.0000
     45 ****         0.8927  -2.6298   0.3760 H              1 S1                 0.0000
     46 ****        -0.5478  -3.1013  -0.4830 H              1 S1                 0.0000
     47 ****        -2.1516   0.8739  -0.2424 LP             1 S1                 0.0000
     48 ****        -2.1661   1.9315  -1.6140 LP             1 S1                 0.0000
     49 ****        -1.4311   6.6321  -4.5222 LP             1 S1                 0.0000
     50 ****         0.0391   6.9453  -3.6616 LP             1 S1                 0.0000
     51 ****         1.2044   5.2045  -2.6932 LP             1 S1                 0.0000
     52 ****         1.6515   1.8116  -1.9479 LP             1 S1                 0.0000
     53 ****         2.2922   3.4115  -1.7756 LP             1 S1                 0.0000
@<TRIPOS>BOND
    1    1    2 1     
    2    1   23 1     
    3    1   24 1     
    4    1   25 1     
    5    2   22 1     
    6    2    3 1     
    7    2   26 1     
    8    3    4 1     
    9    3   27 1     
   10    3   28 1     
   11    4    5 1     
   12    4   29 1     
   13    4   30 1     
   14    5    6 1     
   15    5    9 1     
   16    5   31 1     
   17    6    7 1     
   18    6    8 1     
   19    6   32 1     
   20    7   33 1     
   21    7   34 1     
   22    7   35 1     
   23    8   36 1     
   24    8   37 1     
   25    8   38 1     
   26    9   10 1     
   27    9   22 1     
   28    9   39 1     
   29   10   11 am    
   30   10   40 1     
   31   11   12 2     
   32   11   13 1     
   33   13   14 1     
   34   13   41 1     
   35   13   42 1     
   36   14   20 am    
   37   14   15 1     
   38   15   16 2     
   39   15   43 1     
   40   16   17 1     
   41   16   44 1     
   42   17   18 2     
   43   17   19 1     
   44   19   20 1     
   45   20   21 2     
   46   22   45 1     
   47   22   46 1     
   48   12   47 1     
   49   12   48 1     
   50   18   49 1     
   51   18   50 1     
   52   19   51 1     
   53   21   52 1     
   54   21   53 1     
@<TRIPOS>SUBSTRUCTURE
      1 S1             1
@<TRIPOS>SET
LONE_PAIRS      STATIC     ATOMS    <user>   **** ""
7 47 48 49 50 51 52 53
DONOR_HYDROGENS      STATIC     ATOMS    <user>   **** ""
1 40
ATOM$BLUE        STATIC     ATOMS    COLORGROUP SYSTEM
7 47 48 49 50 51 52 53
ATOM$RED        STATIC     ATOMS    COLORGROUP SYSTEM
1 40
