AV-unprocessed.smi:3058|AV-procd|sdf|11669|dock9
  -GOLD-   2272017 73D 1   1.00000     0.00000
 Structure written by MMmdl.
 38 40  0  0  0  0  0  0  0  0  1 V2000
  150.9669  140.3504  155.2936 O   0  0  0  0  0  0  0  0  0  0  0  0
  150.6987  141.4270  155.8278 C   0  0  0  0  0  0  0  0  0  0  0  0
  149.5742  142.1112  155.5661 N   0  0  0  0  0  0  0  0  0  0  0  0
  148.5351  141.6917  154.6336 C   0  0  0  0  0  0  0  0  0  0  0  0
  147.1851  141.4899  155.3416 C   0  0  0  0  0  0  0  0  0  0  0  0
  146.2073  142.6071  155.0347 C   0  0  0  0  0  0  0  0  0  0  0  0
  146.0901  143.1237  153.7279 C   0  0  0  0  0  0  0  0  0  0  0  0
  145.1659  144.1586  153.4881 C   0  0  0  0  0  0  0  0  0  0  0  0
  144.3973  144.6349  154.5689 C   0  0  0  0  0  0  0  0  0  0  0  0
  144.5009  144.1476  155.8243 N   0  0  0  0  0  0  0  0  0  0  0  0
  145.3889  143.1545  156.0455 C   0  0  0  0  0  0  0  0  0  0  0  0
  151.6583  142.0655  156.8472 C   0  0  2  0  0  0  0  0  0  0  0  0
  151.8556  141.2081  158.1217 C   0  0  0  0  0  0  0  0  0  0  0  0
  151.5015  142.1828  159.2617 C   0  0  1  0  0  0  0  0  0  0  0  0
  152.5811  143.2782  159.3551 C   0  0  0  0  0  0  0  0  0  0  0  0
  152.2997  144.1398  158.1086 C   0  0  0  0  0  0  0  0  0  0  0  0
  151.1272  143.3946  157.4428 C   0  0  2  0  0  0  0  0  0  0  0  0
  150.3285  142.9495  158.6677 C   0  0  0  0  0  0  0  0  0  0  0  0
  149.4281  142.9859  156.0489 H   0  0  0  0  0  0  0  0  0  0  0  0
  148.4418  142.4221  153.8279 H   0  0  0  0  0  0  0  0  0  0  0  0
  148.8544  140.7577  154.1702 H   0  0  0  0  0  0  0  0  0  0  0  0
  146.7460  140.5363  155.0449 H   0  0  0  0  0  0  0  0  0  0  0  0
  147.3257  141.4396  156.4221 H   0  0  0  0  0  0  0  0  0  0  0  0
  146.6956  142.7333  152.9230 H   0  0  0  0  0  0  0  0  0  0  0  0
  145.0490  144.5777  152.4996 H   0  0  0  0  0  0  0  0  0  0  0  0
  143.6798  145.4286  154.4209 H   0  0  0  0  0  0  0  0  0  0  0  0
  145.4458  142.7857  157.0591 H   0  0  0  0  0  0  0  0  0  0  0  0
  152.6193  142.2361  156.3585 H   0  0  0  0  0  0  0  0  0  0  0  0
  151.1901  140.3433  158.1442 H   0  0  0  0  0  0  0  0  0  0  0  0
  152.8762  140.8334  158.2084 H   0  0  0  0  0  0  0  0  0  0  0  0
  151.2956  141.6889  160.2119 H   0  0  0  0  0  0  0  0  0  0  0  0
  152.4612  143.8688  160.2643 H   0  0  0  0  0  0  0  0  0  0  0  0
  153.5897  142.8635  159.3556 H   0  0  0  0  0  0  0  0  0  0  0  0
  152.0006  145.1475  158.4003 H   0  0  0  0  0  0  0  0  0  0  0  0
  153.1683  144.2274  157.4549 H   0  0  0  0  0  0  0  0  0  0  0  0
  150.5690  144.0101  156.7360 H   0  0  0  0  0  0  0  0  0  0  0  0
  149.4698  142.3173  158.4404 H   0  0  0  0  0  0  0  0  0  0  0  0
  149.9960  143.7809  159.2920 H   0  0  0  0  0  0  0  0  0  0  0  0
  1  2  2  0  0  0  0
  2  3  1  0  0  0  0
  2 12  1  0  0  0  0
  3  4  1  0  0  0  0
  3 19  1  0  0  0  0
  4  5  1  0  0  0  0
  4 20  1  0  0  0  0
  4 21  1  0  0  0  0
  5  6  1  0  0  0  0
  5 22  1  0  0  0  0
  5 23  1  0  0  0  0
  6 11  1  0  0  0  0
  6  7  2  0  0  0  0
  7  8  1  0  0  0  0
  7 24  1  0  0  0  0
  8  9  2  0  0  0  0
  8 25  1  0  0  0  0
  9 10  1  0  0  0  0
  9 26  1  0  0  0  0
 10 11  2  0  0  0  0
 11 27  1  0  0  0  0
 12 17  1  0  0  0  0
 12 13  1  0  0  0  0
 12 28  1  0  0  0  0
 13 14  1  0  0  0  0
 13 29  1  0  0  0  0
 13 30  1  0  0  0  0
 14 18  1  0  0  0  0
 14 15  1  0  0  0  0
 14 31  1  0  0  0  0
 15 16  1  0  0  0  0
 15 32  1  0  0  0  0
 15 33  1  0  0  0  0
 16 17  1  0  0  0  0
 16 34  1  0  0  0  0
 16 35  1  0  0  0  0
 17 18  1  0  0  0  0
 17 36  1  0  0  0  0
 18 37  1  0  0  0  0
 18 38  1  0  0  0  0
M  END
> <s_m_source_file>
AV-unprocessed.smi

> <i_m_source_file_index>
3058

> <i_lp_mmshare_version>
43012

> <i_f3d_flags>
0

> <s_epik_input>
W0NIMl0xW0NIMl1bQ0BIXShbQ0gyXTIpW0NAQEhdKFtDSDJdW0NAQEhdMTIpQyg9TylbTkhdW0NIMl1bQ0gyXWMzW2NIXVtjSF1bY0hdbltjSF0z

> <s_epik_cmdline>
J2VwaWtfcHl0aG9uJywgJy1waCcsICc3LjAnLCAnLXRuJywgJzgnLCAnLW1hJywgJzIwMCcsICctbWV0YWxfYmluZGluZycsICctaW1hZScsICc8aW5maWxlLm1hZT4nLCAnLW9tYWUnLCAnPG91dGZpbGUubWFlPic=

> <r_epik_Ionization_Penalty>
0.0135821

> <r_epik_Ionization_Penalty_Charging>
0

> <r_epik_Ionization_Penalty_Neutral>
0.0135821

> <r_epik_State_Penalty>
0.0105782

> <r_epik_Charging_Adjusted_Penalty>
0.0105782

> <i_epik_Tot_Q>
0

> <i_epik_Tot_abs_Q>
0

> <r_epik_Metal_State_Penalty>
0.0103407

> <b_epik_Metal_Only>
0

> <s_lp_Force_Field>
OPLS_2005

> <r_lp_Energy>
46.4183

> <b_lp_Chiralities_Consistent>
1

> <s_lp_Variant>
AV-unprocessed.smi:3058-1

> <Gold.Version>
5.8.1

> <Gold.Id.Protein>
6NUR|6NUR_protein|mol2

> <Gold.PLP.Fitness>
42.0037

> <Gold.PLP.PLP>
-37.8090

> <Gold.PLP.part.hbond>
-2.0000

> <Gold.PLP.part.metal>
0.0000

> <Gold.PLP.part.buried>
-5.1592

> <Gold.PLP.part.nonpolar>
-30.7460

> <Gold.PLP.part.repulsive>
0.3158

> <Gold.PLP.ligand.clash>
0.0000

> <Gold.PLP.ligand.torsion>
0.5931

> <Gold.PLP.Chemscore.Hbond>
1.7840

> <Gold.PLP.Chemscore.CHOScore>
0.0000

> <Gold.PLP.Chemscore.Metal>
0.0000

> <Gold.Chemscore.Hbonds>
donor molecule, donor type, donor heavy atom, donor atom, acceptor molecule, acceptor atom, score
      L1  H     3    19       P1  8028  0.77
      P1  H  7989  7998       L1     1  1.00

> <Gold.PLP.Chemscore.Internal.Correction>
0.0289

> <Gold.Rescore>
     Score         DG    S(hbond)    S(metal)    S(lipo)     H(rot)  DE(clash)    DE(int)     intcor
     17.68     -19.88       1.43        0.00     112.02       1.37       1.72       0.48       ----

> <Gold.Chemscore.Fitness>
17.6769

> <Gold.Chemscore.DG>
-19.8786

> <Gold.Chemscore.ZeroCoef>
-5.4800

> <Gold.Chemscore.Hbond>
1.4334

> <Gold.Chemscore.Metal>
0.0000

> <Gold.Chemscore.Lipo>
112.0194

> <Gold.Chemscore.Internal_Hbond>
0.0000

> <Gold.Chemscore.DEClash>
1.7247

> <Gold.Chemscore.DEInternal>
0.4770

> <Gold.Chemscore.Rot>
1.3653

> <Gold.Chemscore.Internal.Correction>
   9.000000E+99

> <Gold.Chemscore.Hbonds>
donor molecule, donor type, donor heavy atom, donor atom, acceptor molecule, acceptor atom, score
      L1  H     3    19       P1  8028  0.78
      P1  H  7989  7998       L1     1  0.37

> <Gold.Chemscore.Hbond.Weighted>
-4.7874

> <Gold.Chemscore.Metal.Weighted>
-0.0000

> <Gold.Chemscore.Lipo.Weighted>
-13.1063

> <Gold.Chemscore.Internal_Hbond.Weighted>
0.0000

> <Gold.Chemscore.DEClash.Weighted>
1.7247

> <Gold.Chemscore.DEInternal.Weighted>
0.4770

> <Gold.Chemscore.Rot.Weighted>
3.4951

> <Gold.Chemscore.Internal.Correction.Weighted>
   9.000000E+99

> <Gold.Protein.RotatedTorsions>
[ 6907 6896 6895 6894 ] final -148.90 input  -60.11 | X-H torsion
[ 7974 7965 7964 7962 ] final -107.80 input  175.53 | X-H torsion
[ 8008 7997 7996 7995 ] final  -97.55 input   59.86 | X-H torsion
[ 10167 10162 10161 10158 ] final -117.61 input  -65.29 | X-H torsion
[ 10718 10713 10712 10709 ] final  -87.15 input   66.30 | X-H torsion
[ 10763 10752 10751 10750 ] final -173.78 input  -60.55 | X-H torsion
[ 11005 11000 10999 10996 ] final -163.76 input  -57.11 | X-H torsion

> <Gold.Protein.ActiveResidues>
 VAL166  LYS551  ARG553  GLY616  TRP617  ASP618  TYR619  PRO620  LYS621  CYS622 
 ASP623  PHE694  ASN695  SER759  ASP760  ASP761  ALA762  ILE779  LEU786  VAL792 
 PHE793  MET794  SER795  GLU796  ALA797  LYS798  CYS799  TRP800  GLU811  SER814 

> <Gold.Protein.RotatedAtoms>
  151.1765  133.4751  159.2593 H   0  0  0  0  0  0  0  0  0  0  0  0  # atno 6907 bound_to 6896
  151.1303  135.0126  159.8589 H   0  0  0  0  0  0  0  0  0  0  0  0  # atno 6908 bound_to 6896
  152.5459  134.1668  159.8633 H   0  0  0  0  0  0  0  0  0  0  0  0  # atno 6909 bound_to 6896
  145.2008  140.9055  143.3370 H   0  0  0  0  0  0  0  0  0  0  0  0  # atno 7974 bound_to 7965
  154.7892  140.0462  157.1188 H   0  0  0  0  0  0  0  0  0  0  0  0  # atno 8008 bound_to 7997
  154.9611  140.3077  155.5011 H   0  0  0  0  0  0  0  0  0  0  0  0  # atno 8009 bound_to 7997
  156.2947  140.2270  156.4696 H   0  0  0  0  0  0  0  0  0  0  0  0  # atno 8010 bound_to 7997
  140.0665  143.4918  152.2003 H   0  0  0  0  0  0  0  0  0  0  0  0  # atno 10167 bound_to 10162
  155.9986  130.4790  150.4823 H   0  0  0  0  0  0  0  0  0  0  0  0  # atno 10718 bound_to 10713
  154.6039  135.2857  155.0505 H   0  0  0  0  0  0  0  0  0  0  0  0  # atno 10763 bound_to 10752
  154.1760  135.6464  153.5025 H   0  0  0  0  0  0  0  0  0  0  0  0  # atno 10764 bound_to 10752
  153.0168  135.5412  154.6768 H   0  0  0  0  0  0  0  0  0  0  0  0  # atno 10765 bound_to 10752
  140.5945  134.5011  157.5197 H   0  0  0  0  0  0  0  0  0  0  0  0  # atno 11005 bound_to 11000
  144.9949  139.3653  143.6196 LP  0  0  0  0  0  0  0  0  0  0  0  0  # atno 17320 bound_to 7965
  146.3418  139.9148  142.8775 LP  0  0  0  0  0  0  0  0  0  0  0  0  # atno 17321 bound_to 7965
  139.5862  144.7532  151.3515 LP  0  0  0  0  0  0  0  0  0  0  0  0  # atno 17342 bound_to 10162
  140.7147  143.7299  150.7632 LP  0  0  0  0  0  0  0  0  0  0  0  0  # atno 17343 bound_to 10162
  157.2827  131.0610  151.2187 LP  0  0  0  0  0  0  0  0  0  0  0  0  # atno 17370 bound_to 10713
  157.3227  130.6945  149.6278 LP  0  0  0  0  0  0  0  0  0  0  0  0  # atno 17371 bound_to 10713
  139.9259  134.8056  156.1070 LP  0  0  0  0  0  0  0  0  0  0  0  0  # atno 17394 bound_to 11000
  141.0913  133.6713  156.2547 LP  0  0  0  0  0  0  0  0  0  0  0  0  # atno 17395 bound_to 11000

$$$$
