AV-unprocessed.smi:598|AV-procd|sdf|3026|dock5
  -GOLD-   2262023533D 1   1.00000     0.00000
 Structure written by MMmdl.
 43 44  0  0  0  0  0  0  0  0  3 V2000
  141.6786  134.9542  153.5570 C   0  0  0  0  0  0  0  0  0  0  0  0
  143.2099  134.8407  153.4420 C   0  0  1  0  0  0  0  0  0  0  0  0
  143.5698  133.9538  152.2333 C   0  0  0  0  0  0  0  0  0  0  0  0
  145.0845  133.7761  152.0872 C   0  0  0  0  0  0  0  0  0  0  0  0
  145.7760  135.1362  151.9587 C   0  0  0  0  0  0  0  0  0  0  0  0
  145.4519  136.0465  153.1590 C   0  0  1  0  0  0  0  0  0  0  0  0
  146.0982  137.3437  152.9662 N   0  0  0  0  0  0  0  0  0  0  0  0
  146.9171  137.9442  153.8432 C   0  0  0  0  0  0  0  0  0  0  0  0
  147.2320  137.4449  154.9245 O   0  0  0  0  0  0  0  0  0  0  0  0
  147.4755  139.3079  153.4125 C   0  0  0  0  0  0  0  0  0  0  0  0
  148.6372  139.7386  154.2083 N   0  0  0  0  0  0  0  0  0  0  0  0
  149.7665  138.8961  154.1996 C   0  0  0  0  0  0  0  0  0  0  0  0
  150.8818  139.1865  154.8976 C   0  0  0  0  0  0  0  0  0  0  0  0
  152.0290  138.3055  154.8839 N   0  3  0  0  0  0  0  0  0  0  0  0
  153.0980  138.7243  155.3165 O   0  0  0  0  0  0  0  0  0  0  0  0
  151.9007  137.1678  154.4417 O   0  5  0  0  0  0  0  0  0  0  0  0
  150.8926  140.4130  155.6713 C   0  0  0  0  0  0  0  0  0  0  0  0
  149.8139  141.2205  155.6877 C   0  0  0  0  0  0  0  0  0  0  0  0
  148.5986  140.8991  154.9321 C   0  0  0  0  0  0  0  0  0  0  0  0
  147.6069  141.6287  154.9492 O   0  0  0  0  0  0  0  0  0  0  0  0
  143.9213  136.2215  153.3569 C   0  0  2  0  0  0  0  0  0  0  0  0
  143.6196  137.1030  154.5891 C   0  0  0  0  0  0  0  0  0  0  0  0
  141.2606  135.5334  152.7332 H   0  0  0  0  0  0  0  0  0  0  0  0
  141.3735  135.4258  154.4904 H   0  0  0  0  0  0  0  0  0  0  0  0
  141.2115  133.9691  153.5378 H   0  0  0  0  0  0  0  0  0  0  0  0
  143.5677  134.3324  154.3386 H   0  0  0  0  0  0  0  0  0  0  0  0
  143.1028  132.9737  152.3370 H   0  0  0  0  0  0  0  0  0  0  0  0
  143.1657  134.3913  151.3194 H   0  0  0  0  0  0  0  0  0  0  0  0
  145.4802  133.2399  152.9505 H   0  0  0  0  0  0  0  0  0  0  0  0
  145.3040  133.1631  151.2126 H   0  0  0  0  0  0  0  0  0  0  0  0
  146.8537  134.9879  151.8779 H   0  0  0  0  0  0  0  0  0  0  0  0
  145.4606  135.6174  151.0317 H   0  0  0  0  0  0  0  0  0  0  0  0
  145.8524  135.5805  154.0618 H   0  0  0  0  0  0  0  0  0  0  0  0
  145.8990  137.8241  152.1007 H   0  0  0  0  0  0  0  0  0  0  0  0
  147.7384  139.2484  152.3554 H   0  0  0  0  0  0  0  0  0  0  0  0
  146.6825  140.0562  153.4661 H   0  0  0  0  0  0  0  0  0  0  0  0
  149.6553  138.0045  153.5993 H   0  0  0  0  0  0  0  0  0  0  0  0
  151.7648  140.6922  156.2440 H   0  0  0  0  0  0  0  0  0  0  0  0
  149.8433  142.1284  156.2724 H   0  0  0  0  0  0  0  0  0  0  0  0
  143.5311  136.7411  152.4801 H   0  0  0  0  0  0  0  0  0  0  0  0
  143.9371  136.6143  155.5106 H   0  0  0  0  0  0  0  0  0  0  0  0
  142.5573  137.3265  154.6774 H   0  0  0  0  0  0  0  0  0  0  0  0
  144.1275  138.0659  154.5362 H   0  0  0  0  0  0  0  0  0  0  0  0
  1  2  1  0  0  0  0
  1 23  1  0  0  0  0
  1 24  1  0  0  0  0
  1 25  1  0  0  0  0
  2 21  1  0  0  0  0
  2  3  1  0  0  0  0
  2 26  1  0  0  0  0
  3  4  1  0  0  0  0
  3 27  1  0  0  0  0
  3 28  1  0  0  0  0
  4  5  1  0  0  0  0
  4 29  1  0  0  0  0
  4 30  1  0  0  0  0
  5  6  1  0  0  0  0
  5 31  1  0  0  0  0
  5 32  1  0  0  0  0
  6  7  1  0  0  0  0
  6 21  1  0  0  0  0
  6 33  1  0  0  0  0
  7  8  1  0  0  0  0
  7 34  1  0  0  0  0
  8  9  2  0  0  0  0
  8 10  1  0  0  0  0
 10 11  1  0  0  0  0
 10 35  1  0  0  0  0
 10 36  1  0  0  0  0
 11 19  1  0  0  0  0
 11 12  1  0  0  0  0
 12 13  2  0  0  0  0
 12 37  1  0  0  0  0
 13 14  1  0  0  0  0
 13 17  1  0  0  0  0
 14 15  2  0  0  0  0
 14 16  1  0  0  0  0
 17 18  2  0  0  0  0
 17 38  1  0  0  0  0
 18 19  1  0  0  0  0
 18 39  1  0  0  0  0
 19 20  2  0  0  0  0
 21 22  1  0  0  0  0
 21 40  1  0  0  0  0
 22 41  1  0  0  0  0
 22 42  1  0  0  0  0
 22 43  1  0  0  0  0
M  CHG  1  14   1
M  CHG  1  16  -1
M  END
> <s_m_source_file>
AV-unprocessed.smi

> <i_m_source_file_index>
598

> <i_lp_mmshare_version>
43012

> <i_f3d_flags>
0

> <s_epik_input>
W0NIM11bQ0BASF0xW0NIMl1bQ0gyXVtDSDJdW0NASF0oW0NASF0xW0NIM10pW05IXUMoPU8pW0NIMl1uMltjSF1jKFtOK10oPU8pW08tXSlbY0hdW2NIXWMyPU8=

> <s_epik_cmdline>
J2VwaWtfcHl0aG9uJywgJy1waCcsICc3LjAnLCAnLXRuJywgJzgnLCAnLW1hJywgJzIwMCcsICctbWV0YWxfYmluZGluZycsICctaW1hZScsICc8aW5maWxlLm1hZT4nLCAnLW9tYWUnLCAnPG91dGZpbGUubWFlPic=

> <r_lp_tautomer_probability>
1

> <r_epik_Ionization_Penalty>
1.91291e-08

> <r_epik_Ionization_Penalty_Charging>
8.21931e-11

> <r_epik_Ionization_Penalty_Neutral>
1.90469e-08

> <r_epik_State_Penalty>
-0

> <r_epik_Charging_Adjusted_Penalty>
8.21931e-11

> <i_epik_Tot_Q>
0

> <i_epik_Tot_abs_Q>
2

> <r_epik_Metal_State_Penalty>
-0

> <b_epik_Metal_Only>
0

> <s_lp_Force_Field>
OPLS_2005

> <r_lp_Energy>
23.592

> <b_lp_Chiralities_Consistent>
1

> <s_lp_Variant>
AV-unprocessed.smi:598-6

> <Gold.Version>
5.8.1

> <Gold.Id.Protein>
6NUR|6NUR_protein|mol2

> <Gold.PLP.Fitness>
45.1021

> <Gold.PLP.PLP>
-36.8739

> <Gold.PLP.part.hbond>
-2.6398

> <Gold.PLP.part.metal>
0.0000

> <Gold.PLP.part.buried>
-1.9117

> <Gold.PLP.part.nonpolar>
-32.0951

> <Gold.PLP.part.repulsive>
0.3757

> <Gold.PLP.ligand.clash>
0.0000

> <Gold.PLP.ligand.torsion>
0.3542

> <Gold.PLP.Chemscore.Hbond>
1.9760

> <Gold.PLP.Chemscore.CHOScore>
1.0000

> <Gold.PLP.Chemscore.Metal>
0.0000

> <Gold.Chemscore.Hbonds>
donor molecule, donor type, donor heavy atom, donor atom, acceptor molecule, acceptor atom, score
      P1  H  7997  8009       L1    15  0.91
      P1  H 10752 10763       L1    16  0.99
      L1  C    12    37       P1  7948  0.96

> <Gold.PLP.Chemscore.Internal.Correction>
0.0086

> <Gold.Rescore>
     Score         DG    S(hbond)    S(metal)    S(lipo)     H(rot)  DE(clash)    DE(int)     intcor
     15.03     -15.88       1.87        0.00      69.19       1.54       0.07       0.78       ----

> <Gold.Chemscore.Fitness>
15.0294

> <Gold.Chemscore.DG>
-15.8764

> <Gold.Chemscore.ZeroCoef>
-5.4800

> <Gold.Chemscore.Hbond>
1.8688

> <Gold.Chemscore.Metal>
0.0000

> <Gold.Chemscore.Lipo>
69.1916

> <Gold.Chemscore.Internal_Hbond>
0.0000

> <Gold.Chemscore.DEClash>
0.0694

> <Gold.Chemscore.DEInternal>
0.7776

> <Gold.Chemscore.Rot>
1.5393

> <Gold.Chemscore.Internal.Correction>
   9.000000E+99

> <Gold.Chemscore.Hbonds>
donor molecule, donor type, donor heavy atom, donor atom, acceptor molecule, acceptor atom, score
      P1  H  7997  8009       L1    15  0.86
      P1  H 10752 10763       L1    16  0.94

> <Gold.Chemscore.Hbond.Weighted>
-6.2417

> <Gold.Chemscore.Metal.Weighted>
-0.0000

> <Gold.Chemscore.Lipo.Weighted>
-8.0954

> <Gold.Chemscore.Internal_Hbond.Weighted>
0.0000

> <Gold.Chemscore.DEClash.Weighted>
0.0694

> <Gold.Chemscore.DEInternal.Weighted>
0.7776

> <Gold.Chemscore.Rot.Weighted>
3.9407

> <Gold.Chemscore.Internal.Correction.Weighted>
   9.000000E+99

> <Gold.Protein.RotatedTorsions>
[ 6907 6896 6895 6894 ] final  128.97 input  -60.11 | X-H torsion
[ 7974 7965 7964 7962 ] final -124.62 input  175.53 | X-H torsion
[ 8008 7997 7996 7995 ] final -137.94 input   59.86 | X-H torsion
[ 10167 10162 10161 10158 ] final -107.23 input  -65.29 | X-H torsion
[ 10718 10713 10712 10709 ] final   36.37 input   66.30 | X-H torsion
[ 10763 10752 10751 10750 ] final   37.31 input  -60.55 | X-H torsion
[ 11005 11000 10999 10996 ] final   17.02 input  -57.11 | X-H torsion

> <Gold.Protein.ActiveResidues>
 VAL166  LYS551  ARG553  GLY616  TRP617  ASP618  TYR619  PRO620  LYS621  CYS622 
 ASP623  PHE694  ASN695  SER759  ASP760  ASP761  ALA762  ILE779  LEU786  VAL792 
 PHE793  MET794  SER795  GLU796  ALA797  LYS798  CYS799  TRP800  GLU811  SER814 

> <Gold.Protein.RotatedAtoms>
  152.3669  133.6368  159.6056 H   0  0  0  0  0  0  0  0  0  0  0  0  # atno 6907 bound_to 6896
  150.7640  133.9334  159.3443 H   0  0  0  0  0  0  0  0  0  0  0  0  # atno 6908 bound_to 6896
  151.7163  135.0904  160.0327 H   0  0  0  0  0  0  0  0  0  0  0  0  # atno 6909 bound_to 6896
  145.0061  140.7864  143.4467 H   0  0  0  0  0  0  0  0  0  0  0  0  # atno 7974 bound_to 7965
  155.4202  140.0518  157.3026 H   0  0  0  0  0  0  0  0  0  0  0  0  # atno 8008 bound_to 7997
  154.4906  140.2118  155.9516 H   0  0  0  0  0  0  0  0  0  0  0  0  # atno 8009 bound_to 7997
  156.1337  140.3167  155.8392 H   0  0  0  0  0  0  0  0  0  0  0  0  # atno 8010 bound_to 7997
  140.1792  143.3980  152.1294 H   0  0  0  0  0  0  0  0  0  0  0  0  # atno 10167 bound_to 10162
  157.3340  130.7513  149.6866 H   0  0  0  0  0  0  0  0  0  0  0  0  # atno 10718 bound_to 10713
  153.0042  135.6281  154.2125 H   0  0  0  0  0  0  0  0  0  0  0  0  # atno 10763 bound_to 10752
  154.1868  135.2810  155.3036 H   0  0  0  0  0  0  0  0  0  0  0  0  # atno 10764 bound_to 10752
  154.5791  135.5653  153.7227 H   0  0  0  0  0  0  0  0  0  0  0  0  # atno 10765 bound_to 10752
  140.4406  134.1326  155.7690 H   0  0  0  0  0  0  0  0  0  0  0  0  # atno 11005 bound_to 11000
  145.2086  139.2216  143.5155 LP  0  0  0  0  0  0  0  0  0  0  0  0  # atno 17320 bound_to 7965
  146.3461  140.1920  142.8589 LP  0  0  0  0  0  0  0  0  0  0  0  0  # atno 17321 bound_to 7965
  139.5303  144.7152  151.5078 LP  0  0  0  0  0  0  0  0  0  0  0  0  # atno 17342 bound_to 10162
  140.6531  143.8656  150.6806 LP  0  0  0  0  0  0  0  0  0  0  0  0  # atno 17343 bound_to 10162
  155.9699  130.4187  150.4339 LP  0  0  0  0  0  0  0  0  0  0  0  0  # atno 17370 bound_to 10713
  157.2376  131.0518  151.2455 LP  0  0  0  0  0  0  0  0  0  0  0  0  # atno 17371 bound_to 10713
  141.1707  133.8614  157.1579 LP  0  0  0  0  0  0  0  0  0  0  0  0  # atno 17394 bound_to 11000
  140.0072  135.0003  157.0319 LP  0  0  0  0  0  0  0  0  0  0  0  0  # atno 17395 bound_to 11000

$$$$
