#       Name:                AV-unprocessed.smi:2437
#       Creating user name   scv26
#       Creation time:       Fri Mar 27 13:22:46 2020


#       File generated by GOLD software.
#

@<TRIPOS>MOLECULE
AV-unprocessed.smi:2437
    40    41     1
SMALL
NO_CHARGES


@<TRIPOS>ATOM
      1 ****        -0.7170   0.9799  -0.3377 O.2            1 S1                 0.0000
      2 ****        -0.0495  -0.0556  -0.3353 C.2            1 S1                 0.0000
      3 ****         1.4815  -0.0120  -0.2222 C.3            1 S1                 0.0000
      4 ****         2.0441   1.3409  -0.3721 N.am           1 S1                 0.0000
      5 ****         2.3283   2.0500   0.8117 C.2            1 S1                 0.0000
      6 ****         2.8373   3.2975   0.7945 C.2            1 S1                 0.0000
      7 ****         3.1232   4.0107   2.0201 N.pl3          1 S1                 1.0000
      8 ****         3.5763   5.1484   1.9467 O.2            1 S1                 0.0000
      9 ****         2.9068   3.4587   3.0949 O.2            1 S1                -1.0000
     10 ****         3.0885   3.9054  -0.4978 C.2            1 S1                 0.0000
     11 ****         2.8172   3.2333  -1.6338 C.2            1 S1                 0.0000
     12 ****         2.2643   1.8751  -1.6126 C.2            1 S1                 0.0000
     13 ****         2.0134   1.2561  -2.6467 O.2            1 S1                 0.0000
     14 ****        -0.5938  -1.2790  -0.4149 N.am           1 S1                 0.0000
     15 ****        -2.0223  -1.5586  -0.5369 C.3            1 S1                 0.0000
     16 ****        -2.7420  -1.4565   0.8236 C.3            1 S1                 0.0000
     17 ****        -3.1029  -2.8887   1.2186 C.3            1 S1                 0.0000
     18 ****        -3.3171  -3.5994  -0.1136 C.3            1 S1                 0.0000
     19 ****        -2.2579  -2.9967  -1.0381 C.3            1 S1                 0.0000
     20 ****         1.7640  -0.4372   0.7419 H              1 S1                 0.0000
     21 ****         1.9131  -0.6845  -0.9660 H              1 S1                 0.0000
     22 ****         2.0994   1.5137   1.7213 H              1 S1                 0.0000
     23 ****         3.4936   4.9045  -0.5642 H              1 S1                 0.0000
     24 ****         3.0102   3.7059  -2.5857 H              1 S1                 0.0000
     25 ****         0.0261  -2.0759  -0.3970 H              1 S1                 0.0000
     26 ****        -2.4709  -0.8531  -1.2390 H              1 S1                 0.0000
     27 ****        -2.1530  -0.9576   1.5943 H              1 S1                 0.0000
     28 ****        -3.6580  -0.8776   0.6992 H              1 S1                 0.0000
     29 ****        -2.2670  -3.3462   1.7497 H              1 S1                 0.0000
     30 ****        -3.9779  -2.9381   1.8671 H              1 S1                 0.0000
     31 ****        -3.2354  -4.6835  -0.0301 H              1 S1                 0.0000
     32 ****        -4.3125  -3.3683  -0.4954 H              1 S1                 0.0000
     33 ****        -2.5674  -3.0232  -2.0834 H              1 S1                 0.0000
     34 ****        -1.3433  -3.5870  -0.9595 H              1 S1                 0.0000
     35 ****        -0.2627   1.8678  -0.2653 LP             1 S1                 0.0000
     36 ****        -1.7131   0.9325  -0.4122 LP             1 S1                 0.0000
     37 ****         3.7407   5.5643   1.0523 LP             1 S1                 0.0000
     38 ****         3.7813   5.6597   2.7812 LP             1 S1                 0.0000
     39 ****         1.6359   0.3314  -2.5969 LP             1 S1                 0.0000
     40 ****         2.1871   1.6779  -3.5366 LP             1 S1                 0.0000
@<TRIPOS>BOND
    1    1    2 2     
    2    2    3 1     
    3    2   14 am    
    4    3    4 1     
    5    3   20 1     
    6    3   21 1     
    7    4   12 am    
    8    4    5 1     
    9    5    6 2     
   10    5   22 1     
   11    6    7 1     
   12    6   10 1     
   13    7    8 2     
   14    7    9 1     
   15   10   11 2     
   16   10   23 1     
   17   11   12 1     
   18   11   24 1     
   19   12   13 2     
   20   14   15 1     
   21   14   25 1     
   22   15   19 1     
   23   15   16 1     
   24   15   26 1     
   25   16   17 1     
   26   16   27 1     
   27   16   28 1     
   28   17   18 1     
   29   17   29 1     
   30   17   30 1     
   31   18   19 1     
   32   18   31 1     
   33   18   32 1     
   34   19   33 1     
   35   19   34 1     
   36    1   35 1     
   37    1   36 1     
   38    8   37 1     
   39    8   38 1     
   40   13   39 1     
   41   13   40 1     
@<TRIPOS>SUBSTRUCTURE
      1 S1             1
@<TRIPOS>SET
LONE_PAIRS      STATIC     ATOMS    <user>   **** ""
7 35 36 37 38 9 39 40
DONOR_HYDROGENS      STATIC     ATOMS    <user>   **** ""
1 25
ATOM$BLUE        STATIC     ATOMS    COLORGROUP SYSTEM
7 35 36 37 38 9 39 40
ATOM$RED        STATIC     ATOMS    COLORGROUP SYSTEM
1 25
