#       Name:                AV-unprocessed.smi:1222
#       Creating user name   scv26
#       Creation time:       Fri Mar 27 04:18:16 2020


#       File generated by GOLD software.
#

@<TRIPOS>MOLECULE
AV-unprocessed.smi:1222
    40    42     1
SMALL
NO_CHARGES


@<TRIPOS>ATOM
      1 ****        -1.6169   2.2899   1.3980 O.2            1 S1                 0.0000
      2 ****        -2.0968   1.4585   0.6241 C.2            1 S1                 0.0000
      3 ****        -3.3790   1.4080   0.1987 N.pl3          1 S1                -1.0000
      4 ****        -4.2669   2.3157   0.6360 C.2            1 S1                 0.0000
      5 ****        -4.5914   3.4136  -0.0568 N.2            1 S1                 0.0000
      6 ****        -5.5368   4.2154   0.5853 C.2            1 S1                 0.0000
      7 ****        -5.9506   3.7102   1.7893 C.2            1 S1                 0.0000
      8 ****        -5.1568   2.2057   2.1571 S.3            1 S1                 0.0000
      9 ****        -1.3275   0.4828   0.1196 N.am           1 S1                 0.0000
     10 ****         0.0934   0.2675   0.3807 C.3            1 S1                 0.0000
     11 ****         0.9021   0.4848  -0.9088 C.3            1 S1                 0.0000
     12 ****         2.3900   0.1499  -0.6953 C.3            1 S1                 0.0000
     13 ****         2.5846  -1.2242  -0.1646 N.4            1 S1                 1.0000
     14 ****         2.3793  -2.2815  -1.1821 C.3            1 S1                 0.0000
     15 ****         3.2438  -3.5025  -0.9699 C.3            1 S1                 0.0000
     16 ****         3.5833  -2.5157  -2.0645 C.3            1 S1                 0.0000
     17 ****         1.8173  -1.4553   1.0864 C.3            1 S1                 0.0000
     18 ****         0.3167  -1.1585   0.9092 C.3            1 S1                 0.0000
     19 ****        -5.8611   5.1295   0.1107 H              1 S1                 0.0000
     20 ****        -6.6689   4.1276   2.4785 H              1 S1                 0.0000
     21 ****        -1.7760  -0.1684  -0.5082 H              1 S1                 0.0000
     22 ****         0.4584   0.9669   1.1348 H              1 S1                 0.0000
     23 ****         0.4962  -0.1302  -1.7131 H              1 S1                 0.0000
     24 ****         0.8035   1.5199  -1.2381 H              1 S1                 0.0000
     25 ****         2.9451   0.2728  -1.6261 H              1 S1                 0.0000
     26 ****         2.8222   0.8564   0.0147 H              1 S1                 0.0000
     27 ****         1.3745  -2.3854  -1.5874 H              1 S1                 0.0000
     28 ****         3.8947  -3.5287  -0.0977 H              1 S1                 0.0000
     29 ****         2.8379  -4.4647  -1.2755 H              1 S1                 0.0000
     30 ****         3.3992  -2.8267  -3.0907 H              1 S1                 0.0000
     31 ****         4.4606  -1.8877  -1.9195 H              1 S1                 0.0000
     32 ****         1.9647  -2.4795   1.4305 H              1 S1                 0.0000
     33 ****         2.2254  -0.8083   1.8640 H              1 S1                 0.0000
     34 ****        -0.1967  -1.2850   1.8632 H              1 S1                 0.0000
     35 ****        -0.1266  -1.8843   0.2264 H              1 S1                 0.0000
     36 ****         3.5598  -1.2887   0.0903 H              1 S1                 0.0000
     37 ****        -2.1939   3.0156   1.7728 LP             1 S1                 0.0000
     38 ****        -0.6508   2.2384   1.6508 LP             1 S1                 0.0000
     39 ****        -3.6661   0.6952  -0.4412 LP             1 S1                 0.0000
     40 ****        -4.1955   3.6378  -0.9473 LP             1 S1                 0.0000
@<TRIPOS>BOND
    1    1    2 2     
    2    2    3 1     
    3    2    9 am    
    4    3    4 1     
    5    4    8 1     
    6    4    5 2     
    7    5    6 1     
    8    6    7 2     
    9    6   19 1     
   10    7    8 1     
   11    7   20 1     
   12    9   10 1     
   13    9   21 1     
   14   10   18 1     
   15   10   11 1     
   16   10   22 1     
   17   11   12 1     
   18   11   23 1     
   19   11   24 1     
   20   12   13 1     
   21   12   25 1     
   22   12   26 1     
   23   13   14 1     
   24   13   17 1     
   25   13   36 1     
   26   14   16 1     
   27   14   15 1     
   28   14   27 1     
   29   15   16 1     
   30   15   28 1     
   31   15   29 1     
   32   16   30 1     
   33   16   31 1     
   34   17   18 1     
   35   17   32 1     
   36   17   33 1     
   37   18   34 1     
   38   18   35 1     
   39    1   37 1     
   40    1   38 1     
   41    3   39 1     
   42    5   40 1     
@<TRIPOS>SUBSTRUCTURE
      1 S1             1
@<TRIPOS>SET
LONE_PAIRS      STATIC     ATOMS    <user>   **** ""
4 37 38 39 40
DONOR_HYDROGENS      STATIC     ATOMS    <user>   **** ""
2 21 36
ATOM$BLUE        STATIC     ATOMS    COLORGROUP SYSTEM
4 37 38 39 40
ATOM$RED        STATIC     ATOMS    COLORGROUP SYSTEM
2 21 36
