AV-unprocessed.smi:1669|AV-procd|sdf|6684|dock4
  -GOLD-   22720 7403D 1   1.00000     0.00000
 Structure written by MMmdl.
 48 50  0  0  0  0  0  0  0  0  2 V2000
  150.6187  141.5099  155.8650 C   0  0  0  0  0  0  0  0  0  0  0  0
  149.4666  142.0947  156.5962 N   0  3  2  0  0  0  0  0  0  0  0  0
  149.5985  141.9734  158.0710 C   0  0  0  0  0  0  0  0  0  0  0  0
  150.9304  142.4955  158.5825 C   0  0  0  0  0  0  0  0  0  0  0  0
  151.2759  143.8534  158.4138 C   0  0  0  0  0  0  0  0  0  0  0  0
  152.5095  144.3347  158.8938 C   0  0  0  0  0  0  0  0  0  0  0  0
  153.4032  143.4603  159.5417 C   0  0  0  0  0  0  0  0  0  0  0  0
  153.0636  142.1038  159.7085 C   0  0  0  0  0  0  0  0  0  0  0  0
  151.8302  141.6215  159.2286 C   0  0  0  0  0  0  0  0  0  0  0  0
  148.1625  141.5782  156.1066 C   0  0  0  0  0  0  0  0  0  0  0  0
  148.0624  141.6019  154.5652 C   0  0  2  0  0  0  0  0  0  0  0  0
  148.2002  142.9374  154.1253 O   0  0  0  0  0  0  0  0  0  0  0  0
  146.7251  141.0590  154.0214 C   0  0  0  0  0  0  0  0  0  0  0  0
  146.6684  139.6033  154.0348 N   0  0  0  0  0  0  0  0  0  0  0  0
  146.7070  138.7449  152.9831 C   0  0  0  0  0  0  0  0  0  0  0  0
  146.8309  139.2365  151.5681 C   0  0  0  0  0  0  0  0  0  0  0  0
  146.7009  138.2210  150.5942 O   0  0  0  0  0  0  0  0  0  0  0  0
  146.6294  137.4494  153.2957 N   0  0  0  0  0  0  0  0  0  0  0  0
  146.5391  137.4687  154.6730 C   0  0  0  0  0  0  0  0  0  0  0  0
  146.4294  136.4095  155.6018 C   0  0  0  0  0  0  0  0  0  0  0  0
  146.3505  136.6777  156.9841 C   0  0  0  0  0  0  0  0  0  0  0  0
  146.3805  138.0059  157.4561 C   0  0  0  0  0  0  0  0  0  0  0  0
  146.4886  139.0761  156.5473 C   0  0  0  0  0  0  0  0  0  0  0  0
  146.5651  138.8026  155.1684 C   0  0  0  0  0  0  0  0  0  0  0  0
  150.7211  140.4472  156.0879 H   0  0  0  0  0  0  0  0  0  0  0  0
  151.5510  142.0049  156.1352 H   0  0  0  0  0  0  0  0  0  0  0  0
  150.5074  141.6172  154.7870 H   0  0  0  0  0  0  0  0  0  0  0  0
  148.8127  142.5487  158.5628 H   0  0  0  0  0  0  0  0  0  0  0  0
  149.4581  140.9339  158.3719 H   0  0  0  0  0  0  0  0  0  0  0  0
  150.5952  144.5313  157.9194 H   0  0  0  0  0  0  0  0  0  0  0  0
  152.7705  145.3749  158.7652 H   0  0  0  0  0  0  0  0  0  0  0  0
  154.3490  143.8300  159.9100 H   0  0  0  0  0  0  0  0  0  0  0  0
  153.7499  141.4334  160.2047 H   0  0  0  0  0  0  0  0  0  0  0  0
  151.5764  140.5799  159.3603 H   0  0  0  0  0  0  0  0  0  0  0  0
  148.0225  140.5704  156.4994 H   0  0  0  0  0  0  0  0  0  0  0  0
  147.3415  142.1730  156.5097 H   0  0  0  0  0  0  0  0  0  0  0  0
  148.8721  141.0230  154.1233 H   0  0  0  0  0  0  0  0  0  0  0  0
  148.2664  143.5004  154.8821 H   0  0  0  0  0  0  0  0  0  0  0  0
  145.8879  141.4662  154.5879 H   0  0  0  0  0  0  0  0  0  0  0  0
  146.5791  141.3894  152.9918 H   0  0  0  0  0  0  0  0  0  0  0  0
  146.0638  139.9858  151.3741 H   0  0  0  0  0  0  0  0  0  0  0  0
  147.8007  139.7193  151.4457 H   0  0  0  0  0  0  0  0  0  0  0  0
  145.8059  138.2053  150.2918 H   0  0  0  0  0  0  0  0  0  0  0  0
  146.4069  135.3885  155.2503 H   0  0  0  0  0  0  0  0  0  0  0  0
  146.2683  135.8600  157.6852 H   0  0  0  0  0  0  0  0  0  0  0  0
  146.3214  138.2022  158.5168 H   0  0  0  0  0  0  0  0  0  0  0  0
  146.5137  140.0936  156.9078 H   0  0  0  0  0  0  0  0  0  0  0  0
  149.4617  143.0857  156.4003 H   0  0  0  0  0  0  0  0  0  0  0  0
  1  2  1  0  0  0  0
  1 25  1  0  0  0  0
  1 26  1  0  0  0  0
  1 27  1  0  0  0  0
  2  3  1  0  0  0  0
  2 10  1  0  0  0  0
  2 48  1  0  0  0  0
  3  4  1  0  0  0  0
  3 28  1  0  0  0  0
  3 29  1  0  0  0  0
  4  9  1  0  0  0  0
  4  5  2  0  0  0  0
  5  6  1  0  0  0  0
  5 30  1  0  0  0  0
  6  7  2  0  0  0  0
  6 31  1  0  0  0  0
  7  8  1  0  0  0  0
  7 32  1  0  0  0  0
  8  9  2  0  0  0  0
  8 33  1  0  0  0  0
  9 34  1  0  0  0  0
 10 11  1  0  0  0  0
 10 35  1  0  0  0  0
 10 36  1  0  0  0  0
 11 12  1  0  0  0  0
 11 13  1  0  0  0  0
 11 37  1  0  0  0  0
 12 38  1  0  0  0  0
 13 14  1  0  0  0  0
 13 39  1  0  0  0  0
 13 40  1  0  0  0  0
 14 24  1  0  0  0  0
 14 15  1  0  0  0  0
 15 16  1  0  0  0  0
 15 18  2  0  0  0  0
 16 17  1  0  0  0  0
 16 41  1  0  0  0  0
 16 42  1  0  0  0  0
 17 43  1  0  0  0  0
 18 19  1  0  0  0  0
 19 24  2  0  0  0  0
 19 20  1  0  0  0  0
 20 21  2  0  0  0  0
 20 44  1  0  0  0  0
 21 22  1  0  0  0  0
 21 45  1  0  0  0  0
 22 23  2  0  0  0  0
 22 46  1  0  0  0  0
 23 24  1  0  0  0  0
 23 47  1  0  0  0  0
M  CHG  1   2   1
M  END
> <s_m_source_file>
AV-unprocessed.smi

> <i_m_source_file_index>
1669

> <i_lp_mmshare_version>
43012

> <i_f3d_flags>
0

> <s_epik_input>
W2NIXTFbY0hdW2NIXVtjSF1bY0hdYzFbQ0gyXU4oW0NIM10pW0NIMl1bQ0BIXShbT0hdKVtDSDJdbihjKG4yKVtDSDJdW09IXSljKGMyMylbY0hdW2NIXVtjSF1bY0hdMw==

> <s_epik_cmdline>
J2VwaWtfcHl0aG9uJywgJy1waCcsICc3LjAnLCAnLXRuJywgJzgnLCAnLW1hJywgJzIwMCcsICctbWV0YWxfYmluZGluZycsICctaW1hZScsICc8aW5maWxlLm1hZT4nLCAnLW9tYWUnLCAnPG91dGZpbGUubWFlPic=

> <r_epik_Ionization_Penalty>
0.0949884

> <r_epik_Ionization_Penalty_Charging>
0.0475377

> <r_epik_Ionization_Penalty_Neutral>
0.0474507

> <r_epik_State_Penalty>
0.078247

> <r_epik_Charging_Adjusted_Penalty>
0.125785

> <i_epik_Tot_Q>
1

> <i_epik_Tot_abs_Q>
1

> <r_epik_Metal_State_Penalty>
0.0403451

> <b_epik_Metal_Only>
0

> <s_lp_Force_Field>
OPLS_2005

> <r_lp_Energy>
17.3617

> <b_lp_Chiralities_Consistent>
1

> <s_lp_Variant>
AV-unprocessed.smi:1669-2

> <Gold.Version>
5.8.1

> <Gold.Id.Protein>
6NUR|6NUR_protein|mol2

> <Gold.PLP.Fitness>
57.9032

> <Gold.PLP.PLP>
-43.0668

> <Gold.PLP.part.hbond>
-6.4027

> <Gold.PLP.part.metal>
0.0000

> <Gold.PLP.part.buried>
-3.4121

> <Gold.PLP.part.nonpolar>
-32.2393

> <Gold.PLP.part.repulsive>
0.3294

> <Gold.PLP.ligand.clash>
0.0000

> <Gold.PLP.ligand.torsion>
0.3880

> <Gold.PLP.Chemscore.Hbond>
5.0000

> <Gold.PLP.Chemscore.CHOScore>
0.0000

> <Gold.PLP.Chemscore.Metal>
0.0000

> <Gold.Chemscore.Hbonds>
donor molecule, donor type, donor heavy atom, donor atom, acceptor molecule, acceptor atom, score
      L1  H     2    48       P1  8028  2.00
      L1  H    12    38       P1  8028  1.00
      L1  H    17    43       P1 10171  1.00
      P1  H  7954  7966       L1    17  0.96

> <Gold.PLP.Chemscore.Internal.Correction>
0.6124

> <Gold.Rescore>
     Score         DG    S(hbond)    S(metal)    S(lipo)     H(rot)  DE(clash)    DE(int)     intcor
     20.56     -22.49       3.74        0.00     108.07       3.17       0.54       1.39       ----

> <Gold.Chemscore.Fitness>
20.5576

> <Gold.Chemscore.DG>
-22.4948

> <Gold.Chemscore.ZeroCoef>
-5.4800

> <Gold.Chemscore.Hbond>
3.7405

> <Gold.Chemscore.Metal>
0.0000

> <Gold.Chemscore.Lipo>
108.0740

> <Gold.Chemscore.Internal_Hbond>
0.0000

> <Gold.Chemscore.DEClash>
0.5430

> <Gold.Chemscore.DEInternal>
1.3942

> <Gold.Chemscore.Rot>
3.1731

> <Gold.Chemscore.Internal.Correction>
   9.000000E+99

> <Gold.Chemscore.Hbonds>
donor molecule, donor type, donor heavy atom, donor atom, acceptor molecule, acceptor atom, score
      L1  H     2    48       P1  8028  0.99
      L1  H    12    38       P1  8028  0.86
      L1  H    17    43       P1 10171  0.95
      P1  H  7954  7966       L1    17  0.76

> <Gold.Chemscore.Hbond.Weighted>
-12.4932

> <Gold.Chemscore.Metal.Weighted>
-0.0000

> <Gold.Chemscore.Lipo.Weighted>
-12.6447

> <Gold.Chemscore.Internal_Hbond.Weighted>
0.0000

> <Gold.Chemscore.DEClash.Weighted>
0.5430

> <Gold.Chemscore.DEInternal.Weighted>
1.3942

> <Gold.Chemscore.Rot.Weighted>
8.1230

> <Gold.Chemscore.Internal.Correction.Weighted>
   9.000000E+99

> <Gold.Protein.RotatedTorsions>
[ 6907 6896 6895 6894 ] final  -82.52 input  -60.11 | X-H torsion
[ 7974 7965 7964 7962 ] final  -81.51 input  175.53 | X-H torsion
[ 8008 7997 7996 7995 ] final   42.28 input   59.86 | X-H torsion
[ 10167 10162 10161 10158 ] final   83.00 input  -65.29 | X-H torsion
[ 10718 10713 10712 10709 ] final  -27.13 input   66.30 | X-H torsion
[ 10763 10752 10751 10750 ] final   17.10 input  -60.55 | X-H torsion
[ 11005 11000 10999 10996 ] final   58.54 input  -57.11 | X-H torsion

> <Gold.Protein.ActiveResidues>
 VAL166  LYS551  ARG553  GLY616  TRP617  ASP618  TYR619  PRO620  LYS621  CYS622 
 ASP623  PHE694  ASN695  SER759  ASP760  ASP761  ALA762  ILE779  LEU786  VAL792 
 PHE793  MET794  SER795  GLU796  ALA797  LYS798  CYS799  TRP800  GLU811  SER814 

> <Gold.Protein.RotatedAtoms>
  150.6896  134.3652  159.4967 H   0  0  0  0  0  0  0  0  0  0  0  0  # atno 6907 bound_to 6896
  152.1476  134.9011  160.0559 H   0  0  0  0  0  0  0  0  0  0  0  0  # atno 6908 bound_to 6896
  152.0121  133.3830  159.4261 H   0  0  0  0  0  0  0  0  0  0  0  0  # atno 6909 bound_to 6896
  145.5457  140.9503  143.1527 H   0  0  0  0  0  0  0  0  0  0  0  0  # atno 7974 bound_to 7965
  155.2835  140.3374  155.4257 H   0  0  0  0  0  0  0  0  0  0  0  0  # atno 8008 bound_to 7997
  156.2079  140.1758  156.7800 H   0  0  0  0  0  0  0  0  0  0  0  0  # atno 8009 bound_to 7997
  154.5646  140.0681  156.8855 H   0  0  0  0  0  0  0  0  0  0  0  0  # atno 8010 bound_to 7997
  139.9229  144.6201  150.8422 H   0  0  0  0  0  0  0  0  0  0  0  0  # atno 10167 bound_to 10162
  156.4422  130.4466  149.7045 H   0  0  0  0  0  0  0  0  0  0  0  0  # atno 10718 bound_to 10713
  153.1370  135.6752  153.9087 H   0  0  0  0  0  0  0  0  0  0  0  0  # atno 10763 bound_to 10752
  153.8556  135.3088  155.3436 H   0  0  0  0  0  0  0  0  0  0  0  0  # atno 10764 bound_to 10752
  154.7756  135.4916  153.9820 H   0  0  0  0  0  0  0  0  0  0  0  0  # atno 10765 bound_to 10752
  140.0370  134.5928  155.9431 H   0  0  0  0  0  0  0  0  0  0  0  0  # atno 11005 bound_to 11000
  144.7554  139.7087  143.7256 LP  0  0  0  0  0  0  0  0  0  0  0  0  # atno 17320 bound_to 7965
  146.1951  139.5213  142.9780 LP  0  0  0  0  0  0  0  0  0  0  0  0  # atno 17321 bound_to 7965
  140.7657  143.3284  151.2464 LP  0  0  0  0  0  0  0  0  0  0  0  0  # atno 17342 bound_to 10162
  139.6846  143.9795  152.2827 LP  0  0  0  0  0  0  0  0  0  0  0  0  # atno 17343 bound_to 10162
  156.3905  130.7625  151.2625 LP  0  0  0  0  0  0  0  0  0  0  0  0  # atno 17370 bound_to 10713
  157.7506  131.0269  150.3983 LP  0  0  0  0  0  0  0  0  0  0  0  0  # atno 17371 bound_to 10713
  141.1863  133.6557  156.5232 LP  0  0  0  0  0  0  0  0  0  0  0  0  # atno 17394 bound_to 11000
  140.4131  134.7254  157.4847 LP  0  0  0  0  0  0  0  0  0  0  0  0  # atno 17395 bound_to 11000

$$$$
