AV-unprocessed.smi:2345|AV-procd|sdf|9362|dock4
  -GOLD-   2272012583D 1   1.00000     0.00000
 Structure written by MMmdl.
 37 38  0  0  0  0  0  0  0  0  1 V2000
  152.7016  138.7248  154.7476 C   0  0  0  0  0  0  0  0  0  0  0  0
  151.3185  139.2432  155.1483 C   0  0  0  0  0  0  0  0  0  0  0  0
  150.0165  138.5315  154.1042 S   0  0  0  0  0  0  0  0  0  0  0  0
  148.5245  139.1831  154.9340 C   0  0  1  0  0  0  0  0  0  0  0  0
  148.5968  140.7099  155.0057 C   0  0  0  0  0  0  0  0  0  0  0  0
  148.0507  141.1845  153.6605 C   0  0  0  0  0  0  0  0  0  0  0  0
  146.9670  140.1680  153.2860 C   0  0  0  0  0  0  0  0  0  0  0  0
  147.2091  138.9209  154.1593 C   0  0  1  0  0  0  0  0  0  0  0  0
  147.2221  137.7024  153.3511 N   0  0  0  0  0  0  0  0  0  0  0  0
  146.1891  136.8616  153.2023 C   0  0  0  0  0  0  0  0  0  0  0  0
  145.0914  137.0352  153.7315 O   0  0  0  0  0  0  0  0  0  0  0  0
  146.5283  135.8103  152.4374 N   0  0  0  0  0  0  0  0  0  0  0  0
  145.7371  134.6898  152.0643 C   0  0  0  0  0  0  0  0  0  0  0  0
  144.3664  134.7661  151.7167 C   0  0  0  0  0  0  0  0  0  0  0  0
  143.6971  133.5819  151.3473 C   0  0  0  0  0  0  0  0  0  0  0  0
  144.2956  132.3730  151.2981 N   0  0  0  0  0  0  0  0  0  0  0  0
  145.6057  132.3064  151.6163 C   0  0  0  0  0  0  0  0  0  0  0  0
  146.3674  133.4290  151.9988 C   0  0  0  0  0  0  0  0  0  0  0  0
  147.6810  133.2928  152.3021 F   0  0  0  0  0  0  0  0  0  0  0  0
  153.4769  139.1570  155.3805 H   0  0  0  0  0  0  0  0  0  0  0  0
  152.9339  138.9800  153.7132 H   0  0  0  0  0  0  0  0  0  0  0  0
  152.7567  137.6403  154.8473 H   0  0  0  0  0  0  0  0  0  0  0  0
  151.1234  138.9961  156.1909 H   0  0  0  0  0  0  0  0  0  0  0  0
  151.2822  140.3298  155.0655 H   0  0  0  0  0  0  0  0  0  0  0  0
  148.4807  138.7613  155.9387 H   0  0  0  0  0  0  0  0  0  0  0  0
  147.9478  141.0671  155.8065 H   0  0  0  0  0  0  0  0  0  0  0  0
  149.6011  141.0839  155.2083 H   0  0  0  0  0  0  0  0  0  0  0  0
  147.6694  142.2051  153.7023 H   0  0  0  0  0  0  0  0  0  0  0  0
  148.8470  141.1617  152.9153 H   0  0  0  0  0  0  0  0  0  0  0  0
  145.9760  140.5756  153.4887 H   0  0  0  0  0  0  0  0  0  0  0  0
  147.0084  139.9465  152.2185 H   0  0  0  0  0  0  0  0  0  0  0  0
  146.3928  138.8703  154.8826 H   0  0  0  0  0  0  0  0  0  0  0  0
  148.0917  137.4744  152.8919 H   0  0  0  0  0  0  0  0  0  0  0  0
  147.4936  135.7696  152.1447 H   0  0  0  0  0  0  0  0  0  0  0  0
  143.8235  135.6987  151.7136 H   0  0  0  0  0  0  0  0  0  0  0  0
  142.6516  133.6083  151.0774 H   0  0  0  0  0  0  0  0  0  0  0  0
  146.0619  131.3290  151.5632 H   0  0  0  0  0  0  0  0  0  0  0  0
  1  2  1  0  0  0  0
  1 20  1  0  0  0  0
  1 21  1  0  0  0  0
  1 22  1  0  0  0  0
  2  3  1  0  0  0  0
  2 23  1  0  0  0  0
  2 24  1  0  0  0  0
  3  4  1  0  0  0  0
  4  8  1  0  0  0  0
  4  5  1  0  0  0  0
  4 25  1  0  0  0  0
  5  6  1  0  0  0  0
  5 26  1  0  0  0  0
  5 27  1  0  0  0  0
  6  7  1  0  0  0  0
  6 28  1  0  0  0  0
  6 29  1  0  0  0  0
  7  8  1  0  0  0  0
  7 30  1  0  0  0  0
  7 31  1  0  0  0  0
  8  9  1  0  0  0  0
  8 32  1  0  0  0  0
  9 10  1  0  0  0  0
  9 33  1  0  0  0  0
 10 11  2  0  0  0  0
 10 12  1  0  0  0  0
 12 13  1  0  0  0  0
 12 34  1  0  0  0  0
 13 18  1  0  0  0  0
 13 14  2  0  0  0  0
 14 15  1  0  0  0  0
 14 35  1  0  0  0  0
 15 16  2  0  0  0  0
 15 36  1  0  0  0  0
 16 17  1  0  0  0  0
 17 18  2  0  0  0  0
 17 37  1  0  0  0  0
 18 19  1  0  0  0  0
M  END
> <s_m_source_file>
AV-unprocessed.smi

> <i_m_source_file_index>
2345

> <i_lp_mmshare_version>
43012

> <i_f3d_flags>
0

> <s_epik_input>
W0NIM11bQ0gyXVNbQ0BASF0xW0NIMl1bQ0gyXVtDSDJdW0NASF0xW05IXUMoPU8pW05IXWMyW2NIXVtjSF1uW2NIXWMyRg==

> <s_epik_cmdline>
J2VwaWtfcHl0aG9uJywgJy1waCcsICc3LjAnLCAnLXRuJywgJzgnLCAnLW1hJywgJzIwMCcsICctbWV0YWxfYmluZGluZycsICctaW1hZScsICc8aW5maWxlLm1hZT4nLCAnLW9tYWUnLCAnPG91dGZpbGUubWFlPic=

> <r_epik_Ionization_Penalty>
0.00333745

> <r_epik_Ionization_Penalty_Charging>
0

> <r_epik_Ionization_Penalty_Neutral>
0.00333745

> <r_epik_State_Penalty>
0.00233401

> <r_epik_Charging_Adjusted_Penalty>
0.00233401

> <i_epik_Tot_Q>
0

> <i_epik_Tot_abs_Q>
0

> <r_epik_Metal_State_Penalty>
-0

> <b_epik_Metal_Only>
0

> <s_lp_Force_Field>
OPLS_2005

> <r_lp_Energy>
24.8038

> <b_lp_Chiralities_Consistent>
1

> <s_lp_Variant>
AV-unprocessed.smi:2345-2

> <Gold.Version>
5.8.1

> <Gold.Id.Protein>
6NUR|6NUR_protein|mol2

> <Gold.PLP.Fitness>
39.7641

> <Gold.PLP.PLP>
-32.2875

> <Gold.PLP.part.hbond>
-1.9194

> <Gold.PLP.part.metal>
0.0000

> <Gold.PLP.part.buried>
-3.0774

> <Gold.PLP.part.nonpolar>
-28.2208

> <Gold.PLP.part.repulsive>
0.3152

> <Gold.PLP.ligand.clash>
0.0000

> <Gold.PLP.ligand.torsion>
0.6236

> <Gold.PLP.Chemscore.Hbond>
1.9033

> <Gold.PLP.Chemscore.CHOScore>
1.0000

> <Gold.PLP.Chemscore.Metal>
0.0000

> <Gold.Chemscore.Hbonds>
donor molecule, donor type, donor heavy atom, donor atom, acceptor molecule, acceptor atom, score
      L1  H     9    33       P1  7948  0.91
      L1  H    12    34       P1  7948  1.00
      L1  C    15    36       P1 10186  1.00

> <Gold.PLP.Chemscore.Internal.Correction>
0.0140

> <Gold.Rescore>
     Score         DG    S(hbond)    S(metal)    S(lipo)     H(rot)  DE(clash)    DE(int)     intcor
     17.09     -17.91       1.91        0.00      81.32       1.35       0.20       0.62       ----

> <Gold.Chemscore.Fitness>
17.0915

> <Gold.Chemscore.DG>
-17.9144

> <Gold.Chemscore.ZeroCoef>
-5.4800

> <Gold.Chemscore.Hbond>
1.9069

> <Gold.Chemscore.Metal>
0.0000

> <Gold.Chemscore.Lipo>
81.3243

> <Gold.Chemscore.Internal_Hbond>
0.0000

> <Gold.Chemscore.DEClash>
0.2048

> <Gold.Chemscore.DEInternal>
0.6181

> <Gold.Chemscore.Rot>
1.3475

> <Gold.Chemscore.Internal.Correction>
   9.000000E+99

> <Gold.Chemscore.Hbonds>
donor molecule, donor type, donor heavy atom, donor atom, acceptor molecule, acceptor atom, score
      L1  H     9    33       P1  7948  0.88
      L1  H    12    34       P1  7948  0.93

> <Gold.Chemscore.Hbond.Weighted>
-6.3691

> <Gold.Chemscore.Metal.Weighted>
-0.0000

> <Gold.Chemscore.Lipo.Weighted>
-9.5149

> <Gold.Chemscore.Internal_Hbond.Weighted>
0.0000

> <Gold.Chemscore.DEClash.Weighted>
0.2048

> <Gold.Chemscore.DEInternal.Weighted>
0.6181

> <Gold.Chemscore.Rot.Weighted>
3.4496

> <Gold.Chemscore.Internal.Correction.Weighted>
   9.000000E+99

> <Gold.Protein.RotatedTorsions>
[ 6907 6896 6895 6894 ] final   -3.13 input  -60.11 | X-H torsion
[ 7974 7965 7964 7962 ] final -174.11 input  175.53 | X-H torsion
[ 8008 7997 7996 7995 ] final -163.77 input   59.86 | X-H torsion
[ 10167 10162 10161 10158 ] final  -95.92 input  -65.29 | X-H torsion
[ 10718 10713 10712 10709 ] final   46.40 input   66.30 | X-H torsion
[ 10763 10752 10751 10750 ] final -161.26 input  -60.55 | X-H torsion
[ 11005 11000 10999 10996 ] final  -57.05 input  -57.11 | X-H torsion

> <Gold.Protein.ActiveResidues>
 VAL166  LYS551  ARG553  GLY616  TRP617  ASP618  TYR619  PRO620  LYS621  CYS622 
 ASP623  PHE694  ASN695  SER759  ASP760  ASP761  ALA762  ILE779  LEU786  VAL792 
 PHE793  MET794  SER795  GLU796  ALA797  LYS798  CYS799  TRP800  GLU811  SER814 

> <Gold.Protein.RotatedAtoms>
  151.5187  135.1066  159.9872 H   0  0  0  0  0  0  0  0  0  0  0  0  # atno 6907 bound_to 6896
  152.4630  133.7858  159.6886 H   0  0  0  0  0  0  0  0  0  0  0  0  # atno 6908 bound_to 6896
  150.8600  133.7593  159.3021 H   0  0  0  0  0  0  0  0  0  0  0  0  # atno 6909 bound_to 6896
  144.7134  140.1521  143.6383 H   0  0  0  0  0  0  0  0  0  0  0  0  # atno 7974 bound_to 7965
  155.8261  140.0927  157.1820 H   0  0  0  0  0  0  0  0  0  0  0  0  # atno 8008 bound_to 7997
  154.3979  140.1428  156.3618 H   0  0  0  0  0  0  0  0  0  0  0  0  # atno 8009 bound_to 7997
  155.8215  140.3446  155.5520 H   0  0  0  0  0  0  0  0  0  0  0  0  # atno 8010 bound_to 7997
  140.2992  143.3173  152.0266 H   0  0  0  0  0  0  0  0  0  0  0  0  # atno 10167 bound_to 10162
  157.4477  130.8119  149.7757 H   0  0  0  0  0  0  0  0  0  0  0  0  # atno 10718 bound_to 10713
  154.7319  135.3048  154.8877 H   0  0  0  0  0  0  0  0  0  0  0  0  # atno 10763 bound_to 10752
  153.9717  135.6741  153.4751 H   0  0  0  0  0  0  0  0  0  0  0  0  # atno 10764 bound_to 10752
  153.0926  135.4951  154.8640 H   0  0  0  0  0  0  0  0  0  0  0  0  # atno 10765 bound_to 10752
  141.1148  133.6610  156.4712 H   0  0  0  0  0  0  0  0  0  0  0  0  # atno 11005 bound_to 11000
  145.9107  139.2485  143.1439 LP  0  0  0  0  0  0  0  0  0  0  0  0  # atno 17320 bound_to 7965
  145.9719  140.8753  143.0158 LP  0  0  0  0  0  0  0  0  0  0  0  0  # atno 17321 bound_to 7965
  139.4919  144.6468  151.6761 LP  0  0  0  0  0  0  0  0  0  0  0  0  # atno 17342 bound_to 10162
  140.5666  144.0180  150.6195 LP  0  0  0  0  0  0  0  0  0  0  0  0  # atno 17343 bound_to 10162
  155.9974  130.3900  150.2742 LP  0  0  0  0  0  0  0  0  0  0  0  0  # atno 17370 bound_to 10713
  157.0911  131.0170  151.3121 LP  0  0  0  0  0  0  0  0  0  0  0  0  # atno 17371 bound_to 10713
  140.4677  134.6782  157.5115 LP  0  0  0  0  0  0  0  0  0  0  0  0  # atno 17394 bound_to 11000
  140.0063  134.6759  155.9450 LP  0  0  0  0  0  0  0  0  0  0  0  0  # atno 17395 bound_to 11000

$$$$
