#       Name:                AV-unprocessed.smi:2078
#       Creating user name   scv26
#       Creation time:       Fri Mar 27 11:16:23 2020


#       File generated by GOLD software.
#

@<TRIPOS>MOLECULE
AV-unprocessed.smi:2078
    47    48     1
SMALL
NO_CHARGES


@<TRIPOS>ATOM
      1 ****        -6.9077   4.4475   1.1099 C.3            1 S1                 0.0000
      2 ****        -5.5762   3.8055   0.9154 C.2            1 S1                 0.0000
      3 ****        -4.8389   2.9473   1.6821 C.2            1 S1                 0.0000
      4 ****        -3.6723   2.7407   0.8989 C.2            1 S1                 0.0000
      5 ****        -2.6310   1.8920   1.3536 N.am           1 S1                 0.0000
      6 ****        -1.4749   1.6093   0.7295 C.2            1 S1                 0.0000
      7 ****        -1.1307   2.0533  -0.3663 O.2            1 S1                 0.0000
      8 ****        -0.7220   0.7663   1.4513 N.am           1 S1                 0.0000
      9 ****         0.5926   0.2775   1.0525 C.3            1 S1                 0.0000
     10 ****         0.4870  -0.8276  -0.0166 C.3            1 S1                 0.0000
     11 ****         1.8164  -1.3581  -0.4091 N.4            1 S1                 1.0000
     12 ****         2.5551  -0.4556  -1.3319 C.3            1 S1                 0.0000
     13 ****         3.9787  -0.9737  -1.5895 C.3            1 S1                 0.0000
     14 ****         3.9527  -2.4110  -2.1285 C.3            1 S1                 0.0000
     15 ****         3.1341  -3.3378  -1.2104 C.3            1 S1                 0.0000
     16 ****         3.8711  -3.6875   0.0945 C.3            1 S1                 0.0000
     17 ****         1.7352  -2.7418  -0.9478 C.3            1 S1                 0.0000
     18 ****        -3.6956   3.4103  -0.2432 N.2            1 S1                 0.0000
     19 ****        -4.9156   4.0966  -0.2384 O.3            1 S1                 0.0000
     20 ****        -7.6524   3.7096   1.4086 H              1 S1                 0.0000
     21 ****        -7.2537   4.9216   0.1910 H              1 S1                 0.0000
     22 ****        -6.8573   5.2115   1.8857 H              1 S1                 0.0000
     23 ****        -5.0958   2.5363   2.6474 H              1 S1                 0.0000
     24 ****        -2.7830   1.4562   2.2511 H              1 S1                 0.0000
     25 ****        -1.0775   0.4509   2.3423 H              1 S1                 0.0000
     26 ****         1.1940   1.1179   0.7047 H              1 S1                 0.0000
     27 ****         1.0915  -0.1128   1.9401 H              1 S1                 0.0000
     28 ****        -0.1184  -1.6357   0.3968 H              1 S1                 0.0000
     29 ****        -0.0401  -0.4736  -0.9040 H              1 S1                 0.0000
     30 ****         2.0104  -0.3718  -2.2738 H              1 S1                 0.0000
     31 ****         2.6174   0.5492  -0.9158 H              1 S1                 0.0000
     32 ****         4.4873  -0.3219  -2.3007 H              1 S1                 0.0000
     33 ****         4.5594  -0.9303  -0.6675 H              1 S1                 0.0000
     34 ****         3.5074  -2.4088  -3.1244 H              1 S1                 0.0000
     35 ****         4.9683  -2.7897  -2.2496 H              1 S1                 0.0000
     36 ****         2.9929  -4.2790  -1.7437 H              1 S1                 0.0000
     37 ****         4.0389  -2.8086   0.7170 H              1 S1                 0.0000
     38 ****         4.8427  -4.1373  -0.1124 H              1 S1                 0.0000
     39 ****         3.2993  -4.4038   0.6854 H              1 S1                 0.0000
     40 ****         1.1937  -3.3834  -0.2512 H              1 S1                 0.0000
     41 ****         1.1565  -2.7293  -1.8731 H              1 S1                 0.0000
     42 ****         2.3595  -1.4219   0.4401 H              1 S1                 0.0000
     43 ****        -1.7324   2.6779  -0.8641 LP             1 S1                 0.0000
     44 ****        -0.2494   1.7893  -0.7584 LP             1 S1                 0.0000
     45 ****        -2.9935   3.4230  -0.9552 LP             1 S1                 0.0000
     46 ****        -4.7480   5.0811  -0.2909 LP             1 S1                 0.0000
     47 ****        -5.4659   3.8100  -1.0226 LP             1 S1                 0.0000
@<TRIPOS>BOND
    1    1    2 1     
    2    1   20 1     
    3    1   21 1     
    4    1   22 1     
    5    2   19 1     
    6    2    3 2     
    7    3    4 1     
    8    3   23 1     
    9    4    5 1     
   10    4   18 2     
   11    5    6 am    
   12    5   24 1     
   13    6    7 2     
   14    6    8 am    
   15    8    9 1     
   16    8   25 1     
   17    9   10 1     
   18    9   26 1     
   19    9   27 1     
   20   10   11 1     
   21   10   28 1     
   22   10   29 1     
   23   11   17 1     
   24   11   12 1     
   25   11   42 1     
   26   12   13 1     
   27   12   30 1     
   28   12   31 1     
   29   13   14 1     
   30   13   32 1     
   31   13   33 1     
   32   14   15 1     
   33   14   34 1     
   34   14   35 1     
   35   15   16 1     
   36   15   17 1     
   37   15   36 1     
   38   16   37 1     
   39   16   38 1     
   40   16   39 1     
   41   17   40 1     
   42   17   41 1     
   43   18   19 1     
   44    7   43 1     
   45    7   44 1     
   46   18   45 1     
   47   19   46 1     
   48   19   47 1     
@<TRIPOS>SUBSTRUCTURE
      1 S1             1
@<TRIPOS>SET
LONE_PAIRS      STATIC     ATOMS    <user>   **** ""
5 43 44 45 46 47
DONOR_HYDROGENS      STATIC     ATOMS    <user>   **** ""
3 24 25 42
ATOM$BLUE        STATIC     ATOMS    COLORGROUP SYSTEM
5 43 44 45 46 47
ATOM$RED        STATIC     ATOMS    COLORGROUP SYSTEM
3 24 25 42
