#       Name:                AV-unprocessed.smi:719
#       Creating user name   scv26
#       Creation time:       Fri Mar 27 00:48:53 2020


#       File generated by GOLD software.
#

@<TRIPOS>MOLECULE
AV-unprocessed.smi:719
    44    46     1
SMALL
NO_CHARGES


@<TRIPOS>ATOM
      1 ****        -3.5031  -0.9967   3.5135 C.3            1 S1                 0.0000
      2 ****        -3.1001  -0.6685   2.0717 C.3            1 S1                 0.0000
      3 ****        -2.1099   0.4562   2.0004 C.2            1 S1                 0.0000
      4 ****        -0.7576   0.1934   2.2372 N.2            1 S1                 0.0000
      5 ****         0.0044   1.2854   2.1434 C.2            1 S1                 0.0000
      6 ****         1.4923   1.2712   2.2847 C.3            1 S1                 0.0000
      7 ****         2.2482   1.1800   0.9454 C.3            1 S1                 0.0000
      8 ****         1.8857  -0.0069   0.1742 N.am           1 S1                 0.0000
      9 ****         1.0007  -0.0417  -0.8346 C.2            1 S1                 0.0000
     10 ****         0.3673   0.9421  -1.2173 O.2            1 S1                 0.0000
     11 ****         0.7931  -1.4004  -1.4139 C.3            1 S1                 0.0000
     12 ****         1.9122  -2.0830  -2.1843 C.3            1 S1                 0.0000
     13 ****         3.1516  -1.4004  -2.7283 C.3            1 S1                 0.0000
     14 ****         2.6659  -0.2444  -3.6180 C.3            1 S1                 0.0000
     15 ****         1.1976  -0.5545  -3.9538 C.3            1 S1                 0.0000
     16 ****         0.7152  -1.5600  -2.9258 C.3            1 S1                 0.0000
     17 ****        -0.9097   2.7330   1.7474 S.3            1 S1                 0.0000
     18 ****        -2.3703   1.7788   1.7264 C.2            1 S1                 0.0000
     19 ****        -3.6903   2.4101   1.4323 C.3            1 S1                 0.0000
     20 ****        -4.2236  -1.8142   3.5398 H              1 S1                 0.0000
     21 ****        -3.9601  -0.1339   3.9991 H              1 S1                 0.0000
     22 ****        -2.6384  -1.2959   4.1067 H              1 S1                 0.0000
     23 ****        -2.6828  -1.5613   1.6041 H              1 S1                 0.0000
     24 ****        -3.9931  -0.4243   1.4957 H              1 S1                 0.0000
     25 ****         1.7958   2.1738   2.8153 H              1 S1                 0.0000
     26 ****         1.7733   0.4327   2.9234 H              1 S1                 0.0000
     27 ****         2.0777   2.0850   0.3598 H              1 S1                 0.0000
     28 ****         3.3207   1.1427   1.1364 H              1 S1                 0.0000
     29 ****         2.3390  -0.8717   0.4317 H              1 S1                 0.0000
     30 ****         0.1133  -2.0341  -0.8477 H              1 S1                 0.0000
     31 ****         2.0059  -3.1558  -2.0275 H              1 S1                 0.0000
     32 ****         3.7976  -1.0600  -1.9187 H              1 S1                 0.0000
     33 ****         3.7118  -2.1214  -3.3241 H              1 S1                 0.0000
     34 ****         2.7244   0.6929  -3.0639 H              1 S1                 0.0000
     35 ****         3.2776  -0.1267  -4.5128 H              1 S1                 0.0000
     36 ****         0.5717   0.3381  -3.9531 H              1 S1                 0.0000
     37 ****         1.1287  -1.0105  -4.9419 H              1 S1                 0.0000
     38 ****        -0.0274  -2.2685  -3.2876 H              1 S1                 0.0000
     39 ****        -4.4259   2.1415   2.1906 H              1 S1                 0.0000
     40 ****        -4.0667   2.0806   0.4640 H              1 S1                 0.0000
     41 ****        -3.6125   3.4973   1.4106 H              1 S1                 0.0000
     42 ****        -0.3995  -0.7149   2.4536 LP             1 S1                 0.0000
     43 ****         0.4997   1.8269  -0.7705 LP             1 S1                 0.0000
     44 ****        -0.2797   0.8565  -1.9750 LP             1 S1                 0.0000
@<TRIPOS>BOND
    1    1    2 1     
    2    1   20 1     
    3    1   21 1     
    4    1   22 1     
    5    2    3 1     
    6    2   23 1     
    7    2   24 1     
    8    3   18 2     
    9    3    4 1     
   10    4    5 2     
   11    5    6 1     
   12    5   17 1     
   13    6    7 1     
   14    6   25 1     
   15    6   26 1     
   16    7    8 1     
   17    7   27 1     
   18    7   28 1     
   19    8    9 am    
   20    8   29 1     
   21    9   10 2     
   22    9   11 1     
   23   11   16 1     
   24   11   12 1     
   25   11   30 1     
   26   12   16 1     
   27   12   13 1     
   28   12   31 1     
   29   13   14 1     
   30   13   32 1     
   31   13   33 1     
   32   14   15 1     
   33   14   34 1     
   34   14   35 1     
   35   15   16 1     
   36   15   36 1     
   37   15   37 1     
   38   16   38 1     
   39   17   18 1     
   40   18   19 1     
   41   19   39 1     
   42   19   40 1     
   43   19   41 1     
   44    4   42 1     
   45   10   43 1     
   46   10   44 1     
@<TRIPOS>SUBSTRUCTURE
      1 S1             1
@<TRIPOS>SET
LONE_PAIRS      STATIC     ATOMS    <user>   **** ""
3 42 43 44
DONOR_HYDROGENS      STATIC     ATOMS    <user>   **** ""
1 29
ATOM$BLUE        STATIC     ATOMS    COLORGROUP SYSTEM
3 42 43 44
ATOM$RED        STATIC     ATOMS    COLORGROUP SYSTEM
1 29
