AV-unprocessed.smi:1244|AV-procd|sdf|5224|dock2
  -GOLD-   22720 4323D 1   1.00000     0.00000
 Structure written by MMmdl.
 55 57  0  0  0  0  0  0  0  0  2 V2000
  145.6267  135.9676  152.1576 C   0  0  0  0  0  0  0  0  0  0  0  0
  145.3841  134.4878  152.5043 C   0  0  2  0  0  0  0  0  0  0  0  0
  146.6068  133.7953  153.1383 C   0  0  0  0  0  0  0  0  0  0  0  0
  147.6584  133.5308  152.1276 N   0  3  1  0  0  0  0  0  0  0  0  0
  148.8766  132.9291  152.7246 C   0  0  0  0  0  0  0  0  0  0  0  0
  149.2015  133.5128  154.1133 C   0  0  0  0  0  0  0  0  0  0  0  0
  149.2217  134.9706  154.0912 N   0  0  0  0  0  0  0  0  0  0  0  0
  150.2040  135.7278  154.5993 C   0  0  0  0  0  0  0  0  0  0  0  0
  151.2142  135.2623  155.1271 O   0  0  0  0  0  0  0  0  0  0  0  0
  149.9472  137.0360  154.4358 N   0  0  0  0  0  0  0  0  0  0  0  0
  150.7613  138.1417  154.8118 C   0  0  0  0  0  0  0  0  0  0  0  0
  152.0884  137.9603  155.2723 C   0  0  0  0  0  0  0  0  0  0  0  0
  152.8297  139.0754  155.6986 C   0  0  0  0  0  0  0  0  0  0  0  0
  152.2111  140.3361  155.6657 C   0  0  0  0  0  0  0  0  0  0  0  0
  150.9448  140.5240  155.2438 N   0  0  0  0  0  0  0  0  0  0  0  0
  150.2216  139.4600  154.8158 C   0  0  0  0  0  0  0  0  0  0  0  0
  148.9058  139.7192  154.3688 N   0  0  0  0  0  0  0  0  0  0  0  0
  147.7691  139.0414  154.9834 C   0  0  0  0  0  0  0  0  0  0  0  0
  146.5473  139.8400  154.5397 C   0  0  0  0  0  0  0  0  0  0  0  0
  147.0822  141.2687  154.5226 C   0  0  0  0  0  0  0  0  0  0  0  0
  148.5422  141.1052  154.0874 C   0  0  0  0  0  0  0  0  0  0  0  0
  147.0983  132.7521  150.9970 C   0  0  0  0  0  0  0  0  0  0  0  0
  145.9011  133.4949  150.3768 C   0  0  1  0  0  0  0  0  0  0  0  0
  145.2396  132.6850  149.2563 C   0  0  0  0  0  0  0  0  0  0  0  0
  144.9200  133.7377  151.3818 O   0  0  0  0  0  0  0  0  0  0  0  0
  145.8477  136.5430  153.0570 H   0  0  0  0  0  0  0  0  0  0  0  0
  144.7429  136.4081  151.6953 H   0  0  0  0  0  0  0  0  0  0  0  0
  146.4644  136.1023  151.4742 H   0  0  0  0  0  0  0  0  0  0  0  0
  144.5757  134.4663  153.2358 H   0  0  0  0  0  0  0  0  0  0  0  0
  147.0042  134.4123  153.9454 H   0  0  0  0  0  0  0  0  0  0  0  0
  146.3007  132.8486  153.5868 H   0  0  0  0  0  0  0  0  0  0  0  0
  148.7176  131.8548  152.8296 H   0  0  0  0  0  0  0  0  0  0  0  0
  149.7222  133.0503  152.0455 H   0  0  0  0  0  0  0  0  0  0  0  0
  148.4526  133.2134  154.8453 H   0  0  0  0  0  0  0  0  0  0  0  0
  150.1590  133.1328  154.4743 H   0  0  0  0  0  0  0  0  0  0  0  0
  148.4286  135.4347  153.6723 H   0  0  0  0  0  0  0  0  0  0  0  0
  149.1262  137.2686  153.8961 H   0  0  0  0  0  0  0  0  0  0  0  0
  152.5412  136.9822  155.3275 H   0  0  0  0  0  0  0  0  0  0  0  0
  153.8432  138.9642  156.0546 H   0  0  0  0  0  0  0  0  0  0  0  0
  152.7441  141.2164  155.9930 H   0  0  0  0  0  0  0  0  0  0  0  0
  147.7089  137.9992  154.6683 H   0  0  0  0  0  0  0  0  0  0  0  0
  147.8427  139.0681  156.0715 H   0  0  0  0  0  0  0  0  0  0  0  0
  146.2498  139.5407  153.5337 H   0  0  0  0  0  0  0  0  0  0  0  0
  145.6907  139.7105  155.2017 H   0  0  0  0  0  0  0  0  0  0  0  0
  146.5157  141.9285  153.8652 H   0  0  0  0  0  0  0  0  0  0  0  0
  147.0444  141.6849  155.5301 H   0  0  0  0  0  0  0  0  0  0  0  0
  149.1923  141.8139  154.6029 H   0  0  0  0  0  0  0  0  0  0  0  0
  148.6316  141.2821  153.0151 H   0  0  0  0  0  0  0  0  0  0  0  0
  147.8557  132.5956  150.2298 H   0  0  0  0  0  0  0  0  0  0  0  0
  146.7919  131.7655  151.3493 H   0  0  0  0  0  0  0  0  0  0  0  0
  146.2376  134.4416  149.9535 H   0  0  0  0  0  0  0  0  0  0  0  0
  145.9464  132.4758  148.4530 H   0  0  0  0  0  0  0  0  0  0  0  0
  144.3999  133.2305  148.8249 H   0  0  0  0  0  0  0  0  0  0  0  0
  144.8620  131.7315  149.6269 H   0  0  0  0  0  0  0  0  0  0  0  0
  147.9323  134.4316  151.7617 H   0  0  0  0  0  0  0  0  0  0  0  0
  1  2  1  0  0  0  0
  1 26  1  0  0  0  0
  1 27  1  0  0  0  0
  1 28  1  0  0  0  0
  2 25  1  0  0  0  0
  2  3  1  0  0  0  0
  2 29  1  0  0  0  0
  3  4  1  0  0  0  0
  3 30  1  0  0  0  0
  3 31  1  0  0  0  0
  4  5  1  0  0  0  0
  4 22  1  0  0  0  0
  4 55  1  0  0  0  0
  5  6  1  0  0  0  0
  5 32  1  0  0  0  0
  5 33  1  0  0  0  0
  6  7  1  0  0  0  0
  6 34  1  0  0  0  0
  6 35  1  0  0  0  0
  7  8  1  0  0  0  0
  7 36  1  0  0  0  0
  8  9  2  0  0  0  0
  8 10  1  0  0  0  0
 10 11  1  0  0  0  0
 10 37  1  0  0  0  0
 11 16  1  0  0  0  0
 11 12  2  0  0  0  0
 12 13  1  0  0  0  0
 12 38  1  0  0  0  0
 13 14  2  0  0  0  0
 13 39  1  0  0  0  0
 14 15  1  0  0  0  0
 14 40  1  0  0  0  0
 15 16  2  0  0  0  0
 16 17  1  0  0  0  0
 17 21  1  0  0  0  0
 17 18  1  0  0  0  0
 18 19  1  0  0  0  0
 18 41  1  0  0  0  0
 18 42  1  0  0  0  0
 19 20  1  0  0  0  0
 19 43  1  0  0  0  0
 19 44  1  0  0  0  0
 20 21  1  0  0  0  0
 20 45  1  0  0  0  0
 20 46  1  0  0  0  0
 21 47  1  0  0  0  0
 21 48  1  0  0  0  0
 22 23  1  0  0  0  0
 22 49  1  0  0  0  0
 22 50  1  0  0  0  0
 23 24  1  0  0  0  0
 23 25  1  0  0  0  0
 23 51  1  0  0  0  0
 24 52  1  0  0  0  0
 24 53  1  0  0  0  0
 24 54  1  0  0  0  0
M  CHG  1   4   1
M  END
> <s_m_source_file>
AV-unprocessed.smi

> <i_m_source_file_index>
1244

> <i_lp_mmshare_version>
43012

> <i_f3d_flags>
0

> <s_epik_input>
W0NIM11bQ0BASF0xW0NIMl1OKFtDSDJdW0NASF0oTzEpW0NIM10pW0NIMl1bQ0gyXVtOSF1DKD1PKVtOSF1jMltjSF1bY0hdW2NIXW5jMk4zW0NIMl1bQ0gyXVtDSDJdW0NIMl0z

> <s_epik_cmdline>
J2VwaWtfcHl0aG9uJywgJy1waCcsICc3LjAnLCAnLXRuJywgJzgnLCAnLW1hJywgJzIwMCcsICctbWV0YWxfYmluZGluZycsICctaW1hZScsICc8aW5maWxlLm1hZT4nLCAnLW9tYWUnLCAnPG91dGZpbGUubWFlPic=

> <r_lp_tautomer_probability>
1

> <r_epik_Ionization_Penalty>
0.684913

> <r_epik_Ionization_Penalty_Charging>
0.602531

> <r_epik_Ionization_Penalty_Neutral>
0.0823829

> <r_epik_State_Penalty>
0.678827

> <r_epik_Charging_Adjusted_Penalty>
1.28136

> <i_epik_Tot_Q>
1

> <i_epik_Tot_abs_Q>
1

> <r_epik_Metal_State_Penalty>
0.67806

> <b_epik_Metal_Only>
0

> <s_lp_Force_Field>
OPLS_2005

> <r_lp_Energy>
45.4431

> <b_lp_Chiralities_Consistent>
1

> <s_lp_Variant>
AV-unprocessed.smi:1244-4

> <Gold.Version>
5.8.1

> <Gold.Id.Protein>
6NUR|6NUR_protein|mol2

> <Gold.PLP.Fitness>
44.7639

> <Gold.PLP.PLP>
-36.2975

> <Gold.PLP.part.hbond>
-4.8703

> <Gold.PLP.part.metal>
0.0000

> <Gold.PLP.part.buried>
5.0690

> <Gold.PLP.part.nonpolar>
-33.5243

> <Gold.PLP.part.repulsive>
0.4597

> <Gold.PLP.ligand.clash>
0.0000

> <Gold.PLP.ligand.torsion>
0.4761

> <Gold.PLP.Chemscore.Hbond>
3.0166

> <Gold.PLP.Chemscore.CHOScore>
0.0000

> <Gold.PLP.Chemscore.Metal>
0.0000

> <Gold.Chemscore.Hbonds>
donor molecule, donor type, donor heavy atom, donor atom, acceptor molecule, acceptor atom, score
      L1  H     4    55       P1  7948  1.40
      L1  H     7    36       P1  7948  0.18
      L1  H    10    37       P1  7948  0.11
      P1  H  7989  7998       L1    15  0.25
      P1  H 10752 10763       L1     9  0.98

> <Gold.PLP.Chemscore.Internal.Correction>
0.3690

> <Gold.Rescore>
     Score         DG    S(hbond)    S(metal)    S(lipo)     H(rot)  DE(clash)    DE(int)     intcor
     11.91     -16.31       1.12        0.00      95.49       1.60       1.93       2.47       ----

> <Gold.Chemscore.Fitness>
11.9121

> <Gold.Chemscore.DG>
-16.3139

> <Gold.Chemscore.ZeroCoef>
-5.4800

> <Gold.Chemscore.Hbond>
1.1235

> <Gold.Chemscore.Metal>
0.0000

> <Gold.Chemscore.Lipo>
95.4853

> <Gold.Chemscore.Internal_Hbond>
0.0000

> <Gold.Chemscore.DEClash>
1.9334

> <Gold.Chemscore.DEInternal>
2.4684

> <Gold.Chemscore.Rot>
1.5978

> <Gold.Chemscore.Internal.Correction>
   9.000000E+99

> <Gold.Chemscore.Hbonds>
donor molecule, donor type, donor heavy atom, donor atom, acceptor molecule, acceptor atom, score
      L1  H     4    55       P1  7948  0.07
      L1  H     7    36       P1  7948  0.17
      L1  H    10    37       P1  7948  0.12
      P1  H 10752 10763       L1     9  0.93

> <Gold.Chemscore.Hbond.Weighted>
-3.7526

> <Gold.Chemscore.Metal.Weighted>
-0.0000

> <Gold.Chemscore.Lipo.Weighted>
-11.1718

> <Gold.Chemscore.Internal_Hbond.Weighted>
0.0000

> <Gold.Chemscore.DEClash.Weighted>
1.9334

> <Gold.Chemscore.DEInternal.Weighted>
2.4684

> <Gold.Chemscore.Rot.Weighted>
4.0905

> <Gold.Chemscore.Internal.Correction.Weighted>
   9.000000E+99

> <Gold.Protein.RotatedTorsions>
[ 6907 6896 6895 6894 ] final   -8.98 input  -60.11 | X-H torsion
[ 7974 7965 7964 7962 ] final  162.43 input  175.53 | X-H torsion
[ 8008 7997 7996 7995 ] final -113.05 input   59.86 | X-H torsion
[ 10167 10162 10161 10158 ] final -131.77 input  -65.29 | X-H torsion
[ 10718 10713 10712 10709 ] final  -92.64 input   66.30 | X-H torsion
[ 10763 10752 10751 10750 ] final   69.90 input  -60.55 | X-H torsion
[ 11005 11000 10999 10996 ] final    4.34 input  -57.11 | X-H torsion

> <Gold.Protein.ActiveResidues>
 VAL166  LYS551  ARG553  GLY616  TRP617  ASP618  TYR619  PRO620  LYS621  CYS622 
 ASP623  PHE694  ASN695  SER759  ASP760  ASP761  ALA762  ILE779  LEU786  VAL792 
 PHE793  MET794  SER795  GLU796  ALA797  LYS798  CYS799  TRP800  GLU811  SER814 

> <Gold.Protein.RotatedAtoms>
  151.4250  135.1002  159.9625 H   0  0  0  0  0  0  0  0  0  0  0  0  # atno 6907 bound_to 6896
  152.4975  133.8671  159.7290 H   0  0  0  0  0  0  0  0  0  0  0  0  # atno 6908 bound_to 6896
  150.9195  133.6839  159.2863 H   0  0  0  0  0  0  0  0  0  0  0  0  # atno 6909 bound_to 6896
  144.7637  139.8039  143.6323 H   0  0  0  0  0  0  0  0  0  0  0  0  # atno 7974 bound_to 7965
  155.0146  140.0393  157.2413 H   0  0  0  0  0  0  0  0  0  0  0  0  # atno 8008 bound_to 7997
  154.7430  140.2752  155.6334 H   0  0  0  0  0  0  0  0  0  0  0  0  # atno 8009 bound_to 7997
  156.2868  140.2662  156.2163 H   0  0  0  0  0  0  0  0  0  0  0  0  # atno 8010 bound_to 7997
  139.9154  143.6444  152.2566 H   0  0  0  0  0  0  0  0  0  0  0  0  # atno 10167 bound_to 10162
  156.0004  130.4995  150.5656 H   0  0  0  0  0  0  0  0  0  0  0  0  # atno 10718 bound_to 10713
  153.0312  135.5194  154.7359 H   0  0  0  0  0  0  0  0  0  0  0  0  # atno 10763 bound_to 10752
  154.6373  135.2908  155.0148 H   0  0  0  0  0  0  0  0  0  0  0  0  # atno 10764 bound_to 10752
  154.1079  135.6626  153.4932 H   0  0  0  0  0  0  0  0  0  0  0  0  # atno 10765 bound_to 10752
  140.5830  133.9995  155.8056 H   0  0  0  0  0  0  0  0  0  0  0  0  # atno 11005 bound_to 11000
  146.1724  139.4881  142.9919 LP  0  0  0  0  0  0  0  0  0  0  0  0  # atno 17320 bound_to 7965
  145.6538  141.0257  143.1746 LP  0  0  0  0  0  0  0  0  0  0  0  0  # atno 17321 bound_to 7965
  139.6906  144.7647  151.1445 LP  0  0  0  0  0  0  0  0  0  0  0  0  # atno 17342 bound_to 10162
  140.7675  143.5594  150.9116 LP  0  0  0  0  0  0  0  0  0  0  0  0  # atno 17343 bound_to 10162
  157.3559  131.0741  151.1676 LP  0  0  0  0  0  0  0  0  0  0  0  0  # atno 17370 bound_to 10713
  157.2476  130.6599  149.5917 LP  0  0  0  0  0  0  0  0  0  0  0  0  # atno 17371 bound_to 10713
  141.0984  133.9807  157.3121 LP  0  0  0  0  0  0  0  0  0  0  0  0  # atno 17394 bound_to 11000
  139.9308  135.0200  156.8395 LP  0  0  0  0  0  0  0  0  0  0  0  0  # atno 17395 bound_to 11000

$$$$
