AV-unprocessed.smi:204|AV-procd|sdf|1598|dock5
  -GOLD-   2262019503D 1   1.00000     0.00000
 Structure written by MMmdl.
 53 56  0  0  0  0  0  0  0  0  1 V2000
  151.5892  143.9905  157.8703 C   0  0  0  0  0  0  0  0  0  0  0  0
  150.7253  142.7477  158.0579 C   0  0  0  0  0  0  0  0  0  0  0  0
  150.9454  141.9762  158.9910 O   0  0  0  0  0  0  0  0  0  0  0  0
  149.7451  142.5666  157.1622 N   0  0  0  0  0  0  0  0  0  0  0  0
  148.8172  141.4423  157.1688 C   0  0  0  0  0  0  0  0  0  0  0  0
  148.7184  140.7820  155.7812 C   0  0  2  0  0  0  0  0  0  0  0  0
  148.0608  141.7040  154.7309 C   0  0  0  0  0  0  0  0  0  0  0  0
  147.9406  140.9887  153.3760 C   0  0  0  0  0  0  0  0  0  0  0  0
  147.2022  139.6495  153.5247 C   0  0  0  0  0  0  0  0  0  0  0  0
  147.8408  138.8247  154.5450 N   0  0  0  0  0  0  0  0  0  0  0  0
  147.3739  137.5592  154.5734 C   0  0  0  0  0  0  0  0  0  0  0  0
  147.7957  136.7666  155.5885 N   0  0  0  0  0  0  0  0  0  0  0  0
  147.3690  135.5024  155.6684 C   0  0  0  0  0  0  0  0  0  0  0  0
  146.5398  134.8476  154.8523 N   0  0  0  0  0  0  0  0  0  0  0  0
  146.1202  135.6418  153.8260 C   0  0  0  0  0  0  0  0  0  0  0  0
  146.4836  137.0016  153.6132 C   0  0  0  0  0  0  0  0  0  0  0  0
  145.8606  137.4866  152.4697 N   0  0  0  0  0  0  0  0  0  0  0  0
  145.1640  136.4727  152.0344 C   0  0  0  0  0  0  0  0  0  0  0  0
  145.2704  135.3207  152.7815 N   0  0  0  0  0  0  0  0  0  0  0  0
  144.6075  134.0526  152.5163 C   0  0  0  0  0  0  0  0  0  0  0  0
  145.4900  133.0145  151.7912 C   0  0  0  0  0  0  0  0  0  0  0  0
  146.4383  132.3121  152.7794 C   0  0  0  0  0  0  0  0  0  0  0  0
  146.9964  131.1412  152.2176 O   0  0  0  0  0  0  0  0  0  0  0  0
  144.7596  132.0619  150.8330 C   0  0  0  0  0  0  0  0  0  0  0  0
  145.6794  132.3488  149.7588 O   0  0  0  0  0  0  0  0  0  0  0  0
  146.1549  133.4960  150.4942 C   0  0  0  0  0  0  0  0  0  0  0  0
  147.9475  139.4492  155.8612 C   0  0  0  0  0  0  0  0  0  0  0  0
  152.1039  143.9549  156.9097 H   0  0  0  0  0  0  0  0  0  0  0  0
  152.3403  144.0642  158.6574 H   0  0  0  0  0  0  0  0  0  0  0  0
  150.9740  144.8901  157.9007 H   0  0  0  0  0  0  0  0  0  0  0  0
  149.6346  143.2505  156.4273 H   0  0  0  0  0  0  0  0  0  0  0  0
  149.1590  140.7123  157.9043 H   0  0  0  0  0  0  0  0  0  0  0  0
  147.8318  141.7825  157.4923 H   0  0  0  0  0  0  0  0  0  0  0  0
  149.7321  140.5566  155.4451 H   0  0  0  0  0  0  0  0  0  0  0  0
  147.0695  142.0049  155.0730 H   0  0  0  0  0  0  0  0  0  0  0  0
  148.6380  142.6204  154.6052 H   0  0  0  0  0  0  0  0  0  0  0  0
  147.4202  141.6254  152.6603 H   0  0  0  0  0  0  0  0  0  0  0  0
  148.9366  140.8115  152.9681 H   0  0  0  0  0  0  0  0  0  0  0  0
  146.1615  139.8283  153.7987 H   0  0  0  0  0  0  0  0  0  0  0  0
  147.1967  139.1213  152.5700 H   0  0  0  0  0  0  0  0  0  0  0  0
  147.7467  134.9339  156.5053 H   0  0  0  0  0  0  0  0  0  0  0  0
  144.5548  136.5347  151.1442 H   0  0  0  0  0  0  0  0  0  0  0  0
  144.2538  133.6564  153.4689 H   0  0  0  0  0  0  0  0  0  0  0  0
  143.7071  134.2559  151.9354 H   0  0  0  0  0  0  0  0  0  0  0  0
  147.2418  132.9721  153.1065 H   0  0  0  0  0  0  0  0  0  0  0  0
  145.9017  132.0233  153.6841 H   0  0  0  0  0  0  0  0  0  0  0  0
  147.6968  131.3926  151.6345 H   0  0  0  0  0  0  0  0  0  0  0  0
  144.7819  131.0159  151.1413 H   0  0  0  0  0  0  0  0  0  0  0  0
  143.7449  132.3709  150.5793 H   0  0  0  0  0  0  0  0  0  0  0  0
  145.7407  134.4267  150.1031 H   0  0  0  0  0  0  0  0  0  0  0  0
  147.2435  133.5440  150.5408 H   0  0  0  0  0  0  0  0  0  0  0  0
  148.4538  138.7674  156.5464 H   0  0  0  0  0  0  0  0  0  0  0  0
  146.9502  139.6257  156.2658 H   0  0  0  0  0  0  0  0  0  0  0  0
  1  2  1  0  0  0  0
  1 28  1  0  0  0  0
  1 29  1  0  0  0  0
  1 30  1  0  0  0  0
  2  3  2  0  0  0  0
  2  4  1  0  0  0  0
  4  5  1  0  0  0  0
  4 31  1  0  0  0  0
  5  6  1  0  0  0  0
  5 32  1  0  0  0  0
  5 33  1  0  0  0  0
  6 27  1  0  0  0  0
  6  7  1  0  0  0  0
  6 34  1  0  0  0  0
  7  8  1  0  0  0  0
  7 35  1  0  0  0  0
  7 36  1  0  0  0  0
  8  9  1  0  0  0  0
  8 37  1  0  0  0  0
  8 38  1  0  0  0  0
  9 10  1  0  0  0  0
  9 39  1  0  0  0  0
  9 40  1  0  0  0  0
 10 11  1  0  0  0  0
 10 27  1  0  0  0  0
 11 16  1  0  0  0  0
 11 12  2  0  0  0  0
 12 13  1  0  0  0  0
 13 14  2  0  0  0  0
 13 41  1  0  0  0  0
 14 15  1  0  0  0  0
 15 19  1  0  0  0  0
 15 16  2  0  0  0  0
 16 17  1  0  0  0  0
 17 18  2  0  0  0  0
 18 19  1  0  0  0  0
 18 42  1  0  0  0  0
 19 20  1  0  0  0  0
 20 21  1  0  0  0  0
 20 43  1  0  0  0  0
 20 44  1  0  0  0  0
 21 26  1  0  0  0  0
 21 22  1  0  0  0  0
 21 24  1  0  0  0  0
 22 23  1  0  0  0  0
 22 45  1  0  0  0  0
 22 46  1  0  0  0  0
 23 47  1  0  0  0  0
 24 25  1  0  0  0  0
 24 48  1  0  0  0  0
 24 49  1  0  0  0  0
 25 26  1  0  0  0  0
 26 50  1  0  0  0  0
 26 51  1  0  0  0  0
 27 52  1  0  0  0  0
 27 53  1  0  0  0  0
M  END
> <s_m_source_file>
AV-unprocessed.smi

> <i_m_source_file_index>
204

> <i_lp_mmshare_version>
43012

> <i_f3d_flags>
0

> <s_epik_input>
W0NIM11DKD1PKVtOSF1bQ0gyXVtDQEBIXTFbQ0gyXVtDSDJdW0NIMl1OKFtDSDJdMSljKG5bY0hdbjIpYyhjMjMpbltjSF1uM1tDSDJdQzQoW0NIMl1bT0hdKVtDSDJdT1tDSDJdNA==

> <s_epik_cmdline>
J2VwaWtfcHl0aG9uJywgJy1waCcsICc3LjAnLCAnLXRuJywgJzgnLCAnLW1hJywgJzIwMCcsICctbWV0YWxfYmluZGluZycsICctaW1hZScsICc8aW5maWxlLm1hZT4nLCAnLW9tYWUnLCAnPG91dGZpbGUubWFlPic=

> <r_lp_tautomer_probability>
1

> <r_epik_Ionization_Penalty>
0.00166599

> <r_epik_Ionization_Penalty_Charging>
0

> <r_epik_Ionization_Penalty_Neutral>
0.00166599

> <r_epik_State_Penalty>
0.000989951

> <r_epik_Charging_Adjusted_Penalty>
0.000989951

> <i_epik_Tot_Q>
0

> <i_epik_Tot_abs_Q>
0

> <r_epik_Metal_State_Penalty>
-0

> <b_epik_Metal_Only>
0

> <s_lp_Force_Field>
OPLS_2005

> <r_lp_Energy>
36.8691

> <b_lp_Chiralities_Consistent>
1

> <s_lp_Variant>
AV-unprocessed.smi:204-1

> <Gold.Version>
5.8.1

> <Gold.Id.Protein>
6NUR|6NUR_protein|mol2

> <Gold.PLP.Fitness>
37.9099

> <Gold.PLP.PLP>
-31.1932

> <Gold.PLP.part.hbond>
-2.1180

> <Gold.PLP.part.metal>
0.0000

> <Gold.PLP.part.buried>
-3.2262

> <Gold.PLP.part.nonpolar>
-25.9005

> <Gold.PLP.part.repulsive>
0.6486

> <Gold.PLP.ligand.clash>
0.1775

> <Gold.PLP.ligand.torsion>
1.3172

> <Gold.PLP.Chemscore.Hbond>
1.9920

> <Gold.PLP.Chemscore.CHOScore>
0.9887

> <Gold.PLP.Chemscore.Metal>
0.0000

> <Gold.Chemscore.Hbonds>
donor molecule, donor type, donor heavy atom, donor atom, acceptor molecule, acceptor atom, score
      L1  H     4    31       P1  8028  1.00
      L1  H    23    47       P1 10747  0.96
      L1  C    18    42       P1 10171  0.98

> <Gold.PLP.Chemscore.Internal.Correction>
0.5866

> <Gold.Rescore>
     Score         DG    S(hbond)    S(metal)    S(lipo)     H(rot)  DE(clash)    DE(int)     intcor
      8.46     -12.08       1.95        0.00      73.46       3.33       0.02       3.60       ----

> <Gold.Chemscore.Fitness>
8.4625

> <Gold.Chemscore.DG>
-12.0809

> <Gold.Chemscore.ZeroCoef>
-5.4800

> <Gold.Chemscore.Hbond>
1.9525

> <Gold.Chemscore.Metal>
0.0000

> <Gold.Chemscore.Lipo>
73.4559

> <Gold.Chemscore.Internal_Hbond>
0.0000

> <Gold.Chemscore.DEClash>
0.0174

> <Gold.Chemscore.DEInternal>
3.6010

> <Gold.Chemscore.Rot>
3.3261

> <Gold.Chemscore.Internal.Correction>
   9.000000E+99

> <Gold.Chemscore.Hbonds>
donor molecule, donor type, donor heavy atom, donor atom, acceptor molecule, acceptor atom, score
      L1  H     4    31       P1  8028  0.98
      L1  H    23    47       P1 10747  0.91

> <Gold.Chemscore.Hbond.Weighted>
-6.5215

> <Gold.Chemscore.Metal.Weighted>
-0.0000

> <Gold.Chemscore.Lipo.Weighted>
-8.5943

> <Gold.Chemscore.Internal_Hbond.Weighted>
0.0000

> <Gold.Chemscore.DEClash.Weighted>
0.0174

> <Gold.Chemscore.DEInternal.Weighted>
3.6010

> <Gold.Chemscore.Rot.Weighted>
8.5149

> <Gold.Chemscore.Internal.Correction.Weighted>
   9.000000E+99

> <Gold.Protein.RotatedTorsions>
[ 6907 6896 6895 6894 ] final -108.49 input  -60.11 | X-H torsion
[ 7974 7965 7964 7962 ] final -167.37 input  175.53 | X-H torsion
[ 8008 7997 7996 7995 ] final  -83.67 input   59.86 | X-H torsion
[ 10167 10162 10161 10158 ] final   67.76 input  -65.29 | X-H torsion
[ 10718 10713 10712 10709 ] final  -94.73 input   66.30 | X-H torsion
[ 10763 10752 10751 10750 ] final   85.62 input  -60.55 | X-H torsion
[ 11005 11000 10999 10996 ] final  129.27 input  -57.11 | X-H torsion

> <Gold.Protein.ActiveResidues>
 VAL166  LYS551  ARG553  GLY616  TRP617  ASP618  TYR619  PRO620  LYS621  CYS622 
 ASP623  PHE694  ASN695  SER759  ASP760  ASP761  ALA762  ILE779  LEU786  VAL792 
 PHE793  MET794  SER795  GLU796  ALA797  LYS798  CYS799  TRP800  GLU811  SER814 

> <Gold.Protein.RotatedAtoms>
  150.7505  133.9669  159.3533 H   0  0  0  0  0  0  0  0  0  0  0  0  # atno 6907 bound_to 6896
  151.7599  135.0810  160.0353 H   0  0  0  0  0  0  0  0  0  0  0  0  # atno 6908 bound_to 6896
  152.3410  133.6029  159.5912 H   0  0  0  0  0  0  0  0  0  0  0  0  # atno 6909 bound_to 6896
  144.7224  140.2529  143.6276 H   0  0  0  0  0  0  0  0  0  0  0  0  # atno 7974 bound_to 7965
  154.6215  140.0615  156.9621 H   0  0  0  0  0  0  0  0  0  0  0  0  # atno 8008 bound_to 7997
  155.1810  140.3299  155.4357 H   0  0  0  0  0  0  0  0  0  0  0  0  # atno 8009 bound_to 7997
  156.2434  140.1897  156.6906 H   0  0  0  0  0  0  0  0  0  0  0  0  # atno 8010 bound_to 7997
  140.0860  144.5029  150.7130 H   0  0  0  0  0  0  0  0  0  0  0  0  # atno 10167 bound_to 10162
  156.0032  130.5080  150.5971 H   0  0  0  0  0  0  0  0  0  0  0  0  # atno 10718 bound_to 10713
  153.1492  135.4610  154.9611 H   0  0  0  0  0  0  0  0  0  0  0  0  # atno 10763 bound_to 10752
  154.7811  135.3189  154.7990 H   0  0  0  0  0  0  0  0  0  0  0  0  # atno 10764 bound_to 10752
  153.8498  135.6922  153.4848 H   0  0  0  0  0  0  0  0  0  0  0  0  # atno 10765 bound_to 10752
  139.9606  134.9603  156.9124 H   0  0  0  0  0  0  0  0  0  0  0  0  # atno 11005 bound_to 11000
  145.8211  139.2044  143.1937 LP  0  0  0  0  0  0  0  0  0  0  0  0  # atno 17320 bound_to 7965
  146.0513  140.8066  142.9780 LP  0  0  0  0  0  0  0  0  0  0  0  0  # atno 17321 bound_to 7965
  140.7053  143.2463  151.4745 LP  0  0  0  0  0  0  0  0  0  0  0  0  # atno 17342 bound_to 10162
  139.5752  144.1836  152.1892 LP  0  0  0  0  0  0  0  0  0  0  0  0  # atno 17343 bound_to 10162
  157.3826  131.0783  151.1464 LP  0  0  0  0  0  0  0  0  0  0  0  0  # atno 17370 bound_to 10713
  157.2181  130.6469  149.5800 LP  0  0  0  0  0  0  0  0  0  0  0  0  # atno 17371 bound_to 10713
  140.5509  134.0628  155.7369 LP  0  0  0  0  0  0  0  0  0  0  0  0  # atno 17394 bound_to 11000
  141.1283  133.9346  157.2590 LP  0  0  0  0  0  0  0  0  0  0  0  0  # atno 17395 bound_to 11000

$$$$
