AV-unprocessed.smi:1065|AV-procd|sdf|4666|dock4
  -GOLD-   22720 3173D 1   1.00000     0.00000
 Structure written by MMmdl.
 39 40  0  0  0  0  0  0  0  0  1 V2000
  153.1122  142.9275  162.6487 C   0  0  0  0  0  0  0  0  0  0  0  0
  153.5767  141.7496  161.7807 C   0  0  0  0  0  0  0  0  0  0  0  0
  153.2346  141.8963  160.2837 C   0  0  2  0  0  0  0  0  0  0  0  0
  152.1446  142.9657  160.0727 C   0  0  0  0  0  0  0  0  0  0  0  0
  151.7899  143.1396  158.5870 C   0  0  0  0  0  0  0  0  0  0  0  0
  151.3448  141.8066  157.9481 C   0  0  1  0  0  0  0  0  0  0  0  0
  151.0008  141.9518  156.4533 C   0  0  0  0  0  0  0  0  0  0  0  0
  150.5635  140.6861  155.8801 N   0  0  0  0  0  0  0  0  0  0  0  0
  149.8123  140.5699  154.7759 C   0  0  0  0  0  0  0  0  0  0  0  0
  149.4300  141.5322  154.1108 O   0  0  0  0  0  0  0  0  0  0  0  0
  149.4268  139.1504  154.3606 C   0  0  0  0  0  0  0  0  0  0  0  0
  150.2588  138.1719  155.0346 N   0  0  0  0  0  0  0  0  0  0  0  0
  151.1516  137.3026  154.5568 C   0  0  0  0  0  0  0  0  0  0  0  0
  151.6857  136.5705  155.5226 N   0  0  0  0  0  0  0  0  0  0  0  0
  151.0571  137.0447  156.6620 N   0  0  0  0  0  0  0  0  0  0  0  0
  150.2090  137.9949  156.3788 N   0  0  0  0  0  0  0  0  0  0  0  0
  152.4324  140.7363  158.1590 C   0  0  0  0  0  0  0  0  0  0  0  0
  152.7877  140.5645  159.6447 C   0  0  0  0  0  0  0  0  0  0  0  0
  153.3077  142.7289  163.7026 H   0  0  0  0  0  0  0  0  0  0  0  0
  152.0416  143.1015  162.5383 H   0  0  0  0  0  0  0  0  0  0  0  0
  153.6327  143.8494  162.3906 H   0  0  0  0  0  0  0  0  0  0  0  0
  154.6507  141.6062  161.9048 H   0  0  0  0  0  0  0  0  0  0  0  0
  153.1060  140.8437  162.1647 H   0  0  0  0  0  0  0  0  0  0  0  0
  154.1337  142.2365  159.7674 H   0  0  0  0  0  0  0  0  0  0  0  0
  151.2472  142.6919  160.6293 H   0  0  0  0  0  0  0  0  0  0  0  0
  152.4765  143.9223  160.4777 H   0  0  0  0  0  0  0  0  0  0  0  0
  151.0027  143.8887  158.4963 H   0  0  0  0  0  0  0  0  0  0  0  0
  152.6532  143.5357  158.0505 H   0  0  0  0  0  0  0  0  0  0  0  0
  150.4444  141.4702  158.4648 H   0  0  0  0  0  0  0  0  0  0  0  0
  150.2172  142.6998  156.3195 H   0  0  0  0  0  0  0  0  0  0  0  0
  151.8748  142.3034  155.9028 H   0  0  0  0  0  0  0  0  0  0  0  0
  150.8314  139.8435  156.3686 H   0  0  0  0  0  0  0  0  0  0  0  0
  148.3833  138.9566  154.6127 H   0  0  0  0  0  0  0  0  0  0  0  0
  149.5258  139.0319  153.2804 H   0  0  0  0  0  0  0  0  0  0  0  0
  151.4041  137.2049  153.5112 H   0  0  0  0  0  0  0  0  0  0  0  0
  152.0976  139.7805  157.7542 H   0  0  0  0  0  0  0  0  0  0  0  0
  153.3299  141.0079  157.6015 H   0  0  0  0  0  0  0  0  0  0  0  0
  153.5755  139.8166  159.7319 H   0  0  0  0  0  0  0  0  0  0  0  0
  151.9250  140.1680  160.1817 H   0  0  0  0  0  0  0  0  0  0  0  0
  1  2  1  0  0  0  0
  1 19  1  0  0  0  0
  1 20  1  0  0  0  0
  1 21  1  0  0  0  0
  2  3  1  0  0  0  0
  2 22  1  0  0  0  0
  2 23  1  0  0  0  0
  3 18  1  0  0  0  0
  3  4  1  0  0  0  0
  3 24  1  0  0  0  0
  4  5  1  0  0  0  0
  4 25  1  0  0  0  0
  4 26  1  0  0  0  0
  5  6  1  0  0  0  0
  5 27  1  0  0  0  0
  5 28  1  0  0  0  0
  6  7  1  0  0  0  0
  6 17  1  0  0  0  0
  6 29  1  0  0  0  0
  7  8  1  0  0  0  0
  7 30  1  0  0  0  0
  7 31  1  0  0  0  0
  8  9  1  0  0  0  0
  8 32  1  0  0  0  0
  9 10  2  0  0  0  0
  9 11  1  0  0  0  0
 11 12  1  0  0  0  0
 11 33  1  0  0  0  0
 11 34  1  0  0  0  0
 12 16  1  0  0  0  0
 12 13  1  0  0  0  0
 13 14  2  0  0  0  0
 13 35  1  0  0  0  0
 14 15  1  0  0  0  0
 15 16  2  0  0  0  0
 17 18  1  0  0  0  0
 17 36  1  0  0  0  0
 17 37  1  0  0  0  0
 18 38  1  0  0  0  0
 18 39  1  0  0  0  0
M  END
> <s_m_source_file>
AV-unprocessed.smi

> <i_m_source_file_index>
1065

> <i_lp_mmshare_version>
43012

> <i_f3d_flags>
0

> <s_epik_input>
W0NIM11bQ0gyXVtDQEBIXTFbQ0gyXVtDSDJdW0NASF0oW0NIMl1bQ0gyXTEpW0NIMl1bTkhdQyg9TylbQ0gyXW4yW2NIXW5ubjI=

> <s_epik_cmdline>
J2VwaWtfcHl0aG9uJywgJy1waCcsICc3LjAnLCAnLXRuJywgJzgnLCAnLW1hJywgJzIwMCcsICctbWV0YWxfYmluZGluZycsICctaW1hZScsICc8aW5maWxlLm1hZT4nLCAnLW9tYWUnLCAnPG91dGZpbGUubWFlPic=

> <r_lp_tautomer_probability>
1

> <r_epik_Ionization_Penalty>
4.54759e-07

> <r_epik_Ionization_Penalty_Charging>
0

> <r_epik_Ionization_Penalty_Neutral>
4.54759e-07

> <r_epik_State_Penalty>
-0

> <r_epik_Charging_Adjusted_Penalty>
0

> <i_epik_Tot_Q>
0

> <i_epik_Tot_abs_Q>
0

> <r_epik_Metal_State_Penalty>
-0

> <b_epik_Metal_Only>
0

> <s_lp_Force_Field>
OPLS_2005

> <r_lp_Energy>
13.9446

> <b_lp_Chiralities_Consistent>
1

> <s_lp_Variant>
AV-unprocessed.smi:1065-1

> <Gold.Version>
5.8.1

> <Gold.Id.Protein>
6NUR|6NUR_protein|mol2

> <Gold.PLP.Fitness>
45.4003

> <Gold.PLP.PLP>
-39.4055

> <Gold.PLP.part.hbond>
-3.0000

> <Gold.PLP.part.metal>
0.0000

> <Gold.PLP.part.buried>
-3.4912

> <Gold.PLP.part.nonpolar>
-32.8389

> <Gold.PLP.part.repulsive>
0.3727

> <Gold.PLP.ligand.clash>
0.0000

> <Gold.PLP.ligand.torsion>
0.9743

> <Gold.PLP.Chemscore.Hbond>
1.6400

> <Gold.PLP.Chemscore.CHOScore>
1.0000

> <Gold.PLP.Chemscore.Metal>
0.0000

> <Gold.Chemscore.Hbonds>
donor molecule, donor type, donor heavy atom, donor atom, acceptor molecule, acceptor atom, score
      P1  H  8011  8017       L1    10  0.64
      P1  H 10752 10764       L1    14  1.00
      L1  C    13    35       P1  7949  1.00

> <Gold.PLP.Chemscore.Internal.Correction>
0.0234

> <Gold.Rescore>
     Score         DG    S(hbond)    S(metal)    S(lipo)     H(rot)  DE(clash)    DE(int)     intcor
     12.38     -15.06       1.56        0.00      90.89       2.45       0.16       2.51       ----

> <Gold.Chemscore.Fitness>
12.3807

> <Gold.Chemscore.DG>
-15.0602

> <Gold.Chemscore.ZeroCoef>
-5.4800

> <Gold.Chemscore.Hbond>
1.5633

> <Gold.Chemscore.Metal>
0.0000

> <Gold.Chemscore.Lipo>
90.8862

> <Gold.Chemscore.Internal_Hbond>
0.0000

> <Gold.Chemscore.DEClash>
0.1650

> <Gold.Chemscore.DEInternal>
2.5146

> <Gold.Chemscore.Rot>
2.4512

> <Gold.Chemscore.Internal.Correction>
   9.000000E+99

> <Gold.Chemscore.Hbonds>
donor molecule, donor type, donor heavy atom, donor atom, acceptor molecule, acceptor atom, score
      P1  H  8011  8017       L1    10  0.60
      P1  H 10752 10764       L1    14  0.87

> <Gold.Chemscore.Hbond.Weighted>
-5.2215

> <Gold.Chemscore.Metal.Weighted>
-0.0000

> <Gold.Chemscore.Lipo.Weighted>
-10.6337

> <Gold.Chemscore.Internal_Hbond.Weighted>
0.0000

> <Gold.Chemscore.DEClash.Weighted>
0.1650

> <Gold.Chemscore.DEInternal.Weighted>
2.5146

> <Gold.Chemscore.Rot.Weighted>
6.2750

> <Gold.Chemscore.Internal.Correction.Weighted>
   9.000000E+99

> <Gold.Protein.RotatedTorsions>
[ 6907 6896 6895 6894 ] final   51.73 input  -60.11 | X-H torsion
[ 7974 7965 7964 7962 ] final -166.64 input  175.53 | X-H torsion
[ 8008 7997 7996 7995 ] final  -10.61 input   59.86 | X-H torsion
[ 10167 10162 10161 10158 ] final -117.66 input  -65.29 | X-H torsion
[ 10718 10713 10712 10709 ] final  145.35 input   66.30 | X-H torsion
[ 10763 10752 10751 10750 ] final  -29.21 input  -60.55 | X-H torsion
[ 11005 11000 10999 10996 ] final  106.46 input  -57.11 | X-H torsion

> <Gold.Protein.ActiveResidues>
 VAL166  LYS551  ARG553  GLY616  TRP617  ASP618  TYR619  PRO620  LYS621  CYS622 
 ASP623  PHE694  ASN695  SER759  ASP760  ASP761  ALA762  ILE779  LEU786  VAL792 
 PHE793  MET794  SER795  GLU796  ALA797  LYS798  CYS799  TRP800  GLU811  SER814 

> <Gold.Protein.RotatedAtoms>
  152.3158  134.7442  160.0325 H   0  0  0  0  0  0  0  0  0  0  0  0  # atno 6907 bound_to 6896
  151.7907  133.3354  159.3506 H   0  0  0  0  0  0  0  0  0  0  0  0  # atno 6908 bound_to 6896
  150.7343  134.5776  159.5966 H   0  0  0  0  0  0  0  0  0  0  0  0  # atno 6909 bound_to 6896
  144.7241  140.2636  143.6261 H   0  0  0  0  0  0  0  0  0  0  0  0  # atno 7974 bound_to 7965
  154.5539  140.2324  155.8441 H   0  0  0  0  0  0  0  0  0  0  0  0  # atno 8008 bound_to 7997
  156.1971  140.3062  155.9410 H   0  0  0  0  0  0  0  0  0  0  0  0  # atno 8009 bound_to 7997
  155.3018  140.0431  157.3020 H   0  0  0  0  0  0  0  0  0  0  0  0  # atno 8010 bound_to 7997
  140.0659  143.4923  152.2006 H   0  0  0  0  0  0  0  0  0  0  0  0  # atno 10167 bound_to 10162
  157.3464  131.0944  151.1038 H   0  0  0  0  0  0  0  0  0  0  0  0  # atno 10718 bound_to 10713
  153.7610  135.6919  153.4925 H   0  0  0  0  0  0  0  0  0  0  0  0  # atno 10763 bound_to 10752
  153.1939  135.4461  155.0182 H   0  0  0  0  0  0  0  0  0  0  0  0  # atno 10764 bound_to 10752
  154.8153  135.3396  154.7125 H   0  0  0  0  0  0  0  0  0  0  0  0  # atno 10765 bound_to 10752
  139.8814  134.9370  156.5669 H   0  0  0  0  0  0  0  0  0  0  0  0  # atno 11005 bound_to 11000
  145.8111  139.2003  143.1992 LP  0  0  0  0  0  0  0  0  0  0  0  0  # atno 17320 bound_to 7965
  146.0595  140.7986  142.9742 LP  0  0  0  0  0  0  0  0  0  0  0  0  # atno 17321 bound_to 7965
  139.5865  144.7533  151.3506 LP  0  0  0  0  0  0  0  0  0  0  0  0  # atno 17342 bound_to 10162
  140.7149  143.7292  150.7636 LP  0  0  0  0  0  0  0  0  0  0  0  0  # atno 17343 bound_to 10162
  157.2231  130.6490  149.5819 LP  0  0  0  0  0  0  0  0  0  0  0  0  # atno 17370 bound_to 10713
  155.9715  130.4623  150.6140 LP  0  0  0  0  0  0  0  0  0  0  0  0  # atno 17371 bound_to 10713
  140.8127  133.8416  155.8824 LP  0  0  0  0  0  0  0  0  0  0  0  0  # atno 17394 bound_to 11000
  140.9491  134.1802  157.4741 LP  0  0  0  0  0  0  0  0  0  0  0  0  # atno 17395 bound_to 11000

$$$$
