#       Name:                AV-unprocessed.smi:2158
#       Creating user name   scv26
#       Creation time:       Fri Mar 27 11:56:46 2020


#       File generated by GOLD software.
#

@<TRIPOS>MOLECULE
AV-unprocessed.smi:2158
    37    37     1
SMALL
NO_CHARGES


@<TRIPOS>ATOM
      1 ****        -2.5375   0.5437   1.4655 C.3            1 S1                 0.0000
      2 ****        -2.6831  -0.3211   0.2049 C.3            1 S1                 0.0000
      3 ****        -2.0119   0.2825  -1.0433 C.3            1 S1                 0.0000
      4 ****        -2.2549  -0.5850  -2.2888 C.3            1 S1                 0.0000
      5 ****        -0.5792   0.4377  -0.8112 N.am           1 S1                 0.0000
      6 ****         0.2278   1.3285  -1.4124 C.2            1 S1                 0.0000
      7 ****        -0.1728   2.1253  -2.2602 O.2            1 S1                 0.0000
      8 ****         1.7129   1.3468  -1.0100 C.3            1 S1                 0.0000
      9 ****         2.0823   0.3635   0.0223 N.am           1 S1                 0.0000
     10 ****         2.0942   0.7301   1.3607 C.2            1 S1                 0.0000
     11 ****         2.4057  -0.1230   2.3649 C.2            1 S1                 0.0000
     12 ****         2.7535  -1.5097   2.0749 C.2            1 S1                 0.0000
     13 ****         3.0485  -2.3574   2.9141 O.2            1 S1                 0.0000
     14 ****         2.7299  -1.8403   0.7173 N.am           1 S1                 0.0000
     15 ****         2.4091  -0.9665  -0.3225 C.2            1 S1                 0.0000
     16 ****         2.4082  -1.3645  -1.4866 O.2            1 S1                 0.0000
     17 ****         2.9622  -2.7908   0.4680 H              1 S1                 0.0000
     18 ****        -3.0678   0.0939   2.3052 H              1 S1                 0.0000
     19 ****        -2.9504   1.5404   1.3082 H              1 S1                 0.0000
     20 ****        -1.4933   0.6549   1.7591 H              1 S1                 0.0000
     21 ****        -2.2731  -1.3125   0.4016 H              1 S1                 0.0000
     22 ****        -3.7450  -0.4677   0.0043 H              1 S1                 0.0000
     23 ****        -2.4514   1.2662  -1.2184 H              1 S1                 0.0000
     24 ****        -3.3213  -0.7037  -2.4811 H              1 S1                 0.0000
     25 ****        -1.8255  -1.5802  -2.1685 H              1 S1                 0.0000
     26 ****        -1.8110  -0.1363  -3.1782 H              1 S1                 0.0000
     27 ****        -0.1639  -0.1822  -0.1308 H              1 S1                 0.0000
     28 ****         2.3180   1.2054  -1.9073 H              1 S1                 0.0000
     29 ****         1.9551   2.3526  -0.6634 H              1 S1                 0.0000
     30 ****         1.8383   1.7470   1.6226 H              1 S1                 0.0000
     31 ****         2.3961   0.2220   3.3888 H              1 S1                 0.0000
     32 ****        -1.1361   2.1277  -2.5285 LP             1 S1                 0.0000
     33 ****         0.4650   2.7705  -2.6809 LP             1 S1                 0.0000
     34 ****         3.0627  -2.1165   3.8846 LP             1 S1                 0.0000
     35 ****         3.2744  -3.2881   2.6266 LP             1 S1                 0.0000
     36 ****         2.1702  -0.7382  -2.2289 LP             1 S1                 0.0000
     37 ****         2.6455  -2.3143  -1.6905 LP             1 S1                 0.0000
@<TRIPOS>BOND
    1    1    2 1     
    2    1   18 1     
    3    1   19 1     
    4    1   20 1     
    5    2    3 1     
    6    2   21 1     
    7    2   22 1     
    8    3    4 1     
    9    3    5 1     
   10    3   23 1     
   11    4   24 1     
   12    4   25 1     
   13    4   26 1     
   14    5    6 am    
   15    5   27 1     
   16    6    7 2     
   17    6    8 1     
   18    8    9 1     
   19    8   28 1     
   20    8   29 1     
   21    9   15 1     
   22    9   10 1     
   23   10   11 2     
   24   10   30 1     
   25   11   12 1     
   26   11   31 1     
   27   12   13 2     
   28   12   14 1     
   29   14   17 1     
   30   14   15 1     
   31   15   16 2     
   32    7   32 1     
   33    7   33 1     
   34   13   34 1     
   35   13   35 1     
   36   16   36 1     
   37   16   37 1     
@<TRIPOS>SUBSTRUCTURE
      1 S1             1
@<TRIPOS>SET
LONE_PAIRS      STATIC     ATOMS    <user>   **** ""
6 32 33 34 35 36 37
DONOR_HYDROGENS      STATIC     ATOMS    <user>   **** ""
2 27 17
ATOM$BLUE        STATIC     ATOMS    COLORGROUP SYSTEM
6 32 33 34 35 36 37
ATOM$RED        STATIC     ATOMS    COLORGROUP SYSTEM
2 27 17
