AV-unprocessed.smi:2226|AV-procd|sdf|9006|dock8
  -GOLD-   2272012213D 1   1.00000     0.00000
 Structure written by MMmdl.
 41 43  0  0  0  0  0  0  0  0  3 V2000
  149.6628  140.5934  154.6568 C   0  0  0  0  0  0  0  0  0  0  0  0
  148.2736  141.0409  154.9150 N   0  3  2  0  0  0  0  0  0  0  0  0
  147.4648  140.1191  155.7493 C   0  0  1  0  0  0  0  0  0  0  0  0
  146.2417  140.8895  156.3003 C   0  0  0  0  0  0  0  0  0  0  0  0
  145.4098  141.6037  155.2147 C   0  0  0  0  0  0  0  0  0  0  0  0
  146.2897  142.2823  154.1443 C   0  0  0  0  0  0  0  0  0  0  0  0
  147.5104  141.4386  153.7069 C   0  0  2  0  0  0  0  0  0  0  0  0
  147.1709  140.2102  152.8243 C   0  0  0  0  0  0  0  0  0  0  0  0
  146.5040  139.0393  153.5823 C   0  0  1  0  0  0  0  0  0  0  0  0
  146.6270  137.8129  152.7928 N   0  0  0  0  0  0  0  0  0  0  0  0
  145.6275  136.9657  152.4978 C   0  0  0  0  0  0  0  0  0  0  0  0
  144.4631  137.1243  152.8650 O   0  0  0  0  0  0  0  0  0  0  0  0
  146.0556  135.9314  151.7569 N   0  0  0  0  0  0  0  0  0  0  0  0
  145.2512  134.8688  151.2833 C   0  0  0  0  0  0  0  0  0  0  0  0
  145.2609  134.4294  150.0257 N   0  3  0  0  0  0  0  0  0  0  0  0
  144.3653  133.3949  149.9134 C   0  0  0  0  0  0  0  0  0  0  0  0
  143.8191  133.2364  151.1644 C   0  0  0  0  0  0  0  0  0  0  0  0
  144.3661  134.1560  152.0367 O   0  0  0  0  0  0  0  0  0  0  0  0
  147.1227  138.8166  154.9816 C   0  0  0  0  0  0  0  0  0  0  0  0
  149.7002  139.6783  154.0666 H   0  0  0  0  0  0  0  0  0  0  0  0
  150.1830  140.4103  155.5973 H   0  0  0  0  0  0  0  0  0  0  0  0
  150.2160  141.3645  154.1200 H   0  0  0  0  0  0  0  0  0  0  0  0
  148.0668  139.8374  156.6147 H   0  0  0  0  0  0  0  0  0  0  0  0
  145.6035  140.2254  156.8842 H   0  0  0  0  0  0  0  0  0  0  0  0
  146.6033  141.6441  157.0002 H   0  0  0  0  0  0  0  0  0  0  0  0
  144.7151  140.9093  154.7507 H   0  0  0  0  0  0  0  0  0  0  0  0
  144.7692  142.3516  155.6836 H   0  0  0  0  0  0  0  0  0  0  0  0
  145.6838  142.5543  153.2793 H   0  0  0  0  0  0  0  0  0  0  0  0
  146.6578  143.2232  154.5559 H   0  0  0  0  0  0  0  0  0  0  0  0
  148.1449  142.0991  153.1139 H   0  0  0  0  0  0  0  0  0  0  0  0
  146.5397  140.5155  151.9889 H   0  0  0  0  0  0  0  0  0  0  0  0
  148.0967  139.8560  152.3690 H   0  0  0  0  0  0  0  0  0  0  0  0
  145.4500  139.2702  153.7081 H   0  0  0  0  0  0  0  0  0  0  0  0
  147.5493  137.5943  152.4443 H   0  0  0  0  0  0  0  0  0  0  0  0
  145.8181  134.7711  149.2525 H   0  0  0  0  0  0  0  0  0  0  0  0
  144.2087  132.8846  148.9738 H   0  0  0  0  0  0  0  0  0  0  0  0
  143.0805  132.5640  151.5764 H   0  0  0  0  0  0  0  0  0  0  0  0
  148.0407  138.2370  154.8749 H   0  0  0  0  0  0  0  0  0  0  0  0
  146.4594  138.1936  155.5830 H   0  0  0  0  0  0  0  0  0  0  0  0
  148.3754  141.8843  155.4621 H   0  0  0  0  0  0  0  0  0  0  0  0
  147.0340  135.9001  151.5116 H   0  0  0  0  0  0  0  0  0  0  0  0
  1  2  1  0  0  0  0
  1 20  1  0  0  0  0
  1 21  1  0  0  0  0
  1 22  1  0  0  0  0
  2  7  1  0  0  0  0
  2  3  1  0  0  0  0
  2 40  1  0  0  0  0
  3 19  1  0  0  0  0
  3  4  1  0  0  0  0
  3 23  1  0  0  0  0
  4  5  1  0  0  0  0
  4 24  1  0  0  0  0
  4 25  1  0  0  0  0
  5  6  1  0  0  0  0
  5 26  1  0  0  0  0
  5 27  1  0  0  0  0
  6  7  1  0  0  0  0
  6 28  1  0  0  0  0
  6 29  1  0  0  0  0
  7  8  1  0  0  0  0
  7 30  1  0  0  0  0
  8  9  1  0  0  0  0
  8 31  1  0  0  0  0
  8 32  1  0  0  0  0
  9 10  1  0  0  0  0
  9 19  1  0  0  0  0
  9 33  1  0  0  0  0
 10 34  1  0  0  0  0
 10 11  1  0  0  0  0
 11 13  1  0  0  0  0
 11 12  2  0  0  0  0
 13 14  1  0  0  0  0
 13 41  1  0  0  0  0
 14 18  1  0  0  0  0
 14 15  2  0  0  0  0
 15 35  1  0  0  0  0
 15 16  1  0  0  0  0
 16 36  1  0  0  0  0
 16 17  2  0  0  0  0
 17 37  1  0  0  0  0
 17 18  1  0  0  0  0
 19 38  1  0  0  0  0
 19 39  1  0  0  0  0
M  CHG  1   2   1
M  CHG  1  15   1
M  END
> <s_m_source_file>
AV-unprocessed.smi

> <i_m_source_file_index>
2226

> <i_lp_mmshare_version>
43012

> <i_f3d_flags>
0

> <s_epik_input>
W0NIMl0xW0NIMl1bQ0gyXVtDQEhdKE4oW0NIM10pW0NIXTEyKVtDSDJdW0NASF0oW0NIMl0yKVtOSF1DKD1PKVtOSF1jM25bY0hdW2NIXW8z

> <s_epik_cmdline>
J2VwaWtfcHl0aG9uJywgJy1waCcsICc3LjAnLCAnLXRuJywgJzgnLCAnLW1hJywgJzIwMCcsICctbWV0YWxfYmluZGluZycsICctaW1hZScsICc8aW5maWxlLm1hZT4nLCAnLW9tYWUnLCAnPG91dGZpbGUubWFlPic=

> <r_epik_Ionization_Penalty>
6.92532

> <r_epik_Ionization_Penalty_Charging>
6.82059

> <r_epik_Ionization_Penalty_Neutral>
0.104727

> <r_epik_State_Penalty>
2.17671

> <r_epik_Charging_Adjusted_Penalty>
8.99731

> <i_epik_Tot_Q>
2

> <i_epik_Tot_abs_Q>
2

> <r_epik_Metal_State_Penalty>
2.20618

> <b_epik_Metal_Only>
0

> <s_lp_Force_Field>
OPLS_2005

> <r_lp_Energy>
47.1954

> <b_lp_Chiralities_Consistent>
1

> <s_lp_Variant>
AV-unprocessed.smi:2226-6

> <Gold.Version>
5.8.1

> <Gold.Id.Protein>
6NUR|6NUR_protein|mol2

> <Gold.PLP.Fitness>
35.3014

> <Gold.PLP.PLP>
-27.4184

> <Gold.PLP.part.hbond>
-3.0000

> <Gold.PLP.part.metal>
0.0000

> <Gold.PLP.part.buried>
-3.4474

> <Gold.PLP.part.nonpolar>
-21.9477

> <Gold.PLP.part.repulsive>
0.5459

> <Gold.PLP.ligand.clash>
0.0000

> <Gold.PLP.ligand.torsion>
0.5498

> <Gold.PLP.Chemscore.Hbond>
2.9920

> <Gold.PLP.Chemscore.CHOScore>
0.0000

> <Gold.PLP.Chemscore.Metal>
0.0000

> <Gold.Chemscore.Hbonds>
donor molecule, donor type, donor heavy atom, donor atom, acceptor molecule, acceptor atom, score
      L1  H    10    34       P1  7948  1.00
      L1  H    13    41       P1  7948  1.00
      L1  H    15    35       P1  7921  1.00

> <Gold.PLP.Chemscore.Internal.Correction>
0.0066

> <Gold.Rescore>
     Score         DG    S(hbond)    S(metal)    S(lipo)     H(rot)  DE(clash)    DE(int)     intcor
     17.99     -19.19       2.84        0.00      57.84       1.00       0.59       0.61       ----

> <Gold.Chemscore.Fitness>
17.9860

> <Gold.Chemscore.DG>
-19.1871

> <Gold.Chemscore.ZeroCoef>
-5.4800

> <Gold.Chemscore.Hbond>
2.8443

> <Gold.Chemscore.Metal>
0.0000

> <Gold.Chemscore.Lipo>
57.8392

> <Gold.Chemscore.Internal_Hbond>
0.0000

> <Gold.Chemscore.DEClash>
0.5892

> <Gold.Chemscore.DEInternal>
0.6119

> <Gold.Chemscore.Rot>
1.0000

> <Gold.Chemscore.Internal.Correction>
   9.000000E+99

> <Gold.Chemscore.Hbonds>
donor molecule, donor type, donor heavy atom, donor atom, acceptor molecule, acceptor atom, score
      L1  H    10    34       P1  7948  0.89
      L1  H    13    41       P1  7948  0.97
      L1  H    15    35       P1  7921  0.85

> <Gold.Chemscore.Hbond.Weighted>
-9.5000

> <Gold.Chemscore.Metal.Weighted>
-0.0000

> <Gold.Chemscore.Lipo.Weighted>
-6.7672

> <Gold.Chemscore.Internal_Hbond.Weighted>
0.0000

> <Gold.Chemscore.DEClash.Weighted>
0.5892

> <Gold.Chemscore.DEInternal.Weighted>
0.6119

> <Gold.Chemscore.Rot.Weighted>
2.5600

> <Gold.Chemscore.Internal.Correction.Weighted>
   9.000000E+99

> <Gold.Protein.RotatedTorsions>
[ 6907 6896 6895 6894 ] final    7.53 input  -60.11 | X-H torsion
[ 7974 7965 7964 7962 ] final   77.46 input  175.53 | X-H torsion
[ 8008 7997 7996 7995 ] final   96.87 input   59.86 | X-H torsion
[ 10167 10162 10161 10158 ] final  127.77 input  -65.29 | X-H torsion
[ 10718 10713 10712 10709 ] final  139.31 input   66.30 | X-H torsion
[ 10763 10752 10751 10750 ] final -104.56 input  -60.55 | X-H torsion
[ 11005 11000 10999 10996 ] final  -53.31 input  -57.11 | X-H torsion

> <Gold.Protein.ActiveResidues>
 VAL166  LYS551  ARG553  GLY616  TRP617  ASP618  TYR619  PRO620  LYS621  CYS622 
 ASP623  PHE694  ASN695  SER759  ASP760  ASP761  ALA762  ILE779  LEU786  VAL792 
 PHE793  MET794  SER795  GLU796  ALA797  LYS798  CYS799  TRP800  GLU811  SER814 

> <Gold.Protein.RotatedAtoms>
  151.6914  135.0946  160.0234 H   0  0  0  0  0  0  0  0  0  0  0  0  # atno 6907 bound_to 6896
  152.3776  133.6498  159.6144 H   0  0  0  0  0  0  0  0  0  0  0  0  # atno 6908 bound_to 6896
  150.7721  133.9084  159.3403 H   0  0  0  0  0  0  0  0  0  0  0  0  # atno 6909 bound_to 6896
  145.6897  139.2548  143.1767 H   0  0  0  0  0  0  0  0  0  0  0  0  # atno 7974 bound_to 7965
  156.0842  140.3266  155.7733 H   0  0  0  0  0  0  0  0  0  0  0  0  # atno 8008 bound_to 7997
  155.5103  140.0576  157.2942 H   0  0  0  0  0  0  0  0  0  0  0  0  # atno 8009 bound_to 7997
  154.4600  140.1961  156.0289 H   0  0  0  0  0  0  0  0  0  0  0  0  # atno 8010 bound_to 7997
  139.5561  144.6850  151.4178 H   0  0  0  0  0  0  0  0  0  0  0  0  # atno 10167 bound_to 10162
  157.4158  131.1033  151.0406 H   0  0  0  0  0  0  0  0  0  0  0  0  # atno 10718 bound_to 10713
  154.7886  135.4782  154.0002 H   0  0  0  0  0  0  0  0  0  0  0  0  # atno 10763 bound_to 10752
  153.1598  135.6806  153.8767 H   0  0  0  0  0  0  0  0  0  0  0  0  # atno 10764 bound_to 10752
  153.8384  135.3182  155.3402 H   0  0  0  0  0  0  0  0  0  0  0  0  # atno 10765 bound_to 10752
  141.0969  133.6623  156.4153 H   0  0  0  0  0  0  0  0  0  0  0  0  # atno 11005 bound_to 11000
  146.0893  140.7675  142.9603 LP  0  0  0  0  0  0  0  0  0  0  0  0  # atno 17320 bound_to 7965
  144.7000  140.3611  143.7163 LP  0  0  0  0  0  0  0  0  0  0  0  0  # atno 17321 bound_to 7965
  140.6834  143.8029  150.7153 LP  0  0  0  0  0  0  0  0  0  0  0  0  # atno 17342 bound_to 10162
  140.1489  143.4375  152.2144 LP  0  0  0  0  0  0  0  0  0  0  0  0  # atno 17343 bound_to 10162
  157.1354  130.6120  149.5540 LP  0  0  0  0  0  0  0  0  0  0  0  0  # atno 17370 bound_to 10713
  155.9865  130.4899  150.7080 LP  0  0  0  0  0  0  0  0  0  0  0  0  # atno 17371 bound_to 10713
  140.5118  134.6388  157.5287 LP  0  0  0  0  0  0  0  0  0  0  0  0  # atno 17394 bound_to 11000
  139.9808  134.7140  155.9862 LP  0  0  0  0  0  0  0  0  0  0  0  0  # atno 17395 bound_to 11000

$$$$
