AV-unprocessed.smi:1399|AV-procd|sdf|5685|dock10
  -GOLD-   22720 5313D 1   1.00000     0.00000
 Structure written by MMmdl.
 37 38  0  0  0  0  0  0  0  0  3 V2000
  152.4674  139.9114  156.1262 N   0  5  0  0  0  0  0  0  0  0  0  0
  151.5825  139.5440  155.1795 C   0  0  0  0  0  0  0  0  0  0  0  0
  150.7336  140.2408  154.6272 O   0  0  0  0  0  0  0  0  0  0  0  0
  151.7290  138.0722  154.7786 C   0  0  0  0  0  0  0  0  0  0  0  0
  150.6295  137.2665  155.3669 N   0  3  2  0  0  0  0  0  0  0  0  0
  150.6550  135.8568  154.9007 C   0  0  0  0  0  0  0  0  0  0  0  0
  149.5985  135.0086  155.6305 C   0  0  0  0  0  0  0  0  0  0  0  0
  148.1828  135.6021  155.4897 C   0  0  2  0  0  0  0  0  0  0  0  0
  147.6679  135.4688  154.1271 N   0  0  0  0  0  0  0  0  0  0  0  0
  146.5192  134.8661  153.7876 C   0  0  0  0  0  0  0  0  0  0  0  0
  145.7635  134.3349  154.6009 O   0  0  0  0  0  0  0  0  0  0  0  0
  146.3144  134.9193  152.4617 N   0  0  0  0  0  0  0  0  0  0  0  0
  145.2107  134.3962  151.7430 C   0  0  0  0  0  0  0  0  0  0  0  0
  144.2218  133.4587  152.1634 C   0  0  0  0  0  0  0  0  0  0  0  0
  143.3463  133.2202  151.1972 N   0  0  0  0  0  0  0  0  0  0  0  0
  143.7639  133.9927  150.1693 N   0  0  0  0  0  0  0  0  0  0  0  0
  144.8944  134.7244  150.4585 C   0  0  0  0  0  0  0  0  0  0  0  0
  148.1984  137.0801  155.9158 C   0  0  0  0  0  0  0  0  0  0  0  0
  149.2875  137.8821  155.1808 C   0  0  0  0  0  0  0  0  0  0  0  0
  143.2725  134.0087  149.2869 H   0  0  0  0  0  0  0  0  0  0  0  0
  152.3162  139.6050  157.0949 H   0  0  0  0  0  0  0  0  0  0  0  0
  151.7700  137.9295  153.6965 H   0  0  0  0  0  0  0  0  0  0  0  0
  152.6892  137.7341  155.1709 H   0  0  0  0  0  0  0  0  0  0  0  0
  150.4905  135.8246  153.8227 H   0  0  0  0  0  0  0  0  0  0  0  0
  151.6411  135.4278  155.0827 H   0  0  0  0  0  0  0  0  0  0  0  0
  149.6247  133.9818  155.2643 H   0  0  0  0  0  0  0  0  0  0  0  0
  149.8578  134.9549  156.6886 H   0  0  0  0  0  0  0  0  0  0  0  0
  147.5072  135.0650  156.1578 H   0  0  0  0  0  0  0  0  0  0  0  0
  148.2212  135.8799  153.3896 H   0  0  0  0  0  0  0  0  0  0  0  0
  147.0193  135.3837  151.9081 H   0  0  0  0  0  0  0  0  0  0  0  0
  144.1042  132.9509  153.1091 H   0  0  0  0  0  0  0  0  0  0  0  0
  145.3578  135.3915  149.7465 H   0  0  0  0  0  0  0  0  0  0  0  0
  147.2207  137.5335  155.7478 H   0  0  0  0  0  0  0  0  0  0  0  0
  148.3787  137.1408  156.9900 H   0  0  0  0  0  0  0  0  0  0  0  0
  149.2853  138.9044  155.5594 H   0  0  0  0  0  0  0  0  0  0  0  0
  149.0591  137.9441  154.1158 H   0  0  0  0  0  0  0  0  0  0  0  0
  150.8081  137.2430  156.3611 H   0  0  0  0  0  0  0  0  0  0  0  0
  1  2  1  0  0  0  0
  1 21  1  0  0  0  0
  2  3  2  0  0  0  0
  2  4  1  0  0  0  0
  4  5  1  0  0  0  0
  4 22  1  0  0  0  0
  4 23  1  0  0  0  0
  5 19  1  0  0  0  0
  5  6  1  0  0  0  0
  5 37  1  0  0  0  0
  6  7  1  0  0  0  0
  6 24  1  0  0  0  0
  6 25  1  0  0  0  0
  7  8  1  0  0  0  0
  7 26  1  0  0  0  0
  7 27  1  0  0  0  0
  8  9  1  0  0  0  0
  8 18  1  0  0  0  0
  8 28  1  0  0  0  0
  9 10  1  0  0  0  0
  9 29  1  0  0  0  0
 10 11  2  0  0  0  0
 10 12  1  0  0  0  0
 12 13  1  0  0  0  0
 12 30  1  0  0  0  0
 13 17  2  0  0  0  0
 13 14  1  0  0  0  0
 14 15  2  0  0  0  0
 14 31  1  0  0  0  0
 15 16  1  0  0  0  0
 16 20  1  0  0  0  0
 16 17  1  0  0  0  0
 17 32  1  0  0  0  0
 18 19  1  0  0  0  0
 18 33  1  0  0  0  0
 18 34  1  0  0  0  0
 19 35  1  0  0  0  0
 19 36  1  0  0  0  0
M  CHG  1   1  -1
M  CHG  1   5   1
M  END
> <s_m_source_file>
AV-unprocessed.smi

> <i_m_source_file_index>
1399

> <i_lp_mmshare_version>
43012

> <i_f3d_flags>
0

> <s_epik_input>
W05IMl1DKD1PKVtDSDJdTjFbQ0gyXVtDSDJdW0NIXShbQ0gyXVtDSDJdMSlbTkhdQyg9TylbTkhdYzJbY0hdbltuSF1bY0hdMg==

> <s_epik_cmdline>
J2VwaWtfcHl0aG9uJywgJy1waCcsICc3LjAnLCAnLXRuJywgJzgnLCAnLW1hJywgJzIwMCcsICctbWV0YWxfYmluZGluZycsICctaW1hZScsICc8aW5maWxlLm1hZT4nLCAnLW9tYWUnLCAnPG91dGZpbGUubWFlPic=

> <r_lp_tautomer_probability>
0.5

> <r_epik_Ionization_Penalty>
5.72885

> <r_epik_Ionization_Penalty_Charging>
5.7288

> <r_epik_Ionization_Penalty_Neutral>
4.21226e-05

> <r_epik_State_Penalty>
6.54882

> <r_epik_Charging_Adjusted_Penalty>
12.2776

> <i_epik_Tot_Q>
0

> <i_epik_Tot_abs_Q>
2

> <r_epik_Metal_State_Penalty>
2.51297

> <b_epik_Metal_Only>
1

> <s_lp_Force_Field>
OPLS_2005

> <r_lp_Energy>
10.897

> <b_lp_Chiralities_Consistent>
1

> <s_lp_Variant>
AV-unprocessed.smi:1399-5

> <Gold.Version>
5.8.1

> <Gold.Id.Protein>
6NUR|6NUR_protein|mol2

> <Gold.PLP.Fitness>
43.5957

> <Gold.PLP.PLP>
-23.4191

> <Gold.PLP.part.hbond>
-5.0000

> <Gold.PLP.part.metal>
0.0000

> <Gold.PLP.part.buried>
-2.8728

> <Gold.PLP.part.nonpolar>
-15.9594

> <Gold.PLP.part.repulsive>
0.4447

> <Gold.PLP.ligand.clash>
0.0000

> <Gold.PLP.ligand.torsion>
0.3247

> <Gold.PLP.Chemscore.Hbond>
5.0076

> <Gold.PLP.Chemscore.CHOScore>
1.9272

> <Gold.PLP.Chemscore.Metal>
0.0000

> <Gold.Chemscore.Hbonds>
donor molecule, donor type, donor heavy atom, donor atom, acceptor molecule, acceptor atom, score
      L1  H     9    29       P1  7948  1.00
      L1  H    12    30       P1  7948  0.84
      L1  H    16    20       P1 10186  0.07
      P1  H  7989  7998       L1     3  0.95
      P1  H  7997  8009       L1     1  1.80
      L1  C    14    31       P1 10957  1.00
      L1  C    17    32       P1  7921  0.94

> <Gold.PLP.Chemscore.Internal.Correction>
0.0216

> <Gold.Rescore>
     Score         DG    S(hbond)    S(metal)    S(lipo)     H(rot)  DE(clash)    DE(int)     intcor
     18.02     -20.38       4.74        0.00      37.19       2.06       0.12       2.24       ----

> <Gold.Chemscore.Fitness>
18.0213

> <Gold.Chemscore.DG>
-20.3834

> <Gold.Chemscore.ZeroCoef>
-5.4800

> <Gold.Chemscore.Hbond>
4.7370

> <Gold.Chemscore.Metal>
0.0000

> <Gold.Chemscore.Lipo>
37.1893

> <Gold.Chemscore.Internal_Hbond>
0.0000

> <Gold.Chemscore.DEClash>
0.1183

> <Gold.Chemscore.DEInternal>
2.2437

> <Gold.Chemscore.Rot>
2.0584

> <Gold.Chemscore.Internal.Correction>
   9.000000E+99

> <Gold.Chemscore.Hbonds>
donor molecule, donor type, donor heavy atom, donor atom, acceptor molecule, acceptor atom, score
      L1  H     9    29       P1  7948  1.00
      L1  H    12    30       P1  7948  0.79
      L1  H    16    20       P1 10186  0.08
      P1  H  7989  7998       L1     3  0.21
      P1  H  7997  8009       L1     1  0.18

> <Gold.Chemscore.Hbond.Weighted>
-15.8217

> <Gold.Chemscore.Metal.Weighted>
-0.0000

> <Gold.Chemscore.Lipo.Weighted>
-4.3512

> <Gold.Chemscore.Internal_Hbond.Weighted>
0.0000

> <Gold.Chemscore.DEClash.Weighted>
0.1183

> <Gold.Chemscore.DEInternal.Weighted>
2.2437

> <Gold.Chemscore.Rot.Weighted>
5.2695

> <Gold.Chemscore.Internal.Correction.Weighted>
   9.000000E+99

> <Gold.Protein.RotatedTorsions>
[ 6907 6896 6895 6894 ] final   41.42 input  -60.11 | X-H torsion
[ 7974 7965 7964 7962 ] final  -28.33 input  175.53 | X-H torsion
[ 8008 7997 7996 7995 ] final -154.12 input   59.86 | X-H torsion
[ 10167 10162 10161 10158 ] final -168.08 input  -65.29 | X-H torsion
[ 10718 10713 10712 10709 ] final  157.90 input   66.30 | X-H torsion
[ 10763 10752 10751 10750 ] final   90.30 input  -60.55 | X-H torsion
[ 11005 11000 10999 10996 ] final  144.69 input  -57.11 | X-H torsion

> <Gold.Protein.ActiveResidues>
 VAL166  LYS551  ARG553  GLY616  TRP617  ASP618  TYR619  PRO620  LYS621  CYS622 
 ASP623  PHE694  ASN695  SER759  ASP760  ASP761  ALA762  ILE779  LEU786  VAL792 
 PHE793  MET794  SER795  GLU796  ALA797  LYS798  CYS799  TRP800  GLU811  SER814 

> <Gold.Protein.RotatedAtoms>
  152.1950  134.8639  160.0513 H   0  0  0  0  0  0  0  0  0  0  0  0  # atno 6907 bound_to 6896
  151.9513  133.3662  159.4009 H   0  0  0  0  0  0  0  0  0  0  0  0  # atno 6908 bound_to 6896
  150.6943  134.4261  159.5271 H   0  0  0  0  0  0  0  0  0  0  0  0  # atno 6909 bound_to 6896
  146.1295  140.5269  142.8699 H   0  0  0  0  0  0  0  0  0  0  0  0  # atno 7974 bound_to 7965
  155.6814  140.0744  157.2483 H   0  0  0  0  0  0  0  0  0  0  0  0  # atno 8008 bound_to 7997
  154.4105  140.1681  156.2038 H   0  0  0  0  0  0  0  0  0  0  0  0  # atno 8009 bound_to 7997
  155.9532  140.3375  155.6428 H   0  0  0  0  0  0  0  0  0  0  0  0  # atno 8010 bound_to 7997
  139.6008  144.1015  152.1740 H   0  0  0  0  0  0  0  0  0  0  0  0  # atno 10167 bound_to 10162
  157.1852  131.0641  151.2110 H   0  0  0  0  0  0  0  0  0  0  0  0  # atno 10718 bound_to 10713
  153.1961  135.4439  155.0209 H   0  0  0  0  0  0  0  0  0  0  0  0  # atno 10763 bound_to 10752
  154.8119  135.3298  154.7283 H   0  0  0  0  0  0  0  0  0  0  0  0  # atno 10764 bound_to 10752
  153.7732  135.6983  153.4958 H   0  0  0  0  0  0  0  0  0  0  0  0  # atno 10765 bound_to 10752
  140.0653  134.9182  157.1253 H   0  0  0  0  0  0  0  0  0  0  0  0  # atno 11005 bound_to 11000
  144.7676  140.5566  143.6692 LP  0  0  0  0  0  0  0  0  0  0  0  0  # atno 17320 bound_to 7965
  145.5291  139.1475  143.3510 LP  0  0  0  0  0  0  0  0  0  0  0  0  # atno 17321 bound_to 7965
  140.0611  144.5856  150.7262 LP  0  0  0  0  0  0  0  0  0  0  0  0  # atno 17342 bound_to 10162
  140.7248  143.2625  151.4158 LP  0  0  0  0  0  0  0  0  0  0  0  0  # atno 17343 bound_to 10162
  157.3914  130.7284  149.6700 LP  0  0  0  0  0  0  0  0  0  0  0  0  # atno 17370 bound_to 10713
  155.9719  130.4145  150.4136 LP  0  0  0  0  0  0  0  0  0  0  0  0  # atno 17371 bound_to 10713
  140.3709  134.2391  155.7178 LP  0  0  0  0  0  0  0  0  0  0  0  0  # atno 17394 bound_to 11000
  141.1990  133.8022  157.0557 LP  0  0  0  0  0  0  0  0  0  0  0  0  # atno 17395 bound_to 11000

$$$$
