#       Name:                AV-unprocessed.smi:487
#       Creating user name   scv26
#       Creation time:       Thu Mar 26 23:13:33 2020


#       File generated by GOLD software.
#

@<TRIPOS>MOLECULE
AV-unprocessed.smi:487
    47    48     1
SMALL
NO_CHARGES


@<TRIPOS>ATOM
      1 ****         0.7774   2.2847  -1.7112 O.2            1 S1                 0.0000
      2 ****         1.3409   1.6167  -0.8445 C.2            1 S1                 0.0000
      3 ****         2.7978   1.9470  -0.4758 C.3            1 S1                 0.0000
      4 ****         3.3846   1.0861   0.5679 N.am           1 S1                 0.0000
      5 ****         4.1368  -0.0246   0.1465 C.2            1 S1                 0.0000
      6 ****         4.7038  -0.8736   1.0246 C.2            1 S1                 0.0000
      7 ****         4.5220  -0.6175   2.4479 C.2            1 S1                 0.0000
      8 ****         5.0332  -1.3816   3.2642 O.2            1 S1                 0.0000
      9 ****         3.7820   0.4720   2.8071 N.pl3          1 S1                -1.0000
     10 ****         3.2093   1.3257   1.9029 C.2            1 S1                 0.0000
     11 ****         2.5357   2.2965   2.2484 O.2            1 S1                 0.0000
     12 ****         0.7413   0.5983  -0.2037 N.am           1 S1                 0.0000
     13 ****        -0.6315   0.1417  -0.4037 C.3            1 S1                 0.0000
     14 ****        -1.1530  -0.5087   0.8990 C.3            1 S1                 0.0000
     15 ****        -2.4498   0.1087   1.4573 C.3            1 S1                 0.0000
     16 ****        -3.5829   0.4195   0.4569 C.3            1 S1                 0.0000
     17 ****        -4.0152  -0.7309  -0.4691 C.3            1 S1                 0.0000
     18 ****        -3.2921  -0.7906  -1.8325 C.3            1 S1                 0.0000
     19 ****        -1.9844  -1.6011  -1.8449 C.3            1 S1                 0.0000
     20 ****        -0.6822  -0.8033  -1.6259 C.3            1 S1                 0.0000
     21 ****         3.3965   1.8874  -1.3856 H              1 S1                 0.0000
     22 ****         2.8492   2.9946  -0.1746 H              1 S1                 0.0000
     23 ****         4.2180  -0.1457  -0.9237 H              1 S1                 0.0000
     24 ****         5.2764  -1.7237   0.6842 H              1 S1                 0.0000
     25 ****         1.2813   0.1118   0.4979 H              1 S1                 0.0000
     26 ****        -1.2274   1.0252  -0.6282 H              1 S1                 0.0000
     27 ****        -1.2932  -1.5799   0.7650 H              1 S1                 0.0000
     28 ****        -0.3972  -0.4420   1.6835 H              1 S1                 0.0000
     29 ****        -2.8344  -0.5524   2.2346 H              1 S1                 0.0000
     30 ****        -2.1945   1.0383   1.9674 H              1 S1                 0.0000
     31 ****        -4.4501   0.7110   1.0504 H              1 S1                 0.0000
     32 ****        -3.3506   1.3059  -0.1329 H              1 S1                 0.0000
     33 ****        -3.9670  -1.6891   0.0495 H              1 S1                 0.0000
     34 ****        -5.0733  -0.5775  -0.6846 H              1 S1                 0.0000
     35 ****        -3.9740  -1.2854  -2.5253 H              1 S1                 0.0000
     36 ****        -3.1397   0.2064  -2.2476 H              1 S1                 0.0000
     37 ****        -2.0537  -2.4308  -1.1418 H              1 S1                 0.0000
     38 ****        -1.8975  -2.0801  -2.8208 H              1 S1                 0.0000
     39 ****        -0.4805  -0.2172  -2.5234 H              1 S1                 0.0000
     40 ****         0.1364  -1.5214  -1.5571 H              1 S1                 0.0000
     41 ****         1.2663   3.0299  -2.1647 LP             1 S1                 0.0000
     42 ****        -0.1692   2.0822  -1.9618 LP             1 S1                 0.0000
     43 ****         5.5658  -2.1670   2.9487 LP             1 S1                 0.0000
     44 ****         4.9165  -1.2177   4.2438 LP             1 S1                 0.0000
     45 ****         3.6515   0.6561   3.7813 LP             1 S1                 0.0000
     46 ****         2.1280   2.8935   1.5576 LP             1 S1                 0.0000
     47 ****         2.3963   2.4880   3.2200 LP             1 S1                 0.0000
@<TRIPOS>BOND
    1    1    2 2     
    2    2    3 1     
    3    2   12 am    
    4    3    4 1     
    5    3   21 1     
    6    3   22 1     
    7    4   10 am    
    8    4    5 1     
    9    5    6 2     
   10    5   23 1     
   11    6    7 1     
   12    6   24 1     
   13    7    8 2     
   14    7    9 1     
   15    9   10 1     
   16   10   11 2     
   17   12   13 1     
   18   12   25 1     
   19   13   20 1     
   20   13   14 1     
   21   13   26 1     
   22   14   15 1     
   23   14   27 1     
   24   14   28 1     
   25   15   16 1     
   26   15   29 1     
   27   15   30 1     
   28   16   17 1     
   29   16   31 1     
   30   16   32 1     
   31   17   18 1     
   32   17   33 1     
   33   17   34 1     
   34   18   19 1     
   35   18   35 1     
   36   18   36 1     
   37   19   20 1     
   38   19   37 1     
   39   19   38 1     
   40   20   39 1     
   41   20   40 1     
   42    1   41 1     
   43    1   42 1     
   44    8   43 1     
   45    8   44 1     
   46    9   45 1     
   47   11   46 1     
   48   11   47 1     
@<TRIPOS>SUBSTRUCTURE
      1 S1             1
@<TRIPOS>SET
LONE_PAIRS      STATIC     ATOMS    <user>   **** ""
7 41 42 43 44 45 46 47
DONOR_HYDROGENS      STATIC     ATOMS    <user>   **** ""
1 25
ATOM$BLUE        STATIC     ATOMS    COLORGROUP SYSTEM
7 41 42 43 44 45 46 47
ATOM$RED        STATIC     ATOMS    COLORGROUP SYSTEM
1 25
