#       Name:                AV-unprocessed.smi:2061
#       Creating user name   scv26
#       Creation time:       Fri Mar 27 11:04:03 2020


#       File generated by GOLD software.
#

@<TRIPOS>MOLECULE
AV-unprocessed.smi:2061
    53    54     1
SMALL
NO_CHARGES


@<TRIPOS>ATOM
      1 ****        -3.0976   5.9337   3.7299 C.3            1 S1                 0.0000
      2 ****        -3.0097   5.2753   2.3959 C.2            1 S1                 0.0000
      3 ****        -2.5297   4.0634   1.9867 C.2            1 S1                 0.0000
      4 ****        -2.7560   4.0893   0.5795 C.2            1 S1                 0.0000
      5 ****        -2.4241   3.0642  -0.3435 N.am           1 S1                 0.0000
      6 ****        -1.9043   1.8517  -0.0898 C.2            1 S1                 0.0000
      7 ****        -1.6572   1.3998   1.0285 O.2            1 S1                 0.0000
      8 ****        -1.6789   1.1704  -1.2225 N.am           1 S1                 0.0000
      9 ****        -1.1114  -0.1734  -1.2831 C.3            1 S1                 0.0000
     10 ****         0.4151  -0.2025  -1.0025 C.3            1 S1                 0.0000
     11 ****         1.1584   0.6935  -2.0231 C.3            1 S1                 0.0000
     12 ****         0.9101  -1.6176  -0.9734 N.4            1 S1                 1.0000
     13 ****         2.3640  -1.7991  -1.2369 C.3            1 S1                 0.0000
     14 ****         2.7456  -3.2921  -1.2309 C.3            1 S1                 0.0000
     15 ****         4.2512  -3.5047  -1.4240 C.3            1 S1                 0.0000
     16 ****         2.3733  -3.8687   0.0138 O.3            1 S1                 0.0000
     17 ****         0.9722  -3.7990   0.2417 C.3            1 S1                 0.0000
     18 ****         0.6663  -4.5278   1.5549 C.3            1 S1                 0.0000
     19 ****         0.5482  -2.3199   0.2878 C.3            1 S1                 0.0000
     20 ****        -3.3168   5.2138   0.1747 N.2            1 S1                 0.0000
     21 ****        -3.4862   5.9797   1.3341 O.3            1 S1                 0.0000
     22 ****        -2.6576   5.3053   4.5045 H              1 S1                 0.0000
     23 ****        -4.1366   6.1251   3.9989 H              1 S1                 0.0000
     24 ****        -2.5671   6.8860   3.7259 H              1 S1                 0.0000
     25 ****        -2.0889   3.2978   2.6071 H              1 S1                 0.0000
     26 ****        -2.5986   3.2858  -1.3128 H              1 S1                 0.0000
     27 ****        -1.9131   1.6098  -2.1011 H              1 S1                 0.0000
     28 ****        -1.6692  -0.8028  -0.5909 H              1 S1                 0.0000
     29 ****        -1.3092  -0.5749  -2.2774 H              1 S1                 0.0000
     30 ****         0.6037   0.2265  -0.0170 H              1 S1                 0.0000
     31 ****         0.7540   1.7054  -2.0417 H              1 S1                 0.0000
     32 ****         1.0819   0.2940  -3.0349 H              1 S1                 0.0000
     33 ****         2.2146   0.8048  -1.7768 H              1 S1                 0.0000
     34 ****         2.6330  -1.3973  -2.2133 H              1 S1                 0.0000
     35 ****         2.9412  -1.2557  -0.4866 H              1 S1                 0.0000
     36 ****         2.2193  -3.8072  -2.0366 H              1 S1                 0.0000
     37 ****         4.5896  -3.0815  -2.3702 H              1 S1                 0.0000
     38 ****         4.4966  -4.5669  -1.4296 H              1 S1                 0.0000
     39 ****         4.8233  -3.0352  -0.6232 H              1 S1                 0.0000
     40 ****         0.4469  -4.3089  -0.5679 H              1 S1                 0.0000
     41 ****        -0.4019  -4.5127   1.7735 H              1 S1                 0.0000
     42 ****         1.1861  -4.0647   2.3941 H              1 S1                 0.0000
     43 ****         0.9792  -5.5710   1.5039 H              1 S1                 0.0000
     44 ****         1.0312  -1.8214   1.1301 H              1 S1                 0.0000
     45 ****        -0.5236  -2.2716   0.4704 H              1 S1                 0.0000
     46 ****         0.4348  -2.0968  -1.7248 H              1 S1                 0.0000
     47 ****        -1.8445   1.9496   1.8425 LP             1 S1                 0.0000
     48 ****        -1.2693   0.4829   1.1227 LP             1 S1                 0.0000
     49 ****         2.8435  -3.3797   0.7484 LP             1 S1                 0.0000
     50 ****         2.6529  -4.8288   0.0201 LP             1 S1                 0.0000
     51 ****        -3.5671   5.4648  -0.7604 LP             1 S1                 0.0000
     52 ****        -2.9819   6.8387   1.2465 LP             1 S1                 0.0000
     53 ****        -4.4575   6.1757   1.4689 LP             1 S1                 0.0000
@<TRIPOS>BOND
    1    1    2 1     
    2    1   22 1     
    3    1   23 1     
    4    1   24 1     
    5    2   21 1     
    6    2    3 2     
    7    3    4 1     
    8    3   25 1     
    9    4    5 1     
   10    4   20 2     
   11    5    6 am    
   12    5   26 1     
   13    6    7 2     
   14    6    8 am    
   15    8    9 1     
   16    8   27 1     
   17    9   10 1     
   18    9   28 1     
   19    9   29 1     
   20   10   11 1     
   21   10   12 1     
   22   10   30 1     
   23   11   31 1     
   24   11   32 1     
   25   11   33 1     
   26   12   19 1     
   27   12   13 1     
   28   12   46 1     
   29   13   14 1     
   30   13   34 1     
   31   13   35 1     
   32   14   15 1     
   33   14   16 1     
   34   14   36 1     
   35   15   37 1     
   36   15   38 1     
   37   15   39 1     
   38   16   17 1     
   39   17   18 1     
   40   17   19 1     
   41   17   40 1     
   42   18   41 1     
   43   18   42 1     
   44   18   43 1     
   45   19   44 1     
   46   19   45 1     
   47   20   21 1     
   48    7   47 1     
   49    7   48 1     
   50   16   49 1     
   51   16   50 1     
   52   20   51 1     
   53   21   52 1     
   54   21   53 1     
@<TRIPOS>SUBSTRUCTURE
      1 S1             1
@<TRIPOS>SET
LONE_PAIRS      STATIC     ATOMS    <user>   **** ""
7 47 48 49 50 51 52 53
DONOR_HYDROGENS      STATIC     ATOMS    <user>   **** ""
3 26 27 46
ATOM$BLUE        STATIC     ATOMS    COLORGROUP SYSTEM
7 47 48 49 50 51 52 53
ATOM$RED        STATIC     ATOMS    COLORGROUP SYSTEM
3 26 27 46
