AV-unprocessed.smi:766|AV-procd|sdf|3653|dock7
  -GOLD-   22720 1 63D 1   1.00000     0.00000
 Structure written by MMmdl.
 48 50  0  0  0  0  0  0  0  0  3 V2000
  153.3905  142.6710  161.5224 C   0  0  0  0  0  0  0  0  0  0  0  0
  152.7555  142.3046  160.1916 C   0  0  0  0  0  0  0  0  0  0  0  0
  152.8011  140.9564  159.7713 C   0  0  0  0  0  0  0  0  0  0  0  0
  152.2091  140.6519  158.5515 C   0  0  0  0  0  0  0  0  0  0  0  0
  152.0907  139.4380  157.8719 N   0  3  0  0  0  0  0  0  0  0  0  0
  151.4214  139.6349  156.7027 C   0  0  0  0  0  0  0  0  0  0  0  0
  151.1127  140.9582  156.6231 N   0  0  0  0  0  0  0  0  0  0  0  0
  150.3878  141.6894  155.5733 C   0  0  0  0  0  0  0  0  0  0  0  0
  149.3047  140.8354  154.8855 C   0  0  2  0  0  0  0  0  0  0  0  0
  149.9141  139.9271  153.9889 O   0  0  0  0  0  0  0  0  0  0  0  0
  148.3042  141.7010  154.1020 C   0  0  0  0  0  0  0  0  0  0  0  0
  147.4061  142.4380  155.0128 N   0  3  0  0  0  0  0  0  0  0  0  0
  146.1861  142.9616  154.3665 C   0  0  0  0  0  0  0  0  0  0  0  0
  145.1263  143.3705  155.4060 C   0  0  0  0  0  0  0  0  0  0  0  0
  144.4871  144.6442  155.1136 N   0  0  0  0  0  0  0  0  0  0  0  0
  143.9934  145.0905  153.9052 C   0  0  0  0  0  0  0  0  0  0  0  0
  143.4562  146.3281  154.1154 C   0  0  0  0  0  0  0  0  0  0  0  0
  143.6553  146.5513  155.5061 C   0  0  0  0  0  0  0  0  0  0  0  0
  144.2637  145.5385  156.1020 N   0  0  0  0  0  0  0  0  0  0  0  0
  151.5852  141.6331  157.7561 C   0  0  0  0  0  0  0  0  0  0  0  0
  151.5347  142.9672  158.1546 C   0  0  0  0  0  0  0  0  0  0  0  0
  152.1314  143.2975  159.3926 C   0  0  0  0  0  0  0  0  0  0  0  0
  152.0916  144.7449  159.8530 C   0  0  0  0  0  0  0  0  0  0  0  0
  153.8355  141.8005  162.0053 H   0  0  0  0  0  0  0  0  0  0  0  0
  152.6440  143.0832  162.2016 H   0  0  0  0  0  0  0  0  0  0  0  0
  154.1779  143.4117  161.3812 H   0  0  0  0  0  0  0  0  0  0  0  0
  153.2757  140.1957  160.3738 H   0  0  0  0  0  0  0  0  0  0  0  0
  151.1775  138.8764  155.9728 H   0  0  0  0  0  0  0  0  0  0  0  0
  149.9268  142.5549  156.0511 H   0  0  0  0  0  0  0  0  0  0  0  0
  151.1007  142.0871  154.8504 H   0  0  0  0  0  0  0  0  0  0  0  0
  148.7722  140.2613  155.6451 H   0  0  0  0  0  0  0  0  0  0  0  0
  149.4713  139.9838  153.1555 H   0  0  0  0  0  0  0  0  0  0  0  0
  148.8422  142.4270  153.4907 H   0  0  0  0  0  0  0  0  0  0  0  0
  147.7169  141.0830  153.4207 H   0  0  0  0  0  0  0  0  0  0  0  0
  147.1244  141.8093  155.7524 H   0  0  0  0  0  0  0  0  0  0  0  0
  146.4500  143.8267  153.7571 H   0  0  0  0  0  0  0  0  0  0  0  0
  145.7825  142.2106  153.6862 H   0  0  0  0  0  0  0  0  0  0  0  0
  144.3540  142.6029  155.4721 H   0  0  0  0  0  0  0  0  0  0  0  0
  145.5821  143.4412  156.3941 H   0  0  0  0  0  0  0  0  0  0  0  0
  144.0651  144.4982  153.0049 H   0  0  0  0  0  0  0  0  0  0  0  0
  142.9859  146.9728  153.3878 H   0  0  0  0  0  0  0  0  0  0  0  0
  143.3741  147.4107  156.0966 H   0  0  0  0  0  0  0  0  0  0  0  0
  151.0642  143.7261  157.5470 H   0  0  0  0  0  0  0  0  0  0  0  0
  151.5777  145.3799  159.1308 H   0  0  0  0  0  0  0  0  0  0  0  0
  153.1019  145.1346  159.9791 H   0  0  0  0  0  0  0  0  0  0  0  0
  151.5657  144.8297  160.8041 H   0  0  0  0  0  0  0  0  0  0  0  0
  147.9164  143.2081  155.4203 H   0  0  0  0  0  0  0  0  0  0  0  0
  152.4373  138.5392  158.1830 H   0  0  0  0  0  0  0  0  0  0  0  0
  1  2  1  0  0  0  0
  1 24  1  0  0  0  0
  1 25  1  0  0  0  0
  1 26  1  0  0  0  0
  2 22  1  0  0  0  0
  2  3  2  0  0  0  0
  3  4  1  0  0  0  0
  3 27  1  0  0  0  0
  4 20  2  0  0  0  0
  4  5  1  0  0  0  0
  5  6  2  0  0  0  0
  5 48  1  0  0  0  0
  6  7  1  0  0  0  0
  6 28  1  0  0  0  0
  7  8  1  0  0  0  0
  7 20  1  0  0  0  0
  8  9  1  0  0  0  0
  8 29  1  0  0  0  0
  8 30  1  0  0  0  0
  9 10  1  0  0  0  0
  9 11  1  0  0  0  0
  9 31  1  0  0  0  0
 10 32  1  0  0  0  0
 11 12  1  0  0  0  0
 11 33  1  0  0  0  0
 11 34  1  0  0  0  0
 12 13  1  0  0  0  0
 12 35  1  0  0  0  0
 12 47  1  0  0  0  0
 13 14  1  0  0  0  0
 13 36  1  0  0  0  0
 13 37  1  0  0  0  0
 14 15  1  0  0  0  0
 14 38  1  0  0  0  0
 14 39  1  0  0  0  0
 15 19  1  0  0  0  0
 15 16  1  0  0  0  0
 16 17  2  0  0  0  0
 16 40  1  0  0  0  0
 17 18  1  0  0  0  0
 17 41  1  0  0  0  0
 18 19  2  0  0  0  0
 18 42  1  0  0  0  0
 20 21  1  0  0  0  0
 21 22  2  0  0  0  0
 21 43  1  0  0  0  0
 22 23  1  0  0  0  0
 23 44  1  0  0  0  0
 23 45  1  0  0  0  0
 23 46  1  0  0  0  0
M  CHG  1   5   1
M  CHG  1  12   1
M  END
> <s_m_source_file>
AV-unprocessed.smi

> <i_m_source_file_index>
766

> <i_lp_mmshare_version>
43012

> <i_f3d_flags>
0

> <s_epik_input>
W0NIM11jKFtjSF0xKWMoW0NIM10pW2NIXWMoYzEyKW4oW2NIXW4yKVtDSDJdW0NASF0oW09IXSlbQ0gyXVtOSF1bQ0gyXVtDSDJdbjNbY0hdW2NIXVtjSF1uMw==

> <s_epik_cmdline>
J2VwaWtfcHl0aG9uJywgJy1waCcsICc3LjAnLCAnLXRuJywgJzgnLCAnLW1hJywgJzIwMCcsICctbWV0YWxfYmluZGluZycsICctaW1hZScsICc8aW5maWxlLm1hZT4nLCAnLW9tYWUnLCAnPG91dGZpbGUubWFlPic=

> <r_lp_tautomer_probability>
1

> <r_epik_Ionization_Penalty>
1.25103

> <r_epik_Ionization_Penalty_Charging>
1.25102

> <r_epik_Ionization_Penalty_Neutral>
6.05394e-06

> <r_epik_State_Penalty>
1.2613

> <r_epik_Charging_Adjusted_Penalty>
2.51232

> <i_epik_Tot_Q>
2

> <i_epik_Tot_abs_Q>
2

> <r_epik_Metal_State_Penalty>
1.33164

> <b_epik_Metal_Only>
0

> <s_lp_Force_Field>
OPLS_2005

> <r_lp_Energy>
19.7351

> <b_lp_Chiralities_Consistent>
1

> <s_lp_Variant>
AV-unprocessed.smi:766-3

> <Gold.Version>
5.8.1

> <Gold.Id.Protein>
6NUR|6NUR_protein|mol2

> <Gold.PLP.Fitness>
67.0633

> <Gold.PLP.PLP>
-54.8881

> <Gold.PLP.part.hbond>
-3.0000

> <Gold.PLP.part.metal>
0.0000

> <Gold.PLP.part.buried>
-6.1897

> <Gold.PLP.part.nonpolar>
-44.6682

> <Gold.PLP.part.repulsive>
0.2582

> <Gold.PLP.ligand.clash>
0.0000

> <Gold.PLP.ligand.torsion>
1.2286

> <Gold.PLP.Chemscore.Hbond>
3.8120

> <Gold.PLP.Chemscore.CHOScore>
1.0000

> <Gold.PLP.Chemscore.Metal>
0.0000

> <Gold.Chemscore.Hbonds>
donor molecule, donor type, donor heavy atom, donor atom, acceptor molecule, acceptor atom, score
      L1  H    10    32       P1  7957  0.96
      L1  H    12    47       P1  8028  2.00
      P1  H  7989  7998       L1    10  0.81
      L1  C    16    40       P1 10174  0.88

> <Gold.PLP.Chemscore.Internal.Correction>
0.1964

> <Gold.Rescore>
     Score         DG    S(hbond)    S(metal)    S(lipo)     H(rot)  DE(clash)    DE(int)     intcor
     17.89     -19.32       1.67        0.00     136.84       3.02       0.23       1.19       ----

> <Gold.Chemscore.Fitness>
17.8893

> <Gold.Chemscore.DG>
-19.3161

> <Gold.Chemscore.ZeroCoef>
-5.4800

> <Gold.Chemscore.Hbond>
1.6661

> <Gold.Chemscore.Metal>
0.0000

> <Gold.Chemscore.Lipo>
136.8371

> <Gold.Chemscore.Internal_Hbond>
0.0000

> <Gold.Chemscore.DEClash>
0.2321

> <Gold.Chemscore.DEInternal>
1.1947

> <Gold.Chemscore.Rot>
3.0229

> <Gold.Chemscore.Internal.Correction>
   9.000000E+99

> <Gold.Chemscore.Hbonds>
donor molecule, donor type, donor heavy atom, donor atom, acceptor molecule, acceptor atom, score
      L1  H    10    32       P1  7957  0.89
      L1  H    12    47       P1  8028  0.65
      P1  H  7989  7998       L1    10  0.06

> <Gold.Chemscore.Hbond.Weighted>
-5.5647

> <Gold.Chemscore.Metal.Weighted>
-0.0000

> <Gold.Chemscore.Lipo.Weighted>
-16.0099

> <Gold.Chemscore.Internal_Hbond.Weighted>
0.0000

> <Gold.Chemscore.DEClash.Weighted>
0.2321

> <Gold.Chemscore.DEInternal.Weighted>
1.1947

> <Gold.Chemscore.Rot.Weighted>
7.7386

> <Gold.Chemscore.Internal.Correction.Weighted>
   9.000000E+99

> <Gold.Protein.RotatedTorsions>
[ 6907 6896 6895 6894 ] final  154.20 input  -60.11 | X-H torsion
[ 7974 7965 7964 7962 ] final  -30.25 input  175.53 | X-H torsion
[ 8008 7997 7996 7995 ] final  132.59 input   59.86 | X-H torsion
[ 10167 10162 10161 10158 ] final  -34.60 input  -65.29 | X-H torsion
[ 10718 10713 10712 10709 ] final   76.36 input   66.30 | X-H torsion
[ 10763 10752 10751 10750 ] final -110.90 input  -60.55 | X-H torsion
[ 11005 11000 10999 10996 ] final   12.95 input  -57.11 | X-H torsion

> <Gold.Protein.ActiveResidues>
 VAL166  LYS551  ARG553  GLY616  TRP617  ASP618  TYR619  PRO620  LYS621  CYS622 
 ASP623  PHE694  ASN695  SER759  ASP760  ASP761  ALA762  ILE779  LEU786  VAL792 
 PHE793  MET794  SER795  GLU796  ALA797  LYS798  CYS799  TRP800  GLU811  SER814 

> <Gold.Protein.RotatedAtoms>
  152.0619  133.4066  159.4421 H   0  0  0  0  0  0  0  0  0  0  0  0  # atno 6907 bound_to 6896
  150.6866  134.3190  159.4788 H   0  0  0  0  0  0  0  0  0  0  0  0  # atno 6908 bound_to 6896
  152.1012  134.9340  160.0620 H   0  0  0  0  0  0  0  0  0  0  0  0  # atno 6909 bound_to 6896
  146.1157  140.5516  142.8758 H   0  0  0  0  0  0  0  0  0  0  0  0  # atno 7974 bound_to 7965
  156.2984  140.2542  156.3115 H   0  0  0  0  0  0  0  0  0  0  0  0  # atno 8008 bound_to 7997
  154.9322  140.0398  157.2073 H   0  0  0  0  0  0  0  0  0  0  0  0  # atno 8009 bound_to 7997
  154.8207  140.2859  155.5793 H   0  0  0  0  0  0  0  0  0  0  0  0  # atno 8010 bound_to 7997
  140.7182  143.3536  151.2104 H   0  0  0  0  0  0  0  0  0  0  0  0  # atno 10167 bound_to 10162
  157.6670  130.9770  150.1485 H   0  0  0  0  0  0  0  0  0  0  0  0  # atno 10718 bound_to 10713
  154.8272  135.4547  154.0957 H   0  0  0  0  0  0  0  0  0  0  0  0  # atno 10763 bound_to 10752
  153.2260  135.6900  153.7951 H   0  0  0  0  0  0  0  0  0  0  0  0  # atno 10764 bound_to 10752
  153.7350  135.3321  155.3270 H   0  0  0  0  0  0  0  0  0  0  0  0  # atno 10765 bound_to 10752
  140.4862  134.0886  155.7761 H   0  0  0  0  0  0  0  0  0  0  0  0  # atno 11005 bound_to 11000
  144.7551  140.5287  143.6775 LP  0  0  0  0  0  0  0  0  0  0  0  0  # atno 17320 bound_to 7965
  145.5572  139.1478  143.3361 LP  0  0  0  0  0  0  0  0  0  0  0  0  # atno 17321 bound_to 7965
  139.7073  143.9435  152.2932 LP  0  0  0  0  0  0  0  0  0  0  0  0  # atno 17342 bound_to 10162
  139.9148  144.6835  150.8524 LP  0  0  0  0  0  0  0  0  0  0  0  0  # atno 17343 bound_to 10162
  156.2290  130.3680  149.8467 LP  0  0  0  0  0  0  0  0  0  0  0  0  # atno 17370 bound_to 10713
  156.6299  130.8661  151.3493 LP  0  0  0  0  0  0  0  0  0  0  0  0  # atno 17371 bound_to 10713
  141.1507  133.8974  157.2105 LP  0  0  0  0  0  0  0  0  0  0  0  0  # atno 17394 bound_to 11000
  139.9796  135.0102  156.9718 LP  0  0  0  0  0  0  0  0  0  0  0  0  # atno 17395 bound_to 11000

$$$$
