AV-unprocessed.smi:3336|AV-procd|sdf|12859|dock6
  -GOLD-   2272019253D 1   1.00000     0.00000
 Structure written by MMmdl.
 41 42  0  0  0  0  0  0  0  0  1 V2000
  154.9617  141.1225  159.9199 C   0  0  0  0  0  0  0  0  0  0  0  0
  153.4779  141.4119  159.6405 C   0  0  2  0  0  0  0  0  0  0  0  0
  152.9104  142.4355  160.6438 C   0  0  0  0  0  0  0  0  0  0  0  0
  152.5246  143.6798  160.0016 N   0  0  0  0  0  0  0  0  0  0  0  0
  151.9294  144.7886  160.5662 C   0  0  0  0  0  0  0  0  0  0  0  0
  151.7449  145.7025  159.5686 C   0  0  0  0  0  0  0  0  0  0  0  0
  152.2657  145.0527  158.4146 C   0  0  0  0  0  0  0  0  0  0  0  0
  152.7345  143.8434  158.6772 N   0  0  0  0  0  0  0  0  0  0  0  0
  152.7175  140.1666  159.7574 N   0  0  0  0  0  0  0  0  0  0  0  0
  152.8920  139.2230  158.6357 C   0  0  1  0  0  0  0  0  0  0  0  0
  153.6971  138.0071  159.1227 C   0  0  0  0  0  0  0  0  0  0  0  0
  151.5521  138.7555  158.0173 C   0  0  0  0  0  0  0  0  0  0  0  0
  150.7482  138.1730  158.7479 O   0  0  0  0  0  0  0  0  0  0  0  0
  151.2842  138.9855  156.7069 N   0  0  0  0  0  0  0  0  0  0  0  0
  150.0135  138.6040  156.0802 C   0  0  0  0  0  0  0  0  0  0  0  0
  150.2929  137.5384  155.0063 C   0  0  0  0  0  0  0  0  0  0  0  0
  151.2059  138.0616  154.0459 O   0  0  0  0  0  0  0  0  0  0  0  0
  152.4455  138.4630  154.6217 C   0  0  0  0  0  0  0  0  0  0  0  0
  152.2016  139.5346  155.7006 C   0  0  0  0  0  0  0  0  0  0  0  0
  155.5522  142.0376  159.8650 H   0  0  0  0  0  0  0  0  0  0  0  0
  155.3816  140.4256  159.1948 H   0  0  0  0  0  0  0  0  0  0  0  0
  155.1046  140.6971  160.9138 H   0  0  0  0  0  0  0  0  0  0  0  0
  153.3910  141.8360  158.6396 H   0  0  0  0  0  0  0  0  0  0  0  0
  152.0465  142.0283  161.1713 H   0  0  0  0  0  0  0  0  0  0  0  0
  153.6563  142.6675  161.4056 H   0  0  0  0  0  0  0  0  0  0  0  0
  151.6840  144.8309  161.6172 H   0  0  0  0  0  0  0  0  0  0  0  0
  151.3017  146.6838  159.6500 H   0  0  0  0  0  0  0  0  0  0  0  0
  152.3167  145.4216  157.4008 H   0  0  0  0  0  0  0  0  0  0  0  0
  152.9061  139.7351  160.6506 H   0  0  0  0  0  0  0  0  0  0  0  0
  153.4805  139.7445  157.8838 H   0  0  0  0  0  0  0  0  0  0  0  0
  153.8890  137.2998  158.3155 H   0  0  0  0  0  0  0  0  0  0  0  0
  153.1698  137.4704  159.9129 H   0  0  0  0  0  0  0  0  0  0  0  0
  154.6649  138.3134  159.5208 H   0  0  0  0  0  0  0  0  0  0  0  0
  149.2798  138.2235  156.7921 H   0  0  0  0  0  0  0  0  0  0  0  0
  149.5583  139.4849  155.6249 H   0  0  0  0  0  0  0  0  0  0  0  0
  150.6992  136.6299  155.4539 H   0  0  0  0  0  0  0  0  0  0  0  0
  149.3683  137.2607  154.5002 H   0  0  0  0  0  0  0  0  0  0  0  0
  152.9572  137.5967  155.0440 H   0  0  0  0  0  0  0  0  0  0  0  0
  153.0868  138.8595  153.8343 H   0  0  0  0  0  0  0  0  0  0  0  0
  151.7536  140.4231  155.2537 H   0  0  0  0  0  0  0  0  0  0  0  0
  153.1647  139.8500  156.0933 H   0  0  0  0  0  0  0  0  0  0  0  0
  1  2  1  0  0  0  0
  1 20  1  0  0  0  0
  1 21  1  0  0  0  0
  1 22  1  0  0  0  0
  2  3  1  0  0  0  0
  2  9  1  0  0  0  0
  2 23  1  0  0  0  0
  3  4  1  0  0  0  0
  3 24  1  0  0  0  0
  3 25  1  0  0  0  0
  4  8  1  0  0  0  0
  4  5  1  0  0  0  0
  5  6  2  0  0  0  0
  5 26  1  0  0  0  0
  6  7  1  0  0  0  0
  6 27  1  0  0  0  0
  7  8  2  0  0  0  0
  7 28  1  0  0  0  0
  9 10  1  0  0  0  0
  9 29  1  0  0  0  0
 10 11  1  0  0  0  0
 10 12  1  0  0  0  0
 10 30  1  0  0  0  0
 11 31  1  0  0  0  0
 11 32  1  0  0  0  0
 11 33  1  0  0  0  0
 12 13  2  0  0  0  0
 12 14  1  0  0  0  0
 14 19  1  0  0  0  0
 14 15  1  0  0  0  0
 15 16  1  0  0  0  0
 15 34  1  0  0  0  0
 15 35  1  0  0  0  0
 16 17  1  0  0  0  0
 16 36  1  0  0  0  0
 16 37  1  0  0  0  0
 17 18  1  0  0  0  0
 18 19  1  0  0  0  0
 18 38  1  0  0  0  0
 18 39  1  0  0  0  0
 19 40  1  0  0  0  0
 19 41  1  0  0  0  0
M  END
> <s_m_source_file>
AV-unprocessed.smi

> <i_m_source_file_index>
3336

> <i_lp_mmshare_version>
43012

> <i_f3d_flags>
0

> <s_epik_input>
bjFbY0hdW2NIXVtjSF1uMVtDSDJdW0NAQEhdKFtDSDNdKVtOSF1bQ0BIXShbQ0gzXSlDKD1PKU4yW0NIMl1bQ0gyXU9bQ0gyXVtDSDJdMg==

> <s_epik_cmdline>
J2VwaWtfcHl0aG9uJywgJy1waCcsICc3LjAnLCAnLXRuJywgJzgnLCAnLW1hJywgJzIwMCcsICctbWV0YWxfYmluZGluZycsICctaW1hZScsICc8aW5maWxlLm1hZT4nLCAnLW9tYWUnLCAnPG91dGZpbGUubWFlPic=

> <r_lp_tautomer_probability>
1

> <r_epik_Ionization_Penalty>
0.739958

> <r_epik_Ionization_Penalty_Charging>
0

> <r_epik_Ionization_Penalty_Neutral>
0.739958

> <r_epik_State_Penalty>
0.765967

> <r_epik_Charging_Adjusted_Penalty>
0.765967

> <i_epik_Tot_Q>
0

> <i_epik_Tot_abs_Q>
0

> <r_epik_Metal_State_Penalty>
0.765947

> <b_epik_Metal_Only>
0

> <s_lp_Force_Field>
OPLS_2005

> <r_lp_Energy>
28.023

> <b_lp_Chiralities_Consistent>
1

> <s_lp_Variant>
AV-unprocessed.smi:3336-7

> <Gold.Version>
5.8.1

> <Gold.Id.Protein>
6NUR|6NUR_protein|mol2

> <Gold.PLP.Fitness>
38.4353

> <Gold.PLP.PLP>
-41.5255

> <Gold.PLP.part.hbond>
0.0000

> <Gold.PLP.part.metal>
0.0000

> <Gold.PLP.part.buried>
-5.8153

> <Gold.PLP.part.nonpolar>
-35.9785

> <Gold.PLP.part.repulsive>
0.2251

> <Gold.PLP.ligand.clash>
0.0000

> <Gold.PLP.ligand.torsion>
1.5806

> <Gold.PLP.Chemscore.Hbond>
0.0000

> <Gold.PLP.Chemscore.CHOScore>
0.0000

> <Gold.PLP.Chemscore.Metal>
0.0000

> <Gold.PLP.Chemscore.Internal.Correction>
0.0710

> <Gold.Rescore>
     Score         DG    S(hbond)    S(metal)    S(lipo)     H(rot)  DE(clash)    DE(int)     intcor
     11.49     -13.04       0.00        0.00     103.84       1.79       0.03       1.52       ----

> <Gold.Chemscore.Fitness>
11.4924

> <Gold.Chemscore.DG>
-13.0377

> <Gold.Chemscore.ZeroCoef>
-5.4800

> <Gold.Chemscore.Hbond>
0.0000

> <Gold.Chemscore.Metal>
0.0000

> <Gold.Chemscore.Lipo>
103.8369

> <Gold.Chemscore.Internal_Hbond>
0.0000

> <Gold.Chemscore.DEClash>
0.0302

> <Gold.Chemscore.DEInternal>
1.5151

> <Gold.Chemscore.Rot>
1.7935

> <Gold.Chemscore.Internal.Correction>
   9.000000E+99

> <Gold.Chemscore.Hbond.Weighted>
-0.0000

> <Gold.Chemscore.Metal.Weighted>
-0.0000

> <Gold.Chemscore.Lipo.Weighted>
-12.1489

> <Gold.Chemscore.Internal_Hbond.Weighted>
0.0000

> <Gold.Chemscore.DEClash.Weighted>
0.0302

> <Gold.Chemscore.DEInternal.Weighted>
1.5151

> <Gold.Chemscore.Rot.Weighted>
4.5912

> <Gold.Chemscore.Internal.Correction.Weighted>
   9.000000E+99

> <Gold.Protein.RotatedTorsions>
[ 6907 6896 6895 6894 ] final -152.09 input  -60.11 | X-H torsion
[ 7974 7965 7964 7962 ] final   67.75 input  175.53 | X-H torsion
[ 8008 7997 7996 7995 ] final -153.78 input   59.86 | X-H torsion
[ 10167 10162 10161 10158 ] final  -12.66 input  -65.29 | X-H torsion
[ 10718 10713 10712 10709 ] final   36.52 input   66.30 | X-H torsion
[ 10763 10752 10751 10750 ] final  172.77 input  -60.55 | X-H torsion
[ 11005 11000 10999 10996 ] final   18.10 input  -57.11 | X-H torsion

> <Gold.Protein.ActiveResidues>
 VAL166  LYS551  ARG553  GLY616  TRP617  ASP618  TYR619  PRO620  LYS621  CYS622 
 ASP623  PHE694  ASN695  SER759  ASP760  ASP761  ALA762  ILE779  LEU786  VAL792 
 PHE793  MET794  SER795  GLU796  ALA797  LYS798  CYS799  TRP800  GLU811  SER814 

> <Gold.Protein.RotatedAtoms>
  151.2227  133.4493  159.2600 H   0  0  0  0  0  0  0  0  0  0  0  0  # atno 6907 bound_to 6896
  151.0869  134.9893  159.8394 H   0  0  0  0  0  0  0  0  0  0  0  0  # atno 6908 bound_to 6896
  152.5430  134.2163  159.8823 H   0  0  0  0  0  0  0  0  0  0  0  0  # atno 6909 bound_to 6896
  145.8108  139.3032  143.1100 H   0  0  0  0  0  0  0  0  0  0  0  0  # atno 7974 bound_to 7965
  155.6761  140.0739  157.2502 H   0  0  0  0  0  0  0  0  0  0  0  0  # atno 8008 bound_to 7997
  154.4114  140.1690  156.1983 H   0  0  0  0  0  0  0  0  0  0  0  0  # atno 8009 bound_to 7997
  155.9575  140.3372  155.6464 H   0  0  0  0  0  0  0  0  0  0  0  0  # atno 8010 bound_to 7997
  140.7166  143.5509  150.9302 H   0  0  0  0  0  0  0  0  0  0  0  0  # atno 10167 bound_to 10162
  157.3358  130.7522  149.6878 H   0  0  0  0  0  0  0  0  0  0  0  0  # atno 10718 bound_to 10713
  154.4307  135.2760  155.1914 H   0  0  0  0  0  0  0  0  0  0  0  0  # atno 10763 bound_to 10752
  154.3822  135.6085  153.5800 H   0  0  0  0  0  0  0  0  0  0  0  0  # atno 10764 bound_to 10752
  152.9836  135.5883  154.4618 H   0  0  0  0  0  0  0  0  0  0  0  0  # atno 10765 bound_to 10752
  140.4286  134.1444  155.7678 H   0  0  0  0  0  0  0  0  0  0  0  0  # atno 11005 bound_to 11000
  145.9779  140.8707  143.0129 LP  0  0  0  0  0  0  0  0  0  0  0  0  # atno 17320 bound_to 7965
  144.6757  140.2038  143.7384 LP  0  0  0  0  0  0  0  0  0  0  0  0  # atno 17321 bound_to 7965
  139.9233  143.6580  152.3092 LP  0  0  0  0  0  0  0  0  0  0  0  0  # atno 17342 bound_to 10162
  139.7004  144.7635  151.1283 LP  0  0  0  0  0  0  0  0  0  0  0  0  # atno 17343 bound_to 10162
  155.9701  130.4182  150.4315 LP  0  0  0  0  0  0  0  0  0  0  0  0  # atno 17370 bound_to 10713
  157.2355  131.0513  151.2467 LP  0  0  0  0  0  0  0  0  0  0  0  0  # atno 17371 bound_to 10713
  141.1755  133.8523  157.1435 LP  0  0  0  0  0  0  0  0  0  0  0  0  # atno 17394 bound_to 11000
  140.0150  134.9971  157.0474 LP  0  0  0  0  0  0  0  0  0  0  0  0  # atno 17395 bound_to 11000

$$$$
