AV-unprocessed.smi:2285|AV-procd|sdf|9203|dock8
  -GOLD-   2272012423D 1   1.00000     0.00000
 Structure written by MMmdl.
 36 37  0  0  0  0  0  0  0  0  1 V2000
  148.7911  141.5611  154.9045 C   0  0  0  0  0  0  0  0  0  0  0  0
  147.6590  141.1138  153.9694 C   0  0  0  0  0  0  0  0  0  0  0  0
  147.5324  139.5974  153.8389 C   0  0  0  0  0  0  0  0  0  0  0  0
  146.6728  139.1739  152.6482 C   0  0  0  0  0  0  0  0  0  0  0  0
  146.7617  137.7736  152.2482 N   0  0  0  0  0  0  0  0  0  0  0  0
  145.7250  136.9267  152.1781 C   0  0  0  0  0  0  0  0  0  0  0  0
  144.5655  137.2583  152.4316 O   0  0  0  0  0  0  0  0  0  0  0  0
  146.1337  135.6978  151.8044 N   0  0  0  0  0  0  0  0  0  0  0  0
  145.3577  134.5451  151.6256 C   0  0  0  0  0  0  0  0  0  0  0  0
  144.0588  134.5672  151.5135 N   0  0  0  0  0  0  0  0  0  0  0  0
  143.3171  133.3995  151.3346 C   0  0  0  0  0  0  0  0  0  0  0  0
  143.9231  132.2003  151.2722 C   0  0  0  0  0  0  0  0  0  0  0  0
  145.3166  132.0958  151.3855 N   0  0  0  0  0  0  0  0  0  0  0  0
  145.9250  130.7672  151.3093 C   0  0  0  0  0  0  0  0  0  0  0  0
  146.0904  133.2018  151.5581 C   0  0  0  0  0  0  0  0  0  0  0  0
  147.3183  133.1602  151.6583 O   0  0  0  0  0  0  0  0  0  0  0  0
  148.7041  138.7251  154.2401 C   0  0  0  0  0  0  0  0  0  0  0  0
  147.4672  138.7666  155.1026 C   0  0  0  0  0  0  0  0  0  0  0  0
  148.8850  142.6471  154.9025 H   0  0  0  0  0  0  0  0  0  0  0  0
  149.7487  141.1451  154.5904 H   0  0  0  0  0  0  0  0  0  0  0  0
  148.6094  141.2513  155.9335 H   0  0  0  0  0  0  0  0  0  0  0  0
  146.7092  141.5353  154.2992 H   0  0  0  0  0  0  0  0  0  0  0  0
  147.8407  141.5346  152.9799 H   0  0  0  0  0  0  0  0  0  0  0  0
  145.6292  139.4230  152.8488 H   0  0  0  0  0  0  0  0  0  0  0  0
  146.9535  139.7802  151.7871 H   0  0  0  0  0  0  0  0  0  0  0  0
  147.6812  137.4229  152.0225 H   0  0  0  0  0  0  0  0  0  0  0  0
  147.1249  135.5991  151.6412 H   0  0  0  0  0  0  0  0  0  0  0  0
  142.2461  133.5121  151.2505 H   0  0  0  0  0  0  0  0  0  0  0  0
  143.3918  131.2698  151.1340 H   0  0  0  0  0  0  0  0  0  0  0  0
  146.5185  130.5639  152.2021 H   0  0  0  0  0  0  0  0  0  0  0  0
  146.5814  130.6982  150.4407 H   0  0  0  0  0  0  0  0  0  0  0  0
  145.1825  129.9730  151.2243 H   0  0  0  0  0  0  0  0  0  0  0  0
  148.8843  137.8175  153.6673 H   0  0  0  0  0  0  0  0  0  0  0  0
  149.5976  139.2169  154.6191 H   0  0  0  0  0  0  0  0  0  0  0  0
  147.5390  139.2856  156.0565 H   0  0  0  0  0  0  0  0  0  0  0  0
  146.8249  137.8881  155.1003 H   0  0  0  0  0  0  0  0  0  0  0  0
  1  2  1  0  0  0  0
  1 19  1  0  0  0  0
  1 20  1  0  0  0  0
  1 21  1  0  0  0  0
  2  3  1  0  0  0  0
  2 22  1  0  0  0  0
  2 23  1  0  0  0  0
  3 18  1  0  0  0  0
  3  4  1  0  0  0  0
  3 17  1  0  0  0  0
  4  5  1  0  0  0  0
  4 24  1  0  0  0  0
  4 25  1  0  0  0  0
  5  6  1  0  0  0  0
  5 26  1  0  0  0  0
  6  7  2  0  0  0  0
  6  8  1  0  0  0  0
  8  9  1  0  0  0  0
  8 27  1  0  0  0  0
  9 15  1  0  0  0  0
  9 10  2  0  0  0  0
 10 11  1  0  0  0  0
 11 12  2  0  0  0  0
 11 28  1  0  0  0  0
 12 13  1  0  0  0  0
 12 29  1  0  0  0  0
 13 14  1  0  0  0  0
 13 15  1  0  0  0  0
 14 30  1  0  0  0  0
 14 31  1  0  0  0  0
 14 32  1  0  0  0  0
 15 16  2  0  0  0  0
 17 18  1  0  0  0  0
 17 33  1  0  0  0  0
 17 34  1  0  0  0  0
 18 35  1  0  0  0  0
 18 36  1  0  0  0  0
M  END
> <s_m_source_file>
AV-unprocessed.smi

> <i_m_source_file_index>
2285

> <i_lp_mmshare_version>
43012

> <i_f3d_flags>
0

> <s_epik_input>
W0NIM11bQ0gyXUMxKFtDSDJdW0NIMl0xKVtDSDJdW05IXUMoPU8pW05IXWMybltjSF1bY0hdbihbQ0gzXSljMj1P

> <s_epik_cmdline>
J2VwaWtfcHl0aG9uJywgJy1waCcsICc3LjAnLCAnLXRuJywgJzgnLCAnLW1hJywgJzIwMCcsICctbWV0YWxfYmluZGluZycsICctaW1hZScsICc8aW5maWxlLm1hZT4nLCAnLW9tYWUnLCAnPG91dGZpbGUubWFlPic=

> <r_lp_tautomer_probability>
1

> <r_epik_Ionization_Penalty>
0.000603256

> <r_epik_Ionization_Penalty_Charging>
1.64466e-07

> <r_epik_Ionization_Penalty_Neutral>
0.000603092

> <r_epik_State_Penalty>
-0

> <r_epik_Charging_Adjusted_Penalty>
1.64466e-07

> <i_epik_Tot_Q>
0

> <i_epik_Tot_abs_Q>
0

> <r_epik_Metal_State_Penalty>
-0

> <b_epik_Metal_Only>
0

> <s_lp_Force_Field>
OPLS_2005

> <r_lp_Energy>
32.2968

> <b_lp_Chiralities_Consistent>
1

> <s_lp_Variant>
AV-unprocessed.smi:2285-1

> <Gold.Version>
5.8.1

> <Gold.Id.Protein>
6NUR|6NUR_protein|mol2

> <Gold.PLP.Fitness>
38.3808

> <Gold.PLP.PLP>
-29.8360

> <Gold.PLP.part.hbond>
-2.0000

> <Gold.PLP.part.metal>
0.0000

> <Gold.PLP.part.buried>
-3.0773

> <Gold.PLP.part.nonpolar>
-27.0609

> <Gold.PLP.part.repulsive>
1.9136

> <Gold.PLP.ligand.clash>
0.0000

> <Gold.PLP.ligand.torsion>
0.7964

> <Gold.PLP.Chemscore.Hbond>
1.9920

> <Gold.PLP.Chemscore.CHOScore>
1.0000

> <Gold.PLP.Chemscore.Metal>
0.0000

> <Gold.Chemscore.Hbonds>
donor molecule, donor type, donor heavy atom, donor atom, acceptor molecule, acceptor atom, score
      L1  H     5    26       P1  7948  1.00
      L1  H     8    27       P1  7948  1.00
      L1  C    11    28       P1 10186  1.00

> <Gold.PLP.Chemscore.Internal.Correction>
1.1615

> <Gold.Rescore>
     Score         DG    S(hbond)    S(metal)    S(lipo)     H(rot)  DE(clash)    DE(int)     intcor
     13.16     -15.20       1.93        0.00      60.53       1.49       0.05       2.00       ----

> <Gold.Chemscore.Fitness>
13.1556

> <Gold.Chemscore.DG>
-15.2000

> <Gold.Chemscore.ZeroCoef>
-5.4800

> <Gold.Chemscore.Hbond>
1.9288

> <Gold.Chemscore.Metal>
0.0000

> <Gold.Chemscore.Lipo>
60.5307

> <Gold.Chemscore.Internal_Hbond>
0.0000

> <Gold.Chemscore.DEClash>
0.0482

> <Gold.Chemscore.DEInternal>
1.9962

> <Gold.Chemscore.Rot>
1.4861

> <Gold.Chemscore.Internal.Correction>
   9.000000E+99

> <Gold.Chemscore.Hbonds>
donor molecule, donor type, donor heavy atom, donor atom, acceptor molecule, acceptor atom, score
      L1  H     5    26       P1  7948  0.99
      L1  H     8    27       P1  7948  0.96

> <Gold.Chemscore.Hbond.Weighted>
-6.4423

> <Gold.Chemscore.Metal.Weighted>
-0.0000

> <Gold.Chemscore.Lipo.Weighted>
-7.0821

> <Gold.Chemscore.Internal_Hbond.Weighted>
0.0000

> <Gold.Chemscore.DEClash.Weighted>
0.0482

> <Gold.Chemscore.DEInternal.Weighted>
1.9962

> <Gold.Chemscore.Rot.Weighted>
3.8044

> <Gold.Chemscore.Internal.Correction.Weighted>
   9.000000E+99

> <Gold.Protein.RotatedTorsions>
[ 6907 6896 6895 6894 ] final  -36.31 input  -60.11 | X-H torsion
[ 7974 7965 7964 7962 ] final   -0.19 input  175.53 | X-H torsion
[ 8008 7997 7996 7995 ] final  -64.24 input   59.86 | X-H torsion
[ 10167 10162 10161 10158 ] final  159.48 input  -65.29 | X-H torsion
[ 10718 10713 10712 10709 ] final  -46.68 input   66.30 | X-H torsion
[ 10763 10752 10751 10750 ] final   25.26 input  -60.55 | X-H torsion
[ 11005 11000 10999 10996 ] final -146.35 input  -57.11 | X-H torsion

> <Gold.Protein.ActiveResidues>
 VAL166  LYS551  ARG553  GLY616  TRP617  ASP618  TYR619  PRO620  LYS621  CYS622 
 ASP623  PHE694  ASN695  SER759  ASP760  ASP761  ALA762  ILE779  LEU786  VAL792 
 PHE793  MET794  SER795  GLU796  ALA797  LYS798  CYS799  TRP800  GLU811  SER814 

> <Gold.Protein.RotatedAtoms>
  151.0288  134.9523  159.8099 H   0  0  0  0  0  0  0  0  0  0  0  0  # atno 6907 bound_to 6896
  152.5341  134.2808  159.9016 H   0  0  0  0  0  0  0  0  0  0  0  0  # atno 6908 bound_to 6896
  151.2817  133.4164  159.2661 H   0  0  0  0  0  0  0  0  0  0  0  0  # atno 6909 bound_to 6896
  146.2429  140.1232  142.8340 H   0  0  0  0  0  0  0  0  0  0  0  0  # atno 7974 bound_to 7965
  154.4600  140.0958  156.6866 H   0  0  0  0  0  0  0  0  0  0  0  0  # atno 8008 bound_to 7997
  155.5023  140.3474  155.4355 H   0  0  0  0  0  0  0  0  0  0  0  0  # atno 8009 bound_to 7997
  156.0852  140.1383  156.9651 H   0  0  0  0  0  0  0  0  0  0  0  0  # atno 8010 bound_to 7997
  139.4833  144.4726  151.8556 H   0  0  0  0  0  0  0  0  0  0  0  0  # atno 10167 bound_to 10162
  156.2159  130.4163  149.9055 H   0  0  0  0  0  0  0  0  0  0  0  0  # atno 10718 bound_to 10713
  153.0705  135.6587  154.0259 H   0  0  0  0  0  0  0  0  0  0  0  0  # atno 10763 bound_to 10752
  153.9906  135.2946  155.3413 H   0  0  0  0  0  0  0  0  0  0  0  0  # atno 10764 bound_to 10752
  154.7077  135.5218  153.8690 H   0  0  0  0  0  0  0  0  0  0  0  0  # atno 10765 bound_to 10752
  140.7828  134.3059  157.5040 H   0  0  0  0  0  0  0  0  0  0  0  0  # atno 11005 bound_to 11000
  145.0389  140.8929  143.5064 LP  0  0  0  0  0  0  0  0  0  0  0  0  # atno 17320 bound_to 7965
  145.1309  139.2632  143.5540 LP  0  0  0  0  0  0  0  0  0  0  0  0  # atno 17321 bound_to 7965
  140.4196  144.2261  150.5887 LP  0  0  0  0  0  0  0  0  0  0  0  0  # atno 17342 bound_to 10162
  140.4887  143.2354  151.8850 LP  0  0  0  0  0  0  0  0  0  0  0  0  # atno 17343 bound_to 10162
  156.6718  130.8823  151.3563 LP  0  0  0  0  0  0  0  0  0  0  0  0  # atno 17370 bound_to 10713
  157.7063  130.9388  150.0941 LP  0  0  0  0  0  0  0  0  0  0  0  0  # atno 17371 bound_to 10713
  139.8740  134.9329  156.3565 LP  0  0  0  0  0  0  0  0  0  0  0  0  # atno 17394 bound_to 11000
  140.9465  133.7479  156.0216 LP  0  0  0  0  0  0  0  0  0  0  0  0  # atno 17395 bound_to 11000

$$$$
