#       Name:                AV-unprocessed.smi:2559
#       Creating user name   scv26
#       Creation time:       Fri Mar 27 14:08:11 2020


#       File generated by GOLD software.
#

@<TRIPOS>MOLECULE
AV-unprocessed.smi:2559
    53    55     1
SMALL
NO_CHARGES


@<TRIPOS>ATOM
      1 ****        -1.6045   3.9991  -2.6928 C.3            1 S1                 0.0000
      2 ****        -1.0949   2.6607  -3.0061 N.am           1 S1                 0.0000
      3 ****        -0.7919   2.3048  -4.2934 C.2            1 S1                 0.0000
      4 ****        -0.9560   3.1383  -5.1852 O.2            1 S1                 0.0000
      5 ****        -0.3144   1.0402  -4.5592 N.pl3          1 S1                -1.0000
      6 ****        -0.0907   0.0519  -3.6365 C.2            1 S1                 0.0000
      7 ****         0.3495  -1.0722  -3.8649 O.2            1 S1                 0.0000
      8 ****        -0.4357   0.4805  -2.2603 C.2            1 S1                 0.0000
      9 ****        -0.9040   1.7216  -1.9563 C.2            1 S1                 0.0000
     10 ****        -1.1035   1.8637  -0.5926 N.2            1 S1                 0.0000
     11 ****        -0.7636   0.6668  -0.1122 C.2            1 S1                 0.0000
     12 ****        -0.7974   0.3598   1.2501 N.pl3          1 S1                 0.0000
     13 ****        -1.5644  -0.7201   1.8724 C.3            1 S1                 0.0000
     14 ****        -0.6939  -1.5606   2.8236 C.3            1 S1                 0.0000
     15 ****        -0.0804  -0.6713   3.9134 C.3            1 S1                 0.0000
     16 ****         0.6297   0.5306   3.2741 C.3            1 S1                 0.0000
     17 ****        -0.3044   1.2605   2.2913 C.3            1 S1                 0.0000
     18 ****        -0.3333  -0.2207  -1.0513 N.pl3          1 S1                 0.0000
     19 ****         0.1757  -1.5765  -0.8343 C.3            1 S1                 0.0000
     20 ****         1.6310  -1.5837  -0.3263 C.3            1 S1                 0.0000
     21 ****         2.4698  -1.0026  -1.3058 O.3            1 S1                 0.0000
     22 ****         2.1259  -3.0102  -0.0339 C.3            1 S1                 0.0000
     23 ****         3.2594  -2.9742   0.8076 O.3            1 S1                 0.0000
     24 ****        -2.4837   4.2295  -3.2961 H              1 S1                 0.0000
     25 ****        -0.8429   4.7517  -2.8987 H              1 S1                 0.0000
     26 ****        -1.8969   4.1040  -1.6484 H              1 S1                 0.0000
     27 ****        -2.3941  -0.2812   2.4281 H              1 S1                 0.0000
     28 ****        -2.0262  -1.3481   1.1117 H              1 S1                 0.0000
     29 ****        -1.2907  -2.3508   3.2796 H              1 S1                 0.0000
     30 ****         0.0995  -2.0555   2.2637 H              1 S1                 0.0000
     31 ****        -0.8673  -0.3169   4.5803 H              1 S1                 0.0000
     32 ****         0.6158  -1.2445   4.5260 H              1 S1                 0.0000
     33 ****         0.9690   1.2186   4.0488 H              1 S1                 0.0000
     34 ****         1.5227   0.1924   2.7471 H              1 S1                 0.0000
     35 ****         0.2322   2.0907   1.8307 H              1 S1                 0.0000
     36 ****        -1.1515   1.6955   2.8232 H              1 S1                 0.0000
     37 ****        -0.4665  -2.0896  -0.1249 H              1 S1                 0.0000
     38 ****         0.0839  -2.1663  -1.7426 H              1 S1                 0.0000
     39 ****         1.6904  -0.9826   0.5815 H              1 S1                 0.0000
     40 ****         2.1353  -0.1444  -1.5173 H              1 S1                 0.0000
     41 ****         1.3550  -3.5774   0.4885 H              1 S1                 0.0000
     42 ****         2.3531  -3.5510  -0.9536 H              1 S1                 0.0000
     43 ****         3.5547  -3.8602   0.9497 H              1 S1                 0.0000
     44 ****        -1.3027   4.0490  -4.9607 LP             1 S1                 0.0000
     45 ****        -0.7425   2.9043  -6.1337 LP             1 S1                 0.0000
     46 ****        -0.1122   0.8232  -5.5142 LP             1 S1                 0.0000
     47 ****         0.5816  -1.3377  -4.8006 LP             1 S1                 0.0000
     48 ****         0.4756  -1.7217  -3.1150 LP             1 S1                 0.0000
     49 ****        -1.4240   2.6673  -0.0911 LP             1 S1                 0.0000
     50 ****         2.4756  -1.5739  -2.1265 LP             1 S1                 0.0000
     51 ****         3.4004  -0.9231  -0.9485 LP             1 S1                 0.0000
     52 ****         3.0171  -2.5548   1.6825 LP             1 S1                 0.0000
     53 ****         3.9858  -2.4420   0.3728 LP             1 S1                 0.0000
@<TRIPOS>BOND
    1    1    2 1     
    2    1   24 1     
    3    1   25 1     
    4    1   26 1     
    5    2    9 1     
    6    2    3 am    
    7    3    4 2     
    8    3    5 1     
    9    5    6 1     
   10    6    7 2     
   11    6    8 1     
   12    8   18 1     
   13    8    9 2     
   14    9   10 1     
   15   10   11 2     
   16   11   12 1     
   17   11   18 1     
   18   12   17 1     
   19   12   13 1     
   20   13   14 1     
   21   13   27 1     
   22   13   28 1     
   23   14   15 1     
   24   14   29 1     
   25   14   30 1     
   26   15   16 1     
   27   15   31 1     
   28   15   32 1     
   29   16   17 1     
   30   16   33 1     
   31   16   34 1     
   32   17   35 1     
   33   17   36 1     
   34   18   19 1     
   35   19   20 1     
   36   19   37 1     
   37   19   38 1     
   38   20   21 1     
   39   20   22 1     
   40   20   39 1     
   41   21   40 1     
   42   22   23 1     
   43   22   41 1     
   44   22   42 1     
   45   23   43 1     
   46    4   44 1     
   47    4   45 1     
   48    5   46 1     
   49    7   47 1     
   50    7   48 1     
   51   10   49 1     
   52   21   50 1     
   53   21   51 1     
   54   23   52 1     
   55   23   53 1     
@<TRIPOS>SUBSTRUCTURE
      1 S1             1
@<TRIPOS>SET
LONE_PAIRS      STATIC     ATOMS    <user>   **** ""
10 44 45 46 47 48 49 50 51 52 53
DONOR_HYDROGENS      STATIC     ATOMS    <user>   **** ""
2 40 43
ATOM$BLUE        STATIC     ATOMS    COLORGROUP SYSTEM
10 44 45 46 47 48 49 50 51 52 53
ATOM$RED        STATIC     ATOMS    COLORGROUP SYSTEM
2 40 43
