AV-unprocessed.smi:749|AV-procd|sdf|3584|dock3
  -GOLD-   22720 0583D 1   1.00000     0.00000
 Structure written by MMmdl.
 43 44  0  0  0  0  0  0  0  0  1 V2000
  153.3998  142.6854  161.0136 C   0  0  0  0  0  0  0  0  0  0  0  0
  152.6472  142.8316  159.7667 N   0  0  0  0  0  0  0  0  0  0  0  0
  152.4135  141.5768  159.0350 C   0  0  0  0  0  0  0  0  0  0  0  0
  151.9415  141.7718  157.5812 C   0  0  1  0  0  0  0  0  0  0  0  0
  151.4153  140.5257  157.0341 N   0  0  0  0  0  0  0  0  0  0  0  0
  152.0048  139.3219  157.1237 C   0  0  0  0  0  0  0  0  0  0  0  0
  153.0818  139.1492  157.6922 O   0  0  0  0  0  0  0  0  0  0  0  0
  151.3501  138.2936  156.5443 N   0  0  0  0  0  0  0  0  0  0  0  0
  151.6808  136.9119  156.4511 C   0  0  0  0  0  0  0  0  0  0  0  0
  150.6613  135.9427  156.2552 C   0  0  0  0  0  0  0  0  0  0  0  0
  151.3505  134.7614  156.2046 C   0  0  0  0  0  0  0  0  0  0  0  0
  150.9364  133.3283  156.0176 C   0  0  0  0  0  0  0  0  0  0  0  0
  152.1629  132.3945  156.0428 C   0  0  0  0  0  0  0  0  0  0  0  0
  150.2244  133.1577  154.6625 C   0  0  0  0  0  0  0  0  0  0  0  0
  149.9814  132.9053  157.1497 C   0  0  0  0  0  0  0  0  0  0  0  0
  152.6842  134.9973  156.3533 O   0  0  0  0  0  0  0  0  0  0  0  0
  152.8888  136.3723  156.5100 N   0  0  0  0  0  0  0  0  0  0  0  0
  150.8621  142.8544  157.5303 C   0  0  0  0  0  0  0  0  0  0  0  0
  151.4108  144.1815  158.0672 C   0  0  0  0  0  0  0  0  0  0  0  0
  152.1617  144.0425  159.4002 C   0  0  0  0  0  0  0  0  0  0  0  0
  152.3249  145.0551  160.0818 O   0  0  0  0  0  0  0  0  0  0  0  0
  154.3278  143.2572  160.9684 H   0  0  0  0  0  0  0  0  0  0  0  0
  153.6608  141.6463  161.2183 H   0  0  0  0  0  0  0  0  0  0  0  0
  152.8166  143.0461  161.8621 H   0  0  0  0  0  0  0  0  0  0  0  0
  153.3224  140.9730  159.0384 H   0  0  0  0  0  0  0  0  0  0  0  0
  151.6636  141.0130  159.5923 H   0  0  0  0  0  0  0  0  0  0  0  0
  152.7846  142.1030  156.9713 H   0  0  0  0  0  0  0  0  0  0  0  0
  150.5304  140.5797  156.5496 H   0  0  0  0  0  0  0  0  0  0  0  0
  150.4910  138.5504  156.0800 H   0  0  0  0  0  0  0  0  0  0  0  0
  149.5953  136.0892  156.1654 H   0  0  0  0  0  0  0  0  0  0  0  0
  151.8721  131.3519  155.9094 H   0  0  0  0  0  0  0  0  0  0  0  0
  152.6984  132.4643  156.9906 H   0  0  0  0  0  0  0  0  0  0  0  0
  152.8674  132.6404  155.2472 H   0  0  0  0  0  0  0  0  0  0  0  0
  150.8740  133.4460  153.8352 H   0  0  0  0  0  0  0  0  0  0  0  0
  149.3256  133.7724  154.6026 H   0  0  0  0  0  0  0  0  0  0  0  0
  149.9225  132.1226  154.4982 H   0  0  0  0  0  0  0  0  0  0  0  0
  149.6711  131.8653  157.0425 H   0  0  0  0  0  0  0  0  0  0  0  0
  149.0777  133.5159  157.1598 H   0  0  0  0  0  0  0  0  0  0  0  0
  150.4565  133.0076  158.1262 H   0  0  0  0  0  0  0  0  0  0  0  0
  150.5130  142.9917  156.5060 H   0  0  0  0  0  0  0  0  0  0  0  0
  149.9937  142.5490  158.1162 H   0  0  0  0  0  0  0  0  0  0  0  0
  152.1042  144.6086  157.3416 H   0  0  0  0  0  0  0  0  0  0  0  0
  150.5984  144.8998  158.1811 H   0  0  0  0  0  0  0  0  0  0  0  0
  1  2  1  0  0  0  0
  1 22  1  0  0  0  0
  1 23  1  0  0  0  0
  1 24  1  0  0  0  0
  2 20  1  0  0  0  0
  2  3  1  0  0  0  0
  3  4  1  0  0  0  0
  3 25  1  0  0  0  0
  3 26  1  0  0  0  0
  4  5  1  0  0  0  0
  4 18  1  0  0  0  0
  4 27  1  0  0  0  0
  5  6  1  0  0  0  0
  5 28  1  0  0  0  0
  6  7  2  0  0  0  0
  6  8  1  0  0  0  0
  8  9  1  0  0  0  0
  8 29  1  0  0  0  0
  9 17  2  0  0  0  0
  9 10  1  0  0  0  0
 10 11  2  0  0  0  0
 10 30  1  0  0  0  0
 11 12  1  0  0  0  0
 11 16  1  0  0  0  0
 12 13  1  0  0  0  0
 12 14  1  0  0  0  0
 12 15  1  0  0  0  0
 13 31  1  0  0  0  0
 13 32  1  0  0  0  0
 13 33  1  0  0  0  0
 14 34  1  0  0  0  0
 14 35  1  0  0  0  0
 14 36  1  0  0  0  0
 15 37  1  0  0  0  0
 15 38  1  0  0  0  0
 15 39  1  0  0  0  0
 16 17  1  0  0  0  0
 18 19  1  0  0  0  0
 18 40  1  0  0  0  0
 18 41  1  0  0  0  0
 19 20  1  0  0  0  0
 19 42  1  0  0  0  0
 19 43  1  0  0  0  0
 20 21  2  0  0  0  0
M  END
> <s_m_source_file>
AV-unprocessed.smi

> <i_m_source_file_index>
749

> <i_lp_mmshare_version>
43012

> <i_f3d_flags>
0

> <s_epik_input>
Tz1DMVtDSDJdW0NIMl1bQ0BASF0oW0NIMl1OMVtDSDNdKVtOSF1DKD1PKVtOSF1jMltjSF1jKG9uMilDKFtDSDNdKShbQ0gzXSlbQ0gzXQ==

> <s_epik_cmdline>
J2VwaWtfcHl0aG9uJywgJy1waCcsICc3LjAnLCAnLXRuJywgJzgnLCAnLW1hJywgJzIwMCcsICctbWV0YWxfYmluZGluZycsICctaW1hZScsICc8aW5maWxlLm1hZT4nLCAnLW9tYWUnLCAnPG91dGZpbGUubWFlPic=

> <r_lp_tautomer_probability>
1

> <r_epik_Ionization_Penalty>
2.91905e-05

> <r_epik_Ionization_Penalty_Charging>
0

> <r_epik_Ionization_Penalty_Neutral>
2.91905e-05

> <r_epik_State_Penalty>
-0

> <r_epik_Charging_Adjusted_Penalty>
0

> <i_epik_Tot_Q>
0

> <i_epik_Tot_abs_Q>
0

> <r_epik_Metal_State_Penalty>
0.0102923

> <b_epik_Metal_Only>
0

> <s_lp_Force_Field>
OPLS_2005

> <r_lp_Energy>
15.3283

> <b_lp_Chiralities_Consistent>
1

> <s_lp_Variant>
AV-unprocessed.smi:749-1

> <Gold.Version>
5.8.1

> <Gold.Id.Protein>
6NUR|6NUR_protein|mol2

> <Gold.PLP.Fitness>
35.3918

> <Gold.PLP.PLP>
-33.9648

> <Gold.PLP.part.hbond>
-2.6232

> <Gold.PLP.part.metal>
0.0000

> <Gold.PLP.part.buried>
-2.9841

> <Gold.PLP.part.nonpolar>
-27.2448

> <Gold.PLP.part.repulsive>
0.2241

> <Gold.PLP.ligand.clash>
0.0000

> <Gold.PLP.ligand.torsion>
0.2640

> <Gold.PLP.Chemscore.Hbond>
0.6500

> <Gold.PLP.Chemscore.CHOScore>
0.0000

> <Gold.PLP.Chemscore.Metal>
0.0000

> <Gold.Chemscore.Hbonds>
donor molecule, donor type, donor heavy atom, donor atom, acceptor molecule, acceptor atom, score
      P1  H  7997  8010       L1     7  1.00

> <Gold.PLP.Chemscore.Internal.Correction>
0.0050

> <Gold.Rescore>
     Score         DG    S(hbond)    S(metal)    S(lipo)     H(rot)  DE(clash)    DE(int)     intcor
      8.39     -11.12       0.00        0.00      75.17       1.23       0.10       2.63       ----

> <Gold.Chemscore.Fitness>
8.3901

> <Gold.Chemscore.DG>
-11.1242

> <Gold.Chemscore.ZeroCoef>
-5.4800

> <Gold.Chemscore.Hbond>
0.0006

> <Gold.Chemscore.Metal>
0.0000

> <Gold.Chemscore.Lipo>
75.1727

> <Gold.Chemscore.Internal_Hbond>
0.0000

> <Gold.Chemscore.DEClash>
0.1014

> <Gold.Chemscore.DEInternal>
2.6327

> <Gold.Chemscore.Rot>
1.2317

> <Gold.Chemscore.Internal.Correction>
   9.000000E+99

> <Gold.Chemscore.Hbonds>
donor molecule, donor type, donor heavy atom, donor atom, acceptor molecule, acceptor atom, score
      P1  H  7997  8010       L1     7  0.65

> <Gold.Chemscore.Hbond.Weighted>
-0.0021

> <Gold.Chemscore.Metal.Weighted>
-0.0000

> <Gold.Chemscore.Lipo.Weighted>
-8.7952

> <Gold.Chemscore.Internal_Hbond.Weighted>
0.0000

> <Gold.Chemscore.DEClash.Weighted>
0.1014

> <Gold.Chemscore.DEInternal.Weighted>
2.6327

> <Gold.Chemscore.Rot.Weighted>
3.1531

> <Gold.Chemscore.Internal.Correction.Weighted>
   9.000000E+99

> <Gold.Protein.RotatedTorsions>
[ 6907 6896 6895 6894 ] final  -22.17 input  -60.11 | X-H torsion
[ 7974 7965 7964 7962 ] final  131.91 input  175.53 | X-H torsion
[ 8008 7997 7996 7995 ] final   55.51 input   59.86 | X-H torsion
[ 10167 10162 10161 10158 ] final  -83.87 input  -65.29 | X-H torsion
[ 10718 10713 10712 10709 ] final  163.69 input   66.30 | X-H torsion
[ 10763 10752 10751 10750 ] final  134.31 input  -60.55 | X-H torsion
[ 11005 11000 10999 10996 ] final  111.11 input  -57.11 | X-H torsion

> <Gold.Protein.ActiveResidues>
 VAL166  LYS551  ARG553  GLY616  TRP617  ASP618  TYR619  PRO620  LYS621  CYS622 
 ASP623  PHE694  ASN695  SER759  ASP760  ASP761  ALA762  ILE779  LEU786  VAL792 
 PHE793  MET794  SER795  GLU796  ALA797  LYS798  CYS799  TRP800  GLU811  SER814 

> <Gold.Protein.RotatedAtoms>
  151.2225  135.0524  159.8955 H   0  0  0  0  0  0  0  0  0  0  0  0  # atno 6907 bound_to 6896
  152.5414  134.0625  159.8168 H   0  0  0  0  0  0  0  0  0  0  0  0  # atno 6908 bound_to 6896
  151.0793  133.5354  159.2653 H   0  0  0  0  0  0  0  0  0  0  0  0  # atno 6909 bound_to 6896
  145.0024  139.4299  143.5285 H   0  0  0  0  0  0  0  0  0  0  0  0  # atno 7974 bound_to 7965
  155.5023  140.3475  155.4373 H   0  0  0  0  0  0  0  0  0  0  0  0  # atno 8008 bound_to 7997
  156.0905  140.1409  156.9625 H   0  0  0  0  0  0  0  0  0  0  0  0  # atno 8009 bound_to 7997
  154.4632  140.0927  156.6927 H   0  0  0  0  0  0  0  0  0  0  0  0  # atno 8010 bound_to 7997
  140.4185  143.2594  151.8921 H   0  0  0  0  0  0  0  0  0  0  0  0  # atno 10167 bound_to 10162
  157.1049  131.0453  151.2482 H   0  0  0  0  0  0  0  0  0  0  0  0  # atno 10718 bound_to 10713
  153.8215  135.3115  155.3410 H   0  0  0  0  0  0  0  0  0  0  0  0  # atno 10763 bound_to 10752
  154.8010  135.4726  154.0280 H   0  0  0  0  0  0  0  0  0  0  0  0  # atno 10764 bound_to 10752
  153.1690  135.6874  153.8724 H   0  0  0  0  0  0  0  0  0  0  0  0  # atno 10765 bound_to 10752
  139.8896  134.9500  156.6382 H   0  0  0  0  0  0  0  0  0  0  0  0  # atno 11005 bound_to 11000
  146.3454  139.9420  142.8740 LP  0  0  0  0  0  0  0  0  0  0  0  0  # atno 17320 bound_to 7965
  145.2135  140.9905  143.4087 LP  0  0  0  0  0  0  0  0  0  0  0  0  # atno 17321 bound_to 7965
  139.4782  144.5462  151.8455 LP  0  0  0  0  0  0  0  0  0  0  0  0  # atno 17342 bound_to 10162
  140.4559  144.1790  150.5901 LP  0  0  0  0  0  0  0  0  0  0  0  0  # atno 17343 bound_to 10162
  157.4609  130.7652  149.7235 LP  0  0  0  0  0  0  0  0  0  0  0  0  # atno 17370 bound_to 10713
  155.9864  130.3975  150.3213 LP  0  0  0  0  0  0  0  0  0  0  0  0  # atno 17371 bound_to 10713
  140.7614  133.8814  155.8421 LP  0  0  0  0  0  0  0  0  0  0  0  0  # atno 17394 bound_to 11000
  140.9919  134.1267  157.4400 LP  0  0  0  0  0  0  0  0  0  0  0  0  # atno 17395 bound_to 11000

$$$$
