AV-unprocessed.smi:1454|AV-procd|sdf|5913|dock5
  -GOLD-   22720 5593D 1   1.00000     0.00000
 Structure written by MMmdl.
 44 45  0  0  0  0  0  0  0  0  1 V2000
  153.0598  138.9432  155.0812 O   0  0  0  0  0  0  0  0  0  0  0  0
  151.8305  138.9226  155.0098 C   0  0  0  0  0  0  0  0  0  0  0  0
  151.1046  137.7738  154.3015 C   0  0  0  0  0  0  0  0  0  0  0  0
  150.2036  136.9499  155.2430 C   0  0  0  0  0  0  0  0  0  0  0  0
  149.8664  135.6531  154.6669 N   0  0  0  0  0  0  0  0  0  0  0  0
  149.9939  134.4726  155.2920 C   0  0  0  0  0  0  0  0  0  0  0  0
  150.4289  134.3614  156.4389 O   0  0  0  0  0  0  0  0  0  0  0  0
  149.5650  133.2285  154.4965 C   0  0  0  0  0  0  0  0  0  0  0  0
  148.6186  133.5867  153.3263 C   0  0  0  0  0  0  0  0  0  0  0  0
  147.2998  132.8429  153.5727 C   0  0  0  0  0  0  0  0  0  0  0  0
  147.3005  132.5038  155.0605 C   0  0  0  0  0  0  0  0  0  0  0  0
  148.7725  132.2384  155.3717 C   0  0  0  0  0  0  0  0  0  0  0  0
  151.0515  139.8755  155.5416 N   0  0  0  0  0  0  0  0  0  0  0  0
  151.5519  141.0343  156.2682 C   0  0  0  0  0  0  0  0  0  0  0  0
  150.8601  141.1599  157.6321 C   0  0  0  0  0  0  0  0  0  0  0  0
  151.3630  142.3546  158.4183 C   0  0  0  0  0  0  0  0  0  0  0  0
  152.0976  142.1813  159.6094 C   0  0  0  0  0  0  0  0  0  0  0  0
  152.5372  143.3227  160.3070 C   0  0  0  0  0  0  0  0  0  0  0  0
  152.2217  144.5922  159.7826 C   0  0  0  0  0  0  0  0  0  0  0  0
  151.5189  144.7701  158.6431 N   0  0  0  0  0  0  0  0  0  0  0  0
  151.1015  143.6702  157.9802 C   0  0  0  0  0  0  0  0  0  0  0  0
  150.5084  138.1957  153.4918 H   0  0  0  0  0  0  0  0  0  0  0  0
  151.8461  137.1220  153.8371 H   0  0  0  0  0  0  0  0  0  0  0  0
  150.6820  136.8128  156.2143 H   0  0  0  0  0  0  0  0  0  0  0  0
  149.2680  137.4785  155.4291 H   0  0  0  0  0  0  0  0  0  0  0  0
  149.5005  135.6537  153.7256 H   0  0  0  0  0  0  0  0  0  0  0  0
  150.4567  132.7299  154.1126 H   0  0  0  0  0  0  0  0  0  0  0  0
  148.4291  134.6604  153.2709 H   0  0  0  0  0  0  0  0  0  0  0  0
  149.0491  133.2986  152.3668 H   0  0  0  0  0  0  0  0  0  0  0  0
  146.4277  133.4279  153.2787 H   0  0  0  0  0  0  0  0  0  0  0  0
  147.2887  131.9201  152.9910 H   0  0  0  0  0  0  0  0  0  0  0  0
  146.9466  133.3599  155.6364 H   0  0  0  0  0  0  0  0  0  0  0  0
  146.6605  131.6538  155.2979 H   0  0  0  0  0  0  0  0  0  0  0  0
  149.0277  131.2174  155.0850 H   0  0  0  0  0  0  0  0  0  0  0  0
  148.9848  132.3319  156.4380 H   0  0  0  0  0  0  0  0  0  0  0  0
  150.0503  139.7894  155.4408 H   0  0  0  0  0  0  0  0  0  0  0  0
  152.6302  140.9372  156.4051 H   0  0  0  0  0  0  0  0  0  0  0  0
  151.3807  141.9341  155.6750 H   0  0  0  0  0  0  0  0  0  0  0  0
  149.7812  141.2505  157.4988 H   0  0  0  0  0  0  0  0  0  0  0  0
  151.0237  140.2556  158.2202 H   0  0  0  0  0  0  0  0  0  0  0  0
  152.3186  141.1926  159.9843 H   0  0  0  0  0  0  0  0  0  0  0  0
  153.1015  143.2282  161.2230 H   0  0  0  0  0  0  0  0  0  0  0  0
  152.5413  145.4887  160.2928 H   0  0  0  0  0  0  0  0  0  0  0  0
  150.5395  143.8461  157.0746 H   0  0  0  0  0  0  0  0  0  0  0  0
  1  2  2  0  0  0  0
  2  3  1  0  0  0  0
  2 13  1  0  0  0  0
  3  4  1  0  0  0  0
  3 22  1  0  0  0  0
  3 23  1  0  0  0  0
  4  5  1  0  0  0  0
  4 24  1  0  0  0  0
  4 25  1  0  0  0  0
  5  6  1  0  0  0  0
  5 26  1  0  0  0  0
  6  7  2  0  0  0  0
  6  8  1  0  0  0  0
  8 12  1  0  0  0  0
  8  9  1  0  0  0  0
  8 27  1  0  0  0  0
  9 10  1  0  0  0  0
  9 28  1  0  0  0  0
  9 29  1  0  0  0  0
 10 11  1  0  0  0  0
 10 30  1  0  0  0  0
 10 31  1  0  0  0  0
 11 12  1  0  0  0  0
 11 32  1  0  0  0  0
 11 33  1  0  0  0  0
 12 34  1  0  0  0  0
 12 35  1  0  0  0  0
 13 14  1  0  0  0  0
 13 36  1  0  0  0  0
 14 15  1  0  0  0  0
 14 37  1  0  0  0  0
 14 38  1  0  0  0  0
 15 16  1  0  0  0  0
 15 39  1  0  0  0  0
 15 40  1  0  0  0  0
 16 21  1  0  0  0  0
 16 17  2  0  0  0  0
 17 18  1  0  0  0  0
 17 41  1  0  0  0  0
 18 19  2  0  0  0  0
 18 42  1  0  0  0  0
 19 20  1  0  0  0  0
 19 43  1  0  0  0  0
 20 21  2  0  0  0  0
 21 44  1  0  0  0  0
M  END
> <s_m_source_file>
AV-unprocessed.smi

> <i_m_source_file_index>
1454

> <i_lp_mmshare_version>
43012

> <i_f3d_flags>
0

> <s_epik_input>
W2NIXTFuW2NIXVtjSF1bY0hdYzFbQ0gyXVtDSDJdW05IXUMoPU8pW0NIMl1bQ0gyXVtOSF1DKD1PKVtDSF0yW0NIMl1bQ0gyXVtDSDJdW0NIMl0y

> <s_epik_cmdline>
J2VwaWtfcHl0aG9uJywgJy1waCcsICc3LjAnLCAnLXRuJywgJzgnLCAnLW1hJywgJzIwMCcsICctbWV0YWxfYmluZGluZycsICctaW1hZScsICc8aW5maWxlLm1hZT4nLCAnLW9tYWUnLCAnPG91dGZpbGUubWFlPic=

> <r_epik_Ionization_Penalty>
0.013238

> <r_epik_Ionization_Penalty_Charging>
0

> <r_epik_Ionization_Penalty_Neutral>
0.013238

> <r_epik_State_Penalty>
0.0102918

> <r_epik_Charging_Adjusted_Penalty>
0.0102918

> <i_epik_Tot_Q>
0

> <i_epik_Tot_abs_Q>
0

> <r_epik_Metal_State_Penalty>
0.0100665

> <b_epik_Metal_Only>
0

> <s_lp_Force_Field>
OPLS_2005

> <r_lp_Energy>
20.9977

> <b_lp_Chiralities_Consistent>
1

> <s_lp_Variant>
AV-unprocessed.smi:1454-1

> <Gold.Version>
5.8.1

> <Gold.Id.Protein>
6NUR|6NUR_protein|mol2

> <Gold.PLP.Fitness>
48.2860

> <Gold.PLP.PLP>
-40.7406

> <Gold.PLP.part.hbond>
-2.0000

> <Gold.PLP.part.metal>
0.0000

> <Gold.PLP.part.buried>
-6.0853

> <Gold.PLP.part.nonpolar>
-33.2566

> <Gold.PLP.part.repulsive>
0.2944

> <Gold.PLP.ligand.clash>
0.0000

> <Gold.PLP.ligand.torsion>
0.7292

> <Gold.PLP.Chemscore.Hbond>
1.9500

> <Gold.PLP.Chemscore.CHOScore>
1.0000

> <Gold.PLP.Chemscore.Metal>
0.0000

> <Gold.Chemscore.Hbonds>
donor molecule, donor type, donor heavy atom, donor atom, acceptor molecule, acceptor atom, score
      L1  H     5    26       P1  7948  1.00
      P1  H  7997  8010       L1     1  0.99
      L1  C    21    44       P1  8028  1.00

> <Gold.PLP.Chemscore.Internal.Correction>
0.1539

> <Gold.Rescore>
     Score         DG    S(hbond)    S(metal)    S(lipo)     H(rot)  DE(clash)    DE(int)     intcor
     14.86     -15.85       1.13        0.00     102.11       2.10       0.30       0.69       ----

> <Gold.Chemscore.Fitness>
14.8559

> <Gold.Chemscore.DG>
-15.8461

> <Gold.Chemscore.ZeroCoef>
-5.4800

> <Gold.Chemscore.Hbond>
1.1333

> <Gold.Chemscore.Metal>
0.0000

> <Gold.Chemscore.Lipo>
102.1104

> <Gold.Chemscore.Internal_Hbond>
0.0000

> <Gold.Chemscore.DEClash>
0.3019

> <Gold.Chemscore.DEInternal>
0.6883

> <Gold.Chemscore.Rot>
2.0961

> <Gold.Chemscore.Internal.Correction>
   9.000000E+99

> <Gold.Chemscore.Hbonds>
donor molecule, donor type, donor heavy atom, donor atom, acceptor molecule, acceptor atom, score
      L1  H     5    26       P1  7948  0.29
      P1  H  7997  8010       L1     1  0.92

> <Gold.Chemscore.Hbond.Weighted>
-3.7852

> <Gold.Chemscore.Metal.Weighted>
-0.0000

> <Gold.Chemscore.Lipo.Weighted>
-11.9469

> <Gold.Chemscore.Internal_Hbond.Weighted>
0.0000

> <Gold.Chemscore.DEClash.Weighted>
0.3019

> <Gold.Chemscore.DEInternal.Weighted>
0.6883

> <Gold.Chemscore.Rot.Weighted>
5.3660

> <Gold.Chemscore.Internal.Correction.Weighted>
   9.000000E+99

> <Gold.Protein.RotatedTorsions>
[ 6907 6896 6895 6894 ] final   72.44 input  -60.11 | X-H torsion
[ 7974 7965 7964 7962 ] final   23.86 input  175.53 | X-H torsion
[ 8008 7997 7996 7995 ] final   96.61 input   59.86 | X-H torsion
[ 10167 10162 10161 10158 ] final  -71.94 input  -65.29 | X-H torsion
[ 10718 10713 10712 10709 ] final   94.01 input   66.30 | X-H torsion
[ 10763 10752 10751 10750 ] final  -18.63 input  -60.55 | X-H torsion
[ 11005 11000 10999 10996 ] final  -75.68 input  -57.11 | X-H torsion

> <Gold.Protein.ActiveResidues>
 VAL166  LYS551  ARG553  GLY616  TRP617  ASP618  TYR619  PRO620  LYS621  CYS622 
 ASP623  PHE694  ASN695  SER759  ASP760  ASP761  ALA762  ILE779  LEU786  VAL792 
 PHE793  MET794  SER795  GLU796  ALA797  LYS798  CYS799  TRP800  GLU811  SER814 

> <Gold.Protein.RotatedAtoms>
  152.4868  134.4571  159.9593 H   0  0  0  0  0  0  0  0  0  0  0  0  # atno 6907 bound_to 6896
  151.4566  133.3597  159.2811 H   0  0  0  0  0  0  0  0  0  0  0  0  # atno 6908 bound_to 6896
  150.8985  134.8420  159.7404 H   0  0  0  0  0  0  0  0  0  0  0  0  # atno 6909 bound_to 6896
  146.1965  139.7685  142.8794 H   0  0  0  0  0  0  0  0  0  0  0  0  # atno 7974 bound_to 7965
  156.0815  140.3270  155.7699 H   0  0  0  0  0  0  0  0  0  0  0  0  # atno 8008 bound_to 7997
  155.5145  140.0580  157.2935 H   0  0  0  0  0  0  0  0  0  0  0  0  # atno 8009 bound_to 7997
  154.4585  140.1954  156.0329 H   0  0  0  0  0  0  0  0  0  0  0  0  # atno 8010 bound_to 7997
  140.5232  143.2329  151.7393 H   0  0  0  0  0  0  0  0  0  0  0  0  # atno 10167 bound_to 10162
  157.6951  131.0498  150.4122 H   0  0  0  0  0  0  0  0  0  0  0  0  # atno 10718 bound_to 10713
  153.5922  135.7002  153.5418 H   0  0  0  0  0  0  0  0  0  0  0  0  # atno 10763 bound_to 10752
  153.3168  135.4085  155.1383 H   0  0  0  0  0  0  0  0  0  0  0  0  # atno 10764 bound_to 10752
  154.8598  135.3686  154.5454 H   0  0  0  0  0  0  0  0  0  0  0  0  # atno 10765 bound_to 10752
  141.1647  133.6955  156.7554 H   0  0  0  0  0  0  0  0  0  0  0  0  # atno 11005 bound_to 11000
  145.3627  141.0329  143.3275 LP  0  0  0  0  0  0  0  0  0  0  0  0  # atno 17320 bound_to 7965
  144.8591  139.5205  143.6821 LP  0  0  0  0  0  0  0  0  0  0  0  0  # atno 17321 bound_to 7965
  139.4930  144.4224  151.9963 LP  0  0  0  0  0  0  0  0  0  0  0  0  # atno 17342 bound_to 10162
  140.3321  144.3303  150.5985 LP  0  0  0  0  0  0  0  0  0  0  0  0  # atno 17343 bound_to 10162
  156.4505  130.4010  149.6639 LP  0  0  0  0  0  0  0  0  0  0  0  0  # atno 17370 bound_to 10713
  156.3790  130.7569  151.2560 LP  0  0  0  0  0  0  0  0  0  0  0  0  # atno 17371 bound_to 10713
  140.2573  134.8494  157.3725 LP  0  0  0  0  0  0  0  0  0  0  0  0  # atno 17394 bound_to 11000
  140.1645  134.4687  155.7872 LP  0  0  0  0  0  0  0  0  0  0  0  0  # atno 17395 bound_to 11000

$$$$
