AV-unprocessed.smi:558|AV-procd|sdf|2922|dock7
  -GOLD-   2262023413D 1   1.00000     0.00000
 Structure written by MMmdl.
 36 37  0  0  0  0  0  0  0  0  1 V2000
  153.8739  141.4211  161.8071 C   0  0  0  0  0  0  0  0  0  0  0  0
  153.1769  142.4768  161.0007 C   0  0  0  0  0  0  0  0  0  0  0  0
  152.6025  143.6970  161.4538 C   0  0  0  0  0  0  0  0  0  0  0  0
  152.0997  144.2747  160.3224 C   0  0  0  0  0  0  0  0  0  0  0  0
  151.3736  145.5681  160.1464 C   0  0  0  0  0  0  0  0  0  0  0  0
  152.3788  143.4147  159.2740 N   0  0  0  0  0  0  0  0  0  0  0  0
  152.0459  143.5423  157.8613 C   0  0  0  0  0  0  0  0  0  0  0  0
  151.2258  142.3486  157.3626 C   0  0  0  0  0  0  0  0  0  0  0  0
  151.6652  141.2059  157.4859 O   0  0  0  0  0  0  0  0  0  0  0  0
  150.0387  142.6274  156.8038 N   0  0  0  0  0  0  0  0  0  0  0  0
  149.0634  141.6433  156.3551 C   0  0  0  0  0  0  0  0  0  0  0  0
  149.5168  141.0090  155.0300 C   0  0  2  0  0  0  0  0  0  0  0  0
  148.4952  140.0911  154.3857 C   0  0  0  0  0  0  0  0  0  0  0  0
  149.3619  139.2782  153.4288 C   0  0  0  0  0  0  0  0  0  0  0  0
  150.6502  139.2026  154.0347 O   0  0  0  0  0  0  0  0  0  0  0  0
  150.7127  140.0679  155.1647 C   0  0  0  0  0  0  0  0  0  0  0  0
  153.0411  142.3148  159.6953 N   0  0  0  0  0  0  0  0  0  0  0  0
  154.0524  141.7594  162.8279 H   0  0  0  0  0  0  0  0  0  0  0  0
  154.8389  141.1631  161.3698 H   0  0  0  0  0  0  0  0  0  0  0  0
  153.2761  140.5108  161.8593 H   0  0  0  0  0  0  0  0  0  0  0  0
  152.5643  144.0885  162.4596 H   0  0  0  0  0  0  0  0  0  0  0  0
  151.2286  146.0662  161.1052 H   0  0  0  0  0  0  0  0  0  0  0  0
  150.3914  145.4076  159.7025 H   0  0  0  0  0  0  0  0  0  0  0  0
  151.9340  146.2439  159.5000 H   0  0  0  0  0  0  0  0  0  0  0  0
  151.4870  144.4639  157.6989 H   0  0  0  0  0  0  0  0  0  0  0  0
  152.9699  143.6267  157.2870 H   0  0  0  0  0  0  0  0  0  0  0  0
  149.7667  143.5973  156.7372 H   0  0  0  0  0  0  0  0  0  0  0  0
  148.9572  140.8765  157.1233 H   0  0  0  0  0  0  0  0  0  0  0  0
  148.0827  142.1054  156.2277 H   0  0  0  0  0  0  0  0  0  0  0  0
  149.7740  141.7965  154.3193 H   0  0  0  0  0  0  0  0  0  0  0  0
  148.0473  139.4352  155.1338 H   0  0  0  0  0  0  0  0  0  0  0  0
  147.6917  140.6269  153.8786 H   0  0  0  0  0  0  0  0  0  0  0  0
  148.9520  138.2862  153.2378 H   0  0  0  0  0  0  0  0  0  0  0  0
  149.4591  139.7940  152.4728 H   0  0  0  0  0  0  0  0  0  0  0  0
  151.6625  140.6016  155.2055 H   0  0  0  0  0  0  0  0  0  0  0  0
  150.6281  139.4602  156.0666 H   0  0  0  0  0  0  0  0  0  0  0  0
  1  2  1  0  0  0  0
  1 18  1  0  0  0  0
  1 19  1  0  0  0  0
  1 20  1  0  0  0  0
  2 17  2  0  0  0  0
  2  3  1  0  0  0  0
  3  4  2  0  0  0  0
  3 21  1  0  0  0  0
  4  5  1  0  0  0  0
  4  6  1  0  0  0  0
  5 22  1  0  0  0  0
  5 23  1  0  0  0  0
  5 24  1  0  0  0  0
  6  7  1  0  0  0  0
  6 17  1  0  0  0  0
  7  8  1  0  0  0  0
  7 25  1  0  0  0  0
  7 26  1  0  0  0  0
  8  9  2  0  0  0  0
  8 10  1  0  0  0  0
 10 11  1  0  0  0  0
 10 27  1  0  0  0  0
 11 12  1  0  0  0  0
 11 28  1  0  0  0  0
 11 29  1  0  0  0  0
 12 16  1  0  0  0  0
 12 13  1  0  0  0  0
 12 30  1  0  0  0  0
 13 14  1  0  0  0  0
 13 31  1  0  0  0  0
 13 32  1  0  0  0  0
 14 15  1  0  0  0  0
 14 33  1  0  0  0  0
 14 34  1  0  0  0  0
 15 16  1  0  0  0  0
 16 35  1  0  0  0  0
 16 36  1  0  0  0  0
M  END
> <s_m_source_file>
AV-unprocessed.smi

> <i_m_source_file_index>
558

> <i_lp_mmshare_version>
43012

> <i_f3d_flags>
0

> <s_epik_input>
W0NIM11jMVtjSF1jKFtDSDNdKW4objEpW0NIMl1DKD1PKVtOSF1bQ0gyXVtDQEBIXTJbQ0gyXVtDSDJdT1tDSDJdMg==

> <s_epik_cmdline>
J2VwaWtfcHl0aG9uJywgJy1waCcsICc3LjAnLCAnLXRuJywgJzgnLCAnLW1hJywgJzIwMCcsICctbWV0YWxfYmluZGluZycsICctaW1hZScsICc8aW5maWxlLm1hZT4nLCAnLW9tYWUnLCAnPG91dGZpbGUubWFlPic=

> <r_lp_tautomer_probability>
1

> <r_epik_Ionization_Penalty>
0.000376629

> <r_epik_Ionization_Penalty_Charging>
0

> <r_epik_Ionization_Penalty_Neutral>
0.000376629

> <r_epik_State_Penalty>
-0

> <r_epik_Charging_Adjusted_Penalty>
0

> <i_epik_Tot_Q>
0

> <i_epik_Tot_abs_Q>
0

> <r_epik_Metal_State_Penalty>
-0

> <b_epik_Metal_Only>
0

> <s_lp_Force_Field>
OPLS_2005

> <r_lp_Energy>
17.1643

> <b_lp_Chiralities_Consistent>
1

> <s_lp_Variant>
AV-unprocessed.smi:558-1

> <Gold.Version>
5.8.1

> <Gold.Id.Protein>
6NUR|6NUR_protein|mol2

> <Gold.PLP.Fitness>
40.6186

> <Gold.PLP.PLP>
-38.3035

> <Gold.PLP.part.hbond>
-2.0000

> <Gold.PLP.part.metal>
0.0000

> <Gold.PLP.part.buried>
0.8778

> <Gold.PLP.part.nonpolar>
-36.6480

> <Gold.PLP.part.repulsive>
0.2263

> <Gold.PLP.ligand.clash>
0.0000

> <Gold.PLP.ligand.torsion>
0.1676

> <Gold.PLP.Chemscore.Hbond>
0.8800

> <Gold.PLP.Chemscore.CHOScore>
0.0000

> <Gold.PLP.Chemscore.Metal>
0.0000

> <Gold.Chemscore.Hbonds>
donor molecule, donor type, donor heavy atom, donor atom, acceptor molecule, acceptor atom, score
      L1  H    10    27       P1  8028  0.83

> <Gold.PLP.Chemscore.Internal.Correction>
0.0104

> <Gold.Rescore>
     Score         DG    S(hbond)    S(metal)    S(lipo)     H(rot)  DE(clash)    DE(int)     intcor
     12.46     -16.07       0.96        0.00      96.80       1.54       0.59       3.01       ----

> <Gold.Chemscore.Fitness>
12.4647

> <Gold.Chemscore.DG>
-16.0651

> <Gold.Chemscore.ZeroCoef>
-5.4800

> <Gold.Chemscore.Hbond>
0.9576

> <Gold.Chemscore.Metal>
0.0000

> <Gold.Chemscore.Lipo>
96.8025

> <Gold.Chemscore.Internal_Hbond>
0.0000

> <Gold.Chemscore.DEClash>
0.5910

> <Gold.Chemscore.DEInternal>
3.0093

> <Gold.Chemscore.Rot>
1.5387

> <Gold.Chemscore.Internal.Correction>
   9.000000E+99

> <Gold.Chemscore.Hbonds>
donor molecule, donor type, donor heavy atom, donor atom, acceptor molecule, acceptor atom, score
      L1  H    10    27       P1  8028  0.83

> <Gold.Chemscore.Hbond.Weighted>
-3.1984

> <Gold.Chemscore.Metal.Weighted>
-0.0000

> <Gold.Chemscore.Lipo.Weighted>
-11.3259

> <Gold.Chemscore.Internal_Hbond.Weighted>
0.0000

> <Gold.Chemscore.DEClash.Weighted>
0.5910

> <Gold.Chemscore.DEInternal.Weighted>
3.0093

> <Gold.Chemscore.Rot.Weighted>
3.9392

> <Gold.Chemscore.Internal.Correction.Weighted>
   9.000000E+99

> <Gold.Protein.RotatedTorsions>
[ 6907 6896 6895 6894 ] final  147.45 input  -60.11 | X-H torsion
[ 7974 7965 7964 7962 ] final  119.50 input  175.53 | X-H torsion
[ 8008 7997 7996 7995 ] final   83.85 input   59.86 | X-H torsion
[ 10167 10162 10161 10158 ] final -146.42 input  -65.29 | X-H torsion
[ 10718 10713 10712 10709 ] final -109.47 input   66.30 | X-H torsion
[ 10763 10752 10751 10750 ] final -145.34 input  -60.55 | X-H torsion
[ 11005 11000 10999 10996 ] final   -6.99 input  -57.11 | X-H torsion

> <Gold.Protein.ActiveResidues>
 VAL166  LYS551  ARG553  GLY616  TRP617  ASP618  TYR619  PRO620  LYS621  CYS622 
 ASP623  PHE694  ASN695  SER759  ASP760  ASP761  ALA762  ILE779  LEU786  VAL792 
 PHE793  MET794  SER795  GLU796  ALA797  LYS798  CYS799  TRP800  GLU811  SER814 

> <Gold.Protein.RotatedAtoms>
  152.1546  133.4543  159.4830 H   0  0  0  0  0  0  0  0  0  0  0  0  # atno 6907 bound_to 6896
  150.6899  134.2146  159.4382 H   0  0  0  0  0  0  0  0  0  0  0  0  # atno 6908 bound_to 6896
  152.0045  134.9910  160.0617 H   0  0  0  0  0  0  0  0  0  0  0  0  # atno 6909 bound_to 6896
  145.1424  139.3260  143.4609 H   0  0  0  0  0  0  0  0  0  0  0  0  # atno 7974 bound_to 7965
  155.9294  140.3416  155.6237 H   0  0  0  0  0  0  0  0  0  0  0  0  # atno 8008 bound_to 7997
  155.7176  140.0779  157.2363 H   0  0  0  0  0  0  0  0  0  0  0  0  # atno 8009 bound_to 7997
  154.4082  140.1611  156.2353 H   0  0  0  0  0  0  0  0  0  0  0  0  # atno 8010 bound_to 7997
  139.7715  143.8231  152.2625 H   0  0  0  0  0  0  0  0  0  0  0  0  # atno 10167 bound_to 10162
  156.0538  130.5765  150.8104 H   0  0  0  0  0  0  0  0  0  0  0  0  # atno 10718 bound_to 10713
  154.8388  135.3416  154.6488 H   0  0  0  0  0  0  0  0  0  0  0  0  # atno 10763 bound_to 10752
  153.7101  135.6964  153.5044 H   0  0  0  0  0  0  0  0  0  0  0  0  # atno 10764 bound_to 10752
  153.2458  135.4369  155.0700 H   0  0  0  0  0  0  0  0  0  0  0  0  # atno 10765 bound_to 10752
  140.7080  133.8933  155.8730 H   0  0  0  0  0  0  0  0  0  0  0  0  # atno 11005 bound_to 11000
  146.3503  140.1466  142.8593 LP  0  0  0  0  0  0  0  0  0  0  0  0  # atno 17320 bound_to 7965
  145.0518  140.9023  143.4991 LP  0  0  0  0  0  0  0  0  0  0  0  0  # atno 17321 bound_to 7965
  139.8267  144.7272  150.9503 LP  0  0  0  0  0  0  0  0  0  0  0  0  # atno 17342 bound_to 10162
  140.7814  143.4108  151.0995 LP  0  0  0  0  0  0  0  0  0  0  0  0  # atno 17343 bound_to 10162
  157.5490  131.0943  150.9722 LP  0  0  0  0  0  0  0  0  0  0  0  0  # atno 17370 bound_to 10713
  156.9986  130.5591  149.5309 LP  0  0  0  0  0  0  0  0  0  0  0  0  # atno 17371 bound_to 10713
  141.0108  134.1022  157.4223 LP  0  0  0  0  0  0  0  0  0  0  0  0  # atno 17394 bound_to 11000
  139.8879  135.0093  156.6589 LP  0  0  0  0  0  0  0  0  0  0  0  0  # atno 17395 bound_to 11000

$$$$
