#       Name:                AV-unprocessed.smi:1926
#       Creating user name   scv26
#       Creation time:       Fri Mar 27 09:53:57 2020


#       File generated by GOLD software.
#

@<TRIPOS>MOLECULE
AV-unprocessed.smi:1926
    42    43     1
SMALL
NO_CHARGES


@<TRIPOS>ATOM
      1 ****        -2.7072  -4.1274  -1.0502 C.3            1 S1                 0.0000
      2 ****        -2.0634  -2.8579  -1.0647 O.3            1 S1                 0.0000
      3 ****        -2.8461  -1.7220  -1.1504 C.ar           1 S1                 0.0000
      4 ****        -4.1929  -1.8715  -1.2196 N.ar           1 S1                 0.0000
      5 ****        -4.9589  -0.7650  -1.3083 C.ar           1 S1                 0.0000
      6 ****        -4.4288   0.5375  -1.3411 C.ar           1 S1                 0.0000
      7 ****        -3.0323   0.6954  -1.2704 C.ar           1 S1                 0.0000
      8 ****        -2.2147  -0.4560  -1.1597 C.ar           1 S1                 0.0000
      9 ****        -0.7937  -0.4158  -1.0938 N.am           1 S1                 0.0000
     10 ****         0.0062   0.6036  -0.7369 C.2            1 S1                 0.0000
     11 ****        -0.3736   1.7229  -0.3945 O.2            1 S1                 0.0000
     12 ****         1.2962   0.2415  -0.7815 N.am           1 S1                 0.0000
     13 ****         2.4306   1.0991  -0.4514 C.3            1 S1                 0.0000
     14 ****         2.8944   0.9055   1.0047 C.3            1 S1                 0.0000
     15 ****         4.1242   1.7127   1.3669 C.3            1 S1                 0.0000
     16 ****         4.0753   1.7007   2.8922 C.3            1 S1                 0.0000
     17 ****         2.6952   1.6277   3.2385 O.3            1 S1                 0.0000
     18 ****         1.9116   1.3883   2.0733 C.3            1 S1                 0.0000
     19 ****        -1.9545  -4.9125  -0.9822 H              1 S1                 0.0000
     20 ****        -3.2784  -4.2962  -1.9642 H              1 S1                 0.0000
     21 ****        -3.3693  -4.2292  -0.1891 H              1 S1                 0.0000
     22 ****        -6.0259  -0.9230  -1.3611 H              1 S1                 0.0000
     23 ****        -5.0786   1.3963  -1.4228 H              1 S1                 0.0000
     24 ****        -2.6213   1.6914  -1.3162 H              1 S1                 0.0000
     25 ****        -0.3329  -1.2950  -1.2782 H              1 S1                 0.0000
     26 ****         1.5120  -0.7019  -1.0686 H              1 S1                 0.0000
     27 ****         3.2449   0.8392  -1.1280 H              1 S1                 0.0000
     28 ****         2.1971   2.1473  -0.6465 H              1 S1                 0.0000
     29 ****         3.1124  -0.1498   1.1791 H              1 S1                 0.0000
     30 ****         5.0475   1.2905   0.9694 H              1 S1                 0.0000
     31 ****         4.0306   2.7357   0.9991 H              1 S1                 0.0000
     32 ****         4.5766   0.8140   3.2820 H              1 S1                 0.0000
     33 ****         4.5510   2.5784   3.3305 H              1 S1                 0.0000
     34 ****         1.4476   2.3291   1.7738 H              1 S1                 0.0000
     35 ****         1.1174   0.6677   2.2697 H              1 S1                 0.0000
     36 ****        -1.4445  -2.8498  -1.8501 LP             1 S1                 0.0000
     37 ****        -1.5317  -2.7870  -0.2207 LP             1 S1                 0.0000
     38 ****        -4.6079  -2.7812  -1.2052 LP             1 S1                 0.0000
     39 ****        -1.3510   1.9322  -0.3661 LP             1 S1                 0.0000
     40 ****         0.2952   2.4231  -0.1447 LP             1 S1                 0.0000
     41 ****         2.4126   2.4913   3.6558 LP             1 S1                 0.0000
     42 ****         2.5564   0.8816   3.8898 LP             1 S1                 0.0000
@<TRIPOS>BOND
    1    1    2 1     
    2    1   19 1     
    3    1   20 1     
    4    1   21 1     
    5    2    3 1     
    6    3    8 ar    
    7    3    4 ar    
    8    4    5 ar    
    9    5    6 ar    
   10    5   22 1     
   11    6    7 ar    
   12    6   23 1     
   13    7    8 ar    
   14    7   24 1     
   15    8    9 1     
   16    9   10 am    
   17    9   25 1     
   18   10   11 2     
   19   10   12 am    
   20   12   13 1     
   21   12   26 1     
   22   13   14 1     
   23   13   27 1     
   24   13   28 1     
   25   14   18 1     
   26   14   15 1     
   27   14   29 1     
   28   15   16 1     
   29   15   30 1     
   30   15   31 1     
   31   16   17 1     
   32   16   32 1     
   33   16   33 1     
   34   17   18 1     
   35   18   34 1     
   36   18   35 1     
   37    2   36 1     
   38    2   37 1     
   39    4   38 1     
   40   11   39 1     
   41   11   40 1     
   42   17   41 1     
   43   17   42 1     
@<TRIPOS>SUBSTRUCTURE
      1 S1             1
@<TRIPOS>SET
LONE_PAIRS      STATIC     ATOMS    <user>   **** ""
7 36 37 38 39 40 41 42
DONOR_HYDROGENS      STATIC     ATOMS    <user>   **** ""
2 25 26
ATOM$BLUE        STATIC     ATOMS    COLORGROUP SYSTEM
7 36 37 38 39 40 41 42
ATOM$RED        STATIC     ATOMS    COLORGROUP SYSTEM
2 25 26
