AV-unprocessed.smi:2875|AV-procd|sdf|11041|dock9
  -GOLD-   2272015503D 1   1.00000     0.00000
 Structure written by MMmdl.
 39 39  0  0  0  0  0  0  0  0  2 V2000
  151.0325  144.7714  160.2875 C   0  0  0  0  0  0  0  0  0  0  0  0
  152.4641  145.1687  159.9027 C   0  0  0  0  0  0  0  0  0  0  0  0
  153.0307  144.4087  158.6849 C   0  0  0  0  0  0  0  0  0  0  0  0
  152.6076  142.9892  158.6456 N   0  0  0  0  0  0  0  0  0  0  0  0
  151.5954  142.5800  157.7341 C   0  0  0  0  0  0  0  0  0  0  0  0
  151.0040  143.5256  156.9086 N   0  0  0  0  0  0  0  0  0  0  0  0
  151.2053  141.2775  157.6891 C   0  0  0  0  0  0  0  0  0  0  0  0
  150.2406  140.8173  156.7695 N   0  0  0  0  0  0  0  0  0  0  0  0
  150.7345  140.1480  155.5540 C   0  0  0  0  0  0  0  0  0  0  0  0
  150.9197  138.6362  155.7623 C   0  0  0  0  0  0  0  0  0  0  0  0
  151.5763  138.0855  154.6332 O   0  0  0  0  0  0  0  0  0  0  0  0
  152.8634  138.6385  154.4278 C   0  0  0  0  0  0  0  0  0  0  0  0
  148.9099  141.0259  156.9527 C   0  0  0  0  0  0  0  0  0  0  0  0
  147.9055  140.4209  155.9637 C   0  0  0  0  0  0  0  0  0  0  0  0
  148.4644  141.6621  157.9090 O   0  0  0  0  0  0  0  0  0  0  0  0
  151.8702  140.3084  158.5706 C   0  0  0  0  0  0  0  0  0  0  0  0
  151.5650  139.1161  158.5249 O   0  0  0  0  0  0  0  0  0  0  0  0
  152.8212  140.7753  159.4213 N   0  5  0  0  0  0  0  0  0  0  0  0
  153.2040  142.0822  159.4796 C   0  0  0  0  0  0  0  0  0  0  0  0
  154.0752  142.4649  160.2620 O   0  0  0  0  0  0  0  0  0  0  0  0
  150.7096  145.3077  161.1798 H   0  0  0  0  0  0  0  0  0  0  0  0
  150.9625  143.7042  160.4977 H   0  0  0  0  0  0  0  0  0  0  0  0
  150.3263  145.0064  159.4908 H   0  0  0  0  0  0  0  0  0  0  0  0
  152.4980  146.2427  159.7172 H   0  0  0  0  0  0  0  0  0  0  0  0
  153.1180  144.9944  160.7575 H   0  0  0  0  0  0  0  0  0  0  0  0
  152.7093  144.9139  157.7723 H   0  0  0  0  0  0  0  0  0  0  0  0
  154.1136  144.5210  158.6587 H   0  0  0  0  0  0  0  0  0  0  0  0
  151.2713  144.4988  156.9355 H   0  0  0  0  0  0  0  0  0  0  0  0
  150.2524  143.2830  156.2792 H   0  0  0  0  0  0  0  0  0  0  0  0
  150.0424  140.3235  154.7286 H   0  0  0  0  0  0  0  0  0  0  0  0
  151.6827  140.5792  155.2300 H   0  0  0  0  0  0  0  0  0  0  0  0
  151.4830  138.4362  156.6749 H   0  0  0  0  0  0  0  0  0  0  0  0
  149.9444  138.1607  155.8738 H   0  0  0  0  0  0  0  0  0  0  0  0
  153.3250  138.1758  153.5556 H   0  0  0  0  0  0  0  0  0  0  0  0
  153.5106  138.4614  155.2877 H   0  0  0  0  0  0  0  0  0  0  0  0
  152.8050  139.7125  154.2472 H   0  0  0  0  0  0  0  0  0  0  0  0
  148.1113  139.3644  155.7887 H   0  0  0  0  0  0  0  0  0  0  0  0
  147.9351  140.9477  155.0100 H   0  0  0  0  0  0  0  0  0  0  0  0
  146.8905  140.4989  156.3540 H   0  0  0  0  0  0  0  0  0  0  0  0
  1  2  1  0  0  0  0
  1 21  1  0  0  0  0
  1 22  1  0  0  0  0
  1 23  1  0  0  0  0
  2  3  1  0  0  0  0
  2 24  1  0  0  0  0
  2 25  1  0  0  0  0
  3  4  1  0  0  0  0
  3 26  1  0  0  0  0
  3 27  1  0  0  0  0
  4 19  1  0  0  0  0
  4  5  1  0  0  0  0
  5  6  1  0  0  0  0
  5  7  2  0  0  0  0
  6 28  1  0  0  0  0
  6 29  1  0  0  0  0
  7  8  1  0  0  0  0
  7 16  1  0  0  0  0
  8  9  1  0  0  0  0
  8 13  1  0  0  0  0
  9 10  1  0  0  0  0
  9 30  1  0  0  0  0
  9 31  1  0  0  0  0
 10 11  1  0  0  0  0
 10 32  1  0  0  0  0
 10 33  1  0  0  0  0
 11 12  1  0  0  0  0
 12 34  1  0  0  0  0
 12 35  1  0  0  0  0
 12 36  1  0  0  0  0
 13 14  1  0  0  0  0
 13 15  2  0  0  0  0
 14 37  1  0  0  0  0
 14 38  1  0  0  0  0
 14 39  1  0  0  0  0
 16 17  2  0  0  0  0
 16 18  1  0  0  0  0
 18 19  1  0  0  0  0
 19 20  2  0  0  0  0
M  CHG  1  18  -1
M  END
> <s_m_source_file>
AV-unprocessed.smi

> <i_m_source_file_index>
2875

> <i_lp_mmshare_version>
43012

> <i_f3d_flags>
0

> <s_epik_input>
W0NIM11bQ0gyXVtDSDJdbjFjKFtOSDJdKWMoYyg9TylbbkhdYzE9TylOKEMoPU8pW0NIM10pW0NIMl1bQ0gyXU9bQ0gzXQ==

> <s_epik_cmdline>
J2VwaWtfcHl0aG9uJywgJy1waCcsICc3LjAnLCAnLXRuJywgJzgnLCAnLW1hJywgJzIwMCcsICctbWV0YWxfYmluZGluZycsICctaW1hZScsICc8aW5maWxlLm1hZT4nLCAnLW9tYWUnLCAnPG91dGZpbGUubWFlPic=

> <r_lp_tautomer_probability>
1

> <r_epik_Ionization_Penalty>
7.11914

> <r_epik_Ionization_Penalty_Charging>
0.302695

> <r_epik_Ionization_Penalty_Neutral>
6.81644

> <r_epik_State_Penalty>
6.81644

> <r_epik_Charging_Adjusted_Penalty>
7.11913

> <i_epik_Tot_Q>
-1

> <i_epik_Tot_abs_Q>
1

> <r_epik_Metal_State_Penalty>
2.72963

> <b_epik_Metal_Only>
1

> <s_epik_Chemistry_Notes>
This compound has an imine and may undergo hydrolysis.

> <s_lp_Force_Field>
OPLS_2005

> <r_lp_Energy>
36.1064

> <b_lp_Chiralities_Consistent>
1

> <s_lp_Variant>
AV-unprocessed.smi:2875-2

> <Gold.Version>
5.8.1

> <Gold.Id.Protein>
6NUR|6NUR_protein|mol2

> <Gold.PLP.Fitness>
38.8817

> <Gold.PLP.PLP>
-40.2279

> <Gold.PLP.part.hbond>
-0.7509

> <Gold.PLP.part.metal>
0.0000

> <Gold.PLP.part.buried>
-6.3329

> <Gold.PLP.part.nonpolar>
-34.1272

> <Gold.PLP.part.repulsive>
0.4922

> <Gold.PLP.ligand.clash>
0.0000

> <Gold.PLP.ligand.torsion>
2.1489

> <Gold.PLP.Chemscore.Hbond>
0.2400

> <Gold.PLP.Chemscore.CHOScore>
0.0000

> <Gold.PLP.Chemscore.Metal>
0.0000

> <Gold.Chemscore.Hbonds>
donor molecule, donor type, donor heavy atom, donor atom, acceptor molecule, acceptor atom, score
      L1  H     6    29       P1  8028  0.36

> <Gold.PLP.Chemscore.Internal.Correction>
2.2316

> <Gold.Rescore>
     Score         DG    S(hbond)    S(metal)    S(lipo)     H(rot)  DE(clash)    DE(int)     intcor
      7.64     -10.02       0.64        0.00      65.18       2.04       0.05       2.33       ----

> <Gold.Chemscore.Fitness>
7.6378

> <Gold.Chemscore.DG>
-10.0183

> <Gold.Chemscore.ZeroCoef>
-5.4800

> <Gold.Chemscore.Hbond>
0.6399

> <Gold.Chemscore.Metal>
0.0000

> <Gold.Chemscore.Lipo>
65.1757

> <Gold.Chemscore.Internal_Hbond>
0.0000

> <Gold.Chemscore.DEClash>
0.0525

> <Gold.Chemscore.DEInternal>
2.3281

> <Gold.Chemscore.Rot>
2.0409

> <Gold.Chemscore.Internal.Correction>
   9.000000E+99

> <Gold.Chemscore.Hbonds>
donor molecule, donor type, donor heavy atom, donor atom, acceptor molecule, acceptor atom, score
      L1  H     6    29       P1  8028  0.35

> <Gold.Chemscore.Hbond.Weighted>
-2.1374

> <Gold.Chemscore.Metal.Weighted>
-0.0000

> <Gold.Chemscore.Lipo.Weighted>
-7.6256

> <Gold.Chemscore.Internal_Hbond.Weighted>
0.0000

> <Gold.Chemscore.DEClash.Weighted>
0.0525

> <Gold.Chemscore.DEInternal.Weighted>
2.3281

> <Gold.Chemscore.Rot.Weighted>
5.2246

> <Gold.Chemscore.Internal.Correction.Weighted>
   9.000000E+99

> <Gold.Protein.RotatedTorsions>
[ 6907 6896 6895 6894 ] final   40.04 input  -60.11 | X-H torsion
[ 7974 7965 7964 7962 ] final  -75.48 input  175.53 | X-H torsion
[ 8008 7997 7996 7995 ] final -148.71 input   59.86 | X-H torsion
[ 10167 10162 10161 10158 ] final  154.45 input  -65.29 | X-H torsion
[ 10718 10713 10712 10709 ] final  -52.41 input   66.30 | X-H torsion
[ 10763 10752 10751 10750 ] final  -35.54 input  -60.55 | X-H torsion
[ 11005 11000 10999 10996 ] final  134.07 input  -57.11 | X-H torsion

> <Gold.Protein.ActiveResidues>
 VAL166  LYS551  ARG553  GLY616  TRP617  ASP618  TYR619  PRO620  LYS621  CYS622 
 ASP623  PHE694  ASN695  SER759  ASP760  ASP761  ALA762  ILE779  LEU786  VAL792 
 PHE793  MET794  SER795  GLU796  ALA797  LYS798  CYS799  TRP800  GLU811  SER814 

> <Gold.Protein.RotatedAtoms>
  152.1773  134.8784  160.0529 H   0  0  0  0  0  0  0  0  0  0  0  0  # atno 6907 bound_to 6896
  151.9721  133.3724  159.4083 H   0  0  0  0  0  0  0  0  0  0  0  0  # atno 6908 bound_to 6896
  150.6911  134.4052  159.5180 H   0  0  0  0  0  0  0  0  0  0  0  0  # atno 6909 bound_to 6896
  145.6255  140.9352  143.1115 H   0  0  0  0  0  0  0  0  0  0  0  0  # atno 7974 bound_to 7965
  155.5959  140.0657  157.2746 H   0  0  0  0  0  0  0  0  0  0  0  0  # atno 8008 bound_to 7997
  154.4292  140.1827  156.1170 H   0  0  0  0  0  0  0  0  0  0  0  0  # atno 8009 bound_to 7997
  156.0197  140.3318  155.7029 H   0  0  0  0  0  0  0  0  0  0  0  0  # atno 8010 bound_to 7997
  139.4823  144.5185  151.7913 H   0  0  0  0  0  0  0  0  0  0  0  0  # atno 10167 bound_to 10162
  156.1624  130.4149  149.9773 H   0  0  0  0  0  0  0  0  0  0  0  0  # atno 10718 bound_to 10713
  153.8649  135.6836  153.4779 H   0  0  0  0  0  0  0  0  0  0  0  0  # atno 10763 bound_to 10752
  153.1320  135.4694  154.9362 H   0  0  0  0  0  0  0  0  0  0  0  0  # atno 10764 bound_to 10752
  154.7741  135.3248  154.8078 H   0  0  0  0  0  0  0  0  0  0  0  0  # atno 10765 bound_to 10752
  139.9892  134.9521  156.9815 H   0  0  0  0  0  0  0  0  0  0  0  0  # atno 11005 bound_to 11000
  144.7214  139.8018  143.7380 LP  0  0  0  0  0  0  0  0  0  0  0  0  # atno 17320 bound_to 7965
  146.1398  139.4452  143.0116 LP  0  0  0  0  0  0  0  0  0  0  0  0  # atno 17321 bound_to 7965
  140.4697  144.1605  150.5916 LP  0  0  0  0  0  0  0  0  0  0  0  0  # atno 17342 bound_to 10162
  140.4396  143.2532  151.9490 LP  0  0  0  0  0  0  0  0  0  0  0  0  # atno 17343 bound_to 10162
  156.7598  130.9146  151.3641 LP  0  0  0  0  0  0  0  0  0  0  0  0  # atno 17370 bound_to 10713
  157.6742  130.9079  150.0112 LP  0  0  0  0  0  0  0  0  0  0  0  0  # atno 17371 bound_to 10713
  140.4942  134.1162  155.7238 LP  0  0  0  0  0  0  0  0  0  0  0  0  # atno 17394 bound_to 11000
  141.1551  133.8897  157.1998 LP  0  0  0  0  0  0  0  0  0  0  0  0  # atno 17395 bound_to 11000

$$$$
