#       Name:                AV-unprocessed.smi:3301
#       Creating user name   scv26
#       Creation time:       Fri Mar 27 18:58:45 2020


#       File generated by GOLD software.
#

@<TRIPOS>MOLECULE
AV-unprocessed.smi:3301
    41    42     1
SMALL
NO_CHARGES


@<TRIPOS>ATOM
      1 ****        -3.0444  -2.9334  -0.0086 C.3            1 S1                 0.0000
      2 ****        -2.3110  -1.6090  -0.2586 C.3            1 S1                 0.0000
      3 ****        -2.2129  -1.3006  -1.7691 C.3            1 S1                 0.0000
      4 ****        -1.6275   0.0141  -2.0544 N.pl3          1 S1                 0.0000
      5 ****        -0.3880   0.2758  -2.5794 C.2            1 S1                 0.0000
      6 ****        -0.2735   1.6400  -2.6507 C.2            1 S1                 0.0000
      7 ****        -1.4505   2.1528  -2.1752 N.pl3          1 S1                 1.0000
      8 ****        -2.2753   1.1625  -1.8194 C.2            1 S1                 0.0000
      9 ****        -0.9829  -1.6792   0.3504 N.am           1 S1                 0.0000
     10 ****        -0.3545  -0.6708   0.9756 C.2            1 S1                 0.0000
     11 ****        -0.8529   0.4454   1.1283 O.2            1 S1                 0.0000
     12 ****         1.0489  -0.9762   1.5124 C.3            1 S1                 0.0000
     13 ****         1.9369   0.1863   1.4624 N.am           1 S1                 0.0000
     14 ****         2.2575   0.9265   2.6717 C.3            1 S1                 0.0000
     15 ****         3.2938   1.9759   2.2423 C.3            1 S1                 0.0000
     16 ****         3.3395   1.9274   0.7110 C.3            1 S1                 0.0000
     17 ****         2.5059   0.7055   0.3671 C.2            1 S1                 0.0000
     18 ****         2.3868   0.2814  -0.7818 O.2            1 S1                 0.0000
     19 ****        -4.0532  -2.9067  -0.4215 H              1 S1                 0.0000
     20 ****        -3.1327  -3.1389   1.0588 H              1 S1                 0.0000
     21 ****        -2.5200  -3.7726  -0.4671 H              1 S1                 0.0000
     22 ****        -2.8958  -0.8242   0.2247 H              1 S1                 0.0000
     23 ****        -1.6133  -2.0561  -2.2792 H              1 S1                 0.0000
     24 ****        -3.2028  -1.3213  -2.2270 H              1 S1                 0.0000
     25 ****         0.3084  -0.5064  -2.8455 H              1 S1                 0.0000
     26 ****         0.5368   2.2666  -2.9935 H              1 S1                 0.0000
     27 ****        -3.2637   1.2698  -1.4091 H              1 S1                 0.0000
     28 ****        -0.4993  -2.5632   0.2815 H              1 S1                 0.0000
     29 ****         0.9564  -1.3243   2.5418 H              1 S1                 0.0000
     30 ****         1.4967  -1.7952   0.9466 H              1 S1                 0.0000
     31 ****         1.3540   1.4003   3.0580 H              1 S1                 0.0000
     32 ****         2.6532   0.2653   3.4437 H              1 S1                 0.0000
     33 ****         3.0279   2.9692   2.6060 H              1 S1                 0.0000
     34 ****         4.2734   1.7292   2.6538 H              1 S1                 0.0000
     35 ****         2.8871   2.8156   0.2690 H              1 S1                 0.0000
     36 ****         4.3580   1.8280   0.3341 H              1 S1                 0.0000
     37 ****        -1.6673   3.1388  -2.1003 H              1 S1                 0.0000
     38 ****        -1.7702   0.6356   0.7784 LP             1 S1                 0.0000
     39 ****        -0.3402   1.1614   1.6023 LP             1 S1                 0.0000
     40 ****         1.8219  -0.5240  -0.9614 LP             1 S1                 0.0000
     41 ****         2.8549   0.7422  -1.5359 LP             1 S1                 0.0000
@<TRIPOS>BOND
    1    1    2 1     
    2    1   19 1     
    3    1   20 1     
    4    1   21 1     
    5    2    3 1     
    6    2    9 1     
    7    2   22 1     
    8    3    4 1     
    9    3   23 1     
   10    3   24 1     
   11    4    8 1     
   12    4    5 1     
   13    5    6 2     
   14    5   25 1     
   15    6    7 1     
   16    6   26 1     
   17    7    8 2     
   18    7   37 1     
   19    8   27 1     
   20    9   10 am    
   21    9   28 1     
   22   10   11 2     
   23   10   12 1     
   24   12   13 1     
   25   12   29 1     
   26   12   30 1     
   27   13   17 am    
   28   13   14 1     
   29   14   15 1     
   30   14   31 1     
   31   14   32 1     
   32   15   16 1     
   33   15   33 1     
   34   15   34 1     
   35   16   17 1     
   36   16   35 1     
   37   16   36 1     
   38   17   18 2     
   39   11   38 1     
   40   11   39 1     
   41   18   40 1     
   42   18   41 1     
@<TRIPOS>SUBSTRUCTURE
      1 S1             1
@<TRIPOS>SET
LONE_PAIRS      STATIC     ATOMS    <user>   **** ""
4 38 39 40 41
DONOR_HYDROGENS      STATIC     ATOMS    <user>   **** ""
2 37 28
ATOM$BLUE        STATIC     ATOMS    COLORGROUP SYSTEM
4 38 39 40 41
ATOM$RED        STATIC     ATOMS    COLORGROUP SYSTEM
2 37 28
