AV-unprocessed.smi:290|AV-procd|sdf|2215|dock4
  -GOLD-   2262022 53D 1   1.00000     0.00000
 Structure written by MMmdl.
 59 62  0  0  0  0  0  0  0  0  2 V2000
  152.5854  138.3719  156.7472 C   0  0  0  0  0  0  0  0  0  0  0  0
  151.8161  139.2333  155.7344 C   0  0  2  0  0  0  0  0  0  0  0  0
  151.3781  140.4498  156.3339 O   0  0  0  0  0  0  0  0  0  0  0  0
  150.1283  140.8502  155.7781 C   0  0  0  0  0  0  0  0  0  0  0  0
  149.8491  139.8732  154.6395 C   0  0  0  0  0  0  0  0  0  0  0  0
  150.5562  138.6068  155.1079 C   0  0  1  0  0  0  0  0  0  0  0  0
  150.9039  137.8281  153.9778 O   0  0  0  0  0  0  0  0  0  0  0  0
  149.7192  137.7462  156.0929 C   0  0  0  0  0  0  0  0  0  0  0  0
  148.7403  136.8919  155.4396 N   0  0  0  0  0  0  0  0  0  0  0  0
  148.6818  135.5171  155.4848 C   0  0  0  0  0  0  0  0  0  0  0  0
  147.7014  134.9790  154.8118 N   0  0  0  0  0  0  0  0  0  0  0  0
  147.0314  136.0660  154.2634 C   0  0  0  0  0  0  0  0  0  0  0  0
  145.8883  136.2136  153.4281 C   0  0  0  0  0  0  0  0  0  0  0  0
  145.1451  135.1936  152.9490 N   0  0  0  0  0  0  0  0  0  0  0  0
  145.3308  133.9241  153.6485 C   0  0  0  0  0  0  0  0  0  0  0  0
  145.1418  132.8255  152.5998 C   0  0  0  0  0  0  0  0  0  0  0  0
  145.6569  133.5274  151.3410 C   0  0  1  0  0  0  0  0  0  0  0  0
  145.3968  132.8788  150.0180 N   0  3  1  0  0  0  0  0  0  0  0  0
  146.3352  131.7562  149.7685 C   0  0  0  0  0  0  0  0  0  0  0  0
  143.9788  132.5046  149.7531 C   0  0  0  0  0  0  0  0  0  0  0  0
  143.5948  132.6110  148.2662 C   0  0  0  0  0  0  0  0  0  0  0  0
  143.5126  133.9661  147.8792 O   0  0  0  0  0  0  0  0  0  0  0  0
  145.1654  134.9801  151.5017 C   0  0  1  0  0  0  0  0  0  0  0  0
  143.7788  135.3020  150.9208 C   0  0  0  0  0  0  0  0  0  0  0  0
  145.4990  137.4681  153.0954 N   0  0  0  0  0  0  0  0  0  0  0  0
  146.1920  138.5214  153.5393 C   0  0  0  0  0  0  0  0  0  0  0  0
  147.2791  138.5393  154.3139 N   0  0  0  0  0  0  0  0  0  0  0  0
  147.6661  137.2770  154.6568 C   0  0  0  0  0  0  0  0  0  0  0  0
  146.7404  133.5888  151.4582 H   0  0  0  0  0  0  0  0  0  0  0  0
  145.8804  135.6461  151.0163 H   0  0  0  0  0  0  0  0  0  0  0  0
  152.8943  137.4257  156.3023 H   0  0  0  0  0  0  0  0  0  0  0  0
  151.9854  138.1518  157.6301 H   0  0  0  0  0  0  0  0  0  0  0  0
  153.4843  138.8875  157.0856 H   0  0  0  0  0  0  0  0  0  0  0  0
  152.5007  139.5206  154.9340 H   0  0  0  0  0  0  0  0  0  0  0  0
  149.3614  140.7718  156.5495 H   0  0  0  0  0  0  0  0  0  0  0  0
  150.1585  141.8849  155.4358 H   0  0  0  0  0  0  0  0  0  0  0  0
  148.7876  139.7542  154.4261 H   0  0  0  0  0  0  0  0  0  0  0  0
  150.3186  140.2516  153.7298 H   0  0  0  0  0  0  0  0  0  0  0  0
  151.2737  137.0123  154.2788 H   0  0  0  0  0  0  0  0  0  0  0  0
  150.3718  137.1086  156.6908 H   0  0  0  0  0  0  0  0  0  0  0  0
  149.1913  138.3862  156.8007 H   0  0  0  0  0  0  0  0  0  0  0  0
  149.3972  134.9220  156.0337 H   0  0  0  0  0  0  0  0  0  0  0  0
  146.3337  133.8659  154.0750 H   0  0  0  0  0  0  0  0  0  0  0  0
  144.6160  133.8231  154.4656 H   0  0  0  0  0  0  0  0  0  0  0  0
  145.6913  131.9147  152.8392 H   0  0  0  0  0  0  0  0  0  0  0  0
  144.0826  132.5789  152.5346 H   0  0  0  0  0  0  0  0  0  0  0  0
  146.1694  130.9466  150.4805 H   0  0  0  0  0  0  0  0  0  0  0  0
  147.3703  132.0865  149.8638 H   0  0  0  0  0  0  0  0  0  0  0  0
  146.2308  131.3522  148.7631 H   0  0  0  0  0  0  0  0  0  0  0  0
  143.7999  131.4903  150.1124 H   0  0  0  0  0  0  0  0  0  0  0  0
  143.2997  133.1470  150.3100 H   0  0  0  0  0  0  0  0  0  0  0  0
  144.2906  132.0831  147.6154 H   0  0  0  0  0  0  0  0  0  0  0  0
  142.6172  132.1547  148.1086 H   0  0  0  0  0  0  0  0  0  0  0  0
  144.3895  134.3056  147.7796 H   0  0  0  0  0  0  0  0  0  0  0  0
  143.7483  135.1421  149.8438 H   0  0  0  0  0  0  0  0  0  0  0  0
  143.5254  136.3481  151.0956 H   0  0  0  0  0  0  0  0  0  0  0  0
  142.9959  134.7005  151.3823 H   0  0  0  0  0  0  0  0  0  0  0  0
  145.8234  139.4880  153.2288 H   0  0  0  0  0  0  0  0  0  0  0  0
  145.6280  133.5823  149.3304 H   0  0  0  0  0  0  0  0  0  0  0  0
  1  2  1  0  0  0  0
  1 31  1  0  0  0  0
  1 32  1  0  0  0  0
  1 33  1  0  0  0  0
  2  6  1  0  0  0  0
  2  3  1  0  0  0  0
  2 34  1  0  0  0  0
  3  4  1  0  0  0  0
  4  5  1  0  0  0  0
  4 35  1  0  0  0  0
  4 36  1  0  0  0  0
  5  6  1  0  0  0  0
  5 37  1  0  0  0  0
  5 38  1  0  0  0  0
  6  7  1  0  0  0  0
  6  8  1  0  0  0  0
  7 39  1  0  0  0  0
  8  9  1  0  0  0  0
  8 40  1  0  0  0  0
  8 41  1  0  0  0  0
  9 28  1  0  0  0  0
  9 10  1  0  0  0  0
 10 11  2  0  0  0  0
 10 42  1  0  0  0  0
 11 12  1  0  0  0  0
 12 28  2  0  0  0  0
 12 13  1  0  0  0  0
 13 14  1  0  0  0  0
 13 25  2  0  0  0  0
 14 23  1  0  0  0  0
 14 15  1  0  0  0  0
 15 16  1  0  0  0  0
 15 43  1  0  0  0  0
 15 44  1  0  0  0  0
 16 17  1  0  0  0  0
 16 45  1  0  0  0  0
 16 46  1  0  0  0  0
 17 29  1  0  0  0  0
 17 18  1  0  0  0  0
 17 23  1  0  0  0  0
 18 19  1  0  0  0  0
 18 20  1  0  0  0  0
 18 59  1  0  0  0  0
 19 47  1  0  0  0  0
 19 48  1  0  0  0  0
 19 49  1  0  0  0  0
 20 21  1  0  0  0  0
 20 50  1  0  0  0  0
 20 51  1  0  0  0  0
 21 22  1  0  0  0  0
 21 52  1  0  0  0  0
 21 53  1  0  0  0  0
 22 54  1  0  0  0  0
 23 30  1  0  0  0  0
 23 24  1  0  0  0  0
 24 55  1  0  0  0  0
 24 56  1  0  0  0  0
 24 57  1  0  0  0  0
 25 26  1  0  0  0  0
 26 27  2  0  0  0  0
 26 58  1  0  0  0  0
 27 28  1  0  0  0  0
M  CHG  1  18   1
M  END
> <s_m_source_file>
AV-unprocessed.smi

> <i_m_source_file_index>
290

> <i_lp_mmshare_version>
43012

> <i_f3d_flags>
0

> <s_epik_input>
W0NIMl0xW0NIMl1PW0NAQEhdKFtDSDNdKVtDQEBdMShbT0hdKVtDSDJdbihbY0hdbjIpYyhjMjMpbltjSF1uYzNONFtDSDJdW0NIMl1bQ0BIXShbQ0BIXTRbQ0gzXSlOKFtDSDNdKVtDSDJdW0NIMl1bT0hd

> <s_epik_cmdline>
J2VwaWtfcHl0aG9uJywgJy1waCcsICc3LjAnLCAnLXRuJywgJzgnLCAnLW1hJywgJzIwMCcsICctbWV0YWxfYmluZGluZycsICctaW1hZScsICc8aW5maWxlLm1hZT4nLCAnLW9tYWUnLCAnPG91dGZpbGUubWFlPic=

> <r_lp_tautomer_probability>
1

> <r_epik_Ionization_Penalty>
0.0036983

> <r_epik_Ionization_Penalty_Charging>
0.0032725

> <r_epik_Ionization_Penalty_Neutral>
0.000425798

> <r_epik_State_Penalty>
-0

> <r_epik_Charging_Adjusted_Penalty>
0.0032725

> <i_epik_Tot_Q>
1

> <i_epik_Tot_abs_Q>
1

> <r_epik_Metal_State_Penalty>
-0

> <b_epik_Metal_Only>
0

> <s_lp_Force_Field>
OPLS_2005

> <r_lp_Energy>
65.3188

> <b_lp_Chiralities_Consistent>
1

> <s_lp_Variant>
AV-unprocessed.smi:290-1

> <Gold.Version>
5.8.1

> <Gold.Id.Protein>
6NUR|6NUR_protein|mol2

> <Gold.PLP.Fitness>
48.4409

> <Gold.PLP.PLP>
-38.4005

> <Gold.PLP.part.hbond>
-6.3694

> <Gold.PLP.part.metal>
0.0000

> <Gold.PLP.part.buried>
0.3031

> <Gold.PLP.part.nonpolar>
-34.0979

> <Gold.PLP.part.repulsive>
0.6739

> <Gold.PLP.ligand.clash>
0.0000

> <Gold.PLP.ligand.torsion>
1.1579

> <Gold.PLP.Chemscore.Hbond>
3.0000

> <Gold.PLP.Chemscore.CHOScore>
1.0000

> <Gold.PLP.Chemscore.Metal>
0.0000

> <Gold.Chemscore.Hbonds>
donor molecule, donor type, donor heavy atom, donor atom, acceptor molecule, acceptor atom, score
      L1  H    18    59       P1  7921  0.71
      L1  H    22    54       P1  7921  1.00
      P1  H 10192 10197       L1    22  0.96
      L1  C    26    58       P1 10175  1.00

> <Gold.PLP.Chemscore.Internal.Correction>
0.3562

> <Gold.Rescore>
     Score         DG    S(hbond)    S(metal)    S(lipo)     H(rot)  DE(clash)    DE(int)     intcor
     11.28     -16.46       2.64        0.00      98.62       3.67       1.14       4.04       ----

> <Gold.Chemscore.Fitness>
11.2798

> <Gold.Chemscore.DG>
-16.4614

> <Gold.Chemscore.ZeroCoef>
-5.4800

> <Gold.Chemscore.Hbond>
2.6428

> <Gold.Chemscore.Metal>
0.0000

> <Gold.Chemscore.Lipo>
98.6241

> <Gold.Chemscore.Internal_Hbond>
0.0000

> <Gold.Chemscore.DEClash>
1.1374

> <Gold.Chemscore.DEInternal>
4.0442

> <Gold.Chemscore.Rot>
3.6658

> <Gold.Chemscore.Internal.Correction>
   9.000000E+99

> <Gold.Chemscore.Hbonds>
donor molecule, donor type, donor heavy atom, donor atom, acceptor molecule, acceptor atom, score
      L1  H    18    59       P1  7921  0.21
      L1  H    22    54       P1  7921  1.00
      P1  H 10192 10197       L1    22  0.83

> <Gold.Chemscore.Hbond.Weighted>
-8.8268

> <Gold.Chemscore.Metal.Weighted>
-0.0000

> <Gold.Chemscore.Lipo.Weighted>
-11.5390

> <Gold.Chemscore.Internal_Hbond.Weighted>
0.0000

> <Gold.Chemscore.DEClash.Weighted>
1.1374

> <Gold.Chemscore.DEInternal.Weighted>
4.0442

> <Gold.Chemscore.Rot.Weighted>
9.3844

> <Gold.Chemscore.Internal.Correction.Weighted>
   9.000000E+99

> <Gold.Protein.RotatedTorsions>
[ 6907 6896 6895 6894 ] final -162.81 input  -60.11 | X-H torsion
[ 7974 7965 7964 7962 ] final  163.56 input  175.53 | X-H torsion
[ 8008 7997 7996 7995 ] final  178.20 input   59.86 | X-H torsion
[ 10167 10162 10161 10158 ] final  177.54 input  -65.29 | X-H torsion
[ 10718 10713 10712 10709 ] final  -76.42 input   66.30 | X-H torsion
[ 10763 10752 10751 10750 ] final  -75.63 input  -60.55 | X-H torsion
[ 11005 11000 10999 10996 ] final  151.34 input  -57.11 | X-H torsion

> <Gold.Protein.ActiveResidues>
 VAL166  LYS551  ARG553  GLY616  TRP617  ASP618  TYR619  PRO620  LYS621  CYS622 
 ASP623  PHE694  ASN695  SER759  ASP760  ASP761  ALA762  ILE779  LEU786  VAL792 
 PHE793  MET794  SER795  GLU796  ALA797  LYS798  CYS799  TRP800  GLU811  SER814 

> <Gold.Protein.RotatedAtoms>
  151.3861  133.3804  159.2715 H   0  0  0  0  0  0  0  0  0  0  0  0  # atno 6907 bound_to 6896
  150.9540  134.8938  159.7700 H   0  0  0  0  0  0  0  0  0  0  0  0  # atno 6908 bound_to 6896
  152.5123  134.3818  159.9406 H   0  0  0  0  0  0  0  0  0  0  0  0  # atno 6909 bound_to 6896
  144.7584  139.8200  143.6341 H   0  0  0  0  0  0  0  0  0  0  0  0  # atno 7974 bound_to 7965
  156.0573  140.1339  156.9982 H   0  0  0  0  0  0  0  0  0  0  0  0  # atno 8008 bound_to 7997
  154.4464  140.0998  156.6535 H   0  0  0  0  0  0  0  0  0  0  0  0  # atno 8009 bound_to 7997
  155.5432  140.3461  155.4453 H   0  0  0  0  0  0  0  0  0  0  0  0  # atno 8010 bound_to 7997
  139.5257  144.2786  152.0566 H   0  0  0  0  0  0  0  0  0  0  0  0  # atno 10167 bound_to 10162
  156.0175  130.4465  150.3191 H   0  0  0  0  0  0  0  0  0  0  0  0  # atno 10718 bound_to 10713
  154.4891  135.5824  153.6446 H   0  0  0  0  0  0  0  0  0  0  0  0  # atno 10763 bound_to 10752
  152.9859  135.6108  154.3147 H   0  0  0  0  0  0  0  0  0  0  0  0  # atno 10764 bound_to 10752
  154.3046  135.2846  155.2574 H   0  0  0  0  0  0  0  0  0  0  0  0  # atno 10765 bound_to 10752
  140.1211  134.8863  157.2073 H   0  0  0  0  0  0  0  0  0  0  0  0  # atno 11005 bound_to 11000
  146.1621  139.4739  142.9982 LP  0  0  0  0  0  0  0  0  0  0  0  0  # atno 17320 bound_to 7965
  145.6701  141.0219  143.1662 LP  0  0  0  0  0  0  0  0  0  0  0  0  # atno 17321 bound_to 7965
  140.2242  144.4435  150.6328 LP  0  0  0  0  0  0  0  0  0  0  0  0  # atno 17342 bound_to 10162
  140.6398  143.2201  151.6315 LP  0  0  0  0  0  0  0  0  0  0  0  0  # atno 17343 bound_to 10162
  157.1292  131.0267  151.2976 LP  0  0  0  0  0  0  0  0  0  0  0  0  # atno 17370 bound_to 10713
  157.4565  130.7628  149.7197 LP  0  0  0  0  0  0  0  0  0  0  0  0  # atno 17371 bound_to 10713
  140.2964  134.3181  155.7301 LP  0  0  0  0  0  0  0  0  0  0  0  0  # atno 17394 bound_to 11000
  141.2152  133.7565  156.9578 LP  0  0  0  0  0  0  0  0  0  0  0  0  # atno 17395 bound_to 11000

$$$$
