AV-unprocessed.smi:283|AV-procd|sdf|2134|dock3
  -GOLD-   2262021453D 1   1.00000     0.00000
 Structure written by MMmdl.
 48 51  0  0  0  0  0  0  0  0  1 V2000
  147.6441  132.4693  159.1502 C   0  0  0  0  0  0  0  0  0  0  0  0
  147.2806  133.9495  158.9701 C   0  0  1  0  0  0  0  0  0  0  0  0
  146.0268  134.0594  158.2282 N   0  0  0  0  0  0  0  0  0  0  0  0
  145.9971  134.1034  156.8775 C   0  0  0  0  0  0  0  0  0  0  0  0
  146.7660  133.1805  156.2524 N   0  0  0  0  0  0  0  0  0  0  0  0
  146.8005  133.1281  154.9185 C   0  0  0  0  0  0  0  0  0  0  0  0
  146.1549  133.8936  154.0388 N   0  0  0  0  0  0  0  0  0  0  0  0
  145.3858  134.8360  154.6561 C   0  0  0  0  0  0  0  0  0  0  0  0
  145.2542  135.0113  156.0645 C   0  0  0  0  0  0  0  0  0  0  0  0
  144.3985  136.0786  156.3133 N   0  0  0  0  0  0  0  0  0  0  0  0
  144.0376  136.4906  155.1297 C   0  0  0  0  0  0  0  0  0  0  0  0
  144.5855  135.7998  154.0740 N   0  0  0  0  0  0  0  0  0  0  0  0
  144.3675  136.0552  152.6168 C   0  0  2  0  0  0  0  0  0  0  0  0
  143.8112  134.9125  152.0411 O   0  0  0  0  0  0  0  0  0  0  0  0
  144.4249  134.6961  150.7810 C   0  0  2  0  0  0  0  0  0  0  0  0
  144.1484  133.2931  150.1992 C   0  0  0  0  0  0  0  0  0  0  0  0
  144.1862  133.2458  148.7882 O   0  0  0  0  0  0  0  0  0  0  0  0
  145.8672  135.2059  150.9260 C   0  0  2  0  0  0  0  0  0  0  0  0
  146.7515  134.2421  151.4621 O   0  0  0  0  0  0  0  0  0  0  0  0
  145.7064  136.3610  151.9117 C   0  0  1  0  0  0  0  0  0  0  0  0
  145.6388  137.5845  151.2061 O   0  0  0  0  0  0  0  0  0  0  0  0
  147.2950  134.6684  160.3225 C   0  0  0  0  0  0  0  0  0  0  0  0
  147.1574  133.9287  161.5205 C   0  0  0  0  0  0  0  0  0  0  0  0
  147.1652  134.5768  162.7698 C   0  0  0  0  0  0  0  0  0  0  0  0
  147.3210  135.9728  162.8366 C   0  0  0  0  0  0  0  0  0  0  0  0
  147.4742  136.7176  161.6529 C   0  0  0  0  0  0  0  0  0  0  0  0
  147.4662  136.0741  160.3993 C   0  0  0  0  0  0  0  0  0  0  0  0
  147.6716  137.0391  158.9790 Cl  0  0  0  0  0  0  0  0  0  0  0  0
  143.6562  136.8819  152.5856 H   0  0  0  0  0  0  0  0  0  0  0  0
  143.9222  135.3970  150.1114 H   0  0  0  0  0  0  0  0  0  0  0  0
  146.2724  135.5242  149.9643 H   0  0  0  0  0  0  0  0  0  0  0  0
  146.5276  136.4184  152.6288 H   0  0  0  0  0  0  0  0  0  0  0  0
  148.6188  132.3587  159.6262 H   0  0  0  0  0  0  0  0  0  0  0  0
  147.6896  131.9555  158.1893 H   0  0  0  0  0  0  0  0  0  0  0  0
  146.9105  131.9528  159.7705 H   0  0  0  0  0  0  0  0  0  0  0  0
  148.0459  134.3857  158.3306 H   0  0  0  0  0  0  0  0  0  0  0  0
  145.2277  134.3220  158.7866 H   0  0  0  0  0  0  0  0  0  0  0  0
  147.4332  132.3625  154.4943 H   0  0  0  0  0  0  0  0  0  0  0  0
  143.3607  137.3215  154.9938 H   0  0  0  0  0  0  0  0  0  0  0  0
  144.8696  132.5771  150.5938 H   0  0  0  0  0  0  0  0  0  0  0  0
  143.1623  132.9542  150.5173 H   0  0  0  0  0  0  0  0  0  0  0  0
  144.8916  133.7980  148.4873 H   0  0  0  0  0  0  0  0  0  0  0  0
  147.6034  134.6394  151.5609 H   0  0  0  0  0  0  0  0  0  0  0  0
  144.7518  137.9073  151.2521 H   0  0  0  0  0  0  0  0  0  0  0  0
  147.0412  132.8552  161.4901 H   0  0  0  0  0  0  0  0  0  0  0  0
  147.0532  134.0016  163.6771 H   0  0  0  0  0  0  0  0  0  0  0  0
  147.3278  136.4716  163.7945 H   0  0  0  0  0  0  0  0  0  0  0  0
  147.6005  137.7889  161.7081 H   0  0  0  0  0  0  0  0  0  0  0  0
  1  2  1  0  0  0  0
  1 33  1  0  0  0  0
  1 34  1  0  0  0  0
  1 35  1  0  0  0  0
  2  3  1  0  0  0  0
  2 22  1  0  0  0  0
  2 36  1  0  0  0  0
  3  4  1  0  0  0  0
  3 37  1  0  0  0  0
  4  9  1  0  0  0  0
  4  5  2  0  0  0  0
  5  6  1  0  0  0  0
  6  7  2  0  0  0  0
  6 38  1  0  0  0  0
  7  8  1  0  0  0  0
  8 12  1  0  0  0  0
  8  9  2  0  0  0  0
  9 10  1  0  0  0  0
 10 11  2  0  0  0  0
 11 12  1  0  0  0  0
 11 39  1  0  0  0  0
 12 13  1  0  0  0  0
 13 29  1  0  0  0  0
 13 20  1  0  0  0  0
 13 14  1  0  0  0  0
 14 15  1  0  0  0  0
 15 30  1  0  0  0  0
 15 16  1  0  0  0  0
 15 18  1  0  0  0  0
 16 17  1  0  0  0  0
 16 40  1  0  0  0  0
 16 41  1  0  0  0  0
 17 42  1  0  0  0  0
 18 31  1  0  0  0  0
 18 19  1  0  0  0  0
 18 20  1  0  0  0  0
 19 43  1  0  0  0  0
 20 32  1  0  0  0  0
 20 21  1  0  0  0  0
 21 44  1  0  0  0  0
 22 27  1  0  0  0  0
 22 23  2  0  0  0  0
 23 24  1  0  0  0  0
 23 45  1  0  0  0  0
 24 25  2  0  0  0  0
 24 46  1  0  0  0  0
 25 26  1  0  0  0  0
 25 47  1  0  0  0  0
 26 27  2  0  0  0  0
 26 48  1  0  0  0  0
 27 28  1  0  0  0  0
M  END
> <s_m_source_file>
AV-unprocessed.smi

> <i_m_source_file_index>
283

> <i_lp_mmshare_version>
43012

> <i_f3d_flags>
0

> <s_epik_input>
Q2xjMVtjSF1bY0hdW2NIXVtjSF1jMVtDQEhdKFtDSDNdKVtOSF1jKG5bY0hdbjIpYyhjMjMpbltjSF1uM1tDQEBIXTRPW0NASF0oW0NIMl1bT0hdKVtDQEBIXShbT0hdKVtDQEhdNFtPSF0=

> <s_epik_cmdline>
J2VwaWtfcHl0aG9uJywgJy1waCcsICc3LjAnLCAnLXRuJywgJzgnLCAnLW1hJywgJzIwMCcsICctbWV0YWxfYmluZGluZycsICctaW1hZScsICc8aW5maWxlLm1hZT4nLCAnLW9tYWUnLCAnPG91dGZpbGUubWFlPic=

> <r_lp_tautomer_probability>
1

> <r_epik_Ionization_Penalty>
0.000266407

> <r_epik_Ionization_Penalty_Charging>
0

> <r_epik_Ionization_Penalty_Neutral>
0.000266407

> <r_epik_State_Penalty>
-0

> <r_epik_Charging_Adjusted_Penalty>
0

> <i_epik_Tot_Q>
0

> <i_epik_Tot_abs_Q>
0

> <r_epik_Metal_State_Penalty>
-0

> <b_epik_Metal_Only>
0

> <s_epik_Chemistry_Notes>
This compound contains an acetal/aminal-like group ( X-CH(R)-Y where X, Y are N, S, or O) that may be acid/base labile, releasing an aldehyde.

> <s_lp_Force_Field>
OPLS_2005

> <r_lp_Energy>
45.8165

> <b_lp_Chiralities_Consistent>
1

> <s_lp_Variant>
AV-unprocessed.smi:283-10

> <Gold.Version>
5.8.1

> <Gold.Id.Protein>
6NUR|6NUR_protein|mol2

> <Gold.PLP.Fitness>
41.5506

> <Gold.PLP.PLP>
-37.3925

> <Gold.PLP.part.hbond>
-2.8367

> <Gold.PLP.part.metal>
0.0000

> <Gold.PLP.part.buried>
-5.6968

> <Gold.PLP.part.nonpolar>
-27.9164

> <Gold.PLP.part.repulsive>
0.2439

> <Gold.PLP.ligand.clash>
0.0000

> <Gold.PLP.ligand.torsion>
1.5897

> <Gold.PLP.Chemscore.Hbond>
2.4000

> <Gold.PLP.Chemscore.CHOScore>
0.0000

> <Gold.PLP.Chemscore.Metal>
0.0000

> <Gold.Chemscore.Hbonds>
donor molecule, donor type, donor heavy atom, donor atom, acceptor molecule, acceptor atom, score
      L1  H    17    42       P1  7921  1.00
      L1  H    19    43       P1  7948  0.96
      L1  H    21    44       P1 10171  0.46

> <Gold.PLP.Chemscore.Internal.Correction>
0.1376

> <Gold.Rescore>
     Score         DG    S(hbond)    S(metal)    S(lipo)     H(rot)  DE(clash)    DE(int)     intcor
     12.38     -14.34       2.85        0.00      84.02       4.10       0.10       1.86       ----

> <Gold.Chemscore.Fitness>
12.3806

> <Gold.Chemscore.DG>
-14.3434

> <Gold.Chemscore.ZeroCoef>
-5.4800

> <Gold.Chemscore.Hbond>
2.8504

> <Gold.Chemscore.Metal>
0.0000

> <Gold.Chemscore.Lipo>
84.0249

> <Gold.Chemscore.Internal_Hbond>
0.0000

> <Gold.Chemscore.DEClash>
0.1050

> <Gold.Chemscore.DEInternal>
1.8578

> <Gold.Chemscore.Rot>
4.0968

> <Gold.Chemscore.Internal.Correction>
   9.000000E+99

> <Gold.Chemscore.Hbonds>
donor molecule, donor type, donor heavy atom, donor atom, acceptor molecule, acceptor atom, score
      L1  H    17    42       P1  7921  0.97
      L1  H    19    43       P1  7948  0.23
      L1  H    21    44       P1 10171  0.46

> <Gold.Chemscore.Hbond.Weighted>
-9.5205

> <Gold.Chemscore.Metal.Weighted>
-0.0000

> <Gold.Chemscore.Lipo.Weighted>
-9.8309

> <Gold.Chemscore.Internal_Hbond.Weighted>
0.0000

> <Gold.Chemscore.DEClash.Weighted>
0.1050

> <Gold.Chemscore.DEInternal.Weighted>
1.8578

> <Gold.Chemscore.Rot.Weighted>
10.4879

> <Gold.Chemscore.Internal.Correction.Weighted>
   9.000000E+99

> <Gold.Protein.RotatedTorsions>
[ 6907 6896 6895 6894 ] final -108.72 input  -60.11 | X-H torsion
[ 7974 7965 7964 7962 ] final -152.03 input  175.53 | X-H torsion
[ 8008 7997 7996 7995 ] final  -32.90 input   59.86 | X-H torsion
[ 10167 10162 10161 10158 ] final  136.78 input  -65.29 | X-H torsion
[ 10718 10713 10712 10709 ] final  136.53 input   66.30 | X-H torsion
[ 10763 10752 10751 10750 ] final  -32.63 input  -60.55 | X-H torsion
[ 11005 11000 10999 10996 ] final   35.59 input  -57.11 | X-H torsion

> <Gold.Protein.ActiveResidues>
 VAL166  LYS551  ARG553  GLY616  TRP617  ASP618  TYR619  PRO620  LYS621  CYS622 
 ASP623  PHE694  ASN695  SER759  ASP760  ASP761  ALA762  ILE779  LEU786  VAL792 
 PHE793  MET794  SER795  GLU796  ALA797  LYS798  CYS799  TRP800  GLU811  SER814 

> <Gold.Protein.RotatedAtoms>
  150.7518  133.9636  159.3522 H   0  0  0  0  0  0  0  0  0  0  0  0  # atno 6907 bound_to 6896
  151.7563  135.0818  160.0348 H   0  0  0  0  0  0  0  0  0  0  0  0  # atno 6908 bound_to 6896
  152.3433  133.6055  159.5928 H   0  0  0  0  0  0  0  0  0  0  0  0  # atno 6909 bound_to 6896
  144.7817  140.4718  143.5835 H   0  0  0  0  0  0  0  0  0  0  0  0  # atno 7974 bound_to 7965
  154.4165  140.1725  156.1802 H   0  0  0  0  0  0  0  0  0  0  0  0  # atno 8008 bound_to 7997
  155.9688  140.3387  155.6533 H   0  0  0  0  0  0  0  0  0  0  0  0  # atno 8009 bound_to 7997
  155.6652  140.0705  157.2530 H   0  0  0  0  0  0  0  0  0  0  0  0  # atno 8010 bound_to 7997
  139.5167  144.6446  151.5476 H   0  0  0  0  0  0  0  0  0  0  0  0  # atno 10167 bound_to 10162
  157.4457  131.1061  151.0092 H   0  0  0  0  0  0  0  0  0  0  0  0  # atno 10718 bound_to 10713
  153.8169  135.6877  153.4832 H   0  0  0  0  0  0  0  0  0  0  0  0  # atno 10763 bound_to 10752
  153.1593  135.4586  154.9748 H   0  0  0  0  0  0  0  0  0  0  0  0  # atno 10764 bound_to 10752
  154.7944  135.3313  154.7645 H   0  0  0  0  0  0  0  0  0  0  0  0  # atno 10765 bound_to 10752
  140.2411  134.3413  155.7925 H   0  0  0  0  0  0  0  0  0  0  0  0  # atno 11005 bound_to 11000
  145.6033  139.1506  143.3117 LP  0  0  0  0  0  0  0  0  0  0  0  0  # atno 17320 bound_to 7965
  146.2028  140.6153  142.9094 LP  0  0  0  0  0  0  0  0  0  0  0  0  # atno 17321 bound_to 7965
  140.6225  143.9230  150.6538 LP  0  0  0  0  0  0  0  0  0  0  0  0  # atno 17342 bound_to 10162
  140.2508  143.3594  152.1407 LP  0  0  0  0  0  0  0  0  0  0  0  0  # atno 17343 bound_to 10162
  157.0939  130.5954  149.5445 LP  0  0  0  0  0  0  0  0  0  0  0  0  # atno 17370 bound_to 10713
  155.9966  130.5036  150.7504 LP  0  0  0  0  0  0  0  0  0  0  0  0  # atno 17371 bound_to 10713
  141.2210  133.7299  156.8887 LP  0  0  0  0  0  0  0  0  0  0  0  0  # atno 17394 bound_to 11000
  140.1652  134.9138  157.2765 LP  0  0  0  0  0  0  0  0  0  0  0  0  # atno 17395 bound_to 11000

$$$$
