AV-unprocessed.smi:1006|AV-procd|sdf|4392|dock5
  -GOLD-   22720 2323D 1   1.00000     0.00000
 Structure written by MMmdl.
 46 48  0  0  0  0  0  0  0  0  2 V2000
  155.8313  141.0987  168.7883 C   0  0  0  0  0  0  0  0  0  0  0  0
  155.7535  140.9741  167.2814 C   0  0  0  0  0  0  0  0  0  0  0  0
  155.4824  142.0815  166.4520 C   0  0  0  0  0  0  0  0  0  0  0  0
  155.4373  141.8410  165.0676 C   0  0  0  0  0  0  0  0  0  0  0  0
  155.1796  142.8736  164.1698 N   0  0  0  0  0  0  0  0  0  0  0  0
  155.6422  140.6096  164.5600 N   0  0  0  0  0  0  0  0  0  0  0  0
  155.8944  139.6008  165.4043 C   0  0  0  0  0  0  0  0  0  0  0  0
  156.1890  137.9647  164.7571 S   0  0  0  0  0  0  0  0  0  0  0  0
  154.5177  137.4207  164.2829 C   0  0  0  0  0  0  0  0  0  0  0  0
  154.2127  137.7180  162.8060 C   0  0  2  0  0  0  0  0  0  0  0  0
  154.3014  136.5146  162.0668 O   0  0  0  0  0  0  0  0  0  0  0  0
  155.1807  138.7620  162.2168 C   0  0  0  0  0  0  0  0  0  0  0  0
  154.6542  139.3990  161.0225 N   0  0  0  0  0  0  0  0  0  0  0  0
  154.6656  138.9063  159.7690 C   0  0  0  0  0  0  0  0  0  0  0  0
  154.1277  139.6586  158.8135 N   0  0  0  0  0  0  0  0  0  0  0  0
  153.7174  140.7691  159.5312 C   0  0  0  0  0  0  0  0  0  0  0  0
  153.0663  141.9471  159.1040 C   0  0  0  0  0  0  0  0  0  0  0  0
  152.7347  142.9669  160.0245 C   0  0  0  0  0  0  0  0  0  0  0  0
  152.0325  144.2160  159.5219 C   0  0  0  0  0  0  0  0  0  0  0  0
  153.0568  142.8164  161.3973 C   0  0  0  0  0  0  0  0  0  0  0  0
  152.7091  143.8978  162.4050 C   0  0  0  0  0  0  0  0  0  0  0  0
  153.7088  141.6467  161.8408 C   0  0  0  0  0  0  0  0  0  0  0  0
  154.0314  140.6381  160.9157 C   0  0  0  0  0  0  0  0  0  0  0  0
  155.9582  139.7491  166.7353 N   0  3  0  0  0  0  0  0  0  0  0  0
  155.4742  142.0740  169.1200 H   0  0  0  0  0  0  0  0  0  0  0  0
  156.8614  140.9789  169.1251 H   0  0  0  0  0  0  0  0  0  0  0  0
  155.2204  140.3333  169.2679 H   0  0  0  0  0  0  0  0  0  0  0  0
  155.3182  143.0683  166.8610 H   0  0  0  0  0  0  0  0  0  0  0  0
  155.0181  143.8203  164.4819 H   0  0  0  0  0  0  0  0  0  0  0  0
  155.1635  142.7129  163.1727 H   0  0  0  0  0  0  0  0  0  0  0  0
  154.4472  136.3477  164.4653 H   0  0  0  0  0  0  0  0  0  0  0  0
  153.7776  137.9047  164.9213 H   0  0  0  0  0  0  0  0  0  0  0  0
  153.1923  138.0940  162.7190 H   0  0  0  0  0  0  0  0  0  0  0  0
  155.1398  136.1150  162.2415 H   0  0  0  0  0  0  0  0  0  0  0  0
  155.3890  139.5395  162.9526 H   0  0  0  0  0  0  0  0  0  0  0  0
  156.1386  138.3000  161.9740 H   0  0  0  0  0  0  0  0  0  0  0  0
  155.0949  137.9406  159.5454 H   0  0  0  0  0  0  0  0  0  0  0  0
  152.8213  142.0611  158.0583 H   0  0  0  0  0  0  0  0  0  0  0  0
  151.0571  144.3218  159.9970 H   0  0  0  0  0  0  0  0  0  0  0  0
  151.8775  144.1793  158.4433 H   0  0  0  0  0  0  0  0  0  0  0  0
  152.6249  145.1040  159.7440 H   0  0  0  0  0  0  0  0  0  0  0  0
  153.0328  143.6242  163.4096 H   0  0  0  0  0  0  0  0  0  0  0  0
  151.6314  144.0608  162.4333 H   0  0  0  0  0  0  0  0  0  0  0  0
  153.1955  144.8373  162.1416 H   0  0  0  0  0  0  0  0  0  0  0  0
  153.9622  141.5207  162.8831 H   0  0  0  0  0  0  0  0  0  0  0  0
  156.1576  138.9518  167.3397 H   0  0  0  0  0  0  0  0  0  0  0  0
  1  2  1  0  0  0  0
  1 25  1  0  0  0  0
  1 26  1  0  0  0  0
  1 27  1  0  0  0  0
  2 24  1  0  0  0  0
  2  3  2  0  0  0  0
  3  4  1  0  0  0  0
  3 28  1  0  0  0  0
  4  5  1  0  0  0  0
  4  6  2  0  0  0  0
  5 29  1  0  0  0  0
  5 30  1  0  0  0  0
  6  7  1  0  0  0  0
  7  8  1  0  0  0  0
  7 24  2  0  0  0  0
  8  9  1  0  0  0  0
  9 10  1  0  0  0  0
  9 31  1  0  0  0  0
  9 32  1  0  0  0  0
 10 11  1  0  0  0  0
 10 12  1  0  0  0  0
 10 33  1  0  0  0  0
 11 34  1  0  0  0  0
 12 13  1  0  0  0  0
 12 35  1  0  0  0  0
 12 36  1  0  0  0  0
 13 23  1  0  0  0  0
 13 14  1  0  0  0  0
 14 15  2  0  0  0  0
 14 37  1  0  0  0  0
 15 16  1  0  0  0  0
 16 23  2  0  0  0  0
 16 17  1  0  0  0  0
 17 18  2  0  0  0  0
 17 38  1  0  0  0  0
 18 19  1  0  0  0  0
 18 20  1  0  0  0  0
 19 39  1  0  0  0  0
 19 40  1  0  0  0  0
 19 41  1  0  0  0  0
 20 21  1  0  0  0  0
 20 22  2  0  0  0  0
 21 42  1  0  0  0  0
 21 43  1  0  0  0  0
 21 44  1  0  0  0  0
 22 23  1  0  0  0  0
 22 45  1  0  0  0  0
 24 46  1  0  0  0  0
M  CHG  1  24   1
M  END
> <s_m_source_file>
AV-unprocessed.smi

> <i_m_source_file_index>
1006

> <i_lp_mmshare_version>
43012

> <i_f3d_flags>
0

> <s_epik_input>
W0NIM11jMVtjSF1jKFtOSDJdKW5jKG4xKVNbQ0gyXVtDQEhdKFtPSF0pW0NIMl1uKFtjSF1uMiljKGMyMylbY0hdYyhbQ0gzXSljKFtjSF0zKVtDSDNd

> <s_epik_cmdline>
J2VwaWtfcHl0aG9uJywgJy1waCcsICc3LjAnLCAnLXRuJywgJzgnLCAnLW1hJywgJzIwMCcsICctbWV0YWxfYmluZGluZycsICctaW1hZScsICc8aW5maWxlLm1hZT4nLCAnLW9tYWUnLCAnPG91dGZpbGUubWFlPic=

> <r_lp_tautomer_probability>
0.999762

> <r_epik_Ionization_Penalty>
0.549885

> <r_epik_Ionization_Penalty_Charging>
0.440405

> <r_epik_Ionization_Penalty_Neutral>
0.10948

> <r_epik_State_Penalty>
0.546419

> <r_epik_Charging_Adjusted_Penalty>
0.986823

> <i_epik_Tot_Q>
1

> <i_epik_Tot_abs_Q>
1

> <r_epik_Metal_State_Penalty>
0.699827

> <b_epik_Metal_Only>
0

> <s_lp_Force_Field>
OPLS_2005

> <r_lp_Energy>
10.4004

> <b_lp_Chiralities_Consistent>
1

> <s_lp_Variant>
AV-unprocessed.smi:1006-3

> <Gold.Version>
5.8.1

> <Gold.Id.Protein>
6NUR|6NUR_protein|mol2

> <Gold.PLP.Fitness>
53.1617

> <Gold.PLP.PLP>
-53.0785

> <Gold.PLP.part.hbond>
-2.0000

> <Gold.PLP.part.metal>
0.0000

> <Gold.PLP.part.buried>
-6.1516

> <Gold.PLP.part.nonpolar>
-43.1868

> <Gold.PLP.part.repulsive>
0.1811

> <Gold.PLP.ligand.clash>
0.0000

> <Gold.PLP.ligand.torsion>
1.4954

> <Gold.PLP.Chemscore.Hbond>
1.0000

> <Gold.PLP.Chemscore.CHOScore>
0.0000

> <Gold.PLP.Chemscore.Metal>
0.0000

> <Gold.Chemscore.Hbonds>
donor molecule, donor type, donor heavy atom, donor atom, acceptor molecule, acceptor atom, score
      P1  H  7997  8009       L1    15  1.00

> <Gold.PLP.Chemscore.Internal.Correction>
0.0740

> <Gold.Rescore>
     Score         DG    S(hbond)    S(metal)    S(lipo)     H(rot)  DE(clash)    DE(int)     intcor
     14.81     -16.64       0.96        0.00     131.22       2.89       0.29       1.54       ----

> <Gold.Chemscore.Fitness>
14.8055

> <Gold.Chemscore.DG>
-16.6384

> <Gold.Chemscore.ZeroCoef>
-5.4800

> <Gold.Chemscore.Hbond>
0.9595

> <Gold.Chemscore.Metal>
0.0000

> <Gold.Chemscore.Lipo>
131.2157

> <Gold.Chemscore.Internal_Hbond>
0.0000

> <Gold.Chemscore.DEClash>
0.2887

> <Gold.Chemscore.DEInternal>
1.5442

> <Gold.Chemscore.Rot>
2.8901

> <Gold.Chemscore.Internal.Correction>
   9.000000E+99

> <Gold.Chemscore.Hbonds>
donor molecule, donor type, donor heavy atom, donor atom, acceptor molecule, acceptor atom, score
      P1  H  7997  8009       L1    15  0.89

> <Gold.Chemscore.Hbond.Weighted>
-3.2048

> <Gold.Chemscore.Metal.Weighted>
-0.0000

> <Gold.Chemscore.Lipo.Weighted>
-15.3522

> <Gold.Chemscore.Internal_Hbond.Weighted>
0.0000

> <Gold.Chemscore.DEClash.Weighted>
0.2887

> <Gold.Chemscore.DEInternal.Weighted>
1.5442

> <Gold.Chemscore.Rot.Weighted>
7.3986

> <Gold.Chemscore.Internal.Correction.Weighted>
   9.000000E+99

> <Gold.Protein.RotatedTorsions>
[ 6907 6896 6895 6894 ] final -110.52 input  -60.11 | X-H torsion
[ 7974 7965 7964 7962 ] final  100.03 input  175.53 | X-H torsion
[ 8008 7997 7996 7995 ] final  125.26 input   59.86 | X-H torsion
[ 10167 10162 10161 10158 ] final   22.23 input  -65.29 | X-H torsion
[ 10718 10713 10712 10709 ] final -129.80 input   66.30 | X-H torsion
[ 10763 10752 10751 10750 ] final  -85.77 input  -60.55 | X-H torsion
[ 11005 11000 10999 10996 ] final  -19.74 input  -57.11 | X-H torsion

> <Gold.Protein.ActiveResidues>
 VAL166  LYS551  ARG553  GLY616  TRP617  ASP618  TYR619  PRO620  LYS621  CYS622 
 ASP623  PHE694  ASN695  SER759  ASP760  ASP761  ALA762  ILE779  LEU786  VAL792 
 PHE793  MET794  SER795  GLU796  ALA797  LYS798  CYS799  TRP800  GLU811  SER814 

> <Gold.Protein.RotatedAtoms>
  150.7630  133.9370  159.3444 H   0  0  0  0  0  0  0  0  0  0  0  0  # atno 6907 bound_to 6896
  151.7275  135.0880  160.0304 H   0  0  0  0  0  0  0  0  0  0  0  0  # atno 6908 bound_to 6896
  152.3611  133.6260  159.6051 H   0  0  0  0  0  0  0  0  0  0  0  0  # atno 6909 bound_to 6896
  145.3909  139.2363  143.3352 H   0  0  0  0  0  0  0  0  0  0  0  0  # atno 7974 bound_to 7965
  156.2828  140.2720  156.1920 H   0  0  0  0  0  0  0  0  0  0  0  0  # atno 8008 bound_to 7997
  155.0448  140.0386  157.2540 H   0  0  0  0  0  0  0  0  0  0  0  0  # atno 8009 bound_to 7997
  154.7244  140.2694  155.6517 H   0  0  0  0  0  0  0  0  0  0  0  0  # atno 8010 bound_to 7997
  140.5365  143.9751  150.6494 H   0  0  0  0  0  0  0  0  0  0  0  0  # atno 10167 bound_to 10162
  156.2082  130.6901  151.0619 H   0  0  0  0  0  0  0  0  0  0  0  0  # atno 10718 bound_to 10713
  154.6149  135.5473  153.7513 H   0  0  0  0  0  0  0  0  0  0  0  0  # atno 10763 bound_to 10752
  153.0212  135.6398  154.1525 H   0  0  0  0  0  0  0  0  0  0  0  0  # atno 10764 bound_to 10752
  154.1461  135.2905  155.3128 H   0  0  0  0  0  0  0  0  0  0  0  0  # atno 10765 bound_to 10752
  140.8396  133.7936  155.9846 H   0  0  0  0  0  0  0  0  0  0  0  0  # atno 11005 bound_to 11000
  146.2798  140.4592  142.8781 LP  0  0  0  0  0  0  0  0  0  0  0  0  # atno 17320 bound_to 7965
  144.8440  140.6901  143.6211 LP  0  0  0  0  0  0  0  0  0  0  0  0  # atno 17321 bound_to 7965
  140.3140  143.3179  152.0850 LP  0  0  0  0  0  0  0  0  0  0  0  0  # atno 17342 bound_to 10162
  139.4973  144.6617  151.6449 LP  0  0  0  0  0  0  0  0  0  0  0  0  # atno 17343 bound_to 10162
  157.7024  131.0770  150.6777 LP  0  0  0  0  0  0  0  0  0  0  0  0  # atno 17370 bound_to 10713
  156.6836  130.4574  149.5620 LP  0  0  0  0  0  0  0  0  0  0  0  0  # atno 17371 bound_to 10713
  140.8910  134.2496  157.5094 LP  0  0  0  0  0  0  0  0  0  0  0  0  # atno 17394 bound_to 11000
  139.8703  134.9661  156.4552 LP  0  0  0  0  0  0  0  0  0  0  0  0  # atno 17395 bound_to 11000

$$$$
