AV-unprocessed.smi:13|AV-procd|sdf|73|dock4
  -GOLD-   2262015193D 1   1.00000     0.00000
 Structure written by MMmdl.
 54 58  0  0  0  0  0  0  0  0  1 V2000
  152.5060  144.2488  159.2731 C   0  0  0  0  0  0  0  0  0  0  0  0
  151.3116  143.4835  158.6866 C   0  0  0  0  0  0  0  0  0  0  0  0
  150.0519  144.1479  159.2416 C   0  0  0  0  0  0  0  0  0  0  0  0
  151.3496  143.2973  157.1618 C   0  0  0  0  0  0  0  0  0  0  0  0
  151.8963  141.9743  157.4060 N   0  0  0  0  0  0  0  0  0  0  0  0
  151.4703  140.9854  156.4712 C   0  0  0  0  0  0  0  0  0  0  0  0
  152.3040  139.9760  156.1034 N   0  0  0  0  0  0  0  0  0  0  0  0
  151.9250  139.0526  155.2162 C   0  0  0  0  0  0  0  0  0  0  0  0
  150.7635  138.9457  154.5711 N   0  0  0  0  0  0  0  0  0  0  0  0
  149.9155  139.9530  154.9228 C   0  0  0  0  0  0  0  0  0  0  0  0
  150.1890  141.0007  155.8483 C   0  0  0  0  0  0  0  0  0  0  0  0
  149.0907  141.8475  155.9367 N   0  0  0  0  0  0  0  0  0  0  0  0
  148.2181  141.3282  155.1174 C   0  0  0  0  0  0  0  0  0  0  0  0
  148.6270  140.1832  154.4722 N   0  0  0  0  0  0  0  0  0  0  0  0
  147.8620  139.4057  153.5086 C   0  0  0  0  0  0  0  0  0  0  0  0
  147.2647  138.1024  154.0923 C   0  0  1  0  0  0  0  0  0  0  0  0
  148.3150  137.1794  154.3169 O   0  0  0  0  0  0  0  0  0  0  0  0
  146.5213  138.3411  155.4086 C   0  0  0  0  0  0  0  0  0  0  0  0
  145.0559  138.1652  155.0286 C   0  0  0  0  0  0  0  0  0  0  0  0
  145.1118  137.1412  154.0518 O   0  0  0  0  0  0  0  0  0  0  0  0
  146.1987  137.4472  153.1902 C   0  0  0  0  0  0  0  0  0  0  0  0
  151.3388  141.9375  158.7540 C   0  0  1  0  0  0  0  0  0  0  0  0
  152.2381  141.1913  159.7470 C   0  0  1  0  0  0  0  0  0  0  0  0
  152.5156  139.7360  159.3601 C   0  0  0  0  0  0  0  0  0  0  0  0
  153.9005  139.4533  159.9259 C   0  0  0  0  0  0  0  0  0  0  0  0
  154.3875  140.8151  160.4209 C   0  0  0  0  0  0  0  0  0  0  0  0
  153.5434  141.7473  159.7659 O   0  0  0  0  0  0  0  0  0  0  0  0
  152.5209  145.2828  158.9281 H   0  0  0  0  0  0  0  0  0  0  0  0
  153.4565  143.8026  158.9791 H   0  0  0  0  0  0  0  0  0  0  0  0
  152.4804  144.2723  160.3623 H   0  0  0  0  0  0  0  0  0  0  0  0
  149.1482  143.6795  158.8509 H   0  0  0  0  0  0  0  0  0  0  0  0
  150.0062  145.2050  158.9774 H   0  0  0  0  0  0  0  0  0  0  0  0
  150.0075  144.0751  160.3288 H   0  0  0  0  0  0  0  0  0  0  0  0
  150.3599  143.2710  156.7013 H   0  0  0  0  0  0  0  0  0  0  0  0
  152.0326  143.9662  156.6375 H   0  0  0  0  0  0  0  0  0  0  0  0
  152.6583  138.2922  154.9916 H   0  0  0  0  0  0  0  0  0  0  0  0
  147.2437  141.7683  154.9618 H   0  0  0  0  0  0  0  0  0  0  0  0
  147.0686  140.0415  153.1132 H   0  0  0  0  0  0  0  0  0  0  0  0
  148.5124  139.1722  152.6646 H   0  0  0  0  0  0  0  0  0  0  0  0
  148.3659  136.5991  153.5725 H   0  0  0  0  0  0  0  0  0  0  0  0
  146.7871  137.5878  156.1524 H   0  0  0  0  0  0  0  0  0  0  0  0
  146.7207  139.3181  155.8501 H   0  0  0  0  0  0  0  0  0  0  0  0
  144.4303  137.8831  155.8755 H   0  0  0  0  0  0  0  0  0  0  0  0
  144.6519  139.0774  154.5862 H   0  0  0  0  0  0  0  0  0  0  0  0
  145.8309  138.1475  152.4403 H   0  0  0  0  0  0  0  0  0  0  0  0
  146.5542  136.5597  152.6650 H   0  0  0  0  0  0  0  0  0  0  0  0
  150.3158  141.5556  158.7457 H   0  0  0  0  0  0  0  0  0  0  0  0
  151.8286  141.2280  160.7584 H   0  0  0  0  0  0  0  0  0  0  0  0
  151.7625  139.0506  159.7478 H   0  0  0  0  0  0  0  0  0  0  0  0
  152.5365  139.6291  158.2747 H   0  0  0  0  0  0  0  0  0  0  0  0
  153.8741  138.7257  160.7375 H   0  0  0  0  0  0  0  0  0  0  0  0
  154.5552  139.0637  159.1456 H   0  0  0  0  0  0  0  0  0  0  0  0
  154.2524  140.9050  161.5000 H   0  0  0  0  0  0  0  0  0  0  0  0
  155.4373  140.9969  160.1905 H   0  0  0  0  0  0  0  0  0  0  0  0
  1  2  1  0  0  0  0
  1 28  1  0  0  0  0
  1 29  1  0  0  0  0
  1 30  1  0  0  0  0
  2 22  1  0  0  0  0
  2  3  1  0  0  0  0
  2  4  1  0  0  0  0
  3 31  1  0  0  0  0
  3 32  1  0  0  0  0
  3 33  1  0  0  0  0
  4  5  1  0  0  0  0
  4 34  1  0  0  0  0
  4 35  1  0  0  0  0
  5  6  1  0  0  0  0
  5 22  1  0  0  0  0
  6 11  1  0  0  0  0
  6  7  2  0  0  0  0
  7  8  1  0  0  0  0
  8  9  2  0  0  0  0
  8 36  1  0  0  0  0
  9 10  1  0  0  0  0
 10 14  1  0  0  0  0
 10 11  2  0  0  0  0
 11 12  1  0  0  0  0
 12 13  2  0  0  0  0
 13 14  1  0  0  0  0
 13 37  1  0  0  0  0
 14 15  1  0  0  0  0
 15 16  1  0  0  0  0
 15 38  1  0  0  0  0
 15 39  1  0  0  0  0
 16 21  1  0  0  0  0
 16 17  1  0  0  0  0
 16 18  1  0  0  0  0
 17 40  1  0  0  0  0
 18 19  1  0  0  0  0
 18 41  1  0  0  0  0
 18 42  1  0  0  0  0
 19 20  1  0  0  0  0
 19 43  1  0  0  0  0
 19 44  1  0  0  0  0
 20 21  1  0  0  0  0
 21 45  1  0  0  0  0
 21 46  1  0  0  0  0
 22 23  1  0  0  0  0
 22 47  1  0  0  0  0
 23 27  1  0  0  0  0
 23 24  1  0  0  0  0
 23 48  1  0  0  0  0
 24 25  1  0  0  0  0
 24 49  1  0  0  0  0
 24 50  1  0  0  0  0
 25 26  1  0  0  0  0
 25 51  1  0  0  0  0
 25 52  1  0  0  0  0
 26 27  1  0  0  0  0
 26 53  1  0  0  0  0
 26 54  1  0  0  0  0
M  END
> <s_m_source_file>
AV-unprocessed.smi

> <i_m_source_file_index>
13

> <i_lp_mmshare_version>
43012

> <i_f3d_flags>
0

> <s_epik_input>
TzFbQ0gyXVtDSDJdW0NIMl1bQ0BIXTFbQ0BASF0yTihbQ0gyXUMyKFtDSDNdKVtDSDNdKWMobltjSF1uMyljKGMzNCluW2NIXW40W0NIMl1bQ0BAXTUoW09IXSlbQ0gyXVtDSDJdT1tDSDJdNQ==

> <s_epik_cmdline>
J2VwaWtfcHl0aG9uJywgJy1waCcsICc3LjAnLCAnLXRuJywgJzgnLCAnLW1hJywgJzIwMCcsICctbWV0YWxfYmluZGluZycsICctaW1hZScsICc8aW5maWxlLm1hZT4nLCAnLW9tYWUnLCAnPG91dGZpbGUubWFlPic=

> <r_lp_tautomer_probability>
1

> <r_epik_Ionization_Penalty>
0.00202764

> <r_epik_Ionization_Penalty_Charging>
0

> <r_epik_Ionization_Penalty_Neutral>
0.00202764

> <r_epik_State_Penalty>
0.00134017

> <r_epik_Charging_Adjusted_Penalty>
0.00134017

> <i_epik_Tot_Q>
0

> <i_epik_Tot_abs_Q>
0

> <r_epik_Metal_State_Penalty>
-0

> <b_epik_Metal_Only>
0

> <s_lp_Force_Field>
OPLS_2005

> <r_lp_Energy>
61.4884

> <b_lp_Chiralities_Consistent>
1

> <s_lp_Variant>
AV-unprocessed.smi:13-5

> <Gold.Version>
5.8.1

> <Gold.Id.Protein>
6NUR|6NUR_protein|mol2

> <Gold.PLP.Fitness>
42.6201

> <Gold.PLP.PLP>
-38.3006

> <Gold.PLP.part.hbond>
-2.0000

> <Gold.PLP.part.metal>
0.0000

> <Gold.PLP.part.buried>
-2.9186

> <Gold.PLP.part.nonpolar>
-34.9934

> <Gold.PLP.part.repulsive>
1.9007

> <Gold.PLP.ligand.clash>
0.0000

> <Gold.PLP.ligand.torsion>
1.0215

> <Gold.PLP.Chemscore.Hbond>
1.9750

> <Gold.PLP.Chemscore.CHOScore>
0.0000

> <Gold.PLP.Chemscore.Metal>
0.0000

> <Gold.Chemscore.Hbonds>
donor molecule, donor type, donor heavy atom, donor atom, acceptor molecule, acceptor atom, score
      L1  H    17    40       P1  7948  1.00
      P1  H  7997  8010       L1     7  0.96

> <Gold.PLP.Chemscore.Internal.Correction>
0.4375

> <Gold.Rescore>
     Score         DG    S(hbond)    S(metal)    S(lipo)     H(rot)  DE(clash)    DE(int)     intcor
     12.65     -16.47       1.75        0.00      94.22       2.30       0.46       3.37       ----

> <Gold.Chemscore.Fitness>
12.6463

> <Gold.Chemscore.DG>
-16.4745

> <Gold.Chemscore.ZeroCoef>
-5.4800

> <Gold.Chemscore.Hbond>
1.7537

> <Gold.Chemscore.Metal>
0.0000

> <Gold.Chemscore.Lipo>
94.2218

> <Gold.Chemscore.Internal_Hbond>
0.0000

> <Gold.Chemscore.DEClash>
0.4630

> <Gold.Chemscore.DEInternal>
3.3652

> <Gold.Chemscore.Rot>
2.2996

> <Gold.Chemscore.Internal.Correction>
   9.000000E+99

> <Gold.Chemscore.Hbonds>
donor molecule, donor type, donor heavy atom, donor atom, acceptor molecule, acceptor atom, score
      L1  H    17    40       P1  7948  0.94
      P1  H  7997  8010       L1     7  0.77

> <Gold.Chemscore.Hbond.Weighted>
-5.8575

> <Gold.Chemscore.Metal.Weighted>
-0.0000

> <Gold.Chemscore.Lipo.Weighted>
-11.0239

> <Gold.Chemscore.Internal_Hbond.Weighted>
0.0000

> <Gold.Chemscore.DEClash.Weighted>
0.4630

> <Gold.Chemscore.DEInternal.Weighted>
3.3652

> <Gold.Chemscore.Rot.Weighted>
5.8869

> <Gold.Chemscore.Internal.Correction.Weighted>
   9.000000E+99

> <Gold.Protein.RotatedTorsions>
[ 6907 6896 6895 6894 ] final  -48.88 input  -60.11 | X-H torsion
[ 7974 7965 7964 7962 ] final   70.61 input  175.53 | X-H torsion
[ 8008 7997 7996 7995 ] final   82.04 input   59.86 | X-H torsion
[ 10167 10162 10161 10158 ] final   83.99 input  -65.29 | X-H torsion
[ 10718 10713 10712 10709 ] final  118.58 input   66.30 | X-H torsion
[ 10763 10752 10751 10750 ] final   97.14 input  -60.55 | X-H torsion
[ 11005 11000 10999 10996 ] final -149.65 input  -57.11 | X-H torsion

> <Gold.Protein.ActiveResidues>
 VAL166  LYS551  ARG553  GLY616  TRP617  ASP618  TYR619  PRO620  LYS621  CYS622 
 ASP623  PHE694  ASN695  SER759  ASP760  ASP761  ALA762  ILE779  LEU786  VAL792 
 PHE793  MET794  SER795  GLU796  ALA797  LYS798  CYS799  TRP800  GLU811  SER814 

> <Gold.Protein.RotatedAtoms>
  150.8861  134.8259  159.7259 H   0  0  0  0  0  0  0  0  0  0  0  0  # atno 6907 bound_to 6896
  152.4808  134.4720  159.9648 H   0  0  0  0  0  0  0  0  0  0  0  0  # atno 6908 bound_to 6896
  151.4789  133.3512  159.2870 H   0  0  0  0  0  0  0  0  0  0  0  0  # atno 6909 bound_to 6896
  145.7761  139.2865  143.1293 H   0  0  0  0  0  0  0  0  0  0  0  0  # atno 7974 bound_to 7965
  155.9052  140.3431  155.6056 H   0  0  0  0  0  0  0  0  0  0  0  0  # atno 8008 bound_to 7997
  155.7453  140.0813  157.2245 H   0  0  0  0  0  0  0  0  0  0  0  0  # atno 8009 bound_to 7997
  154.4048  140.1563  156.2649 H   0  0  0  0  0  0  0  0  0  0  0  0  # atno 8010 bound_to 7997
  139.9127  144.6262  150.8521 H   0  0  0  0  0  0  0  0  0  0  0  0  # atno 10167 bound_to 10162
  157.6021  131.1049  150.7775 H   0  0  0  0  0  0  0  0  0  0  0  0  # atno 10718 bound_to 10713
  153.2734  135.4193  155.1009 H   0  0  0  0  0  0  0  0  0  0  0  0  # atno 10763 bound_to 10752
  154.8464  135.3477  154.6213 H   0  0  0  0  0  0  0  0  0  0  0  0  # atno 10764 bound_to 10752
  153.6633  135.7047  153.5228 H   0  0  0  0  0  0  0  0  0  0  0  0  # atno 10765 bound_to 10752
  140.7485  134.3433  157.5131 H   0  0  0  0  0  0  0  0  0  0  0  0  # atno 11005 bound_to 11000
  146.0121  140.8426  142.9965 LP  0  0  0  0  0  0  0  0  0  0  0  0  # atno 17320 bound_to 7965
  144.6804  140.2505  143.7332 LP  0  0  0  0  0  0  0  0  0  0  0  0  # atno 17321 bound_to 7965
  140.7681  143.3354  151.2320 LP  0  0  0  0  0  0  0  0  0  0  0  0  # atno 17342 bound_to 10162
  139.6929  143.9662  152.2868 LP  0  0  0  0  0  0  0  0  0  0  0  0  # atno 17343 bound_to 10162
  156.8172  130.4972  149.5348 LP  0  0  0  0  0  0  0  0  0  0  0  0  # atno 17370 bound_to 10713
  156.1097  130.6031  151.0027 LP  0  0  0  0  0  0  0  0  0  0  0  0  # atno 17371 bound_to 10713
  139.8792  134.9127  156.3066 LP  0  0  0  0  0  0  0  0  0  0  0  0  # atno 17394 bound_to 11000
  140.9772  133.7290  156.0619 LP  0  0  0  0  0  0  0  0  0  0  0  0  # atno 17395 bound_to 11000

$$$$
