AV-unprocessed.smi:235|AV-procd|sdf|1803|dock5
  -GOLD-   2262020373D 1   1.00000     0.00000
 Structure written by MMmdl.
 54 58  0  0  0  0  0  0  0  0  1 V2000
  151.2655  143.3196  157.0007 O   0  0  0  0  0  0  0  0  0  0  0  0
  151.1692  142.4535  157.8713 C   0  0  0  0  0  0  0  0  0  0  0  0
  151.3587  142.6935  159.1768 N   0  0  0  0  0  0  0  0  0  0  0  0
  151.6817  143.9595  159.7501 C   0  0  0  0  0  0  0  0  0  0  0  0
  150.9767  145.1799  159.1987 C   0  0  0  0  0  0  0  0  0  0  0  0
  152.4293  144.9508  158.8850 C   0  0  0  0  0  0  0  0  0  0  0  0
  150.8352  141.0026  157.4974 C   0  0  2  0  0  0  0  0  0  0  0  0
  151.9303  140.0258  157.9443 C   0  0  0  0  0  0  0  0  0  0  0  0
  151.7335  138.8424  157.0052 C   0  0  0  0  0  0  0  0  0  0  0  0
  151.3276  139.5097  155.6911 C   0  0  0  0  0  0  0  0  0  0  0  0
  150.7541  140.8045  156.0484 N   0  0  0  0  0  0  0  0  0  0  0  0
  149.5590  141.0913  155.4868 C   0  0  0  0  0  0  0  0  0  0  0  0
  149.4547  140.9482  154.1434 N   0  0  0  0  0  0  0  0  0  0  0  0
  148.2986  141.2228  153.5314 C   0  0  0  0  0  0  0  0  0  0  0  0
  147.1498  141.6448  154.0656 N   0  0  0  0  0  0  0  0  0  0  0  0
  147.2542  141.7871  155.4185 C   0  0  0  0  0  0  0  0  0  0  0  0
  148.4133  141.5359  156.2043 C   0  0  0  0  0  0  0  0  0  0  0  0
  148.1468  141.7968  157.5432 N   0  0  0  0  0  0  0  0  0  0  0  0
  146.8994  142.1811  157.5483 C   0  0  0  0  0  0  0  0  0  0  0  0
  146.2843  142.1964  156.3162 N   0  0  0  0  0  0  0  0  0  0  0  0
  144.9085  142.5732  156.0340 C   0  0  0  0  0  0  0  0  0  0  0  0
  144.7761  143.7461  155.0368 C   0  0  1  0  0  0  0  0  0  0  0  0
  144.9496  143.2586  153.7207 O   0  0  0  0  0  0  0  0  0  0  0  0
  143.4221  144.4806  155.1108 C   0  0  2  0  0  0  0  0  0  0  0  0
  143.2883  145.6656  154.1535 C   0  0  0  0  0  0  0  0  0  0  0  0
  142.2512  146.5526  154.8256 C   0  0  0  0  0  0  0  0  0  0  0  0
  142.1787  146.0214  156.2600 C   0  0  0  0  0  0  0  0  0  0  0  0
  143.2608  145.1085  156.3732 O   0  0  0  0  0  0  0  0  0  0  0  0
  151.2644  141.9175  159.8158 H   0  0  0  0  0  0  0  0  0  0  0  0
  151.9164  143.9826  160.8134 H   0  0  0  0  0  0  0  0  0  0  0  0
  150.2605  145.0340  158.3923 H   0  0  0  0  0  0  0  0  0  0  0  0
  150.7334  145.9768  159.8985 H   0  0  0  0  0  0  0  0  0  0  0  0
  153.1563  145.5957  159.3750 H   0  0  0  0  0  0  0  0  0  0  0  0
  152.6818  144.6528  157.8692 H   0  0  0  0  0  0  0  0  0  0  0  0
  149.8919  140.7161  157.9671 H   0  0  0  0  0  0  0  0  0  0  0  0
  152.9239  140.4523  157.7939 H   0  0  0  0  0  0  0  0  0  0  0  0
  151.8396  139.7443  158.9938 H   0  0  0  0  0  0  0  0  0  0  0  0
  152.6219  138.2178  156.9092 H   0  0  0  0  0  0  0  0  0  0  0  0
  150.9172  138.2175  157.3700 H   0  0  0  0  0  0  0  0  0  0  0  0
  152.2085  139.6950  155.0759 H   0  0  0  0  0  0  0  0  0  0  0  0
  150.6562  138.8736  155.1117 H   0  0  0  0  0  0  0  0  0  0  0  0
  148.2935  141.0843  152.4604 H   0  0  0  0  0  0  0  0  0  0  0  0
  146.3864  142.4580  158.4580 H   0  0  0  0  0  0  0  0  0  0  0  0
  144.3903  141.6962  155.6443 H   0  0  0  0  0  0  0  0  0  0  0  0
  144.4167  142.8208  156.9757 H   0  0  0  0  0  0  0  0  0  0  0  0
  145.5812  144.4547  155.2345 H   0  0  0  0  0  0  0  0  0  0  0  0
  144.1287  143.3385  153.2595 H   0  0  0  0  0  0  0  0  0  0  0  0
  142.5930  143.7885  154.9519 H   0  0  0  0  0  0  0  0  0  0  0  0
  144.2348  146.2030  154.0810 H   0  0  0  0  0  0  0  0  0  0  0  0
  142.9978  145.3612  153.1475 H   0  0  0  0  0  0  0  0  0  0  0  0
  142.5557  147.5994  154.7963 H   0  0  0  0  0  0  0  0  0  0  0  0
  141.2794  146.4708  154.3376 H   0  0  0  0  0  0  0  0  0  0  0  0
  142.2548  146.8137  157.0051 H   0  0  0  0  0  0  0  0  0  0  0  0
  141.2414  145.4878  156.4244 H   0  0  0  0  0  0  0  0  0  0  0  0
  1  2  2  0  0  0  0
  2  3  1  0  0  0  0
  2  7  1  0  0  0  0
  3  4  1  0  0  0  0
  3 29  1  0  0  0  0
  4  6  1  0  0  0  0
  4  5  1  0  0  0  0
  4 30  1  0  0  0  0
  5  6  1  0  0  0  0
  5 31  1  0  0  0  0
  5 32  1  0  0  0  0
  6 33  1  0  0  0  0
  6 34  1  0  0  0  0
  7 11  1  0  0  0  0
  7  8  1  0  0  0  0
  7 35  1  0  0  0  0
  8  9  1  0  0  0  0
  8 36  1  0  0  0  0
  8 37  1  0  0  0  0
  9 10  1  0  0  0  0
  9 38  1  0  0  0  0
  9 39  1  0  0  0  0
 10 11  1  0  0  0  0
 10 40  1  0  0  0  0
 10 41  1  0  0  0  0
 11 12  1  0  0  0  0
 12 17  1  0  0  0  0
 12 13  2  0  0  0  0
 13 14  1  0  0  0  0
 14 15  2  0  0  0  0
 14 42  1  0  0  0  0
 15 16  1  0  0  0  0
 16 20  1  0  0  0  0
 16 17  2  0  0  0  0
 17 18  1  0  0  0  0
 18 19  2  0  0  0  0
 19 20  1  0  0  0  0
 19 43  1  0  0  0  0
 20 21  1  0  0  0  0
 21 22  1  0  0  0  0
 21 44  1  0  0  0  0
 21 45  1  0  0  0  0
 22 23  1  0  0  0  0
 22 24  1  0  0  0  0
 22 46  1  0  0  0  0
 23 47  1  0  0  0  0
 24 28  1  0  0  0  0
 24 25  1  0  0  0  0
 24 48  1  0  0  0  0
 25 26  1  0  0  0  0
 25 49  1  0  0  0  0
 25 50  1  0  0  0  0
 26 27  1  0  0  0  0
 26 51  1  0  0  0  0
 26 52  1  0  0  0  0
 27 28  1  0  0  0  0
 27 53  1  0  0  0  0
 27 54  1  0  0  0  0
M  END
> <s_m_source_file>
AV-unprocessed.smi

> <i_m_source_file_index>
235

> <i_lp_mmshare_version>
43012

> <i_f3d_flags>
0

> <s_epik_input>
W0NIMl0xW0NIMl1bQ0hdMVtOSF1DKD1PKVtDQEBIXTJbQ0gyXVtDSDJdW0NIMl1OMmMobltjSF1uMyljKGMzNCluW2NIXW40W0NIMl1bQ0BIXShbT0hdKVtDQEBIXTVbQ0gyXVtDSDJdW0NIMl1PNQ==

> <s_epik_cmdline>
J2VwaWtfcHl0aG9uJywgJy1waCcsICc3LjAnLCAnLXRuJywgJzgnLCAnLW1hJywgJzIwMCcsICctbWV0YWxfYmluZGluZycsICctaW1hZScsICc8aW5maWxlLm1hZT4nLCAnLW9tYWUnLCAnPG91dGZpbGUubWFlPic=

> <r_lp_tautomer_probability>
1

> <r_epik_Ionization_Penalty>
0.000526714

> <r_epik_Ionization_Penalty_Charging>
0

> <r_epik_Ionization_Penalty_Neutral>
0.000526714

> <r_epik_State_Penalty>
0.000272704

> <r_epik_Charging_Adjusted_Penalty>
0.000272704

> <i_epik_Tot_Q>
0

> <i_epik_Tot_abs_Q>
0

> <r_epik_Metal_State_Penalty>
-0

> <b_epik_Metal_Only>
0

> <s_lp_Force_Field>
OPLS_2005

> <r_lp_Energy>
60.0351

> <b_lp_Chiralities_Consistent>
1

> <s_lp_Variant>
AV-unprocessed.smi:235-3

> <Gold.Version>
5.8.1

> <Gold.Id.Protein>
6NUR|6NUR_protein|mol2

> <Gold.PLP.Fitness>
48.1994

> <Gold.PLP.PLP>
-43.1790

> <Gold.PLP.part.hbond>
-2.4995

> <Gold.PLP.part.metal>
0.0000

> <Gold.PLP.part.buried>
-5.0586

> <Gold.PLP.part.nonpolar>
-37.3413

> <Gold.PLP.part.repulsive>
1.2033

> <Gold.PLP.ligand.clash>
0.0000

> <Gold.PLP.ligand.torsion>
0.6305

> <Gold.PLP.Chemscore.Hbond>
1.0080

> <Gold.PLP.Chemscore.CHOScore>
1.0000

> <Gold.PLP.Chemscore.Metal>
0.0000

> <Gold.Chemscore.Hbonds>
donor molecule, donor type, donor heavy atom, donor atom, acceptor molecule, acceptor atom, score
      L1  H    23    47       P1 10174  0.78
      P1  H  7989  7998       L1    13  0.23
      L1  C    14    42       P1  7957  1.00

> <Gold.PLP.Chemscore.Internal.Correction>
0.2573

> <Gold.Rescore>
     Score         DG    S(hbond)    S(metal)    S(lipo)     H(rot)  DE(clash)    DE(int)     intcor
      5.09      -9.99       0.31        0.00      95.31       3.00       0.12       4.78       ----

> <Gold.Chemscore.Fitness>
5.0870

> <Gold.Chemscore.DG>
-9.9909

> <Gold.Chemscore.ZeroCoef>
-5.4800

> <Gold.Chemscore.Hbond>
0.3104

> <Gold.Chemscore.Metal>
0.0000

> <Gold.Chemscore.Lipo>
95.3106

> <Gold.Chemscore.Internal_Hbond>
0.0000

> <Gold.Chemscore.DEClash>
0.1225

> <Gold.Chemscore.DEInternal>
4.7815

> <Gold.Chemscore.Rot>
2.9989

> <Gold.Chemscore.Internal.Correction>
   9.000000E+99

> <Gold.Chemscore.Hbonds>
donor molecule, donor type, donor heavy atom, donor atom, acceptor molecule, acceptor atom, score
      L1  H    23    47       P1 10174  0.10
      P1  H  7989  7998       L1    13  0.09

> <Gold.Chemscore.Hbond.Weighted>
-1.0368

> <Gold.Chemscore.Metal.Weighted>
-0.0000

> <Gold.Chemscore.Lipo.Weighted>
-11.1513

> <Gold.Chemscore.Internal_Hbond.Weighted>
0.0000

> <Gold.Chemscore.DEClash.Weighted>
0.1225

> <Gold.Chemscore.DEInternal.Weighted>
4.7815

> <Gold.Chemscore.Rot.Weighted>
7.6772

> <Gold.Chemscore.Internal.Correction.Weighted>
   9.000000E+99

> <Gold.Protein.RotatedTorsions>
[ 6907 6896 6895 6894 ] final  107.49 input  -60.11 | X-H torsion
[ 7974 7965 7964 7962 ] final   18.35 input  175.53 | X-H torsion
[ 8008 7997 7996 7995 ] final  -72.57 input   59.86 | X-H torsion
[ 10167 10162 10161 10158 ] final   71.93 input  -65.29 | X-H torsion
[ 10718 10713 10712 10709 ] final  -15.50 input   66.30 | X-H torsion
[ 10763 10752 10751 10750 ] final  166.21 input  -60.55 | X-H torsion
[ 11005 11000 10999 10996 ] final  -12.70 input  -57.11 | X-H torsion

> <Gold.Protein.ActiveResidues>
 VAL166  LYS551  ARG553  GLY616  TRP617  ASP618  TYR619  PRO620  LYS621  CYS622 
 ASP623  PHE694  ASN695  SER759  ASP760  ASP761  ALA762  ILE779  LEU786  VAL792 
 PHE793  MET794  SER795  GLU796  ALA797  LYS798  CYS799  TRP800  GLU811  SER814 

> <Gold.Protein.RotatedAtoms>
  152.5152  133.9226  159.7541 H   0  0  0  0  0  0  0  0  0  0  0  0  # atno 6907 bound_to 6896
  150.9594  133.6453  159.2764 H   0  0  0  0  0  0  0  0  0  0  0  0  # atno 6908 bound_to 6896
  151.3703  135.0926  159.9516 H   0  0  0  0  0  0  0  0  0  0  0  0  # atno 6909 bound_to 6896
  146.2188  139.8470  142.8630 H   0  0  0  0  0  0  0  0  0  0  0  0  # atno 7974 bound_to 7965
  154.5177  140.0795  156.8112 H   0  0  0  0  0  0  0  0  0  0  0  0  # atno 8008 bound_to 7997
  155.3644  140.3419  155.4223 H   0  0  0  0  0  0  0  0  0  0  0  0  # atno 8009 bound_to 7997
  156.1646  140.1599  156.8541 H   0  0  0  0  0  0  0  0  0  0  0  0  # atno 8010 bound_to 7997
  140.0408  144.5391  150.7436 H   0  0  0  0  0  0  0  0  0  0  0  0  # atno 10167 bound_to 10162
  156.6009  130.4824  149.6240 H   0  0  0  0  0  0  0  0  0  0  0  0  # atno 10718 bound_to 10713
  154.3356  135.2754  155.2449 H   0  0  0  0  0  0  0  0  0  0  0  0  # atno 10763 bound_to 10752
  154.4742  135.5875  153.6346 H   0  0  0  0  0  0  0  0  0  0  0  0  # atno 10764 bound_to 10752
  152.9862  135.6095  154.3553 H   0  0  0  0  0  0  0  0  0  0  0  0  # atno 10765 bound_to 10752
  140.7685  133.8458  155.9186 H   0  0  0  0  0  0  0  0  0  0  0  0  # atno 11005 bound_to 11000
  145.2840  141.0147  143.3701 LP  0  0  0  0  0  0  0  0  0  0  0  0  # atno 17320 bound_to 7965
  144.9128  139.4507  143.6579 LP  0  0  0  0  0  0  0  0  0  0  0  0  # atno 17321 bound_to 7965
  140.7261  143.2638  151.4115 LP  0  0  0  0  0  0  0  0  0  0  0  0  # atno 17342 bound_to 10162
  139.6015  144.1285  152.2203 LP  0  0  0  0  0  0  0  0  0  0  0  0  # atno 17343 bound_to 10162
  156.2470  130.6885  151.1609 LP  0  0  0  0  0  0  0  0  0  0  0  0  # atno 17370 bound_to 10713
  157.7280  131.0635  150.5841 LP  0  0  0  0  0  0  0  0  0  0  0  0  # atno 17371 bound_to 10713
  140.9596  134.1672  157.4664 LP  0  0  0  0  0  0  0  0  0  0  0  0  # atno 17394 bound_to 11000
  139.8759  134.9940  156.5671 LP  0  0  0  0  0  0  0  0  0  0  0  0  # atno 17395 bound_to 11000

$$$$
