AV-unprocessed.smi:48|AV-procd|sdf|460|dock8
  -GOLD-   2262016333D 1   1.00000     0.00000
 Structure written by MMmdl.
 30 32  0  0  0  0  0  0  0  0  1 V2000
  147.8949  139.6994  152.9489 O   0  0  0  0  0  0  0  0  0  0  0  0
  148.3500  139.0548  154.1193 C   0  0  0  0  0  0  0  0  0  0  0  0
  149.2536  139.9997  154.9257 C   0  0  2  0  0  0  0  0  0  0  0  0
  149.5418  139.4193  156.1977 O   0  0  0  0  0  0  0  0  0  0  0  0
  149.7111  140.4121  157.1670 C   0  0  1  0  0  0  0  0  0  0  0  0
  151.1025  140.3318  157.7217 N   0  0  0  0  0  0  0  0  0  0  0  0
  152.0576  139.4438  157.3781 C   0  0  0  0  0  0  0  0  0  0  0  0
  153.2359  139.5371  157.9921 N   0  0  0  0  0  0  0  0  0  0  0  0
  153.0238  140.6174  158.8322 C   0  0  0  0  0  0  0  0  0  0  0  0
  153.8507  141.2729  159.7769 C   0  0  0  0  0  0  0  0  0  0  0  0
  155.4701  140.7467  160.0571 Cl  0  0  0  0  0  0  0  0  0  0  0  0
  153.3415  142.3252  160.4602 N   0  0  0  0  0  0  0  0  0  0  0  0
  152.0822  142.7120  160.2237 C   0  0  0  0  0  0  0  0  0  0  0  0
  151.1915  142.1950  159.3704 N   0  0  0  0  0  0  0  0  0  0  0  0
  151.7045  141.1334  158.6815 C   0  0  0  0  0  0  0  0  0  0  0  0
  149.3878  141.7696  156.5115 C   0  0  1  0  0  0  0  0  0  0  0  0
  150.5371  142.5229  156.1560 O   0  0  0  0  0  0  0  0  0  0  0  0
  148.5783  141.3194  155.3026 C   0  0  1  0  0  0  0  0  0  0  0  0
  148.5728  142.2658  154.2504 O   0  0  0  0  0  0  0  0  0  0  0  0
  150.1820  140.2064  154.3914 H   0  0  0  0  0  0  0  0  0  0  0  0
  149.0620  140.1875  158.0144 H   0  0  0  0  0  0  0  0  0  0  0  0
  148.7860  142.3700  157.1946 H   0  0  0  0  0  0  0  0  0  0  0  0
  147.5497  141.1290  155.6130 H   0  0  0  0  0  0  0  0  0  0  0  0
  148.6356  140.0967  152.5170 H   0  0  0  0  0  0  0  0  0  0  0  0
  147.4711  138.7853  154.7055 H   0  0  0  0  0  0  0  0  0  0  0  0
  148.8678  138.1289  153.8672 H   0  0  0  0  0  0  0  0  0  0  0  0
  151.8765  138.6812  156.6346 H   0  0  0  0  0  0  0  0  0  0  0  0
  151.7374  143.5568  160.8013 H   0  0  0  0  0  0  0  0  0  0  0  0
  150.2816  143.4248  156.0377 H   0  0  0  0  0  0  0  0  0  0  0  0
  148.9653  143.0659  154.5644 H   0  0  0  0  0  0  0  0  0  0  0  0
  1  2  1  0  0  0  0
  1 24  1  0  0  0  0
  2  3  1  0  0  0  0
  2 25  1  0  0  0  0
  2 26  1  0  0  0  0
  3 20  1  0  0  0  0
  3 18  1  0  0  0  0
  3  4  1  0  0  0  0
  4  5  1  0  0  0  0
  5 21  1  0  0  0  0
  5  6  1  0  0  0  0
  5 16  1  0  0  0  0
  6 15  1  0  0  0  0
  6  7  1  0  0  0  0
  7  8  2  0  0  0  0
  7 27  1  0  0  0  0
  8  9  1  0  0  0  0
  9 15  2  0  0  0  0
  9 10  1  0  0  0  0
 10 11  1  0  0  0  0
 10 12  2  0  0  0  0
 12 13  1  0  0  0  0
 13 14  2  0  0  0  0
 13 28  1  0  0  0  0
 14 15  1  0  0  0  0
 16 22  1  0  0  0  0
 16 17  1  0  0  0  0
 16 18  1  0  0  0  0
 17 29  1  0  0  0  0
 18 23  1  0  0  0  0
 18 19  1  0  0  0  0
 19 30  1  0  0  0  0
M  END
> <s_m_source_file>
AV-unprocessed.smi

> <i_m_source_file_index>
48

> <i_lp_mmshare_version>
43012

> <i_f3d_flags>
0

> <s_epik_input>
W09IXVtDSDJdW0NASF0xT1tDQEhdKFtDQEhdKFtPSF0pW0NAQEhdMVtPSF0pbihbY0hdbjIpYyhjMjMpbltjSF1uYzNDbA==

> <s_epik_cmdline>
J2VwaWtfcHl0aG9uJywgJy1waCcsICc3LjAnLCAnLXRuJywgJzgnLCAnLW1hJywgJzIwMCcsICctbWV0YWxfYmluZGluZycsICctaW1hZScsICc8aW5maWxlLm1hZT4nLCAnLW9tYWUnLCAnPG91dGZpbGUubWFlPic=

> <r_lp_tautomer_probability>
1

> <r_epik_Ionization_Penalty>
3.45505e-06

> <r_epik_Ionization_Penalty_Charging>
0

> <r_epik_Ionization_Penalty_Neutral>
3.45505e-06

> <r_epik_State_Penalty>
-0

> <r_epik_Charging_Adjusted_Penalty>
0

> <i_epik_Tot_Q>
0

> <i_epik_Tot_abs_Q>
0

> <r_epik_Metal_State_Penalty>
-0

> <b_epik_Metal_Only>
0

> <s_epik_Chemistry_Notes>
This compound contains an acetal/aminal-like group ( X-CH(R)-Y where X, Y are N, S, or O) that may be acid/base labile, releasing an aldehyde.

> <s_lp_Force_Field>
OPLS_2005

> <r_lp_Energy>
44.1755

> <b_lp_Chiralities_Consistent>
1

> <s_lp_Variant>
AV-unprocessed.smi:48-14

> <Gold.Version>
5.8.1

> <Gold.Id.Protein>
6NUR|6NUR_protein|mol2

> <Gold.PLP.Fitness>
42.7978

> <Gold.PLP.PLP>
-31.2135

> <Gold.PLP.part.hbond>
-5.1630

> <Gold.PLP.part.metal>
0.0000

> <Gold.PLP.part.buried>
-4.9802

> <Gold.PLP.part.nonpolar>
-20.4102

> <Gold.PLP.part.repulsive>
0.0000

> <Gold.PLP.ligand.clash>
0.0000

> <Gold.PLP.ligand.torsion>
0.0256

> <Gold.PLP.Chemscore.Hbond>
3.8757

> <Gold.PLP.Chemscore.CHOScore>
0.0000

> <Gold.PLP.Chemscore.Metal>
0.0000

> <Gold.Chemscore.Hbonds>
donor molecule, donor type, donor heavy atom, donor atom, acceptor molecule, acceptor atom, score
      L1  H     1    24       P1  7957  0.88
      L1  H    17    29       P1  8028  0.99
      L1  H    19    30       P1  8028  1.00
      P1  H  7997  8008       L1     8  0.98
      P1  H  8011  8017       L1    19  0.05

> <Gold.PLP.Chemscore.Internal.Correction>
0.0085

> <Gold.Rescore>
     Score         DG    S(hbond)    S(metal)    S(lipo)     H(rot)  DE(clash)    DE(int)     intcor
     12.69     -12.70       3.44        0.00      46.74       3.80       0.00       0.01       ----

> <Gold.Chemscore.Fitness>
12.6889

> <Gold.Chemscore.DG>
-12.6987

> <Gold.Chemscore.ZeroCoef>
-5.4800

> <Gold.Chemscore.Hbond>
3.4380

> <Gold.Chemscore.Metal>
0.0000

> <Gold.Chemscore.Lipo>
46.7352

> <Gold.Chemscore.Internal_Hbond>
0.0000

> <Gold.Chemscore.DEClash>
0.0036

> <Gold.Chemscore.DEInternal>
0.0062

> <Gold.Chemscore.Rot>
3.8017

> <Gold.Chemscore.Internal.Correction>
   9.000000E+99

> <Gold.Chemscore.Hbonds>
donor molecule, donor type, donor heavy atom, donor atom, acceptor molecule, acceptor atom, score
      L1  H     1    24       P1  7957  0.86
      L1  H    17    29       P1  8028  0.94
      L1  H    19    30       P1  8028  0.94
      P1  H  7997  8008       L1     8  0.28

> <Gold.Chemscore.Hbond.Weighted>
-11.4831

> <Gold.Chemscore.Metal.Weighted>
-0.0000

> <Gold.Chemscore.Lipo.Weighted>
-5.4680

> <Gold.Chemscore.Internal_Hbond.Weighted>
0.0000

> <Gold.Chemscore.DEClash.Weighted>
0.0036

> <Gold.Chemscore.DEInternal.Weighted>
0.0062

> <Gold.Chemscore.Rot.Weighted>
9.7324

> <Gold.Chemscore.Internal.Correction.Weighted>
   9.000000E+99

> <Gold.Protein.RotatedTorsions>
[ 6907 6896 6895 6894 ] final   32.84 input  -60.11 | X-H torsion
[ 7974 7965 7964 7962 ] final  -88.44 input  175.53 | X-H torsion
[ 8008 7997 7996 7995 ] final -102.56 input   59.86 | X-H torsion
[ 10167 10162 10161 10158 ] final  -69.24 input  -65.29 | X-H torsion
[ 10718 10713 10712 10709 ] final -109.19 input   66.30 | X-H torsion
[ 10763 10752 10751 10750 ] final   81.93 input  -60.55 | X-H torsion
[ 11005 11000 10999 10996 ] final  163.74 input  -57.11 | X-H torsion

> <Gold.Protein.ActiveResidues>
 VAL166  LYS551  ARG553  GLY616  TRP617  ASP618  TYR619  PRO620  LYS621  CYS622 
 ASP623  PHE694  ASN695  SER759  ASP760  ASP761  ALA762  ILE779  LEU786  VAL792 
 PHE793  MET794  SER795  GLU796  ALA797  LYS798  CYS799  TRP800  GLU811  SER814 

> <Gold.Protein.RotatedAtoms>
  152.0801  134.9476  160.0573 H   0  0  0  0  0  0  0  0  0  0  0  0  # atno 6907 bound_to 6896
  152.0768  133.4128  159.4492 H   0  0  0  0  0  0  0  0  0  0  0  0  # atno 6908 bound_to 6896
  150.6836  134.2948  159.4725 H   0  0  0  0  0  0  0  0  0  0  0  0  # atno 6909 bound_to 6896
  145.4531  140.9561  143.2011 H   0  0  0  0  0  0  0  0  0  0  0  0  # atno 7974 bound_to 7965
  154.8584  140.0428  157.1649 H   0  0  0  0  0  0  0  0  0  0  0  0  # atno 8008 bound_to 7997
  154.8867  140.2980  155.5373 H   0  0  0  0  0  0  0  0  0  0  0  0  # atno 8009 bound_to 7997
  156.2998  140.2401  156.3877 H   0  0  0  0  0  0  0  0  0  0  0  0  # atno 8010 bound_to 7997
  140.5446  143.2313  151.7026 H   0  0  0  0  0  0  0  0  0  0  0  0  # atno 10167 bound_to 10162
  156.0524  130.5751  150.8066 H   0  0  0  0  0  0  0  0  0  0  0  0  # atno 10718 bound_to 10713
  153.1159  135.4747  154.9114 H   0  0  0  0  0  0  0  0  0  0  0  0  # atno 10763 bound_to 10752
  154.7527  135.3110  154.8529 H   0  0  0  0  0  0  0  0  0  0  0  0  # atno 10764 bound_to 10752
  153.9106  135.6865  153.4805 H   0  0  0  0  0  0  0  0  0  0  0  0  # atno 10765 bound_to 10752
  140.2389  134.8066  157.3391 H   0  0  0  0  0  0  0  0  0  0  0  0  # atno 11005 bound_to 11000
  144.8049  139.6070  143.7055 LP  0  0  0  0  0  0  0  0  0  0  0  0  # atno 17320 bound_to 7965
  146.2493  139.6165  142.9438 LP  0  0  0  0  0  0  0  0  0  0  0  0  # atno 17321 bound_to 7965
  139.5002  144.3916  152.0274 LP  0  0  0  0  0  0  0  0  0  0  0  0  # atno 17342 bound_to 10162
  140.3027  144.3628  150.6055 LP  0  0  0  0  0  0  0  0  0  0  0  0  # atno 17343 bound_to 10162
  157.5463  131.0942  150.9758 LP  0  0  0  0  0  0  0  0  0  0  0  0  # atno 17370 bound_to 10713
  157.0028  130.5606  149.5313 LP  0  0  0  0  0  0  0  0  0  0  0  0  # atno 17371 bound_to 10713
  140.1674  134.4652  155.7854 LP  0  0  0  0  0  0  0  0  0  0  0  0  # atno 17394 bound_to 11000
  141.2212  133.6927  156.7648 LP  0  0  0  0  0  0  0  0  0  0  0  0  # atno 17395 bound_to 11000

$$$$
