AV-unprocessed.smi:3332|AV-procd|sdf|12829|dock8
  -GOLD-   2272019213D 1   1.00000     0.00000
 Structure written by MMmdl.
 41 42  0  0  0  0  0  0  0  0  1 V2000
  151.5085  145.0956  158.4004 C   0  0  0  0  0  0  0  0  0  0  0  0
  151.9307  144.7358  159.8290 C   0  0  0  0  0  0  0  0  0  0  0  0
  152.2704  143.2812  159.9709 C   0  0  0  0  0  0  0  0  0  0  0  0
  152.1544  142.4387  158.8610 N   0  0  0  0  0  0  0  0  0  0  0  0
  152.4883  141.1763  159.1353 C   0  0  0  0  0  0  0  0  0  0  0  0
  152.4846  140.0827  158.1210 C   0  0  0  0  0  0  0  0  0  0  0  0
  151.0622  139.6514  157.7314 C   0  0  0  0  0  0  0  0  0  0  0  0
  150.4080  140.6540  156.8992 N   0  0  0  0  0  0  0  0  0  0  0  0
  150.3692  140.6342  155.5581 C   0  0  0  0  0  0  0  0  0  0  0  0
  150.8900  139.7479  154.8808 O   0  0  0  0  0  0  0  0  0  0  0  0
  149.6226  141.7877  154.8783 C   0  0  0  0  0  0  0  0  0  0  0  0
  148.1088  141.5330  154.7057 C   0  0  2  0  0  0  0  0  0  0  0  0
  147.4672  142.3932  153.6436 C   0  0  0  0  0  0  0  0  0  0  0  0
  146.4094  143.0635  154.0946 C   0  0  0  0  0  0  0  0  0  0  0  0
  146.1297  142.7895  155.5459 C   0  0  0  0  0  0  0  0  0  0  0  0
  147.2860  141.8605  155.9784 C   0  0  0  0  0  0  0  0  0  0  0  0
  153.0060  140.9440  160.7988 S   0  0  0  0  0  0  0  0  0  0  0  0
  152.7211  142.6388  161.1008 C   0  0  0  0  0  0  0  0  0  0  0  0
  152.9707  143.2266  162.4499 C   0  0  0  0  0  0  0  0  0  0  0  0
  151.2687  146.1560  158.3210 H   0  0  0  0  0  0  0  0  0  0  0  0
  150.6269  144.5308  158.0958 H   0  0  0  0  0  0  0  0  0  0  0  0
  152.3070  144.8799  157.6898 H   0  0  0  0  0  0  0  0  0  0  0  0
  152.7808  145.3540  160.1187 H   0  0  0  0  0  0  0  0  0  0  0  0
  151.1263  144.9993  160.5168 H   0  0  0  0  0  0  0  0  0  0  0  0
  153.0306  140.4288  157.2426 H   0  0  0  0  0  0  0  0  0  0  0  0
  153.0402  139.2325  158.5191 H   0  0  0  0  0  0  0  0  0  0  0  0
  151.0977  138.7165  157.1712 H   0  0  0  0  0  0  0  0  0  0  0  0
  150.4642  139.4559  158.6235 H   0  0  0  0  0  0  0  0  0  0  0  0
  149.9525  141.4183  157.3770 H   0  0  0  0  0  0  0  0  0  0  0  0
  149.7757  142.6849  155.4792 H   0  0  0  0  0  0  0  0  0  0  0  0
  150.0732  141.9899  153.9051 H   0  0  0  0  0  0  0  0  0  0  0  0
  147.9392  140.4913  154.4287 H   0  0  0  0  0  0  0  0  0  0  0  0
  147.8362  142.4311  152.6292 H   0  0  0  0  0  0  0  0  0  0  0  0
  145.7945  143.7271  153.5046 H   0  0  0  0  0  0  0  0  0  0  0  0
  146.1198  143.7179  156.1174 H   0  0  0  0  0  0  0  0  0  0  0  0
  145.1595  142.3032  155.6516 H   0  0  0  0  0  0  0  0  0  0  0  0
  146.9074  140.9515  156.4470 H   0  0  0  0  0  0  0  0  0  0  0  0
  147.9026  142.3665  156.7224 H   0  0  0  0  0  0  0  0  0  0  0  0
  153.6099  144.1066  162.3764 H   0  0  0  0  0  0  0  0  0  0  0  0
  153.4620  142.5106  163.1090 H   0  0  0  0  0  0  0  0  0  0  0  0
  152.0336  143.5271  162.9185 H   0  0  0  0  0  0  0  0  0  0  0  0
  1  2  1  0  0  0  0
  1 20  1  0  0  0  0
  1 21  1  0  0  0  0
  1 22  1  0  0  0  0
  2  3  1  0  0  0  0
  2 23  1  0  0  0  0
  2 24  1  0  0  0  0
  3 18  2  0  0  0  0
  3  4  1  0  0  0  0
  4  5  2  0  0  0  0
  5  6  1  0  0  0  0
  5 17  1  0  0  0  0
  6  7  1  0  0  0  0
  6 25  1  0  0  0  0
  6 26  1  0  0  0  0
  7  8  1  0  0  0  0
  7 27  1  0  0  0  0
  7 28  1  0  0  0  0
  8  9  1  0  0  0  0
  8 29  1  0  0  0  0
  9 10  2  0  0  0  0
  9 11  1  0  0  0  0
 11 12  1  0  0  0  0
 11 30  1  0  0  0  0
 11 31  1  0  0  0  0
 12 16  1  0  0  0  0
 12 13  1  0  0  0  0
 12 32  1  0  0  0  0
 13 14  2  0  0  0  0
 13 33  1  0  0  0  0
 14 15  1  0  0  0  0
 14 34  1  0  0  0  0
 15 16  1  0  0  0  0
 15 35  1  0  0  0  0
 15 36  1  0  0  0  0
 16 37  1  0  0  0  0
 16 38  1  0  0  0  0
 17 18  1  0  0  0  0
 18 19  1  0  0  0  0
 19 39  1  0  0  0  0
 19 40  1  0  0  0  0
 19 41  1  0  0  0  0
M  END
> <s_m_source_file>
AV-unprocessed.smi

> <i_m_source_file_index>
3332

> <i_lp_mmshare_version>
43012

> <i_f3d_flags>
0

> <s_epik_input>
W0NIM11bQ0gyXWMxbmMoc2MxW0NIM10pW0NIMl1bQ0gyXVtOSF1DKD1PKVtDSDJdW0NAQEhdMltDSF09W0NIXVtDSDJdW0NIMl0y

> <s_epik_cmdline>
J2VwaWtfcHl0aG9uJywgJy1waCcsICc3LjAnLCAnLXRuJywgJzgnLCAnLW1hJywgJzIwMCcsICctbWV0YWxfYmluZGluZycsICctaW1hZScsICc8aW5maWxlLm1hZT4nLCAnLW9tYWUnLCAnPG91dGZpbGUubWFlPic=

> <r_epik_Ionization_Penalty>
0.00221844

> <r_epik_Ionization_Penalty_Charging>
0

> <r_epik_Ionization_Penalty_Neutral>
0.00221844

> <r_epik_State_Penalty>
0.00152607

> <r_epik_Charging_Adjusted_Penalty>
0.00152607

> <i_epik_Tot_Q>
0

> <i_epik_Tot_abs_Q>
0

> <r_epik_Metal_State_Penalty>
-0

> <b_epik_Metal_Only>
0

> <s_lp_Force_Field>
OPLS_2005

> <r_lp_Energy>
6.78745

> <b_lp_Chiralities_Consistent>
1

> <s_lp_Variant>
AV-unprocessed.smi:3332-1

> <Gold.Version>
5.8.1

> <Gold.Id.Protein>
6NUR|6NUR_protein|mol2

> <Gold.PLP.Fitness>
45.9913

> <Gold.PLP.PLP>
-44.7596

> <Gold.PLP.part.hbond>
-1.0000

> <Gold.PLP.part.metal>
0.0000

> <Gold.PLP.part.buried>
-5.1836

> <Gold.PLP.part.nonpolar>
-38.3358

> <Gold.PLP.part.repulsive>
0.0899

> <Gold.PLP.ligand.clash>
0.0000

> <Gold.PLP.ligand.torsion>
0.9145

> <Gold.PLP.Chemscore.Hbond>
1.0000

> <Gold.PLP.Chemscore.CHOScore>
0.0000

> <Gold.PLP.Chemscore.Metal>
0.0000

> <Gold.Chemscore.Hbonds>
donor molecule, donor type, donor heavy atom, donor atom, acceptor molecule, acceptor atom, score
      P1  H  7989  7998       L1    10  0.90

> <Gold.PLP.Chemscore.Internal.Correction>
0.0607

> <Gold.Rescore>
     Score         DG    S(hbond)    S(metal)    S(lipo)     H(rot)  DE(clash)    DE(int)     intcor
     16.52     -18.54       0.85        0.00     120.27       1.51       0.87       1.15       ----

> <Gold.Chemscore.Fitness>
16.5238

> <Gold.Chemscore.DG>
-18.5355

> <Gold.Chemscore.ZeroCoef>
-5.4800

> <Gold.Chemscore.Hbond>
0.8535

> <Gold.Chemscore.Metal>
0.0000

> <Gold.Chemscore.Lipo>
120.2672

> <Gold.Chemscore.Internal_Hbond>
0.0000

> <Gold.Chemscore.DEClash>
0.8652

> <Gold.Chemscore.DEInternal>
1.1465

> <Gold.Chemscore.Rot>
1.5103

> <Gold.Chemscore.Internal.Correction>
   9.000000E+99

> <Gold.Chemscore.Hbonds>
donor molecule, donor type, donor heavy atom, donor atom, acceptor molecule, acceptor atom, score
      P1  H  7989  7998       L1    10  0.18

> <Gold.Chemscore.Hbond.Weighted>
-2.8506

> <Gold.Chemscore.Metal.Weighted>
-0.0000

> <Gold.Chemscore.Lipo.Weighted>
-14.0713

> <Gold.Chemscore.Internal_Hbond.Weighted>
0.0000

> <Gold.Chemscore.DEClash.Weighted>
0.8652

> <Gold.Chemscore.DEInternal.Weighted>
1.1465

> <Gold.Chemscore.Rot.Weighted>
3.8664

> <Gold.Chemscore.Internal.Correction.Weighted>
   9.000000E+99

> <Gold.Protein.RotatedTorsions>
[ 6907 6896 6895 6894 ] final   29.75 input  -60.11 | X-H torsion
[ 7974 7965 7964 7962 ] final -173.45 input  175.53 | X-H torsion
[ 8008 7997 7996 7995 ] final   24.98 input   59.86 | X-H torsion
[ 10167 10162 10161 10158 ] final  -67.20 input  -65.29 | X-H torsion
[ 10718 10713 10712 10709 ] final -150.80 input   66.30 | X-H torsion
[ 10763 10752 10751 10750 ] final  -86.72 input  -60.55 | X-H torsion
[ 11005 11000 10999 10996 ] final   84.28 input  -57.11 | X-H torsion

> <Gold.Protein.ActiveResidues>
 VAL166  LYS551  ARG553  GLY616  TRP617  ASP618  TYR619  PRO620  LYS621  CYS622 
 ASP623  PHE694  ASN695  SER759  ASP760  ASP761  ALA762  ILE779  LEU786  VAL792 
 PHE793  MET794  SER795  GLU796  ALA797  LYS798  CYS799  TRP800  GLU811  SER814 

> <Gold.Protein.RotatedAtoms>
  152.0360  134.9740  160.0573 H   0  0  0  0  0  0  0  0  0  0  0  0  # atno 6907 bound_to 6896
  152.1197  133.4342  159.4678 H   0  0  0  0  0  0  0  0  0  0  0  0  # atno 6908 bound_to 6896
  150.6848  134.2468  159.4538 H   0  0  0  0  0  0  0  0  0  0  0  0  # atno 6909 bound_to 6896
  144.7138  140.1619  143.6375 H   0  0  0  0  0  0  0  0  0  0  0  0  # atno 7974 bound_to 7965
  155.0046  140.3129  155.4853 H   0  0  0  0  0  0  0  0  0  0  0  0  # atno 8008 bound_to 7997
  156.2919  140.2225  156.5099 H   0  0  0  0  0  0  0  0  0  0  0  0  # atno 8009 bound_to 7997
  154.7588  140.0460  157.0944 H   0  0  0  0  0  0  0  0  0  0  0  0  # atno 8010 bound_to 7997
  140.5600  143.2312  151.6746 H   0  0  0  0  0  0  0  0  0  0  0  0  # atno 10167 bound_to 10162
  156.4508  130.8167  151.2398 H   0  0  0  0  0  0  0  0  0  0  0  0  # atno 10718 bound_to 10713
  154.6256  135.5439  153.7623 H   0  0  0  0  0  0  0  0  0  0  0  0  # atno 10763 bound_to 10752
  153.0259  135.6423  154.1377 H   0  0  0  0  0  0  0  0  0  0  0  0  # atno 10764 bound_to 10752
  154.1309  135.2914  155.3165 H   0  0  0  0  0  0  0  0  0  0  0  0  # atno 10765 bound_to 10752
  139.9005  134.8205  156.2423 H   0  0  0  0  0  0  0  0  0  0  0  0  # atno 11005 bound_to 11000
  145.9022  139.2437  143.1487 LP  0  0  0  0  0  0  0  0  0  0  0  0  # atno 17320 bound_to 7965
  145.9799  140.8691  143.0119 LP  0  0  0  0  0  0  0  0  0  0  0  0  # atno 17321 bound_to 7965
  139.5066  144.3677  152.0501 LP  0  0  0  0  0  0  0  0  0  0  0  0  # atno 17342 bound_to 10162
  140.2802  144.3868  150.6121 LP  0  0  0  0  0  0  0  0  0  0  0  0  # atno 17343 bound_to 10162
  157.7503  131.0138  150.3440 LP  0  0  0  0  0  0  0  0  0  0  0  0  # atno 17370 bound_to 10713
  156.3818  130.3882  149.7096 LP  0  0  0  0  0  0  0  0  0  0  0  0  # atno 17371 bound_to 10713
  141.0277  133.7006  156.1375 LP  0  0  0  0  0  0  0  0  0  0  0  0  # atno 17394 bound_to 11000
  140.7142  134.4428  157.5579 LP  0  0  0  0  0  0  0  0  0  0  0  0  # atno 17395 bound_to 11000

$$$$
