AV-unprocessed.smi:198|AV-procd|sdf|1554|dock2
  -GOLD-   2262019423D 1   1.00000     0.00000
 Structure written by MMmdl.
 59 63  0  0  0  0  0  0  0  0  2 V2000
  143.0849  133.1288  161.3006 C   0  0  0  0  0  0  0  0  0  0  0  0
  144.5564  132.9989  161.3667 N   0  3  1  0  0  0  0  0  0  0  0  0
  145.1429  132.5806  160.0713 C   0  0  0  0  0  0  0  0  0  0  0  0
  146.6517  132.3275  160.2145 C   0  0  0  0  0  0  0  0  0  0  0  0
  147.4013  133.5699  160.7541 C   0  0  2  0  0  0  0  0  0  0  0  0
  146.7321  134.0175  162.0779 C   0  0  1  0  0  0  0  0  0  0  0  0
  147.4309  135.2675  162.6482 C   0  0  0  0  0  0  0  0  0  0  0  0
  147.5140  136.3907  161.6031 C   0  0  0  0  0  0  0  0  0  0  0  0
  148.1518  135.8816  160.3029 C   0  0  0  0  0  0  0  0  0  0  0  0
  147.4648  134.6916  159.8038 N   0  0  0  0  0  0  0  0  0  0  0  0
  147.8758  134.3936  158.5511 C   0  0  0  0  0  0  0  0  0  0  0  0
  149.1725  134.0612  158.3185 N   0  0  0  0  0  0  0  0  0  0  0  0
  149.5690  133.7654  157.0767 C   0  0  0  0  0  0  0  0  0  0  0  0
  148.8480  133.7427  155.9528 N   0  0  0  0  0  0  0  0  0  0  0  0
  147.5468  134.0804  156.1876 C   0  0  0  0  0  0  0  0  0  0  0  0
  146.9834  134.4175  157.4491 C   0  0  0  0  0  0  0  0  0  0  0  0
  145.6299  134.6948  157.3133 N   0  0  0  0  0  0  0  0  0  0  0  0
  145.4037  134.5300  156.0383 C   0  0  0  0  0  0  0  0  0  0  0  0
  146.4999  134.1685  155.2853 N   0  0  0  0  0  0  0  0  0  0  0  0
  146.5256  133.9086  153.8738 C   0  0  0  0  0  0  0  0  0  0  0  0
  145.7372  134.7727  152.8865 C   0  0  0  0  0  0  0  0  0  0  0  0
  145.5077  133.5289  151.9967 C   0  0  0  0  0  0  0  0  0  0  0  0
  144.0936  133.3859  151.4098 C   0  0  0  0  0  0  0  0  0  0  0  0
  143.8413  134.3782  150.4359 O   0  0  0  0  0  0  0  0  0  0  0  0
  146.5448  133.3248  150.8738 C   0  0  0  0  0  0  0  0  0  0  0  0
  146.4273  132.0434  150.2886 O   0  0  0  0  0  0  0  0  0  0  0  0
  145.7679  132.7181  153.2864 C   0  0  0  0  0  0  0  0  0  0  0  0
  145.2082  134.2191  161.9019 C   0  0  0  0  0  0  0  0  0  0  0  0
  142.7923  133.9237  160.6133 H   0  0  0  0  0  0  0  0  0  0  0  0
  142.6738  133.3577  162.2843 H   0  0  0  0  0  0  0  0  0  0  0  0
  142.6308  132.1977  160.9600 H   0  0  0  0  0  0  0  0  0  0  0  0
  144.6540  131.6682  159.7274 H   0  0  0  0  0  0  0  0  0  0  0  0
  144.9532  133.3443  159.3155 H   0  0  0  0  0  0  0  0  0  0  0  0
  146.8024  131.4993  160.9082 H   0  0  0  0  0  0  0  0  0  0  0  0
  147.0667  131.9861  159.2661 H   0  0  0  0  0  0  0  0  0  0  0  0
  148.4293  133.2769  160.9742 H   0  0  0  0  0  0  0  0  0  0  0  0
  146.8645  133.2156  162.8058 H   0  0  0  0  0  0  0  0  0  0  0  0
  146.9165  135.6202  163.5428 H   0  0  0  0  0  0  0  0  0  0  0  0
  148.4409  135.0005  162.9623 H   0  0  0  0  0  0  0  0  0  0  0  0
  146.5197  136.7857  161.3942 H   0  0  0  0  0  0  0  0  0  0  0  0
  148.0947  137.2246  161.9980 H   0  0  0  0  0  0  0  0  0  0  0  0
  148.1269  136.6722  159.5510 H   0  0  0  0  0  0  0  0  0  0  0  0
  149.2023  135.6437  160.4777 H   0  0  0  0  0  0  0  0  0  0  0  0
  150.6130  133.5112  156.9679 H   0  0  0  0  0  0  0  0  0  0  0  0
  144.4210  134.6659  155.6104 H   0  0  0  0  0  0  0  0  0  0  0  0
  147.5751  133.8721  153.5772 H   0  0  0  0  0  0  0  0  0  0  0  0
  144.8120  135.1683  153.3082 H   0  0  0  0  0  0  0  0  0  0  0  0
  146.3212  135.5689  152.4242 H   0  0  0  0  0  0  0  0  0  0  0  0
  143.9694  132.4136  150.9321 H   0  0  0  0  0  0  0  0  0  0  0  0
  143.3283  133.4451  152.1839 H   0  0  0  0  0  0  0  0  0  0  0  0
  142.9177  134.3742  150.2363 H   0  0  0  0  0  0  0  0  0  0  0  0
  146.4185  134.0635  150.0823 H   0  0  0  0  0  0  0  0  0  0  0  0
  147.5632  133.4501  151.2425 H   0  0  0  0  0  0  0  0  0  0  0  0
  147.2453  131.5844  150.4038 H   0  0  0  0  0  0  0  0  0  0  0  0
  146.3736  131.8217  153.1499 H   0  0  0  0  0  0  0  0  0  0  0  0
  144.8534  132.4902  153.8373 H   0  0  0  0  0  0  0  0  0  0  0  0
  144.9990  135.0524  161.2300 H   0  0  0  0  0  0  0  0  0  0  0  0
  144.7606  134.4707  162.8642 H   0  0  0  0  0  0  0  0  0  0  0  0
  144.7498  132.2567  162.0240 H   0  0  0  0  0  0  0  0  0  0  0  0
  1  2  1  0  0  0  0
  1 29  1  0  0  0  0
  1 30  1  0  0  0  0
  1 31  1  0  0  0  0
  2 28  1  0  0  0  0
  2  3  1  0  0  0  0
  2 59  1  0  0  0  0
  3  4  1  0  0  0  0
  3 32  1  0  0  0  0
  3 33  1  0  0  0  0
  4  5  1  0  0  0  0
  4 34  1  0  0  0  0
  4 35  1  0  0  0  0
  5 10  1  0  0  0  0
  5  6  1  0  0  0  0
  5 36  1  0  0  0  0
  6  7  1  0  0  0  0
  6 28  1  0  0  0  0
  6 37  1  0  0  0  0
  7  8  1  0  0  0  0
  7 38  1  0  0  0  0
  7 39  1  0  0  0  0
  8  9  1  0  0  0  0
  8 40  1  0  0  0  0
  8 41  1  0  0  0  0
  9 10  1  0  0  0  0
  9 42  1  0  0  0  0
  9 43  1  0  0  0  0
 10 11  1  0  0  0  0
 11 16  1  0  0  0  0
 11 12  2  0  0  0  0
 12 13  1  0  0  0  0
 13 14  2  0  0  0  0
 13 44  1  0  0  0  0
 14 15  1  0  0  0  0
 15 19  1  0  0  0  0
 15 16  2  0  0  0  0
 16 17  1  0  0  0  0
 17 18  2  0  0  0  0
 18 19  1  0  0  0  0
 18 45  1  0  0  0  0
 19 20  1  0  0  0  0
 20 27  1  0  0  0  0
 20 21  1  0  0  0  0
 20 46  1  0  0  0  0
 21 22  1  0  0  0  0
 21 47  1  0  0  0  0
 21 48  1  0  0  0  0
 22 23  1  0  0  0  0
 22 25  1  0  0  0  0
 22 27  1  0  0  0  0
 23 24  1  0  0  0  0
 23 49  1  0  0  0  0
 23 50  1  0  0  0  0
 24 51  1  0  0  0  0
 25 26  1  0  0  0  0
 25 52  1  0  0  0  0
 25 53  1  0  0  0  0
 26 54  1  0  0  0  0
 27 55  1  0  0  0  0
 27 56  1  0  0  0  0
 28 57  1  0  0  0  0
 28 58  1  0  0  0  0
M  CHG  1   2   1
M  END
> <s_m_source_file>
AV-unprocessed.smi

> <i_m_source_file_index>
198

> <i_lp_mmshare_version>
43012

> <i_f3d_flags>
0

> <s_epik_input>
W0NIMl0xW0NIMl1OKFtDSDNdKVtDSDJdW0NAQEhdKFtDQEhdMTIpW0NIMl1bQ0gyXVtDSDJdTjJjKG5bY0hdbjMpYyhjMzQpbltjSF1uNFtDSF0oW0NIMl01KVtDSDJdQzUoW0NIMl1bT0hdKVtDSDJdW09IXQ==

> <s_epik_cmdline>
J2VwaWtfcHl0aG9uJywgJy1waCcsICc3LjAnLCAnLXRuJywgJzgnLCAnLW1hJywgJzIwMCcsICctbWV0YWxfYmluZGluZycsICctaW1hZScsICc8aW5maWxlLm1hZT4nLCAnLW9tYWUnLCAnPG91dGZpbGUubWFlPic=

> <r_lp_tautomer_probability>
1

> <r_epik_Ionization_Penalty>
0.00239938

> <r_epik_Ionization_Penalty_Charging>
0.00138697

> <r_epik_Ionization_Penalty_Neutral>
0.00101241

> <r_epik_State_Penalty>
-0

> <r_epik_Charging_Adjusted_Penalty>
0.00138697

> <i_epik_Tot_Q>
1

> <i_epik_Tot_abs_Q>
1

> <r_epik_Metal_State_Penalty>
-0

> <b_epik_Metal_Only>
0

> <s_lp_Force_Field>
OPLS_2005

> <r_lp_Energy>
58.6864

> <b_lp_Chiralities_Consistent>
1

> <s_lp_Variant>
AV-unprocessed.smi:198-3

> <Gold.Version>
5.8.1

> <Gold.Id.Protein>
6NUR|6NUR_protein|mol2

> <Gold.PLP.Fitness>
43.7496

> <Gold.PLP.PLP>
-35.2750

> <Gold.PLP.part.hbond>
-3.0000

> <Gold.PLP.part.metal>
0.0000

> <Gold.PLP.part.buried>
-6.5315

> <Gold.PLP.part.nonpolar>
-26.2127

> <Gold.PLP.part.repulsive>
0.0230

> <Gold.PLP.ligand.clash>
0.0000

> <Gold.PLP.ligand.torsion>
0.5767

> <Gold.PLP.Chemscore.Hbond>
2.9913

> <Gold.PLP.Chemscore.CHOScore>
0.0000

> <Gold.PLP.Chemscore.Metal>
0.0000

> <Gold.Chemscore.Hbonds>
donor molecule, donor type, donor heavy atom, donor atom, acceptor molecule, acceptor atom, score
      L1  H    24    51       P1 10186  1.00
      L1  H    26    54       P1 10747  1.00
      P1  H  6896  6908       L1    12  1.00

> <Gold.PLP.Chemscore.Internal.Correction>
0.6542

> <Gold.Rescore>
     Score         DG    S(hbond)    S(metal)    S(lipo)     H(rot)  DE(clash)    DE(int)     intcor
     16.42     -16.98       2.88        0.00      83.44       3.08       0.00       0.57       ----

> <Gold.Chemscore.Fitness>
16.4178

> <Gold.Chemscore.DG>
-16.9828

> <Gold.Chemscore.ZeroCoef>
-5.4800

> <Gold.Chemscore.Hbond>
2.8803

> <Gold.Chemscore.Metal>
0.0000

> <Gold.Chemscore.Lipo>
83.4403

> <Gold.Chemscore.Internal_Hbond>
0.0000

> <Gold.Chemscore.DEClash>
0.0000

> <Gold.Chemscore.DEInternal>
0.5651

> <Gold.Chemscore.Rot>
3.0781

> <Gold.Chemscore.Internal.Correction>
   9.000000E+99

> <Gold.Chemscore.Hbonds>
donor molecule, donor type, donor heavy atom, donor atom, acceptor molecule, acceptor atom, score
      L1  H    24    51       P1 10186  0.77
      L1  H    26    54       P1 10747  1.00
      P1  H  6896  6908       L1    12  0.29

> <Gold.Chemscore.Hbond.Weighted>
-9.6203

> <Gold.Chemscore.Metal.Weighted>
-0.0000

> <Gold.Chemscore.Lipo.Weighted>
-9.7625

> <Gold.Chemscore.Internal_Hbond.Weighted>
0.0000

> <Gold.Chemscore.DEClash.Weighted>
0.0000

> <Gold.Chemscore.DEInternal.Weighted>
0.5651

> <Gold.Chemscore.Rot.Weighted>
7.8800

> <Gold.Chemscore.Internal.Correction.Weighted>
   9.000000E+99

> <Gold.Protein.RotatedTorsions>
[ 6907 6896 6895 6894 ] final  120.33 input  -60.11 | X-H torsion
[ 7974 7965 7964 7962 ] final   -3.47 input  175.53 | X-H torsion
[ 8008 7997 7996 7995 ] final -123.98 input   59.86 | X-H torsion
[ 10167 10162 10161 10158 ] final   63.63 input  -65.29 | X-H torsion
[ 10718 10713 10712 10709 ] final   73.06 input   66.30 | X-H torsion
[ 10763 10752 10751 10750 ] final   75.12 input  -60.55 | X-H torsion
[ 11005 11000 10999 10996 ] final  -11.71 input  -57.11 | X-H torsion

> <Gold.Protein.ActiveResidues>
 VAL166  LYS551  ARG553  GLY616  TRP617  ASP618  TYR619  PRO620  LYS621  CYS622 
 ASP623  PHE694  ASN695  SER759  ASP760  ASP761  ALA762  ILE779  LEU786  VAL792 
 PHE793  MET794  SER795  GLU796  ALA797  LYS798  CYS799  TRP800  GLU811  SER814 

> <Gold.Protein.RotatedAtoms>
  152.4406  133.7441  159.6656 H   0  0  0  0  0  0  0  0  0  0  0  0  # atno 6907 bound_to 6896
  150.8296  133.8103  159.3110 H   0  0  0  0  0  0  0  0  0  0  0  0  # atno 6908 bound_to 6896
  151.5761  135.1063  160.0058 H   0  0  0  0  0  0  0  0  0  0  0  0  # atno 6909 bound_to 6896
  146.2389  140.1725  142.8332 H   0  0  0  0  0  0  0  0  0  0  0  0  # atno 7974 bound_to 7965
  155.1894  140.0413  157.2897 H   0  0  0  0  0  0  0  0  0  0  0  0  # atno 8008 bound_to 7997
  154.6149  140.2486  155.7594 H   0  0  0  0  0  0  0  0  0  0  0  0  # atno 8009 bound_to 7997
  156.2400  140.2907  156.0429 H   0  0  0  0  0  0  0  0  0  0  0  0  # atno 8010 bound_to 7997
  140.1309  144.4643  150.6865 H   0  0  0  0  0  0  0  0  0  0  0  0  # atno 10167 bound_to 10162
  157.6530  130.9609  150.1015 H   0  0  0  0  0  0  0  0  0  0  0  0  # atno 10718 bound_to 10713
  153.0633  135.5000  154.8142 H   0  0  0  0  0  0  0  0  0  0  0  0  # atno 10763 bound_to 10752
  154.6915  135.2985  154.9475 H   0  0  0  0  0  0  0  0  0  0  0  0  # atno 10764 bound_to 10752
  154.0228  135.6740  153.4826 H   0  0  0  0  0  0  0  0  0  0  0  0  # atno 10765 bound_to 10752
  140.7581  133.8537  155.9101 H   0  0  0  0  0  0  0  0  0  0  0  0  # atno 11005 bound_to 11000
  145.0000  140.8623  143.5288 LP  0  0  0  0  0  0  0  0  0  0  0  0  # atno 17320 bound_to 7965
  145.1743  139.2387  143.5325 LP  0  0  0  0  0  0  0  0  0  0  0  0  # atno 17321 bound_to 7965
  140.6817  143.2330  151.5366 LP  0  0  0  0  0  0  0  0  0  0  0  0  # atno 17342 bound_to 10162
  139.5520  144.2372  152.1547 LP  0  0  0  0  0  0  0  0  0  0  0  0  # atno 17343 bound_to 10162
  156.1937  130.3656  149.8877 LP  0  0  0  0  0  0  0  0  0  0  0  0  # atno 17370 bound_to 10713
  156.6799  130.8854  151.3574 LP  0  0  0  0  0  0  0  0  0  0  0  0  # atno 17371 bound_to 10713
  140.9689  134.1558  157.4593 LP  0  0  0  0  0  0  0  0  0  0  0  0  # atno 17394 bound_to 11000
  139.8775  134.9971  156.5831 LP  0  0  0  0  0  0  0  0  0  0  0  0  # atno 17395 bound_to 11000

$$$$
