#       Name:                AV-unprocessed.smi:2976
#       Creating user name   scv26
#       Creation time:       Fri Mar 27 16:28:24 2020


#       File generated by GOLD software.
#

@<TRIPOS>MOLECULE
AV-unprocessed.smi:2976
    45    46     1
SMALL
NO_CHARGES


@<TRIPOS>ATOM
      1 ****        -2.2962  -1.8264   1.5653 C.3            1 S1                 0.0000
      2 ****        -1.5858  -1.1587   0.3744 C.3            1 S1                 0.0000
      3 ****        -1.8432  -1.9757  -0.9090 C.3            1 S1                 0.0000
      4 ****        -1.1515  -1.3642  -2.1343 C.3            1 S1                 0.0000
      5 ****        -1.5830   0.0955  -2.3353 C.3            1 S1                 0.0000
      6 ****        -1.3238   0.9448  -1.0756 C.3            1 S1                 0.0000
      7 ****         0.1105   1.1088  -0.8528 N.am           1 S1                 0.0000
      8 ****         0.9102   2.0281  -1.4177 C.2            1 S1                 0.0000
      9 ****         0.5043   2.8636  -2.2242 O.2            1 S1                 0.0000
     10 ****         2.3992   2.0170  -1.0278 C.3            1 S1                 0.0000
     11 ****         2.7499   1.0390   0.0167 N.am           1 S1                 0.0000
     12 ****         3.2004  -0.1736  -0.4761 N.2            1 S1                 0.0000
     13 ****         3.4903  -1.1236   0.3445 C.2            1 S1                 0.0000
     14 ****         3.3658  -0.9687   1.7769 C.2            1 S1                 0.0000
     15 ****         3.7671  -2.2800   2.8286 Cl             1 S1                 0.0000
     16 ****         2.9304   0.2259   2.2500 C.2            1 S1                 0.0000
     17 ****         2.7526   0.4859   3.9513 Cl             1 S1                 0.0000
     18 ****         2.5886   1.3312   1.3443 C.2            1 S1                 0.0000
     19 ****         2.1755   2.4241   1.7335 O.2            1 S1                 0.0000
     20 ****        -2.0018   0.3268   0.1751 C.3            1 S1                 0.0000
     21 ****        -1.7550   1.1936   1.4275 C.3            1 S1                 0.0000
     22 ****        -3.3802  -1.7735   1.4607 H              1 S1                 0.0000
     23 ****        -2.0259  -1.3600   2.5122 H              1 S1                 0.0000
     24 ****        -2.0226  -2.8790   1.6428 H              1 S1                 0.0000
     25 ****        -0.5144  -1.1909   0.5784 H              1 S1                 0.0000
     26 ****        -1.4954  -3.0006  -0.7745 H              1 S1                 0.0000
     27 ****        -2.9163  -2.0391  -1.0953 H              1 S1                 0.0000
     28 ****        -0.0690  -1.4203  -2.0126 H              1 S1                 0.0000
     29 ****        -1.3907  -1.9465  -3.0243 H              1 S1                 0.0000
     30 ****        -1.0676   0.5222  -3.1964 H              1 S1                 0.0000
     31 ****        -2.6465   0.1254  -2.5754 H              1 S1                 0.0000
     32 ****        -1.7588   1.9329  -1.2380 H              1 S1                 0.0000
     33 ****         0.5358   0.4627  -0.2040 H              1 S1                 0.0000
     34 ****         2.9794   1.8163  -1.9302 H              1 S1                 0.0000
     35 ****         2.6883   3.0234  -0.7198 H              1 S1                 0.0000
     36 ****         3.8450  -2.0959   0.0025 H              1 S1                 0.0000
     37 ****        -3.0771   0.3423  -0.0102 H              1 S1                 0.0000
     38 ****        -0.7206   1.1284   1.7672 H              1 S1                 0.0000
     39 ****        -2.3958   0.8943   2.2564 H              1 S1                 0.0000
     40 ****        -1.9714   2.2429   1.2251 H              1 S1                 0.0000
     41 ****        -0.4607   2.8782  -2.4861 LP             1 S1                 0.0000
     42 ****         1.1393   3.5283  -2.6179 LP             1 S1                 0.0000
     43 ****         3.3001  -0.3111  -1.4616 LP             1 S1                 0.0000
     44 ****         1.9444   3.1363   1.0706 LP             1 S1                 0.0000
     45 ****         2.0711   2.5995   2.7125 LP             1 S1                 0.0000
@<TRIPOS>BOND
    1    1    2 1     
    2    1   22 1     
    3    1   23 1     
    4    1   24 1     
    5    2   20 1     
    6    2    3 1     
    7    2   25 1     
    8    3    4 1     
    9    3   26 1     
   10    3   27 1     
   11    4    5 1     
   12    4   28 1     
   13    4   29 1     
   14    5    6 1     
   15    5   30 1     
   16    5   31 1     
   17    6    7 1     
   18    6   20 1     
   19    6   32 1     
   20    7    8 am    
   21    7   33 1     
   22    8    9 2     
   23    8   10 1     
   24   10   11 1     
   25   10   34 1     
   26   10   35 1     
   27   11   18 am    
   28   11   12 1     
   29   12   13 2     
   30   13   14 1     
   31   13   36 1     
   32   14   15 1     
   33   14   16 2     
   34   16   17 1     
   35   16   18 1     
   36   18   19 2     
   37   20   21 1     
   38   20   37 1     
   39   21   38 1     
   40   21   39 1     
   41   21   40 1     
   42    9   41 1     
   43    9   42 1     
   44   12   43 1     
   45   19   44 1     
   46   19   45 1     
@<TRIPOS>SUBSTRUCTURE
      1 S1             1
@<TRIPOS>SET
LONE_PAIRS      STATIC     ATOMS    <user>   **** ""
5 41 42 43 44 45
DONOR_HYDROGENS      STATIC     ATOMS    <user>   **** ""
1 33
ATOM$BLUE        STATIC     ATOMS    COLORGROUP SYSTEM
5 41 42 43 44 45
ATOM$RED        STATIC     ATOMS    COLORGROUP SYSTEM
1 33
