AV-unprocessed.smi:124|AV-procd|sdf|1147|dock2
  -GOLD-   2262018283D 1   1.00000     0.00000
 Structure written by MMmdl.
 52 56  0  0  0  0  0  0  0  0  1 V2000
  151.4714  137.8871  159.3555 O   0  0  0  0  0  0  0  0  0  0  0  0
  152.1916  138.6414  158.6992 C   0  0  0  0  0  0  0  0  0  0  0  0
  153.4453  138.0657  158.0133 C   0  0  0  0  0  0  0  0  0  0  0  0
  154.6034  137.9819  158.8978 N   0  0  0  0  0  0  0  0  0  0  0  0
  154.9764  136.7010  159.3762 C   0  0  0  0  0  0  0  0  0  0  0  0
  154.3603  135.6797  159.0658 O   0  0  0  0  0  0  0  0  0  0  0  0
  156.1247  136.7026  160.2743 C   0  0  0  0  0  0  0  0  0  0  0  0
  156.5402  135.5488  160.8237 F   0  0  0  0  0  0  0  0  0  0  0  0
  156.7717  137.8485  160.5775 C   0  0  0  0  0  0  0  0  0  0  0  0
  156.4183  139.0833  160.0571 N   0  0  0  0  0  0  0  0  0  0  0  0
  157.1065  140.3564  160.5052 C   0  0  2  0  0  0  0  0  0  0  0  0
  157.7093  141.1826  159.3553 C   0  0  0  0  0  0  0  0  0  0  0  0
  159.1958  140.9293  159.5159 C   0  0  0  0  0  0  0  0  0  0  0  0
  159.3141  140.7208  161.0205 C   0  0  0  0  0  0  0  0  0  0  0  0
  158.1433  139.9924  161.3660 O   0  0  0  0  0  0  0  0  0  0  0  0
  155.2662  139.1852  159.2434 C   0  0  0  0  0  0  0  0  0  0  0  0
  154.8575  140.2820  158.8549 O   0  0  0  0  0  0  0  0  0  0  0  0
  151.9387  140.0754  158.5026 C   0  0  0  0  0  0  0  0  0  0  0  0
  151.2498  140.5829  157.4171 C   0  0  0  0  0  0  0  0  0  0  0  0
  150.5983  139.9428  156.2799 C   0  0  0  0  0  0  0  0  0  0  0  0
  149.5996  140.6257  155.5533 C   0  0  0  0  0  0  0  0  0  0  0  0
  148.9639  140.0077  154.4589 C   0  0  0  0  0  0  0  0  0  0  0  0
  149.3205  138.6983  154.0847 C   0  0  0  0  0  0  0  0  0  0  0  0
  150.3129  138.0084  154.8066 C   0  0  0  0  0  0  0  0  0  0  0  0
  150.9473  138.6286  155.9004 C   0  0  0  0  0  0  0  0  0  0  0  0
  151.2138  141.9613  157.4992 N   0  0  0  0  0  0  0  0  0  0  0  0
  151.8466  142.4021  158.6375 C   0  0  0  0  0  0  0  0  0  0  0  0
  152.0526  143.6978  159.1457 C   0  0  0  0  0  0  0  0  0  0  0  0
  152.7413  143.8652  160.3585 C   0  0  0  0  0  0  0  0  0  0  0  0
  153.2150  142.7355  161.0482 C   0  0  0  0  0  0  0  0  0  0  0  0
  153.0044  141.4424  160.5287 C   0  0  0  0  0  0  0  0  0  0  0  0
  152.3148  141.2285  159.3049 C   0  0  0  0  0  0  0  0  0  0  0  0
  150.7632  142.5409  156.8058 H   0  0  0  0  0  0  0  0  0  0  0  0
  153.2542  137.0623  157.6312 H   0  0  0  0  0  0  0  0  0  0  0  0
  153.7273  138.6690  157.1495 H   0  0  0  0  0  0  0  0  0  0  0  0
  157.5965  137.7776  161.2682 H   0  0  0  0  0  0  0  0  0  0  0  0
  156.3531  140.9431  161.0327 H   0  0  0  0  0  0  0  0  0  0  0  0
  157.3031  140.9267  158.3768 H   0  0  0  0  0  0  0  0  0  0  0  0
  157.4913  142.2347  159.5440 H   0  0  0  0  0  0  0  0  0  0  0  0
  159.4935  140.0235  158.9875 H   0  0  0  0  0  0  0  0  0  0  0  0
  159.8105  141.7526  159.1516 H   0  0  0  0  0  0  0  0  0  0  0  0
  160.2191  140.1824  161.3023 H   0  0  0  0  0  0  0  0  0  0  0  0
  159.3076  141.6788  161.5426 H   0  0  0  0  0  0  0  0  0  0  0  0
  149.3205  141.6308  155.8338 H   0  0  0  0  0  0  0  0  0  0  0  0
  148.2027  140.5388  153.9065 H   0  0  0  0  0  0  0  0  0  0  0  0
  148.8335  138.2237  153.2456 H   0  0  0  0  0  0  0  0  0  0  0  0
  150.5879  137.0035  154.5225 H   0  0  0  0  0  0  0  0  0  0  0  0
  151.7075  138.0927  156.4499 H   0  0  0  0  0  0  0  0  0  0  0  0
  151.6829  144.5583  158.6082 H   0  0  0  0  0  0  0  0  0  0  0  0
  152.9045  144.8550  160.7589 H   0  0  0  0  0  0  0  0  0  0  0  0
  153.7433  142.8596  161.9821 H   0  0  0  0  0  0  0  0  0  0  0  0
  153.3851  140.6106  161.0974 H   0  0  0  0  0  0  0  0  0  0  0  0
  1  2  2  0  0  0  0
  2  3  1  0  0  0  0
  2 18  1  0  0  0  0
  3  4  1  0  0  0  0
  3 34  1  0  0  0  0
  3 35  1  0  0  0  0
  4 16  1  0  0  0  0
  4  5  1  0  0  0  0
  5  6  2  0  0  0  0
  5  7  1  0  0  0  0
  7  8  1  0  0  0  0
  7  9  2  0  0  0  0
  9 10  1  0  0  0  0
  9 36  1  0  0  0  0
 10 11  1  0  0  0  0
 10 16  1  0  0  0  0
 11 15  1  0  0  0  0
 11 12  1  0  0  0  0
 11 37  1  0  0  0  0
 12 13  1  0  0  0  0
 12 38  1  0  0  0  0
 12 39  1  0  0  0  0
 13 14  1  0  0  0  0
 13 40  1  0  0  0  0
 13 41  1  0  0  0  0
 14 15  1  0  0  0  0
 14 42  1  0  0  0  0
 14 43  1  0  0  0  0
 16 17  2  0  0  0  0
 18 32  1  0  0  0  0
 18 19  2  0  0  0  0
 19 20  1  0  0  0  0
 19 26  1  0  0  0  0
 20 25  1  0  0  0  0
 20 21  2  0  0  0  0
 21 22  1  0  0  0  0
 21 44  1  0  0  0  0
 22 23  2  0  0  0  0
 22 45  1  0  0  0  0
 23 24  1  0  0  0  0
 23 46  1  0  0  0  0
 24 25  2  0  0  0  0
 24 47  1  0  0  0  0
 25 48  1  0  0  0  0
 26 33  1  0  0  0  0
 26 27  1  0  0  0  0
 27 32  1  0  0  0  0
 27 28  2  0  0  0  0
 28 29  1  0  0  0  0
 28 49  1  0  0  0  0
 29 30  2  0  0  0  0
 29 50  1  0  0  0  0
 30 31  1  0  0  0  0
 30 51  1  0  0  0  0
 31 32  2  0  0  0  0
 31 52  1  0  0  0  0
M  END
> <s_m_source_file>
AV-unprocessed.smi

> <i_m_source_file_index>
124

> <i_lp_mmshare_version>
43012

> <i_f3d_flags>
0

> <s_epik_input>
W2NIXTFbY0hdW2NIXVtjSF1bY0hdYzEtYyhbbkhdMiljKGMoYzIzKVtjSF1bY0hdW2NIXVtjSF0zKUMoPU8pW0NIMl1uNGMoPU8pYyhGKVtjSF1uKGM0PU8pW0NAQEhdNVtDSDJdW0NIMl1bQ0gyXU81

> <s_epik_cmdline>
J2VwaWtfcHl0aG9uJywgJy1waCcsICc3LjAnLCAnLXRuJywgJzgnLCAnLW1hJywgJzIwMCcsICctbWV0YWxfYmluZGluZycsICctaW1hZScsICc8aW5maWxlLm1hZT4nLCAnLW9tYWUnLCAnPG91dGZpbGUubWFlPic=

> <r_lp_tautomer_probability>
1

> <r_epik_Ionization_Penalty>
1.43207e-08

> <r_epik_Ionization_Penalty_Charging>
5.01743e-09

> <r_epik_Ionization_Penalty_Neutral>
9.30329e-09

> <r_epik_State_Penalty>
-0

> <r_epik_Charging_Adjusted_Penalty>
5.01743e-09

> <i_epik_Tot_Q>
0

> <i_epik_Tot_abs_Q>
0

> <r_epik_Metal_State_Penalty>
-0

> <b_epik_Metal_Only>
0

> <s_epik_Chemistry_Notes>
This compound contains an acetal/aminal-like group ( X-CH(R)-Y where X, Y are N, S, or O) that may be acid/base labile, releasing an aldehyde.

> <s_lp_Force_Field>
OPLS_2005

> <r_lp_Energy>
48.315

> <b_lp_Chiralities_Consistent>
1

> <s_lp_Variant>
AV-unprocessed.smi:124-1

> <Gold.Version>
5.8.1

> <Gold.Id.Protein>
6NUR|6NUR_protein|mol2

> <Gold.PLP.Fitness>
46.3723

> <Gold.PLP.PLP>
-43.2416

> <Gold.PLP.part.hbond>
-2.5066

> <Gold.PLP.part.metal>
0.0000

> <Gold.PLP.part.buried>
-5.6855

> <Gold.PLP.part.nonpolar>
-36.1768

> <Gold.PLP.part.repulsive>
0.0537

> <Gold.PLP.ligand.clash>
0.0000

> <Gold.PLP.ligand.torsion>
2.2316

> <Gold.PLP.Chemscore.Hbond>
2.0000

> <Gold.PLP.Chemscore.CHOScore>
0.0000

> <Gold.PLP.Chemscore.Metal>
0.0000

> <Gold.Chemscore.Hbonds>
donor molecule, donor type, donor heavy atom, donor atom, acceptor molecule, acceptor atom, score
      P1  H  6896  6909       L1     6  0.23
      P1  H  7997  8008       L1    17  0.74

> <Gold.PLP.Chemscore.Internal.Correction>
1.5938

> <Gold.Rescore>
     Score         DG    S(hbond)    S(metal)    S(lipo)     H(rot)  DE(clash)    DE(int)     intcor
     20.16     -22.76       1.85        0.00     128.93       1.55       0.07       2.54       ----

> <Gold.Chemscore.Fitness>
20.1583

> <Gold.Chemscore.DG>
-22.7644

> <Gold.Chemscore.ZeroCoef>
-5.4800

> <Gold.Chemscore.Hbond>
1.8493

> <Gold.Chemscore.Metal>
0.0000

> <Gold.Chemscore.Lipo>
128.9329

> <Gold.Chemscore.Internal_Hbond>
0.0000

> <Gold.Chemscore.DEClash>
0.0695

> <Gold.Chemscore.DEInternal>
2.5366

> <Gold.Chemscore.Rot>
1.5537

> <Gold.Chemscore.Internal.Correction>
   9.000000E+99

> <Gold.Chemscore.Hbonds>
donor molecule, donor type, donor heavy atom, donor atom, acceptor molecule, acceptor atom, score
      P1  H  6896  6909       L1     6  0.23
      P1  H  7997  8008       L1    17  0.16

> <Gold.Chemscore.Hbond.Weighted>
-6.1767

> <Gold.Chemscore.Metal.Weighted>
-0.0000

> <Gold.Chemscore.Lipo.Weighted>
-15.0852

> <Gold.Chemscore.Internal_Hbond.Weighted>
0.0000

> <Gold.Chemscore.DEClash.Weighted>
0.0695

> <Gold.Chemscore.DEInternal.Weighted>
2.5366

> <Gold.Chemscore.Rot.Weighted>
3.9774

> <Gold.Chemscore.Internal.Correction.Weighted>
   9.000000E+99

> <Gold.Protein.RotatedTorsions>
[ 6907 6896 6895 6894 ] final -175.50 input  -60.11 | X-H torsion
[ 7974 7965 7964 7962 ] final -134.25 input  175.53 | X-H torsion
[ 8008 7997 7996 7995 ] final -111.51 input   59.86 | X-H torsion
[ 10167 10162 10161 10158 ] final  127.17 input  -65.29 | X-H torsion
[ 10718 10713 10712 10709 ] final -143.24 input   66.30 | X-H torsion
[ 10763 10752 10751 10750 ] final -114.14 input  -60.55 | X-H torsion
[ 11005 11000 10999 10996 ] final   16.74 input  -57.11 | X-H torsion

> <Gold.Protein.ActiveResidues>
 VAL166  LYS551  ARG553  GLY616  TRP617  ASP618  TYR619  PRO620  LYS621  CYS622 
 ASP623  PHE694  ASN695  SER759  ASP760  ASP761  ALA762  ILE779  LEU786  VAL792 
 PHE793  MET794  SER795  GLU796  ALA797  LYS798  CYS799  TRP800  GLU811  SER814 

> <Gold.Protein.RotatedAtoms>
  151.5896  133.3368  159.3024 H   0  0  0  0  0  0  0  0  0  0  0  0  # atno 6907 bound_to 6896
  150.8267  134.7505  159.6830 H   0  0  0  0  0  0  0  0  0  0  0  0  # atno 6908 bound_to 6896
  152.4356  134.5699  159.9970 H   0  0  0  0  0  0  0  0  0  0  0  0  # atno 6909 bound_to 6896
  144.9119  140.6906  143.5019 H   0  0  0  0  0  0  0  0  0  0  0  0  # atno 7974 bound_to 7965
  154.9910  140.0395  157.2319 H   0  0  0  0  0  0  0  0  0  0  0  0  # atno 8008 bound_to 7997
  154.7628  140.2787  155.6177 H   0  0  0  0  0  0  0  0  0  0  0  0  # atno 8009 bound_to 7997
  156.2907  140.2625  156.2411 H   0  0  0  0  0  0  0  0  0  0  0  0  # atno 8010 bound_to 7997
  139.5592  144.6870  151.4092 H   0  0  0  0  0  0  0  0  0  0  0  0  # atno 10167 bound_to 10162
  156.3556  130.7711  151.1871 H   0  0  0  0  0  0  0  0  0  0  0  0  # atno 10718 bound_to 10713
  154.8427  135.4429  154.1458 H   0  0  0  0  0  0  0  0  0  0  0  0  # atno 10763 bound_to 10752
  153.2632  135.6938  153.7563 H   0  0  0  0  0  0  0  0  0  0  0  0  # atno 10764 bound_to 10752
  153.6832  135.3399  155.3159 H   0  0  0  0  0  0  0  0  0  0  0  0  # atno 10765 bound_to 10752
  140.4437  134.1295  155.7693 H   0  0  0  0  0  0  0  0  0  0  0  0  # atno 11005 bound_to 11000
  145.3439  139.1724  143.4471 LP  0  0  0  0  0  0  0  0  0  0  0  0  # atno 17320 bound_to 7965
  146.3163  140.3484  142.8654 LP  0  0  0  0  0  0  0  0  0  0  0  0  # atno 17321 bound_to 7965
  140.6870  143.7951  150.7200 LP  0  0  0  0  0  0  0  0  0  0  0  0  # atno 17342 bound_to 10162
  140.1422  143.4431  152.2186 LP  0  0  0  0  0  0  0  0  0  0  0  0  # atno 17343 bound_to 10162
  157.7467  131.0415  150.4648 LP  0  0  0  0  0  0  0  0  0  0  0  0  # atno 17370 bound_to 10713
  156.4851  130.4082  149.6439 LP  0  0  0  0  0  0  0  0  0  0  0  0  # atno 17371 bound_to 10713
  141.1694  133.8638  157.1616 LP  0  0  0  0  0  0  0  0  0  0  0  0  # atno 17394 bound_to 11000
  140.0052  135.0011  157.0278 LP  0  0  0  0  0  0  0  0  0  0  0  0  # atno 17395 bound_to 11000

$$$$
