AV-unprocessed.smi:299|AV-procd|sdf|2266|dock2
  -GOLD-   2262022153D 1   1.00000     0.00000
 Structure written by MMmdl.
 42 43  0  0  0  0  0  0  0  0  2 V2000
  149.8646  144.3046  159.6921 C   0  0  0  0  0  0  0  0  0  0  0  0
  151.2821  144.1632  159.0951 C   0  0  1  0  0  0  0  0  0  0  0  0
  152.3861  144.3152  160.1624 C   0  0  0  0  0  0  0  0  0  0  0  0
  152.4704  143.0889  161.0828 C   0  0  0  0  0  0  0  0  0  0  0  0
  152.6389  141.8145  160.2469 C   0  0  0  0  0  0  0  0  0  0  0  0
  151.5304  141.6901  159.1885 C   0  0  0  0  0  0  0  0  0  0  0  0
  151.4770  142.9000  158.3218 N   0  3  1  0  0  0  0  0  0  0  0  0
  150.5566  142.7642  157.1632 C   0  0  0  0  0  0  0  0  0  0  0  0
  150.9807  141.6345  156.2060 C   0  0  0  0  0  0  0  0  0  0  0  0
  149.8757  141.2212  155.2152 C   0  0  0  0  0  0  0  0  0  0  0  0
  149.8159  139.7791  154.9982 N   0  0  0  0  0  0  0  0  0  0  0  0
  150.8668  138.9945  154.7115 C   0  0  0  0  0  0  0  0  0  0  0  0
  152.0216  139.4112  154.6288 O   0  0  0  0  0  0  0  0  0  0  0  0
  150.5719  137.5117  154.4849 C   0  0  0  0  0  0  0  0  0  0  0  0
  150.7650  136.7508  155.7047 N   0  0  0  0  0  0  0  0  0  0  0  0
  150.0510  136.7040  156.8314 C   0  0  0  0  0  0  0  0  0  0  0  0
  150.5888  135.8785  157.7162 N   0  0  0  0  0  0  0  0  0  0  0  0
  151.7101  135.3991  157.0592 N   0  0  0  0  0  0  0  0  0  0  0  0
  151.8200  135.9133  155.8651 N   0  0  0  0  0  0  0  0  0  0  0  0
  149.7676  145.2473  160.2309 H   0  0  0  0  0  0  0  0  0  0  0  0
  149.6274  143.5063  160.3946 H   0  0  0  0  0  0  0  0  0  0  0  0
  149.0973  144.3034  158.9183 H   0  0  0  0  0  0  0  0  0  0  0  0
  151.4128  144.9884  158.3938 H   0  0  0  0  0  0  0  0  0  0  0  0
  153.3476  144.4527  159.6658 H   0  0  0  0  0  0  0  0  0  0  0  0
  152.2208  145.2166  160.7537 H   0  0  0  0  0  0  0  0  0  0  0  0
  153.3057  143.1965  161.7753 H   0  0  0  0  0  0  0  0  0  0  0  0
  151.5710  143.0152  161.6945 H   0  0  0  0  0  0  0  0  0  0  0  0
  153.6128  141.8263  159.7556 H   0  0  0  0  0  0  0  0  0  0  0  0
  152.6326  140.9395  160.8976 H   0  0  0  0  0  0  0  0  0  0  0  0
  151.7262  140.8039  158.5864 H   0  0  0  0  0  0  0  0  0  0  0  0
  150.5647  141.5274  159.6676 H   0  0  0  0  0  0  0  0  0  0  0  0
  149.5366  142.6115  157.5190 H   0  0  0  0  0  0  0  0  0  0  0  0
  150.5526  143.6974  156.5986 H   0  0  0  0  0  0  0  0  0  0  0  0
  151.8523  141.9572  155.6358 H   0  0  0  0  0  0  0  0  0  0  0  0
  151.2997  140.7581  156.7694 H   0  0  0  0  0  0  0  0  0  0  0  0
  148.9048  141.5467  155.5891 H   0  0  0  0  0  0  0  0  0  0  0  0
  150.0202  141.7275  154.2595 H   0  0  0  0  0  0  0  0  0  0  0  0
  148.9024  139.3495  155.0357 H   0  0  0  0  0  0  0  0  0  0  0  0
  149.5415  137.3817  154.1514 H   0  0  0  0  0  0  0  0  0  0  0  0
  151.2175  137.1140  153.7000 H   0  0  0  0  0  0  0  0  0  0  0  0
  149.1489  137.2724  157.0028 H   0  0  0  0  0  0  0  0  0  0  0  0
  152.3994  142.9865  157.9192 H   0  0  0  0  0  0  0  0  0  0  0  0
  1  2  1  0  0  0  0
  1 20  1  0  0  0  0
  1 21  1  0  0  0  0
  1 22  1  0  0  0  0
  2  7  1  0  0  0  0
  2  3  1  0  0  0  0
  2 23  1  0  0  0  0
  3  4  1  0  0  0  0
  3 24  1  0  0  0  0
  3 25  1  0  0  0  0
  4  5  1  0  0  0  0
  4 26  1  0  0  0  0
  4 27  1  0  0  0  0
  5  6  1  0  0  0  0
  5 28  1  0  0  0  0
  5 29  1  0  0  0  0
  6  7  1  0  0  0  0
  6 30  1  0  0  0  0
  6 31  1  0  0  0  0
  7  8  1  0  0  0  0
  7 42  1  0  0  0  0
  8  9  1  0  0  0  0
  8 32  1  0  0  0  0
  8 33  1  0  0  0  0
  9 10  1  0  0  0  0
  9 34  1  0  0  0  0
  9 35  1  0  0  0  0
 10 11  1  0  0  0  0
 10 36  1  0  0  0  0
 10 37  1  0  0  0  0
 11 12  1  0  0  0  0
 11 38  1  0  0  0  0
 12 13  2  0  0  0  0
 12 14  1  0  0  0  0
 14 15  1  0  0  0  0
 14 39  1  0  0  0  0
 14 40  1  0  0  0  0
 15 19  1  0  0  0  0
 15 16  1  0  0  0  0
 16 17  2  0  0  0  0
 16 41  1  0  0  0  0
 17 18  1  0  0  0  0
 18 19  2  0  0  0  0
M  CHG  1   7   1
M  END
> <s_m_source_file>
AV-unprocessed.smi

> <i_m_source_file_index>
299

> <i_lp_mmshare_version>
43012

> <i_f3d_flags>
0

> <s_epik_input>
W0NIM11bQ0BASF0xW0NIMl1bQ0gyXVtDSDJdW0NIMl1OMVtDSDJdW0NIMl1bQ0gyXVtOSF1DKD1PKVtDSDJdbjJbY0hdbm5uMg==

> <s_epik_cmdline>
J2VwaWtfcHl0aG9uJywgJy1waCcsICc3LjAnLCAnLXRuJywgJzgnLCAnLW1hJywgJzIwMCcsICctbWV0YWxfYmluZGluZycsICctaW1hZScsICc8aW5maWxlLm1hZT4nLCAnLW9tYWUnLCAnPG91dGZpbGUubWFlPic=

> <r_lp_tautomer_probability>
1

> <r_epik_Ionization_Penalty>
0.000544863

> <r_epik_Ionization_Penalty_Charging>
0.000543475

> <r_epik_Ionization_Penalty_Neutral>
1.38784e-06

> <r_epik_State_Penalty>
0.000340025

> <r_epik_Charging_Adjusted_Penalty>
0.0008835

> <i_epik_Tot_Q>
1

> <i_epik_Tot_abs_Q>
1

> <r_epik_Metal_State_Penalty>
-0

> <b_epik_Metal_Only>
0

> <s_lp_Force_Field>
OPLS_2005

> <r_lp_Energy>
24.6376

> <b_lp_Chiralities_Consistent>
1

> <s_lp_Variant>
AV-unprocessed.smi:299-2

> <Gold.Version>
5.8.1

> <Gold.Id.Protein>
6NUR|6NUR_protein|mol2

> <Gold.PLP.Fitness>
42.9860

> <Gold.PLP.PLP>
-37.3518

> <Gold.PLP.part.hbond>
-4.0000

> <Gold.PLP.part.metal>
0.0000

> <Gold.PLP.part.buried>
-4.9038

> <Gold.PLP.part.nonpolar>
-28.2934

> <Gold.PLP.part.repulsive>
0.1872

> <Gold.PLP.ligand.clash>
0.0000

> <Gold.PLP.ligand.torsion>
0.9073

> <Gold.PLP.Chemscore.Hbond>
2.4592

> <Gold.PLP.Chemscore.CHOScore>
0.0000

> <Gold.PLP.Chemscore.Metal>
0.0000

> <Gold.Chemscore.Hbonds>
donor molecule, donor type, donor heavy atom, donor atom, acceptor molecule, acceptor atom, score
      P1  H  6896  6907       L1    17  0.31
      P1  H  7989  7998       L1    13  0.76
      P1  H 10752 10763       L1    19  1.00

> <Gold.PLP.Chemscore.Internal.Correction>
0.0713

> <Gold.Rescore>
     Score         DG    S(hbond)    S(metal)    S(lipo)     H(rot)  DE(clash)    DE(int)     intcor
     13.34     -15.68       2.26        0.00      87.58       2.97       0.10       2.24       ----

> <Gold.Chemscore.Fitness>
13.3395

> <Gold.Chemscore.DG>
-15.6796

> <Gold.Chemscore.ZeroCoef>
-5.4800

> <Gold.Chemscore.Hbond>
2.2606

> <Gold.Chemscore.Metal>
0.0000

> <Gold.Chemscore.Lipo>
87.5818

> <Gold.Chemscore.Internal_Hbond>
0.0000

> <Gold.Chemscore.DEClash>
0.0963

> <Gold.Chemscore.DEInternal>
2.2437

> <Gold.Chemscore.Rot>
2.9680

> <Gold.Chemscore.Internal.Correction>
   9.000000E+99

> <Gold.Chemscore.Hbonds>
donor molecule, donor type, donor heavy atom, donor atom, acceptor molecule, acceptor atom, score
      P1  H  6896  6907       L1    17  0.07
      P1  H  7989  7998       L1    13  0.13
      P1  H 10752 10763       L1    19  0.99

> <Gold.Chemscore.Hbond.Weighted>
-7.5505

> <Gold.Chemscore.Metal.Weighted>
-0.0000

> <Gold.Chemscore.Lipo.Weighted>
-10.2471

> <Gold.Chemscore.Internal_Hbond.Weighted>
0.0000

> <Gold.Chemscore.DEClash.Weighted>
0.0963

> <Gold.Chemscore.DEInternal.Weighted>
2.2437

> <Gold.Chemscore.Rot.Weighted>
7.5980

> <Gold.Chemscore.Internal.Correction.Weighted>
   9.000000E+99

> <Gold.Protein.RotatedTorsions>
[ 6907 6896 6895 6894 ] final  -60.24 input  -60.11 | X-H torsion
[ 7974 7965 7964 7962 ] final  -52.40 input  175.53 | X-H torsion
[ 8008 7997 7996 7995 ] final  108.60 input   59.86 | X-H torsion
[ 10167 10162 10161 10158 ] final  107.68 input  -65.29 | X-H torsion
[ 10718 10713 10712 10709 ] final   26.59 input   66.30 | X-H torsion
[ 10763 10752 10751 10750 ] final   71.52 input  -60.55 | X-H torsion
[ 11005 11000 10999 10996 ] final  131.86 input  -57.11 | X-H torsion

> <Gold.Protein.ActiveResidues>
 VAL166  LYS551  ARG553  GLY616  TRP617  ASP618  TYR619  PRO620  LYS621  CYS622 
 ASP623  PHE694  ASN695  SER759  ASP760  ASP761  ALA762  ILE779  LEU786  VAL792 
 PHE793  MET794  SER795  GLU796  ALA797  LYS798  CYS799  TRP800  GLU811  SER814 

> <Gold.Protein.RotatedAtoms>
  150.7871  134.6863  159.6471 H   0  0  0  0  0  0  0  0  0  0  0  0  # atno 6907 bound_to 6896
  152.3969  134.6347  160.0094 H   0  0  0  0  0  0  0  0  0  0  0  0  # atno 6908 bound_to 6896
  151.6631  133.3279  159.3215 H   0  0  0  0  0  0  0  0  0  0  0  0  # atno 6909 bound_to 6896
  145.9083  140.7936  142.9708 H   0  0  0  0  0  0  0  0  0  0  0  0  # atno 7974 bound_to 7965
  156.1916  140.3073  155.9343 H   0  0  0  0  0  0  0  0  0  0  0  0  # atno 8008 bound_to 7997
  155.3161  140.0453  157.3054 H   0  0  0  0  0  0  0  0  0  0  0  0  # atno 8009 bound_to 7997
  154.5459  140.2276  155.8574 H   0  0  0  0  0  0  0  0  0  0  0  0  # atno 8010 bound_to 7997
  139.6908  144.7108  151.1352 H   0  0  0  0  0  0  0  0  0  0  0  0  # atno 10167 bound_to 10162
  157.2089  130.6925  149.6220 H   0  0  0  0  0  0  0  0  0  0  0  0  # atno 10718 bound_to 10713
  153.0403  135.5134  154.7605 H   0  0  0  0  0  0  0  0  0  0  0  0  # atno 10763 bound_to 10752
  154.6547  135.2930  154.9945 H   0  0  0  0  0  0  0  0  0  0  0  0  # atno 10764 bound_to 10752
  154.0816  135.6663  153.4891 H   0  0  0  0  0  0  0  0  0  0  0  0  # atno 10765 bound_to 10752
  139.9755  134.9564  156.9500 H   0  0  0  0  0  0  0  0  0  0  0  0  # atno 11005 bound_to 11000
  144.6741  140.1786  143.7408 LP  0  0  0  0  0  0  0  0  0  0  0  0  # atno 17320 bound_to 7965
  145.8703  139.2269  143.1664 LP  0  0  0  0  0  0  0  0  0  0  0  0  # atno 17321 bound_to 7965
  140.7682  143.5563  150.9149 LP  0  0  0  0  0  0  0  0  0  0  0  0  # atno 17342 bound_to 10162
  139.9240  143.6572  152.3091 LP  0  0  0  0  0  0  0  0  0  0  0  0  # atno 17343 bound_to 10162
  155.9692  130.4558  150.5900 LP  0  0  0  0  0  0  0  0  0  0  0  0  # atno 17370 bound_to 10713
  157.3692  131.0763  151.1572 LP  0  0  0  0  0  0  0  0  0  0  0  0  # atno 17371 bound_to 10713
  140.5203  134.0914  155.7290 LP  0  0  0  0  0  0  0  0  0  0  0  0  # atno 17394 bound_to 11000
  141.1433  133.9100  157.2276 LP  0  0  0  0  0  0  0  0  0  0  0  0  # atno 17395 bound_to 11000

$$$$
