AV-unprocessed.smi:1813|AV-procd|sdf|7342|dock8
  -GOLD-   22720 9 03D 1   1.00000     0.00000
 Structure written by MMmdl.
 40 41  0  0  0  0  0  0  0  0  2 V2000
  141.7325  138.6795  154.8216 C   0  0  0  0  0  0  0  0  0  0  0  0
  142.5784  139.8635  154.8079 N   0  0  0  0  0  0  0  0  0  0  0  0
  143.0455  140.4689  155.9088 C   0  0  0  0  0  0  0  0  0  0  0  0
  142.7961  140.0802  157.0505 O   0  0  0  0  0  0  0  0  0  0  0  0
  143.9112  141.7126  155.6833 C   0  0  0  0  0  0  0  0  0  0  0  0
  145.1350  141.4320  154.8890 N   0  3  2  0  0  0  0  0  0  0  0  0
  146.1244  140.6177  155.6395 C   0  0  0  0  0  0  0  0  0  0  0  0
  147.3108  140.2159  154.7439 C   0  0  0  0  0  0  0  0  0  0  0  0
  147.9865  141.4361  154.0936 C   0  0  2  0  0  0  0  0  0  0  0  0
  148.7393  142.1980  155.0901 N   0  0  0  0  0  0  0  0  0  0  0  0
  149.7097  141.7013  155.8717 C   0  0  0  0  0  0  0  0  0  0  0  0
  150.0845  140.5296  155.8227 O   0  0  0  0  0  0  0  0  0  0  0  0
  150.2044  142.6429  156.6942 N   0  0  0  0  0  0  0  0  0  0  0  0
  151.2453  142.5117  157.6508 C   0  0  0  0  0  0  0  0  0  0  0  0
  151.7897  141.3457  158.0181 N   0  0  0  0  0  0  0  0  0  0  0  0
  152.7950  141.5142  158.9736 C   0  0  0  0  0  0  0  0  0  0  0  0
  153.0048  142.8248  159.3241 C   0  0  0  0  0  0  0  0  0  0  0  0
  151.9406  143.9057  158.4647 S   0  0  0  0  0  0  0  0  0  0  0  0
  146.9249  142.3028  153.3862 C   0  0  0  0  0  0  0  0  0  0  0  0
  145.7556  142.6581  154.3204 C   0  0  0  0  0  0  0  0  0  0  0  0
  141.5661  138.3294  153.8031 H   0  0  0  0  0  0  0  0  0  0  0  0
  140.7628  138.9028  155.2682 H   0  0  0  0  0  0  0  0  0  0  0  0
  142.1984  137.8711  155.3867 H   0  0  0  0  0  0  0  0  0  0  0  0
  142.8192  140.2466  153.9048 H   0  0  0  0  0  0  0  0  0  0  0  0
  143.3302  142.5054  155.2091 H   0  0  0  0  0  0  0  0  0  0  0  0
  144.1912  142.0782  156.6721 H   0  0  0  0  0  0  0  0  0  0  0  0
  146.4740  141.1775  156.5082 H   0  0  0  0  0  0  0  0  0  0  0  0
  145.6453  139.7141  156.0183 H   0  0  0  0  0  0  0  0  0  0  0  0
  148.0380  139.6414  155.3190 H   0  0  0  0  0  0  0  0  0  0  0  0
  146.9515  139.5484  153.9594 H   0  0  0  0  0  0  0  0  0  0  0  0
  148.6959  141.0708  153.3485 H   0  0  0  0  0  0  0  0  0  0  0  0
  148.4919  143.1699  155.2047 H   0  0  0  0  0  0  0  0  0  0  0  0
  149.7940  143.5622  156.6262 H   0  0  0  0  0  0  0  0  0  0  0  0
  153.3119  140.6441  159.3502 H   0  0  0  0  0  0  0  0  0  0  0  0
  153.7181  143.2176  160.0334 H   0  0  0  0  0  0  0  0  0  0  0  0
  147.3729  143.2125  152.9850 H   0  0  0  0  0  0  0  0  0  0  0  0
  146.5358  141.7575  152.5254 H   0  0  0  0  0  0  0  0  0  0  0  0
  145.0152  143.2286  153.7593 H   0  0  0  0  0  0  0  0  0  0  0  0
  146.1002  143.3042  155.1294 H   0  0  0  0  0  0  0  0  0  0  0  0
  144.8360  140.8651  154.1077 H   0  0  0  0  0  0  0  0  0  0  0  0
  1  2  1  0  0  0  0
  1 21  1  0  0  0  0
  1 22  1  0  0  0  0
  1 23  1  0  0  0  0
  2  3  1  0  0  0  0
  2 24  1  0  0  0  0
  3  4  2  0  0  0  0
  3  5  1  0  0  0  0
  5  6  1  0  0  0  0
  5 25  1  0  0  0  0
  5 26  1  0  0  0  0
  6 20  1  0  0  0  0
  6  7  1  0  0  0  0
  6 40  1  0  0  0  0
  7  8  1  0  0  0  0
  7 27  1  0  0  0  0
  7 28  1  0  0  0  0
  8  9  1  0  0  0  0
  8 29  1  0  0  0  0
  8 30  1  0  0  0  0
  9 10  1  0  0  0  0
  9 19  1  0  0  0  0
  9 31  1  0  0  0  0
 10 11  1  0  0  0  0
 10 32  1  0  0  0  0
 11 12  2  0  0  0  0
 11 13  1  0  0  0  0
 13 14  1  0  0  0  0
 13 33  1  0  0  0  0
 14 18  1  0  0  0  0
 14 15  2  0  0  0  0
 15 16  1  0  0  0  0
 16 17  2  0  0  0  0
 16 34  1  0  0  0  0
 17 18  1  0  0  0  0
 17 35  1  0  0  0  0
 19 20  1  0  0  0  0
 19 36  1  0  0  0  0
 19 37  1  0  0  0  0
 20 38  1  0  0  0  0
 20 39  1  0  0  0  0
M  CHG  1   6   1
M  END
> <s_m_source_file>
AV-unprocessed.smi

> <i_m_source_file_index>
1813

> <i_lp_mmshare_version>
43012

> <i_f3d_flags>
0

> <s_epik_input>
W0NIM11bTkhdQyg9TylbQ0gyXU4xW0NIMl1bQ0gyXVtDSF0oW0NIMl1bQ0gyXTEpW05IXUMoPU8pW05IXWMybltjSF1bY0hdczI=

> <s_epik_cmdline>
J2VwaWtfcHl0aG9uJywgJy1waCcsICc3LjAnLCAnLXRuJywgJzgnLCAnLW1hJywgJzIwMCcsICctbWV0YWxfYmluZGluZycsICctaW1hZScsICc8aW5maWxlLm1hZT4nLCAnLW9tYWUnLCAnPG91dGZpbGUubWFlPic=

> <r_lp_tautomer_probability>
0.999

> <r_epik_Ionization_Penalty>
0.862509

> <r_epik_Ionization_Penalty_Charging>
0.862349

> <r_epik_Ionization_Penalty_Neutral>
0.000159522

> <r_epik_State_Penalty>
0.898939

> <r_epik_Charging_Adjusted_Penalty>
1.76129

> <i_epik_Tot_Q>
1

> <i_epik_Tot_abs_Q>
1

> <r_epik_Metal_State_Penalty>
0.936827

> <b_epik_Metal_Only>
0

> <s_lp_Force_Field>
OPLS_2005

> <r_lp_Energy>
11.766

> <b_lp_Chiralities_Consistent>
1

> <s_lp_Variant>
AV-unprocessed.smi:1813-3

> <Gold.Version>
5.8.1

> <Gold.Id.Protein>
6NUR|6NUR_protein|mol2

> <Gold.PLP.Fitness>
45.3622

> <Gold.PLP.PLP>
-30.6045

> <Gold.PLP.part.hbond>
-4.0000

> <Gold.PLP.part.metal>
0.0000

> <Gold.PLP.part.buried>
-5.8689

> <Gold.PLP.part.nonpolar>
-21.7383

> <Gold.PLP.part.repulsive>
0.3018

> <Gold.PLP.ligand.clash>
0.0000

> <Gold.PLP.ligand.torsion>
0.1267

> <Gold.PLP.Chemscore.Hbond>
4.9920

> <Gold.PLP.Chemscore.CHOScore>
0.0000

> <Gold.PLP.Chemscore.Metal>
0.0000

> <Gold.Chemscore.Hbonds>
donor molecule, donor type, donor heavy atom, donor atom, acceptor molecule, acceptor atom, score
      L1  H     2    24       P1 10175  1.00
      L1  H     6    40       P1 10175  2.00
      L1  H    10    32       P1  8028  1.00
      L1  H    13    33       P1  8028  0.98

> <Gold.PLP.Chemscore.Internal.Correction>
0.0351

> <Gold.Rescore>
     Score         DG    S(hbond)    S(metal)    S(lipo)     H(rot)  DE(clash)    DE(int)     intcor
     17.80     -21.28       3.85        0.00      64.17       1.79       1.28       2.19       ----

> <Gold.Chemscore.Fitness>
17.8046

> <Gold.Chemscore.DG>
-21.2801

> <Gold.Chemscore.ZeroCoef>
-5.4800

> <Gold.Chemscore.Hbond>
3.8519

> <Gold.Chemscore.Metal>
0.0000

> <Gold.Chemscore.Lipo>
64.1666

> <Gold.Chemscore.Internal_Hbond>
0.0000

> <Gold.Chemscore.DEClash>
1.2842

> <Gold.Chemscore.DEInternal>
2.1914

> <Gold.Chemscore.Rot>
1.7862

> <Gold.Chemscore.Internal.Correction>
   9.000000E+99

> <Gold.Chemscore.Hbonds>
donor molecule, donor type, donor heavy atom, donor atom, acceptor molecule, acceptor atom, score
      L1  H     2    24       P1 10175  0.97
      L1  H     6    40       P1 10175  0.87
      L1  H    10    32       P1  8028  0.96
      L1  H    13    33       P1  8028  0.93

> <Gold.Chemscore.Hbond.Weighted>
-12.8653

> <Gold.Chemscore.Metal.Weighted>
-0.0000

> <Gold.Chemscore.Lipo.Weighted>
-7.5075

> <Gold.Chemscore.Internal_Hbond.Weighted>
0.0000

> <Gold.Chemscore.DEClash.Weighted>
1.2842

> <Gold.Chemscore.DEInternal.Weighted>
2.1914

> <Gold.Chemscore.Rot.Weighted>
4.5726

> <Gold.Chemscore.Internal.Correction.Weighted>
   9.000000E+99

> <Gold.Protein.RotatedTorsions>
[ 6907 6896 6895 6894 ] final  -54.85 input  -60.11 | X-H torsion
[ 7974 7965 7964 7962 ] final  -87.22 input  175.53 | X-H torsion
[ 8008 7997 7996 7995 ] final  -79.85 input   59.86 | X-H torsion
[ 10167 10162 10161 10158 ] final  -90.94 input  -65.29 | X-H torsion
[ 10718 10713 10712 10709 ] final   68.08 input   66.30 | X-H torsion
[ 10763 10752 10751 10750 ] final  134.08 input  -60.55 | X-H torsion
[ 11005 11000 10999 10996 ] final   74.99 input  -57.11 | X-H torsion

> <Gold.Protein.ActiveResidues>
 VAL166  LYS551  ARG553  GLY616  TRP617  ASP618  TYR619  PRO620  LYS621  CYS622 
 ASP623  PHE694  ASN695  SER759  ASP760  ASP761  ALA762  ILE779  LEU786  VAL792 
 PHE793  MET794  SER795  GLU796  ALA797  LYS798  CYS799  TRP800  GLU811  SER814 

> <Gold.Protein.RotatedAtoms>
  150.8302  134.7551  159.6846 H   0  0  0  0  0  0  0  0  0  0  0  0  # atno 6907 bound_to 6896
  152.4407  134.5592  159.9899 H   0  0  0  0  0  0  0  0  0  0  0  0  # atno 6908 bound_to 6896
  151.5755  133.3347  159.3034 H   0  0  0  0  0  0  0  0  0  0  0  0  # atno 6909 bound_to 6896
  145.4694  140.9560  143.1925 H   0  0  0  0  0  0  0  0  0  0  0  0  # atno 7974 bound_to 7965
  154.5825  140.0672  156.9124 H   0  0  0  0  0  0  0  0  0  0  0  0  # atno 8008 bound_to 7997
  155.2438  140.3346  155.4271 H   0  0  0  0  0  0  0  0  0  0  0  0  # atno 8009 bound_to 7997
  156.2199  140.1794  156.7486 H   0  0  0  0  0  0  0  0  0  0  0  0  # atno 8010 bound_to 7997
  140.3499  143.2897  151.9738 H   0  0  0  0  0  0  0  0  0  0  0  0  # atno 10167 bound_to 10162
  157.6268  130.9355  150.0329 H   0  0  0  0  0  0  0  0  0  0  0  0  # atno 10718 bound_to 10713
  153.8176  135.3120  155.3407 H   0  0  0  0  0  0  0  0  0  0  0  0  # atno 10763 bound_to 10752
  154.8026  135.4717  154.0315 H   0  0  0  0  0  0  0  0  0  0  0  0  # atno 10764 bound_to 10752
  153.1714  135.6878  153.8692 H   0  0  0  0  0  0  0  0  0  0  0  0  # atno 10765 bound_to 10752
  139.9365  134.7479  156.1215 H   0  0  0  0  0  0  0  0  0  0  0  0  # atno 11005 bound_to 11000
  144.7954  139.6245  143.7095 LP  0  0  0  0  0  0  0  0  0  0  0  0  # atno 17320 bound_to 7965
  146.2405  139.5992  142.9494 LP  0  0  0  0  0  0  0  0  0  0  0  0  # atno 17321 bound_to 7965
  139.4828  144.6085  151.7477 LP  0  0  0  0  0  0  0  0  0  0  0  0  # atno 17342 bound_to 10162
  140.5229  144.0851  150.6028 LP  0  0  0  0  0  0  0  0  0  0  0  0  # atno 17343 bound_to 10162
  156.1446  130.3642  149.9530 LP  0  0  0  0  0  0  0  0  0  0  0  0  # atno 17370 bound_to 10713
  156.7563  130.9134  151.3639 LP  0  0  0  0  0  0  0  0  0  0  0  0  # atno 17371 bound_to 10713
  141.0981  133.6688  156.2690 LP  0  0  0  0  0  0  0  0  0  0  0  0  # atno 17394 bound_to 11000
  140.6063  134.5504  157.5526 LP  0  0  0  0  0  0  0  0  0  0  0  0  # atno 17395 bound_to 11000

$$$$
