AV-unprocessed.smi:602|AV-procd|sdf|3035|dock4
  -GOLD-   2262023553D 1   1.00000     0.00000
 Structure written by MMmdl.
 47 48  0  0  0  0  0  0  0  0  1 V2000
  147.7240  141.9175  154.6927 C   0  0  0  0  0  0  0  0  0  0  0  0
  148.5212  140.8358  155.4277 C   0  0  0  0  0  0  0  0  0  0  0  0
  147.9721  140.5625  156.8378 C   0  0  0  0  0  0  0  0  0  0  0  0
  148.7339  139.5511  157.5428 N   0  0  0  0  0  0  0  0  0  0  0  0
  148.1771  138.3661  158.0320 C   0  0  0  0  0  0  0  0  0  0  0  0
  146.8216  138.1509  157.8281 N   0  0  0  0  0  0  0  0  0  0  0  0
  148.9384  137.4216  158.6611 C   0  0  0  0  0  0  0  0  0  0  0  0
  148.3740  136.2340  159.1629 N   0  0  0  0  0  0  0  0  0  0  0  0
  148.6173  135.0043  158.3898 C   0  0  0  0  0  0  0  0  0  0  0  0
  148.0519  135.0948  156.9580 C   0  0  0  0  0  0  0  0  0  0  0  0
  148.4451  133.9994  156.1430 O   0  0  0  0  0  0  0  0  0  0  0  0
  149.8162  134.0163  155.7782 C   0  0  0  0  0  0  0  0  0  0  0  0
  147.7076  136.1996  160.3478 C   0  0  0  0  0  0  0  0  0  0  0  0
  147.5593  137.2062  161.0420 O   0  0  0  0  0  0  0  0  0  0  0  0
  147.1204  134.8587  160.8429 C   0  0  0  0  0  0  0  0  0  0  0  0
  145.6546  134.9431  161.3034 C   0  0  0  0  0  0  0  0  0  0  0  0
  146.0154  134.0335  162.4804 C   0  0  0  0  0  0  0  0  0  0  0  0
  147.4746  134.4547  162.2890 C   0  0  0  0  0  0  0  0  0  0  0  0
  150.3763  137.6393  158.8707 C   0  0  0  0  0  0  0  0  0  0  0  0
  151.1417  136.8704  159.4510 O   0  0  0  0  0  0  0  0  0  0  0  0
  150.8719  138.8276  158.3412 N   0  0  0  0  0  0  0  0  0  0  0  0
  150.1236  139.7890  157.6713 C   0  0  0  0  0  0  0  0  0  0  0  0
  150.6876  140.7884  157.2242 O   0  0  0  0  0  0  0  0  0  0  0  0
  151.8609  139.0027  158.4465 H   0  0  0  0  0  0  0  0  0  0  0  0
  148.1308  142.0910  153.6963 H   0  0  0  0  0  0  0  0  0  0  0  0
  147.7538  142.8635  155.2341 H   0  0  0  0  0  0  0  0  0  0  0  0
  146.6791  141.6276  154.5803 H   0  0  0  0  0  0  0  0  0  0  0  0
  148.5041  139.9160  154.8419 H   0  0  0  0  0  0  0  0  0  0  0  0
  149.5664  141.1409  155.4892 H   0  0  0  0  0  0  0  0  0  0  0  0
  147.9480  141.4643  157.4524 H   0  0  0  0  0  0  0  0  0  0  0  0
  146.9390  140.2172  156.8056 H   0  0  0  0  0  0  0  0  0  0  0  0
  146.2437  138.8221  157.3425 H   0  0  0  0  0  0  0  0  0  0  0  0
  146.3474  137.3449  158.2093 H   0  0  0  0  0  0  0  0  0  0  0  0
  149.6926  134.8355  158.3176 H   0  0  0  0  0  0  0  0  0  0  0  0
  148.2348  134.1240  158.9072 H   0  0  0  0  0  0  0  0  0  0  0  0
  146.9629  135.1076  156.9985 H   0  0  0  0  0  0  0  0  0  0  0  0
  148.3434  136.0371  156.4915 H   0  0  0  0  0  0  0  0  0  0  0  0
  150.0371  133.1459  155.1607 H   0  0  0  0  0  0  0  0  0  0  0  0
  150.4709  133.9798  156.6488 H   0  0  0  0  0  0  0  0  0  0  0  0
  150.0571  134.9077  155.1978 H   0  0  0  0  0  0  0  0  0  0  0  0
  147.2963  134.0262  160.1610 H   0  0  0  0  0  0  0  0  0  0  0  0
  145.3497  135.9435  161.6166 H   0  0  0  0  0  0  0  0  0  0  0  0
  144.9371  134.5062  160.6081 H   0  0  0  0  0  0  0  0  0  0  0  0
  145.5769  134.3266  163.4347 H   0  0  0  0  0  0  0  0  0  0  0  0
  145.8487  132.9773  162.2638 H   0  0  0  0  0  0  0  0  0  0  0  0
  148.1863  133.6320  162.3655 H   0  0  0  0  0  0  0  0  0  0  0  0
  147.7507  135.2805  162.9465 H   0  0  0  0  0  0  0  0  0  0  0  0
  1  2  1  0  0  0  0
  1 25  1  0  0  0  0
  1 26  1  0  0  0  0
  1 27  1  0  0  0  0
  2  3  1  0  0  0  0
  2 28  1  0  0  0  0
  2 29  1  0  0  0  0
  3  4  1  0  0  0  0
  3 30  1  0  0  0  0
  3 31  1  0  0  0  0
  4 22  1  0  0  0  0
  4  5  1  0  0  0  0
  5  6  1  0  0  0  0
  5  7  2  0  0  0  0
  6 32  1  0  0  0  0
  6 33  1  0  0  0  0
  7  8  1  0  0  0  0
  7 19  1  0  0  0  0
  8  9  1  0  0  0  0
  8 13  1  0  0  0  0
  9 10  1  0  0  0  0
  9 34  1  0  0  0  0
  9 35  1  0  0  0  0
 10 11  1  0  0  0  0
 10 36  1  0  0  0  0
 10 37  1  0  0  0  0
 11 12  1  0  0  0  0
 12 38  1  0  0  0  0
 12 39  1  0  0  0  0
 12 40  1  0  0  0  0
 13 14  2  0  0  0  0
 13 15  1  0  0  0  0
 15 18  1  0  0  0  0
 15 16  1  0  0  0  0
 15 41  1  0  0  0  0
 16 17  1  0  0  0  0
 16 42  1  0  0  0  0
 16 43  1  0  0  0  0
 17 18  1  0  0  0  0
 17 44  1  0  0  0  0
 17 45  1  0  0  0  0
 18 46  1  0  0  0  0
 18 47  1  0  0  0  0
 19 20  2  0  0  0  0
 19 21  1  0  0  0  0
 21 24  1  0  0  0  0
 21 22  1  0  0  0  0
 22 23  2  0  0  0  0
M  END
> <s_m_source_file>
AV-unprocessed.smi

> <i_m_source_file_index>
602

> <i_lp_mmshare_version>
43012

> <i_f3d_flags>
0

> <s_epik_input>
W0NIM11bQ0gyXVtDSDJdbjFjKFtOSDJdKWMoYyg9TylbbkhdYzE9TylOKFtDSDJdW0NIMl1PW0NIM10pQyg9TylbQ0hdMltDSDJdW0NIMl1bQ0gyXTI=

> <s_epik_cmdline>
J2VwaWtfcHl0aG9uJywgJy1waCcsICc3LjAnLCAnLXRuJywgJzgnLCAnLW1hJywgJzIwMCcsICctbWV0YWxfYmluZGluZycsICctaW1hZScsICc8aW5maWxlLm1hZT4nLCAnLW9tYWUnLCAnPG91dGZpbGUubWFlPic=

> <r_lp_tautomer_probability>
1

> <r_epik_Ionization_Penalty>
1.77098e-05

> <r_epik_Ionization_Penalty_Charging>
5.46221e-06

> <r_epik_Ionization_Penalty_Neutral>
1.22476e-05

> <r_epik_State_Penalty>
-0

> <r_epik_Charging_Adjusted_Penalty>
5.46221e-06

> <i_epik_Tot_Q>
0

> <i_epik_Tot_abs_Q>
0

> <r_epik_Metal_State_Penalty>
-0

> <b_epik_Metal_Only>
0

> <s_epik_Chemistry_Notes>
This compound has an imine and may undergo hydrolysis.

> <s_lp_Force_Field>
OPLS_2005

> <r_lp_Energy>
36.0285

> <b_lp_Chiralities_Consistent>
1

> <s_lp_Variant>
AV-unprocessed.smi:602-1

> <Gold.Version>
5.8.1

> <Gold.Id.Protein>
6NUR|6NUR_protein|mol2

> <Gold.PLP.Fitness>
36.9120

> <Gold.PLP.PLP>
-29.0997

> <Gold.PLP.part.hbond>
-3.0000

> <Gold.PLP.part.metal>
0.0000

> <Gold.PLP.part.buried>
-5.0412

> <Gold.PLP.part.nonpolar>
-21.7324

> <Gold.PLP.part.repulsive>
0.1792

> <Gold.PLP.ligand.clash>
0.0000

> <Gold.PLP.ligand.torsion>
1.7060

> <Gold.PLP.Chemscore.Hbond>
2.8400

> <Gold.PLP.Chemscore.CHOScore>
0.0000

> <Gold.PLP.Chemscore.Metal>
0.0000

> <Gold.Chemscore.Hbonds>
donor molecule, donor type, donor heavy atom, donor atom, acceptor molecule, acceptor atom, score
      P1  H  6896  6908       L1    20  1.00
      P1  H  6931  6943       L1    14  0.86
      P1  H  6934  6947       L1    14  0.96

> <Gold.PLP.Chemscore.Internal.Correction>
2.7045

> <Gold.Rescore>
     Score         DG    S(hbond)    S(metal)    S(lipo)     H(rot)  DE(clash)    DE(int)     intcor
     12.30     -15.30       2.69        0.00      53.70       2.12       0.00       3.00       ----

> <Gold.Chemscore.Fitness>
12.2974

> <Gold.Chemscore.DG>
-15.2971

> <Gold.Chemscore.ZeroCoef>
-5.4800

> <Gold.Chemscore.Hbond>
2.6851

> <Gold.Chemscore.Metal>
0.0000

> <Gold.Chemscore.Lipo>
53.6987

> <Gold.Chemscore.Internal_Hbond>
0.0000

> <Gold.Chemscore.DEClash>
0.0021

> <Gold.Chemscore.DEInternal>
2.9975

> <Gold.Chemscore.Rot>
2.1226

> <Gold.Chemscore.Internal.Correction>
   9.000000E+99

> <Gold.Chemscore.Hbonds>
donor molecule, donor type, donor heavy atom, donor atom, acceptor molecule, acceptor atom, score
      P1  H  6896  6908       L1    20  0.96
      P1  H  6931  6943       L1    14  0.81
      P1  H  6934  6947       L1    14  0.92

> <Gold.Chemscore.Hbond.Weighted>
-8.9681

> <Gold.Chemscore.Metal.Weighted>
-0.0000

> <Gold.Chemscore.Lipo.Weighted>
-6.2827

> <Gold.Chemscore.Internal_Hbond.Weighted>
0.0000

> <Gold.Chemscore.DEClash.Weighted>
0.0021

> <Gold.Chemscore.DEInternal.Weighted>
2.9975

> <Gold.Chemscore.Rot.Weighted>
5.4338

> <Gold.Chemscore.Internal.Correction.Weighted>
   9.000000E+99

> <Gold.Protein.RotatedTorsions>
[ 6907 6896 6895 6894 ] final -151.61 input  -60.11 | X-H torsion
[ 7974 7965 7964 7962 ] final  167.01 input  175.53 | X-H torsion
[ 8008 7997 7996 7995 ] final   80.80 input   59.86 | X-H torsion
[ 10167 10162 10161 10158 ] final  -89.96 input  -65.29 | X-H torsion
[ 10718 10713 10712 10709 ] final  -15.45 input   66.30 | X-H torsion
[ 10763 10752 10751 10750 ] final  -45.87 input  -60.55 | X-H torsion
[ 11005 11000 10999 10996 ] final  -24.45 input  -57.11 | X-H torsion

> <Gold.Protein.ActiveResidues>
 VAL166  LYS551  ARG553  GLY616  TRP617  ASP618  TYR619  PRO620  LYS621  CYS622 
 ASP623  PHE694  ASN695  SER759  ASP760  ASP761  ALA762  ILE779  LEU786  VAL792 
 PHE793  MET794  SER795  GLU796  ALA797  LYS798  CYS799  TRP800  GLU811  SER814 

> <Gold.Protein.RotatedAtoms>
  151.2156  133.4531  159.2599 H   0  0  0  0  0  0  0  0  0  0  0  0  # atno 6907 bound_to 6896
  151.0934  134.9930  159.8424 H   0  0  0  0  0  0  0  0  0  0  0  0  # atno 6908 bound_to 6896
  152.5437  134.2088  159.8794 H   0  0  0  0  0  0  0  0  0  0  0  0  # atno 6909 bound_to 6896
  144.7440  139.8698  143.6388 H   0  0  0  0  0  0  0  0  0  0  0  0  # atno 7974 bound_to 7965
  155.8884  140.3440  155.5938 H   0  0  0  0  0  0  0  0  0  0  0  0  # atno 8008 bound_to 7997
  155.7639  140.0836  157.2160 H   0  0  0  0  0  0  0  0  0  0  0  0  # atno 8009 bound_to 7997
  154.4031  140.1530  156.2852 H   0  0  0  0  0  0  0  0  0  0  0  0  # atno 8010 bound_to 7997
  140.3596  143.2849  151.9630 H   0  0  0  0  0  0  0  0  0  0  0  0  # atno 10167 bound_to 10162
  156.6016  130.4825  149.6237 H   0  0  0  0  0  0  0  0  0  0  0  0  # atno 10718 bound_to 10713
  154.0356  135.6651  153.4785 H   0  0  0  0  0  0  0  0  0  0  0  0  # atno 10763 bound_to 10752
  153.0522  135.5077  154.7891 H   0  0  0  0  0  0  0  0  0  0  0  0  # atno 10764 bound_to 10752
  154.6851  135.3051  154.9525 H   0  0  0  0  0  0  0  0  0  0  0  0  # atno 10765 bound_to 10752
  140.8846  133.7630  156.0344 H   0  0  0  0  0  0  0  0  0  0  0  0  # atno 11005 bound_to 11000
  146.1288  139.4320  143.0181 LP  0  0  0  0  0  0  0  0  0  0  0  0  # atno 17320 bound_to 7965
  145.7194  141.0080  143.1411 LP  0  0  0  0  0  0  0  0  0  0  0  0  # atno 17321 bound_to 7965
  139.4816  144.6004  151.7615 LP  0  0  0  0  0  0  0  0  0  0  0  0  # atno 17342 bound_to 10162
  140.5140  144.0981  150.6003 LP  0  0  0  0  0  0  0  0  0  0  0  0  # atno 17343 bound_to 10162
  156.2464  130.6881  151.1604 LP  0  0  0  0  0  0  0  0  0  0  0  0  # atno 17370 bound_to 10713
  157.7278  131.0636  150.5849 LP  0  0  0  0  0  0  0  0  0  0  0  0  # atno 17371 bound_to 10713
  140.8420  134.3055  157.5309 LP  0  0  0  0  0  0  0  0  0  0  0  0  # atno 17394 bound_to 11000
  139.8723  134.9421  156.3816 LP  0  0  0  0  0  0  0  0  0  0  0  0  # atno 17395 bound_to 11000

$$$$
