AV-unprocessed.smi:2415|AV-procd|sdf|9543|dock1
  -GOLD-   2272013173D 1   1.00000     0.00000
 Structure written by MMmdl.
 33 34  0  0  0  0  0  0  0  0  1 V2000
  153.1199  142.4086  159.0876 C   0  0  0  0  0  0  0  0  0  0  0  0
  151.9535  141.7358  158.3963 C   0  0  0  0  0  0  0  0  0  0  0  0
  150.6913  142.3577  158.3047 C   0  0  0  0  0  0  0  0  0  0  0  0
  149.6876  141.6257  157.6378 C   0  0  0  0  0  0  0  0  0  0  0  0
  148.2870  142.1738  157.4695 C   0  0  0  0  0  0  0  0  0  0  0  0
  149.9253  140.4013  157.1196 N   0  0  0  0  0  0  0  0  0  0  0  0
  151.1646  139.9083  157.2511 C   0  0  0  0  0  0  0  0  0  0  0  0
  151.4258  138.6419  156.7300 N   0  0  0  0  0  0  0  0  0  0  0  0
  151.8446  137.6575  157.7275 C   0  0  0  0  0  0  0  0  0  0  0  0
  152.4557  136.4167  157.0637 C   0  0  0  0  0  0  0  0  0  0  0  0
  151.5140  135.8710  156.1525 O   0  0  0  0  0  0  0  0  0  0  0  0
  151.2272  136.7843  155.1023 C   0  0  0  0  0  0  0  0  0  0  0  0
  150.5872  138.0799  155.6567 C   0  0  2  0  0  0  0  0  0  0  0  0
  150.3386  139.0239  154.4646 C   0  0  0  0  0  0  0  0  0  0  0  0
  149.6925  138.5153  153.4123 N   0  0  0  0  0  0  0  0  0  0  0  0
  150.7348  140.1881  154.4873 O   0  0  0  0  0  0  0  0  0  0  0  0
  152.1844  140.5123  157.8721 N   0  0  0  0  0  0  0  0  0  0  0  0
  152.8083  143.3332  159.5743 H   0  0  0  0  0  0  0  0  0  0  0  0
  153.8997  142.6489  158.3647 H   0  0  0  0  0  0  0  0  0  0  0  0
  153.5440  141.7506  159.8465 H   0  0  0  0  0  0  0  0  0  0  0  0
  150.5039  143.3367  158.7210 H   0  0  0  0  0  0  0  0  0  0  0  0
  148.2467  143.2327  157.7259 H   0  0  0  0  0  0  0  0  0  0  0  0
  147.5923  141.6375  158.1162 H   0  0  0  0  0  0  0  0  0  0  0  0
  147.9544  142.0610  156.4370 H   0  0  0  0  0  0  0  0  0  0  0  0
  152.5736  138.0854  158.4168 H   0  0  0  0  0  0  0  0  0  0  0  0
  150.9781  137.3711  158.3254 H   0  0  0  0  0  0  0  0  0  0  0  0
  153.3867  136.6628  156.5503 H   0  0  0  0  0  0  0  0  0  0  0  0
  152.6952  135.6668  157.8177 H   0  0  0  0  0  0  0  0  0  0  0  0
  152.1435  136.9996  154.5483 H   0  0  0  0  0  0  0  0  0  0  0  0
  150.5477  136.2943  154.4038 H   0  0  0  0  0  0  0  0  0  0  0  0
  149.6241  137.8217  156.1014 H   0  0  0  0  0  0  0  0  0  0  0  0
  149.5127  139.0927  152.6039 H   0  0  0  0  0  0  0  0  0  0  0  0
  149.3929  137.5512  153.4272 H   0  0  0  0  0  0  0  0  0  0  0  0
  1  2  1  0  0  0  0
  1 18  1  0  0  0  0
  1 19  1  0  0  0  0
  1 20  1  0  0  0  0
  2 17  1  0  0  0  0
  2  3  2  0  0  0  0
  3  4  1  0  0  0  0
  3 21  1  0  0  0  0
  4  5  1  0  0  0  0
  4  6  2  0  0  0  0
  5 22  1  0  0  0  0
  5 23  1  0  0  0  0
  5 24  1  0  0  0  0
  6  7  1  0  0  0  0
  7  8  1  0  0  0  0
  7 17  2  0  0  0  0
  8 13  1  0  0  0  0
  8  9  1  0  0  0  0
  9 10  1  0  0  0  0
  9 25  1  0  0  0  0
  9 26  1  0  0  0  0
 10 11  1  0  0  0  0
 10 27  1  0  0  0  0
 10 28  1  0  0  0  0
 11 12  1  0  0  0  0
 12 13  1  0  0  0  0
 12 29  1  0  0  0  0
 12 30  1  0  0  0  0
 13 14  1  0  0  0  0
 13 31  1  0  0  0  0
 14 15  1  0  0  0  0
 14 16  2  0  0  0  0
 15 32  1  0  0  0  0
 15 33  1  0  0  0  0
M  END
> <s_m_source_file>
AV-unprocessed.smi

> <i_m_source_file_index>
2415

> <i_lp_mmshare_version>
43012

> <i_f3d_flags>
0

> <s_epik_input>
W0NIM11jMVtjSF1jKFtDSDNdKW5jKG4xKU4yW0NIMl1bQ0gyXU9bQ0gyXVtDQEhdMkMoPU8pW05IMl0=

> <s_epik_cmdline>
J2VwaWtfcHl0aG9uJywgJy1waCcsICc3LjAnLCAnLXRuJywgJzgnLCAnLW1hJywgJzIwMCcsICctbWV0YWxfYmluZGluZycsICctaW1hZScsICc8aW5maWxlLm1hZT4nLCAnLW9tYWUnLCAnPG91dGZpbGUubWFlPic=

> <r_lp_tautomer_probability>
1

> <r_epik_Ionization_Penalty>
2.01639e-05

> <r_epik_Ionization_Penalty_Charging>
0

> <r_epik_Ionization_Penalty_Neutral>
2.01639e-05

> <r_epik_State_Penalty>
-0

> <r_epik_Charging_Adjusted_Penalty>
0

> <i_epik_Tot_Q>
0

> <i_epik_Tot_abs_Q>
0

> <r_epik_Metal_State_Penalty>
-0

> <b_epik_Metal_Only>
0

> <s_lp_Force_Field>
OPLS_2005

> <r_lp_Energy>
9.24332

> <b_lp_Chiralities_Consistent>
1

> <s_lp_Variant>
AV-unprocessed.smi:2415-2

> <Gold.Version>
5.8.1

> <Gold.Id.Protein>
6NUR|6NUR_protein|mol2

> <Gold.PLP.Fitness>
30.6601

> <Gold.PLP.PLP>
-22.8397

> <Gold.PLP.part.hbond>
-3.9573

> <Gold.PLP.part.metal>
0.0000

> <Gold.PLP.part.buried>
-3.9166

> <Gold.PLP.part.nonpolar>
-15.2273

> <Gold.PLP.part.repulsive>
0.2141

> <Gold.PLP.ligand.clash>
0.0000

> <Gold.PLP.ligand.torsion>
0.4269

> <Gold.PLP.Chemscore.Hbond>
2.7450

> <Gold.PLP.Chemscore.CHOScore>
0.0000

> <Gold.PLP.Chemscore.Metal>
0.0000

> <Gold.Chemscore.Hbonds>
donor molecule, donor type, donor heavy atom, donor atom, acceptor molecule, acceptor atom, score
      L1  H    15    32       P1  7957  1.00
      L1  H    15    33       P1  7948  0.54
      P1  H  7989  7998       L1    16  0.93
      P1  H 10752 10764       L1    11  0.02

> <Gold.PLP.Chemscore.Internal.Correction>
0.4392

> <Gold.Rescore>
     Score         DG    S(hbond)    S(metal)    S(lipo)     H(rot)  DE(clash)    DE(int)     intcor
     11.88     -16.24       2.52        0.00      51.54       1.44       0.23       4.13       ----

> <Gold.Chemscore.Fitness>
11.8815

> <Gold.Chemscore.DG>
-16.2412

> <Gold.Chemscore.ZeroCoef>
-5.4800

> <Gold.Chemscore.Hbond>
2.5217

> <Gold.Chemscore.Metal>
0.0000

> <Gold.Chemscore.Lipo>
51.5392

> <Gold.Chemscore.Internal_Hbond>
0.0000

> <Gold.Chemscore.DEClash>
0.2266

> <Gold.Chemscore.DEInternal>
4.1331

> <Gold.Chemscore.Rot>
1.4419

> <Gold.Chemscore.Internal.Correction>
   9.000000E+99

> <Gold.Chemscore.Hbonds>
donor molecule, donor type, donor heavy atom, donor atom, acceptor molecule, acceptor atom, score
      L1  H    15    32       P1  7957  0.97
      L1  H    15    33       P1  7948  0.50
      P1  H  7989  7998       L1    16  0.88

> <Gold.Chemscore.Hbond.Weighted>
-8.4223

> <Gold.Chemscore.Metal.Weighted>
-0.0000

> <Gold.Chemscore.Lipo.Weighted>
-6.0301

> <Gold.Chemscore.Internal_Hbond.Weighted>
0.0000

> <Gold.Chemscore.DEClash.Weighted>
0.2266

> <Gold.Chemscore.DEInternal.Weighted>
4.1331

> <Gold.Chemscore.Rot.Weighted>
3.6912

> <Gold.Chemscore.Internal.Correction.Weighted>
   9.000000E+99

> <Gold.Protein.RotatedTorsions>
[ 6907 6896 6895 6894 ] final  -48.04 input  -60.11 | X-H torsion
[ 7974 7965 7964 7962 ] final   27.12 input  175.53 | X-H torsion
[ 8008 7997 7996 7995 ] final  -18.70 input   59.86 | X-H torsion
[ 10167 10162 10161 10158 ] final  137.98 input  -65.29 | X-H torsion
[ 10718 10713 10712 10709 ] final -174.12 input   66.30 | X-H torsion
[ 10763 10752 10751 10750 ] final  -20.75 input  -60.55 | X-H torsion
[ 11005 11000 10999 10996 ] final  139.54 input  -57.11 | X-H torsion

> <Gold.Protein.ActiveResidues>
 VAL166  LYS551  ARG553  GLY616  TRP617  ASP618  TYR619  PRO620  LYS621  CYS622 
 ASP623  PHE694  ASN695  SER759  ASP760  ASP761  ALA762  ILE779  LEU786  VAL792 
 PHE793  MET794  SER795  GLU796  ALA797  LYS798  CYS799  TRP800  GLU811  SER814 

> <Gold.Protein.RotatedAtoms>
  150.8946  134.8353  159.7317 H   0  0  0  0  0  0  0  0  0  0  0  0  # atno 6907 bound_to 6896
  152.4857  134.4596  159.9610 H   0  0  0  0  0  0  0  0  0  0  0  0  # atno 6908 bound_to 6896
  151.4654  133.3543  159.2851 H   0  0  0  0  0  0  0  0  0  0  0  0  # atno 6909 bound_to 6896
  146.1801  139.7234  142.8906 H   0  0  0  0  0  0  0  0  0  0  0  0  # atno 7974 bound_to 7965
  154.4888  140.2109  155.9595 H   0  0  0  0  0  0  0  0  0  0  0  0  # atno 8008 bound_to 7997
  156.1275  140.3203  155.8268 H   0  0  0  0  0  0  0  0  0  0  0  0  # atno 8009 bound_to 7997
  155.4357  140.0506  157.3005 H   0  0  0  0  0  0  0  0  0  0  0  0  # atno 8010 bound_to 7997
  139.5126  144.6379  151.5647 H   0  0  0  0  0  0  0  0  0  0  0  0  # atno 10167 bound_to 10162
  156.7804  130.9481  151.3120 H   0  0  0  0  0  0  0  0  0  0  0  0  # atno 10718 bound_to 10713
  153.6253  135.6991  153.5295 H   0  0  0  0  0  0  0  0  0  0  0  0  # atno 10763 bound_to 10752
  153.2904  135.4159  155.1161 H   0  0  0  0  0  0  0  0  0  0  0  0  # atno 10764 bound_to 10752
  154.8534  135.3624  154.5794 H   0  0  0  0  0  0  0  0  0  0  0  0  # atno 10765 bound_to 10752
  140.0262  134.9374  157.0572 H   0  0  0  0  0  0  0  0  0  0  0  0  # atno 11005 bound_to 11000
  145.4100  141.0395  143.3022 LP  0  0  0  0  0  0  0  0  0  0  0  0  # atno 17320 bound_to 7965
  144.8301  139.5643  143.6948 LP  0  0  0  0  0  0  0  0  0  0  0  0  # atno 17321 bound_to 7965
  140.6135  143.9391  150.6471 LP  0  0  0  0  0  0  0  0  0  0  0  0  # atno 17342 bound_to 10162
  140.2642  143.3502  152.1296 LP  0  0  0  0  0  0  0  0  0  0  0  0  # atno 17343 bound_to 10162
  157.6649  130.8998  149.9909 LP  0  0  0  0  0  0  0  0  0  0  0  0  # atno 17370 bound_to 10713
  156.1221  130.3645  149.9870 LP  0  0  0  0  0  0  0  0  0  0  0  0  # atno 17371 bound_to 10713
  140.4303  134.1788  155.7168 LP  0  0  0  0  0  0  0  0  0  0  0  0  # atno 17394 bound_to 11000
  141.1804  133.8426  157.1278 LP  0  0  0  0  0  0  0  0  0  0  0  0  # atno 17395 bound_to 11000

$$$$
