AV-unprocessed.smi:1607|AV-procd|sdf|6465|dock5
  -GOLD-   22720 7123D 1   1.00000     0.00000
 Structure written by MMmdl.
 39 40  0  0  0  0  0  0  0  0  2 V2000
  148.1069  132.9924  152.7172 C   0  0  0  0  0  0  0  0  0  0  0  0
  146.5993  133.0571  153.0197 C   0  0  2  0  0  0  0  0  0  0  0  0
  145.7312  132.6082  151.8294 C   0  0  0  0  0  0  0  0  0  0  0  0
  145.7011  133.6764  150.7272 C   0  0  0  0  0  0  0  0  0  0  0  0
  145.2824  135.0427  151.2928 C   0  0  0  0  0  0  0  0  0  0  0  0
  146.1717  135.4541  152.4096 N   0  3  1  0  0  0  0  0  0  0  0  0
  145.8909  136.8350  152.8763 C   0  0  0  0  0  0  0  0  0  0  0  0
  146.5480  137.1353  154.2377 C   0  0  0  0  0  0  0  0  0  0  0  0
  147.9864  136.8974  154.2046 N   0  0  0  0  0  0  0  0  0  0  0  0
  148.8276  137.1503  155.2195 C   0  0  0  0  0  0  0  0  0  0  0  0
  148.4631  137.6323  156.2921 O   0  0  0  0  0  0  0  0  0  0  0  0
  150.3012  136.8063  154.9918 C   0  0  0  0  0  0  0  0  0  0  0  0
  151.1346  137.9925  155.0637 N   0  0  0  0  0  0  0  0  0  0  0  0
  152.4609  138.1368  155.0208 C   0  0  0  0  0  0  0  0  0  0  0  0
  152.8181  139.4077  155.1236 N   0  0  0  0  0  0  0  0  0  0  0  0
  151.6055  140.0674  155.2349 N   0  0  0  0  0  0  0  0  0  0  0  0
  150.6030  139.2329  155.1993 N   0  0  0  0  0  0  0  0  0  0  0  0
  146.1630  134.4528  153.5111 C   0  0  0  0  0  0  0  0  0  0  0  0
  148.3953  133.6851  151.9269 H   0  0  0  0  0  0  0  0  0  0  0  0
  148.4005  131.9904  152.4033 H   0  0  0  0  0  0  0  0  0  0  0  0
  148.6932  133.2415  153.6021 H   0  0  0  0  0  0  0  0  0  0  0  0
  146.4206  132.3537  153.8340 H   0  0  0  0  0  0  0  0  0  0  0  0
  146.0895  131.6591  151.4294 H   0  0  0  0  0  0  0  0  0  0  0  0
  144.7128  132.4271  152.1765 H   0  0  0  0  0  0  0  0  0  0  0  0
  146.6825  133.7568  150.2588 H   0  0  0  0  0  0  0  0  0  0  0  0
  145.0114  133.3740  149.9385 H   0  0  0  0  0  0  0  0  0  0  0  0
  145.3230  135.7842  150.4938 H   0  0  0  0  0  0  0  0  0  0  0  0
  144.2489  135.0079  151.6417 H   0  0  0  0  0  0  0  0  0  0  0  0
  146.2823  137.5498  152.1509 H   0  0  0  0  0  0  0  0  0  0  0  0
  144.8122  136.9952  152.9123 H   0  0  0  0  0  0  0  0  0  0  0  0
  146.3646  138.1622  154.5550 H   0  0  0  0  0  0  0  0  0  0  0  0
  146.1166  136.4937  155.0064 H   0  0  0  0  0  0  0  0  0  0  0  0
  148.3674  136.5010  153.3572 H   0  0  0  0  0  0  0  0  0  0  0  0
  150.6533  136.0899  155.7356 H   0  0  0  0  0  0  0  0  0  0  0  0
  150.4180  136.3387  154.0130 H   0  0  0  0  0  0  0  0  0  0  0  0
  153.1578  137.3181  154.9183 H   0  0  0  0  0  0  0  0  0  0  0  0
  145.1571  134.3964  153.9305 H   0  0  0  0  0  0  0  0  0  0  0  0
  146.8166  134.7677  154.3238 H   0  0  0  0  0  0  0  0  0  0  0  0
  147.1076  135.4665  152.0302 H   0  0  0  0  0  0  0  0  0  0  0  0
  1  2  1  0  0  0  0
  1 19  1  0  0  0  0
  1 20  1  0  0  0  0
  1 21  1  0  0  0  0
  2 18  1  0  0  0  0
  2  3  1  0  0  0  0
  2 22  1  0  0  0  0
  3  4  1  0  0  0  0
  3 23  1  0  0  0  0
  3 24  1  0  0  0  0
  4  5  1  0  0  0  0
  4 25  1  0  0  0  0
  4 26  1  0  0  0  0
  5  6  1  0  0  0  0
  5 27  1  0  0  0  0
  5 28  1  0  0  0  0
  6  7  1  0  0  0  0
  6 18  1  0  0  0  0
  6 39  1  0  0  0  0
  7  8  1  0  0  0  0
  7 29  1  0  0  0  0
  7 30  1  0  0  0  0
  8  9  1  0  0  0  0
  8 31  1  0  0  0  0
  8 32  1  0  0  0  0
  9 10  1  0  0  0  0
  9 33  1  0  0  0  0
 10 11  2  0  0  0  0
 10 12  1  0  0  0  0
 12 13  1  0  0  0  0
 12 34  1  0  0  0  0
 12 35  1  0  0  0  0
 13 17  1  0  0  0  0
 13 14  1  0  0  0  0
 14 15  2  0  0  0  0
 14 36  1  0  0  0  0
 15 16  1  0  0  0  0
 16 17  2  0  0  0  0
 18 37  1  0  0  0  0
 18 38  1  0  0  0  0
M  CHG  1   6   1
M  END
> <s_m_source_file>
AV-unprocessed.smi

> <i_m_source_file_index>
1607

> <i_lp_mmshare_version>
43012

> <i_f3d_flags>
0

> <s_epik_input>
W0NIM11bQ0BASF0xW0NIMl1bQ0gyXVtDSDJdTihbQ0gyXTEpW0NIMl1bQ0gyXVtOSF1DKD1PKVtDSDJdbjJbY0hdbm5uMg==

> <s_epik_cmdline>
J2VwaWtfcHl0aG9uJywgJy1waCcsICc3LjAnLCAnLXRuJywgJzgnLCAnLW1hJywgJzIwMCcsICctbWV0YWxfYmluZGluZycsICctaW1hZScsICc8aW5maWxlLm1hZT4nLCAnLW9tYWUnLCAnPG91dGZpbGUubWFlPic=

> <r_lp_tautomer_probability>
1

> <r_epik_Ionization_Penalty>
0.00268321

> <r_epik_Ionization_Penalty_Charging>
0.00267875

> <r_epik_Ionization_Penalty_Neutral>
4.46125e-06

> <r_epik_State_Penalty>
0.00186642

> <r_epik_Charging_Adjusted_Penalty>
0.00454517

> <i_epik_Tot_Q>
1

> <i_epik_Tot_abs_Q>
1

> <r_epik_Metal_State_Penalty>
-0

> <b_epik_Metal_Only>
0

> <s_lp_Force_Field>
OPLS_2005

> <r_lp_Energy>
22.0016

> <b_lp_Chiralities_Consistent>
1

> <s_lp_Variant>
AV-unprocessed.smi:1607-3

> <Gold.Version>
5.8.1

> <Gold.Id.Protein>
6NUR|6NUR_protein|mol2

> <Gold.PLP.Fitness>
41.7454

> <Gold.PLP.PLP>
-27.2134

> <Gold.PLP.part.hbond>
-5.0103

> <Gold.PLP.part.metal>
0.0000

> <Gold.PLP.part.buried>
-4.7640

> <Gold.PLP.part.nonpolar>
-18.7830

> <Gold.PLP.part.repulsive>
0.1654

> <Gold.PLP.ligand.clash>
0.0000

> <Gold.PLP.ligand.torsion>
0.2072

> <Gold.PLP.Chemscore.Hbond>
4.9760

> <Gold.PLP.Chemscore.CHOScore>
0.0000

> <Gold.PLP.Chemscore.Metal>
0.0000

> <Gold.Chemscore.Hbonds>
donor molecule, donor type, donor heavy atom, donor atom, acceptor molecule, acceptor atom, score
      L1  H     6    39       P1  7948  2.00
      L1  H     9    33       P1  7948  1.00
      P1  H  7989  7998       L1    16  0.79
      P1  H  7997  8009       L1    15  1.00

> <Gold.PLP.Chemscore.Internal.Correction>
0.0184

> <Gold.Rescore>
     Score         DG    S(hbond)    S(metal)    S(lipo)     H(rot)  DE(clash)    DE(int)     intcor
     15.02     -15.59       3.62        0.00      42.05       2.69       0.09       0.48       ----

> <Gold.Chemscore.Fitness>
15.0209

> <Gold.Chemscore.DG>
-15.5883

> <Gold.Chemscore.ZeroCoef>
-5.4800

> <Gold.Chemscore.Hbond>
3.6177

> <Gold.Chemscore.Metal>
0.0000

> <Gold.Chemscore.Lipo>
42.0500

> <Gold.Chemscore.Internal_Hbond>
0.0000

> <Gold.Chemscore.DEClash>
0.0871

> <Gold.Chemscore.DEInternal>
0.4804

> <Gold.Chemscore.Rot>
2.6932

> <Gold.Chemscore.Internal.Correction>
   9.000000E+99

> <Gold.Chemscore.Hbonds>
donor molecule, donor type, donor heavy atom, donor atom, acceptor molecule, acceptor atom, score
      L1  H     6    39       P1  7948  0.95
      L1  H     9    33       P1  7948  0.99
      P1  H  7989  7998       L1    16  0.06
      P1  H  7997  8009       L1    15  0.94

> <Gold.Chemscore.Hbond.Weighted>
-12.0830

> <Gold.Chemscore.Metal.Weighted>
-0.0000

> <Gold.Chemscore.Lipo.Weighted>
-4.9198

> <Gold.Chemscore.Internal_Hbond.Weighted>
0.0000

> <Gold.Chemscore.DEClash.Weighted>
0.0871

> <Gold.Chemscore.DEInternal.Weighted>
0.4804

> <Gold.Chemscore.Rot.Weighted>
6.8945

> <Gold.Chemscore.Internal.Correction.Weighted>
   9.000000E+99

> <Gold.Protein.RotatedTorsions>
[ 6907 6896 6895 6894 ] final    8.83 input  -60.11 | X-H torsion
[ 7974 7965 7964 7962 ] final   54.34 input  175.53 | X-H torsion
[ 8008 7997 7996 7995 ] final -149.73 input   59.86 | X-H torsion
[ 10167 10162 10161 10158 ] final   92.66 input  -65.29 | X-H torsion
[ 10718 10713 10712 10709 ] final  -92.52 input   66.30 | X-H torsion
[ 10763 10752 10751 10750 ] final -125.81 input  -60.55 | X-H torsion
[ 11005 11000 10999 10996 ] final   70.44 input  -57.11 | X-H torsion

> <Gold.Protein.ActiveResidues>
 VAL166  LYS551  ARG553  GLY616  TRP617  ASP618  TYR619  PRO620  LYS621  CYS622 
 ASP623  PHE694  ASN695  SER759  ASP760  ASP761  ALA762  ILE779  LEU786  VAL792 
 PHE793  MET794  SER795  GLU796  ALA797  LYS798  CYS799  TRP800  GLU811  SER814 

> <Gold.Protein.RotatedAtoms>
  151.7124  135.0910  160.0269 H   0  0  0  0  0  0  0  0  0  0  0  0  # atno 6907 bound_to 6896
  152.3653  133.6345  159.6054 H   0  0  0  0  0  0  0  0  0  0  0  0  # atno 6908 bound_to 6896
  150.7633  133.9274  159.3458 H   0  0  0  0  0  0  0  0  0  0  0  0  # atno 6909 bound_to 6896
  145.9618  139.4066  143.0243 H   0  0  0  0  0  0  0  0  0  0  0  0  # atno 7974 bound_to 7965
  155.6123  140.0673  157.2702 H   0  0  0  0  0  0  0  0  0  0  0  0  # atno 8008 bound_to 7997
  154.4250  140.1799  156.1333 H   0  0  0  0  0  0  0  0  0  0  0  0  # atno 8009 bound_to 7997
  156.0075  140.3330  155.6910 H   0  0  0  0  0  0  0  0  0  0  0  0  # atno 8010 bound_to 7997
  139.8255  144.6711  150.9465 H   0  0  0  0  0  0  0  0  0  0  0  0  # atno 10167 bound_to 10162
  156.0003  130.4990  150.5638 H   0  0  0  0  0  0  0  0  0  0  0  0  # atno 10718 bound_to 10713
  154.8740  135.4017  154.3329 H   0  0  0  0  0  0  0  0  0  0  0  0  # atno 10763 bound_to 10752
  153.4140  135.7021  153.6345 H   0  0  0  0  0  0  0  0  0  0  0  0  # atno 10764 bound_to 10752
  153.5035  135.3722  155.2522 H   0  0  0  0  0  0  0  0  0  0  0  0  # atno 10765 bound_to 10752
  139.9597  134.7082  156.0673 H   0  0  0  0  0  0  0  0  0  0  0  0  # atno 11005 bound_to 11000
  145.8029  140.9762  143.0989 LP  0  0  0  0  0  0  0  0  0  0  0  0  # atno 17320 bound_to 7965
  144.6817  139.9824  143.7483 LP  0  0  0  0  0  0  0  0  0  0  0  0  # atno 17321 bound_to 7965
  140.7810  143.4050  151.1086 LP  0  0  0  0  0  0  0  0  0  0  0  0  # atno 17342 bound_to 10162
  139.7708  143.8498  152.3120 LP  0  0  0  0  0  0  0  0  0  0  0  0  # atno 17343 bound_to 10162
  157.3543  131.0739  151.1688 LP  0  0  0  0  0  0  0  0  0  0  0  0  # atno 17370 bound_to 10713
  157.2494  130.6607  149.5924 LP  0  0  0  0  0  0  0  0  0  0  0  0  # atno 17371 bound_to 10713
  141.1273  133.6596  156.3371 LP  0  0  0  0  0  0  0  0  0  0  0  0  # atno 17394 bound_to 11000
  140.5527  134.6011  157.5412 LP  0  0  0  0  0  0  0  0  0  0  0  0  # atno 17395 bound_to 11000

$$$$
