AV-unprocessed.smi:2942|AV-procd|sdf|11266|dock1
  -GOLD-   2272016153D 1   1.00000     0.00000
 Structure written by MMmdl.
 45 48  0  0  0  0  0  0  0  0  1 V2000
  144.4242  135.4708  154.1426 O   0  0  0  0  0  0  0  0  0  0  0  0
  143.8979  135.3527  153.0352 C   0  0  0  0  0  0  0  0  0  0  0  0
  142.9422  136.1913  152.6029 N   0  0  0  0  0  0  0  0  0  0  0  0
  142.4477  137.3580  153.3263 C   0  0  0  0  0  0  0  0  0  0  0  0
  141.7833  137.0040  154.6738 C   0  0  0  0  0  0  0  0  0  0  0  0
  140.2646  137.0778  154.6504 C   0  0  0  0  0  0  0  0  0  0  0  0
  139.5803  137.4008  153.4594 C   0  0  0  0  0  0  0  0  0  0  0  0
  138.1750  137.4879  153.4952 C   0  0  0  0  0  0  0  0  0  0  0  0
  137.5106  137.2501  154.7138 C   0  0  0  0  0  0  0  0  0  0  0  0
  138.2846  136.9336  155.8478 C   0  0  0  0  0  0  0  0  0  0  0  0
  139.6318  136.8489  155.8240 N   0  0  0  0  0  0  0  0  0  0  0  0
  144.3467  134.2366  152.0632 C   0  0  0  0  0  0  0  0  0  0  0  0
  145.4393  133.3748  152.7504 C   0  0  0  0  0  0  0  0  0  0  0  0
  145.9001  132.2423  151.8077 C   0  0  1  0  0  0  0  0  0  0  0  0
  144.7005  131.3358  151.4629 C   0  0  0  0  0  0  0  0  0  0  0  0
  143.6146  132.1758  150.7586 C   0  0  2  0  0  0  0  0  0  0  0  0
  144.1854  132.7818  149.4604 C   0  0  0  0  0  0  0  0  0  0  0  0
  145.3865  133.6844  149.8080 C   0  0  2  0  0  0  0  0  0  0  0  0
  146.4779  132.8500  150.5118 C   0  0  0  0  0  0  0  0  0  0  0  0
  144.9265  134.8234  150.7426 C   0  0  0  0  0  0  0  0  0  0  0  0
  143.1509  133.3093  151.6981 C   0  0  0  0  0  0  0  0  0  0  0  0
  142.5586  136.0315  151.6826 H   0  0  0  0  0  0  0  0  0  0  0  0
  143.3056  138.0050  153.5107 H   0  0  0  0  0  0  0  0  0  0  0  0
  141.7614  137.9300  152.7003 H   0  0  0  0  0  0  0  0  0  0  0  0
  142.0842  136.0007  154.9772 H   0  0  0  0  0  0  0  0  0  0  0  0
  142.1561  137.6734  155.4507 H   0  0  0  0  0  0  0  0  0  0  0  0
  140.1187  137.5850  152.5415 H   0  0  0  0  0  0  0  0  0  0  0  0
  137.6170  137.7357  152.6044 H   0  0  0  0  0  0  0  0  0  0  0  0
  136.4342  137.3093  154.7784 H   0  0  0  0  0  0  0  0  0  0  0  0
  137.8099  136.7470  156.7997 H   0  0  0  0  0  0  0  0  0  0  0  0
  146.2974  133.9924  153.0198 H   0  0  0  0  0  0  0  0  0  0  0  0
  145.0638  132.9511  153.6834 H   0  0  0  0  0  0  0  0  0  0  0  0
  146.6698  131.6507  152.3044 H   0  0  0  0  0  0  0  0  0  0  0  0
  145.0199  130.5147  150.8199 H   0  0  0  0  0  0  0  0  0  0  0  0
  144.2985  130.8803  152.3688 H   0  0  0  0  0  0  0  0  0  0  0  0
  142.7649  131.5372  150.5159 H   0  0  0  0  0  0  0  0  0  0  0  0
  144.4927  131.9900  148.7762 H   0  0  0  0  0  0  0  0  0  0  0  0
  143.4174  133.3574  148.9422 H   0  0  0  0  0  0  0  0  0  0  0  0
  145.7934  134.1123  148.8914 H   0  0  0  0  0  0  0  0  0  0  0  0
  147.3432  133.4734  150.7399 H   0  0  0  0  0  0  0  0  0  0  0  0
  146.8339  132.0592  149.8503 H   0  0  0  0  0  0  0  0  0  0  0  0
  144.1790  135.4383  150.2389 H   0  0  0  0  0  0  0  0  0  0  0  0
  145.7779  135.4759  150.9413 H   0  0  0  0  0  0  0  0  0  0  0  0
  142.7124  132.8695  152.5955 H   0  0  0  0  0  0  0  0  0  0  0  0
  142.3564  133.8834  151.2187 H   0  0  0  0  0  0  0  0  0  0  0  0
  1  2  2  0  0  0  0
  2  3  1  0  0  0  0
  2 12  1  0  0  0  0
  3  4  1  0  0  0  0
  3 22  1  0  0  0  0
  4  5  1  0  0  0  0
  4 23  1  0  0  0  0
  4 24  1  0  0  0  0
  5  6  1  0  0  0  0
  5 25  1  0  0  0  0
  5 26  1  0  0  0  0
  6 11  1  0  0  0  0
  6  7  2  0  0  0  0
  7  8  1  0  0  0  0
  7 27  1  0  0  0  0
  8  9  2  0  0  0  0
  8 28  1  0  0  0  0
  9 10  1  0  0  0  0
  9 29  1  0  0  0  0
 10 11  2  0  0  0  0
 10 30  1  0  0  0  0
 12 20  1  0  0  0  0
 12 21  1  0  0  0  0
 12 13  1  0  0  0  0
 13 14  1  0  0  0  0
 13 31  1  0  0  0  0
 13 32  1  0  0  0  0
 14 19  1  0  0  0  0
 14 15  1  0  0  0  0
 14 33  1  0  0  0  0
 15 16  1  0  0  0  0
 15 34  1  0  0  0  0
 15 35  1  0  0  0  0
 16 17  1  0  0  0  0
 16 21  1  0  0  0  0
 16 36  1  0  0  0  0
 17 18  1  0  0  0  0
 17 37  1  0  0  0  0
 17 38  1  0  0  0  0
 18 19  1  0  0  0  0
 18 20  1  0  0  0  0
 18 39  1  0  0  0  0
 19 40  1  0  0  0  0
 19 41  1  0  0  0  0
 20 42  1  0  0  0  0
 20 43  1  0  0  0  0
 21 44  1  0  0  0  0
 21 45  1  0  0  0  0
M  END
> <s_m_source_file>
AV-unprocessed.smi

> <i_m_source_file_index>
2942

> <i_lp_mmshare_version>
43012

> <i_f3d_flags>
0

> <s_epik_input>
W0NIMl0xW0NASF0oW0NIMl0yKVtDSDJdW0NASF0oW0NIMl0zKVtDSDJdW0NAQEhdMVtDSDJdQzIzQyg9TylbTkhdW0NIMl1bQ0gyXWM0W2NIXVtjSF1bY0hdW2NIXW40

> <s_epik_cmdline>
J2VwaWtfcHl0aG9uJywgJy1waCcsICc3LjAnLCAnLXRuJywgJzgnLCAnLW1hJywgJzIwMCcsICctbWV0YWxfYmluZGluZycsICctaW1hZScsICc8aW5maWxlLm1hZT4nLCAnLW9tYWUnLCAnPG91dGZpbGUubWFlPic=

> <r_epik_Ionization_Penalty>
0.0283659

> <r_epik_Ionization_Penalty_Charging>
0

> <r_epik_Ionization_Penalty_Neutral>
0.0283659

> <r_epik_State_Penalty>
0.0232723

> <r_epik_Charging_Adjusted_Penalty>
0.0232723

> <i_epik_Tot_Q>
0

> <i_epik_Tot_abs_Q>
0

> <r_epik_Metal_State_Penalty>
0.0222054

> <b_epik_Metal_Only>
0

> <s_lp_Force_Field>
OPLS_2005

> <r_lp_Energy>
35.5919

> <b_lp_Chiralities_Consistent>
1

> <s_lp_Variant>
AV-unprocessed.smi:2942-1

> <Gold.Version>
5.8.1

> <Gold.Id.Protein>
6NUR|6NUR_protein|mol2

> <Gold.PLP.Fitness>
40.7921

> <Gold.PLP.PLP>
-38.4333

> <Gold.PLP.part.hbond>
-1.0000

> <Gold.PLP.part.metal>
0.0000

> <Gold.PLP.part.buried>
-2.4737

> <Gold.PLP.part.nonpolar>
-34.3151

> <Gold.PLP.part.repulsive>
0.0864

> <Gold.PLP.ligand.clash>
0.0000

> <Gold.PLP.ligand.torsion>
0.3322

> <Gold.PLP.Chemscore.Hbond>
1.0000

> <Gold.PLP.Chemscore.CHOScore>
0.0000

> <Gold.PLP.Chemscore.Metal>
0.0000

> <Gold.Chemscore.Hbonds>
donor molecule, donor type, donor heavy atom, donor atom, acceptor molecule, acceptor atom, score
      P1  H 11000 11005       L1    11  1.00

> <Gold.PLP.Chemscore.Internal.Correction>
0.0232

> <Gold.Rescore>
     Score         DG    S(hbond)    S(metal)    S(lipo)     H(rot)  DE(clash)    DE(int)     intcor
     15.66     -17.54       0.63        0.00     114.21       1.32       1.52       0.35       ----

> <Gold.Chemscore.Fitness>
15.6612

> <Gold.Chemscore.DG>
-17.5397

> <Gold.Chemscore.ZeroCoef>
-5.4800

> <Gold.Chemscore.Hbond>
0.6254

> <Gold.Chemscore.Metal>
0.0000

> <Gold.Chemscore.Lipo>
114.2112

> <Gold.Chemscore.Internal_Hbond>
0.0000

> <Gold.Chemscore.DEClash>
1.5235

> <Gold.Chemscore.DEInternal>
0.3550

> <Gold.Chemscore.Rot>
1.3250

> <Gold.Chemscore.Internal.Correction>
   9.000000E+99

> <Gold.Chemscore.Hbonds>
donor molecule, donor type, donor heavy atom, donor atom, acceptor molecule, acceptor atom, score
      P1  H 11000 11005       L1    11  0.22

> <Gold.Chemscore.Hbond.Weighted>
-2.0890

> <Gold.Chemscore.Metal.Weighted>
-0.0000

> <Gold.Chemscore.Lipo.Weighted>
-13.3627

> <Gold.Chemscore.Internal_Hbond.Weighted>
0.0000

> <Gold.Chemscore.DEClash.Weighted>
1.5235

> <Gold.Chemscore.DEInternal.Weighted>
0.3550

> <Gold.Chemscore.Rot.Weighted>
3.3920

> <Gold.Chemscore.Internal.Correction.Weighted>
   9.000000E+99

> <Gold.Protein.RotatedTorsions>
[ 6907 6896 6895 6894 ] final  172.66 input  -60.11 | X-H torsion
[ 7974 7965 7964 7962 ] final -100.75 input  175.53 | X-H torsion
[ 8008 7997 7996 7995 ] final  164.62 input   59.86 | X-H torsion
[ 10167 10162 10161 10158 ] final  -38.23 input  -65.29 | X-H torsion
[ 10718 10713 10712 10709 ] final  138.69 input   66.30 | X-H torsion
[ 10763 10752 10751 10750 ] final   85.11 input  -60.55 | X-H torsion
[ 11005 11000 10999 10996 ] final  110.98 input  -57.11 | X-H torsion

> <Gold.Protein.ActiveResidues>
 VAL166  LYS551  ARG553  GLY616  TRP617  ASP618  TYR619  PRO620  LYS621  CYS622 
 ASP623  PHE694  ASN695  SER759  ASP760  ASP761  ALA762  ILE779  LEU786  VAL792 
 PHE793  MET794  SER795  GLU796  ALA797  LYS798  CYS799  TRP800  GLU811  SER814 

> <Gold.Protein.RotatedAtoms>
  151.7808  133.3349  159.3470 H   0  0  0  0  0  0  0  0  0  0  0  0  # atno 6907 bound_to 6896
  150.7427  134.5933  159.6008 H   0  0  0  0  0  0  0  0  0  0  0  0  # atno 6908 bound_to 6896
  152.3278  134.7300  160.0349 H   0  0  0  0  0  0  0  0  0  0  0  0  # atno 6909 bound_to 6896
  145.2905  140.9351  143.2880 H   0  0  0  0  0  0  0  0  0  0  0  0  # atno 7974 bound_to 7965
  156.1865  140.1692  156.8175 H   0  0  0  0  0  0  0  0  0  0  0  0  # atno 8008 bound_to 7997
  154.5420  140.0734  156.8559 H   0  0  0  0  0  0  0  0  0  0  0  0  # atno 8009 bound_to 7997
  155.3195  140.3372  155.4244 H   0  0  0  0  0  0  0  0  0  0  0  0  # atno 8010 bound_to 7997
  140.7098  143.3291  151.2611 H   0  0  0  0  0  0  0  0  0  0  0  0  # atno 10167 bound_to 10162
  157.4226  131.1040  151.0338 H   0  0  0  0  0  0  0  0  0  0  0  0  # atno 10718 bound_to 10713
  153.1444  135.4629  154.9544 H   0  0  0  0  0  0  0  0  0  0  0  0  # atno 10763 bound_to 10752
  154.7774  135.3177  154.8065 H   0  0  0  0  0  0  0  0  0  0  0  0  # atno 10764 bound_to 10752
  153.8582  135.6915  153.4839 H   0  0  0  0  0  0  0  0  0  0  0  0  # atno 10765 bound_to 10752
  139.8893  134.9497  156.6362 H   0  0  0  0  0  0  0  0  0  0  0  0  # atno 11005 bound_to 11000
  144.9177  139.4450  143.6556 LP  0  0  0  0  0  0  0  0  0  0  0  0  # atno 17320 bound_to 7965
  146.3186  139.8020  142.8963 LP  0  0  0  0  0  0  0  0  0  0  0  0  # atno 17321 bound_to 7965
  139.6767  143.9925  152.2785 LP  0  0  0  0  0  0  0  0  0  0  0  0  # atno 17342 bound_to 10162
  139.9541  144.6601  150.8143 LP  0  0  0  0  0  0  0  0  0  0  0  0  # atno 17343 bound_to 10162
  157.1263  130.6083  149.5518 LP  0  0  0  0  0  0  0  0  0  0  0  0  # atno 17370 bound_to 10713
  155.9885  130.4929  150.7175 LP  0  0  0  0  0  0  0  0  0  0  0  0  # atno 17371 bound_to 10713
  140.7629  133.8803  155.8432 LP  0  0  0  0  0  0  0  0  0  0  0  0  # atno 17394 bound_to 11000
  140.9907  134.1282  157.4410 LP  0  0  0  0  0  0  0  0  0  0  0  0  # atno 17395 bound_to 11000

$$$$
