AV-unprocessed.smi:19|AV-procd|sdf|109|dock5
  -GOLD-   2262015273D 1   1.00000     0.00000
 Structure written by MMmdl.
 57 60  0  0  0  0  0  0  0  0  1 V2000
  146.6954  142.0749  155.0607 C   0  0  0  0  0  0  0  0  0  0  0  0
  147.1574  141.3281  156.1752 O   0  0  0  0  0  0  0  0  0  0  0  0
  148.5685  141.1602  156.2225 C   0  0  0  0  0  0  0  0  0  0  0  0
  149.1542  140.7822  154.8426 C   0  0  2  0  0  0  0  0  0  0  0  0
  148.5559  139.4904  154.2541 C   0  0  0  0  0  0  0  0  0  0  0  0
  149.0706  138.3195  154.9550 N   0  0  0  0  0  0  0  0  0  0  0  0
  148.3855  137.1687  154.7390 C   0  0  0  0  0  0  0  0  0  0  0  0
  148.9243  135.9767  155.1106 N   0  0  0  0  0  0  0  0  0  0  0  0
  148.2589  134.8386  154.8931 C   0  0  0  0  0  0  0  0  0  0  0  0
  147.0596  134.6674  154.3348 N   0  0  0  0  0  0  0  0  0  0  0  0
  146.5065  135.8597  153.9715 C   0  0  0  0  0  0  0  0  0  0  0  0
  147.0983  137.1446  154.1315 C   0  0  0  0  0  0  0  0  0  0  0  0
  146.2399  138.1236  153.6460 N   0  0  0  0  0  0  0  0  0  0  0  0
  145.2075  137.4551  153.2114 C   0  0  0  0  0  0  0  0  0  0  0  0
  145.2735  136.0904  153.3846 N   0  0  0  0  0  0  0  0  0  0  0  0
  144.2647  135.1131  152.9971 C   0  0  0  0  0  0  0  0  0  0  0  0
  144.6879  134.1521  151.8457 C   0  0  0  0  0  0  0  0  0  0  0  0
  145.1670  134.9600  150.6056 C   0  0  0  0  0  0  0  0  0  0  0  0
  144.1755  135.8471  150.1282 O   0  0  0  0  0  0  0  0  0  0  0  0
  145.8292  133.2192  152.3264 C   0  0  0  0  0  0  0  0  0  0  0  0
  146.0821  132.0315  151.3786 C   0  0  0  0  0  0  0  0  0  0  0  0
  144.8821  131.2964  151.1803 O   0  0  0  0  0  0  0  0  0  0  0  0
  143.8550  132.0720  150.5768 C   0  0  0  0  0  0  0  0  0  0  0  0
  143.4796  133.2451  151.4990 C   0  0  0  0  0  0  0  0  0  0  0  0
  150.5284  138.2657  154.9816 C   0  0  0  0  0  0  0  0  0  0  0  0
  151.0913  139.5616  155.5916 C   0  0  1  0  0  0  0  0  0  0  0  0
  152.6210  139.6079  155.5236 C   0  0  0  0  0  0  0  0  0  0  0  0
  150.5808  140.6877  154.8771 O   0  0  0  0  0  0  0  0  0  0  0  0
  145.6118  142.1778  155.1195 H   0  0  0  0  0  0  0  0  0  0  0  0
  146.9295  141.5873  154.1148 H   0  0  0  0  0  0  0  0  0  0  0  0
  147.1244  143.0777  155.0531 H   0  0  0  0  0  0  0  0  0  0  0  0
  149.0435  142.0634  156.6088 H   0  0  0  0  0  0  0  0  0  0  0  0
  148.7754  140.3732  156.9476 H   0  0  0  0  0  0  0  0  0  0  0  0
  148.9405  141.5935  154.1483 H   0  0  0  0  0  0  0  0  0  0  0  0
  147.4680  139.5401  154.2836 H   0  0  0  0  0  0  0  0  0  0  0  0
  148.8329  139.4069  153.2022 H   0  0  0  0  0  0  0  0  0  0  0  0
  148.7589  133.9361  155.2119 H   0  0  0  0  0  0  0  0  0  0  0  0
  144.3582  137.9453  152.7579 H   0  0  0  0  0  0  0  0  0  0  0  0
  144.0101  134.5384  153.8886 H   0  0  0  0  0  0  0  0  0  0  0  0
  143.3549  135.6509  152.7282 H   0  0  0  0  0  0  0  0  0  0  0  0
  146.0621  135.5363  150.8403 H   0  0  0  0  0  0  0  0  0  0  0  0
  145.4421  134.3063  149.7798 H   0  0  0  0  0  0  0  0  0  0  0  0
  144.2853  135.9466  149.1948 H   0  0  0  0  0  0  0  0  0  0  0  0
  146.7568  133.7782  152.4518 H   0  0  0  0  0  0  0  0  0  0  0  0
  145.5790  132.8186  153.3097 H   0  0  0  0  0  0  0  0  0  0  0  0
  146.4854  132.3595  150.4202 H   0  0  0  0  0  0  0  0  0  0  0  0
  146.8271  131.3656  151.8145 H   0  0  0  0  0  0  0  0  0  0  0  0
  144.1682  132.4191  149.5917 H   0  0  0  0  0  0  0  0  0  0  0  0
  142.9860  131.4330  150.4200 H   0  0  0  0  0  0  0  0  0  0  0  0
  143.0658  132.8272  152.4180 H   0  0  0  0  0  0  0  0  0  0  0  0
  142.6727  133.8256  151.0506 H   0  0  0  0  0  0  0  0  0  0  0  0
  150.8633  137.4089  155.5679 H   0  0  0  0  0  0  0  0  0  0  0  0
  150.9025  138.1329  153.9654 H   0  0  0  0  0  0  0  0  0  0  0  0
  150.7980  139.6288  156.6396 H   0  0  0  0  0  0  0  0  0  0  0  0
  153.0628  138.7711  156.0654 H   0  0  0  0  0  0  0  0  0  0  0  0
  153.0032  140.5285  155.9656 H   0  0  0  0  0  0  0  0  0  0  0  0
  152.9718  139.5621  154.4922 H   0  0  0  0  0  0  0  0  0  0  0  0
  1  2  1  0  0  0  0
  1 29  1  0  0  0  0
  1 30  1  0  0  0  0
  1 31  1  0  0  0  0
  2  3  1  0  0  0  0
  3  4  1  0  0  0  0
  3 32  1  0  0  0  0
  3 33  1  0  0  0  0
  4 28  1  0  0  0  0
  4  5  1  0  0  0  0
  4 34  1  0  0  0  0
  5  6  1  0  0  0  0
  5 35  1  0  0  0  0
  5 36  1  0  0  0  0
  6  7  1  0  0  0  0
  6 25  1  0  0  0  0
  7 12  1  0  0  0  0
  7  8  2  0  0  0  0
  8  9  1  0  0  0  0
  9 10  2  0  0  0  0
  9 37  1  0  0  0  0
 10 11  1  0  0  0  0
 11 15  1  0  0  0  0
 11 12  2  0  0  0  0
 12 13  1  0  0  0  0
 13 14  2  0  0  0  0
 14 15  1  0  0  0  0
 14 38  1  0  0  0  0
 15 16  1  0  0  0  0
 16 17  1  0  0  0  0
 16 39  1  0  0  0  0
 16 40  1  0  0  0  0
 17 24  1  0  0  0  0
 17 18  1  0  0  0  0
 17 20  1  0  0  0  0
 18 19  1  0  0  0  0
 18 41  1  0  0  0  0
 18 42  1  0  0  0  0
 19 43  1  0  0  0  0
 20 21  1  0  0  0  0
 20 44  1  0  0  0  0
 20 45  1  0  0  0  0
 21 22  1  0  0  0  0
 21 46  1  0  0  0  0
 21 47  1  0  0  0  0
 22 23  1  0  0  0  0
 23 24  1  0  0  0  0
 23 48  1  0  0  0  0
 23 49  1  0  0  0  0
 24 50  1  0  0  0  0
 24 51  1  0  0  0  0
 25 26  1  0  0  0  0
 25 52  1  0  0  0  0
 25 53  1  0  0  0  0
 26 27  1  0  0  0  0
 26 28  1  0  0  0  0
 26 54  1  0  0  0  0
 27 55  1  0  0  0  0
 27 56  1  0  0  0  0
 27 57  1  0  0  0  0
M  END
> <s_m_source_file>
AV-unprocessed.smi

> <i_m_source_file_index>
19

> <i_lp_mmshare_version>
43012

> <i_f3d_flags>
0

> <s_epik_input>
W0NIM11PW0NIMl1bQ0BASF0xW0NIMl1OKFtDSDJdW0NASF0oTzEpW0NIM10pYyhuW2NIXW4yKWMoYzIzKW5bY0hdbjNbQ0gyXUM0KFtDSDJdW09IXSlbQ0gyXVtDSDJdT1tDSDJdW0NIMl00

> <s_epik_cmdline>
J2VwaWtfcHl0aG9uJywgJy1waCcsICc3LjAnLCAnLXRuJywgJzgnLCAnLW1hJywgJzIwMCcsICctbWV0YWxfYmluZGluZycsICctaW1hZScsICc8aW5maWxlLm1hZT4nLCAnLW9tYWUnLCAnPG91dGZpbGUubWFlPic=

> <r_lp_tautomer_probability>
1

> <r_epik_Ionization_Penalty>
6.20357e-05

> <r_epik_Ionization_Penalty_Charging>
0

> <r_epik_Ionization_Penalty_Neutral>
6.20357e-05

> <r_epik_State_Penalty>
-0

> <r_epik_Charging_Adjusted_Penalty>
0

> <i_epik_Tot_Q>
0

> <i_epik_Tot_abs_Q>
0

> <r_epik_Metal_State_Penalty>
-0

> <b_epik_Metal_Only>
0

> <s_lp_Force_Field>
OPLS_2005

> <r_lp_Energy>
39.3548

> <b_lp_Chiralities_Consistent>
1

> <s_lp_Variant>
AV-unprocessed.smi:19-1

> <Gold.Version>
5.8.1

> <Gold.Id.Protein>
6NUR|6NUR_protein|mol2

> <Gold.PLP.Fitness>
44.5256

> <Gold.PLP.PLP>
-34.0542

> <Gold.PLP.part.hbond>
-3.0000

> <Gold.PLP.part.metal>
0.0000

> <Gold.PLP.part.buried>
-0.3557

> <Gold.PLP.part.nonpolar>
-31.5843

> <Gold.PLP.part.repulsive>
0.8459

> <Gold.PLP.ligand.clash>
0.0000

> <Gold.PLP.ligand.torsion>
0.6668

> <Gold.PLP.Chemscore.Hbond>
1.8560

> <Gold.PLP.Chemscore.CHOScore>
1.9303

> <Gold.PLP.Chemscore.Metal>
0.0000

> <Gold.Chemscore.Hbonds>
donor molecule, donor type, donor heavy atom, donor atom, acceptor molecule, acceptor atom, score
      P1  H  7989  7998       L1    28  0.91
      L1  C    14    38       P1 10175  0.81

> <Gold.PLP.Chemscore.Internal.Correction>
0.4460

> <Gold.Rescore>
     Score         DG    S(hbond)    S(metal)    S(lipo)     H(rot)  DE(clash)    DE(int)     intcor
     10.17     -13.96       1.81        0.00      83.61       2.87       0.44       3.35       ----

> <Gold.Chemscore.Fitness>
10.1676

> <Gold.Chemscore.DG>
-13.9579

> <Gold.Chemscore.ZeroCoef>
-5.4800

> <Gold.Chemscore.Hbond>
1.8114

> <Gold.Chemscore.Metal>
0.0000

> <Gold.Chemscore.Lipo>
83.6101

> <Gold.Chemscore.Internal_Hbond>
0.0000

> <Gold.Chemscore.DEClash>
0.4439

> <Gold.Chemscore.DEInternal>
3.3463

> <Gold.Chemscore.Rot>
2.8729

> <Gold.Chemscore.Internal.Correction>
   9.000000E+99

> <Gold.Chemscore.Hbonds>
donor molecule, donor type, donor heavy atom, donor atom, acceptor molecule, acceptor atom, score
      P1  H  7989  7998       L1    28  0.48

> <Gold.Chemscore.Hbond.Weighted>
-6.0501

> <Gold.Chemscore.Metal.Weighted>
-0.0000

> <Gold.Chemscore.Lipo.Weighted>
-9.7824

> <Gold.Chemscore.Internal_Hbond.Weighted>
0.0000

> <Gold.Chemscore.DEClash.Weighted>
0.4439

> <Gold.Chemscore.DEInternal.Weighted>
3.3463

> <Gold.Chemscore.Rot.Weighted>
7.3546

> <Gold.Chemscore.Internal.Correction.Weighted>
   9.000000E+99

> <Gold.Protein.RotatedTorsions>
[ 6907 6896 6895 6894 ] final -151.34 input  -60.11 | X-H torsion
[ 7974 7965 7964 7962 ] final   -9.96 input  175.53 | X-H torsion
[ 8008 7997 7996 7995 ] final -173.62 input   59.86 | X-H torsion
[ 10167 10162 10161 10158 ] final   91.55 input  -65.29 | X-H torsion
[ 10718 10713 10712 10709 ] final    4.07 input   66.30 | X-H torsion
[ 10763 10752 10751 10750 ] final  178.90 input  -60.55 | X-H torsion
[ 11005 11000 10999 10996 ] final   61.57 input  -57.11 | X-H torsion

> <Gold.Protein.ActiveResidues>
 VAL166  LYS551  ARG553  GLY616  TRP617  ASP618  TYR619  PRO620  LYS621  CYS622 
 ASP623  PHE694  ASN695  SER759  ASP760  ASP761  ALA762  ILE779  LEU786  VAL792 
 PHE793  MET794  SER795  GLU796  ALA797  LYS798  CYS799  TRP800  GLU811  SER814 

> <Gold.Protein.RotatedAtoms>
  151.2117  133.4552  159.2598 H   0  0  0  0  0  0  0  0  0  0  0  0  # atno 6907 bound_to 6896
  151.0970  134.9950  159.8440 H   0  0  0  0  0  0  0  0  0  0  0  0  # atno 6908 bound_to 6896
  152.5440  134.2046  159.8779 H   0  0  0  0  0  0  0  0  0  0  0  0  # atno 6909 bound_to 6896
  146.2235  140.2694  142.8356 H   0  0  0  0  0  0  0  0  0  0  0  0  # atno 7974 bound_to 7965
  155.9598  140.1142  157.0906 H   0  0  0  0  0  0  0  0  0  0  0  0  # atno 8008 bound_to 7997
  154.4129  140.1184  156.5230 H   0  0  0  0  0  0  0  0  0  0  0  0  # atno 8009 bound_to 7997
  155.6736  140.3473  155.4830 H   0  0  0  0  0  0  0  0  0  0  0  0  # atno 8010 bound_to 7997
  139.8364  144.6662  150.9337 H   0  0  0  0  0  0  0  0  0  0  0  0  # atno 10167 bound_to 10162
  156.8872  130.5674  149.5651 H   0  0  0  0  0  0  0  0  0  0  0  0  # atno 10718 bound_to 10713
  154.5137  135.2790  155.1321 H   0  0  0  0  0  0  0  0  0  0  0  0  # atno 10763 bound_to 10752
  154.2906  135.6267  153.5387 H   0  0  0  0  0  0  0  0  0  0  0  0  # atno 10764 bound_to 10752
  152.9923  135.5673  154.5609 H   0  0  0  0  0  0  0  0  0  0  0  0  # atno 10765 bound_to 10752
  140.0152  134.6236  155.9720 H   0  0  0  0  0  0  0  0  0  0  0  0  # atno 11005 bound_to 11000
  144.9280  140.7942  143.5707 LP  0  0  0  0  0  0  0  0  0  0  0  0  # atno 17320 bound_to 7965
  145.2635  139.1983  143.4879 LP  0  0  0  0  0  0  0  0  0  0  0  0  # atno 17321 bound_to 7965
  140.7802  143.3953  151.1240 LP  0  0  0  0  0  0  0  0  0  0  0  0  # atno 17342 bound_to 10162
  139.7603  143.8645  152.3098 LP  0  0  0  0  0  0  0  0  0  0  0  0  # atno 17343 bound_to 10162
  156.0647  130.5693  150.9265 LP  0  0  0  0  0  0  0  0  0  0  0  0  # atno 17370 bound_to 10713
  157.6105  131.0936  150.8802 LP  0  0  0  0  0  0  0  0  0  0  0  0  # atno 17371 bound_to 10713
  141.1738  133.6539  156.4751 LP  0  0  0  0  0  0  0  0  0  0  0  0  # atno 17394 bound_to 11000
  140.4483  134.6952  157.5027 LP  0  0  0  0  0  0  0  0  0  0  0  0  # atno 17395 bound_to 11000

$$$$
