AV-unprocessed.smi:1335|AV-procd|sdf|5495|dock9
  -GOLD-   22720 5 73D 1   1.00000     0.00000
 Structure written by MMmdl.
 47 49  0  0  0  0  0  0  0  0  1 V2000
  145.0609  144.6933  152.7081 C   0  0  0  0  0  0  0  0  0  0  0  0
  145.7244  143.6300  153.3757 O   0  0  0  0  0  0  0  0  0  0  0  0
  145.3476  143.3288  154.6687 C   0  0  0  0  0  0  0  0  0  0  0  0
  144.3180  144.0164  155.3618 C   0  0  0  0  0  0  0  0  0  0  0  0
  143.9876  143.6697  156.6855 C   0  0  0  0  0  0  0  0  0  0  0  0
  144.6804  142.6350  157.3375 C   0  0  0  0  0  0  0  0  0  0  0  0
  145.7016  141.9445  156.6612 C   0  0  0  0  0  0  0  0  0  0  0  0
  146.0348  142.2826  155.3330 C   0  0  0  0  0  0  0  0  0  0  0  0
  147.1461  141.5047  154.6430 C   0  0  0  0  0  0  0  0  0  0  0  0
  148.3266  141.4287  155.4270 O   0  0  0  0  0  0  0  0  0  0  0  0
  149.4143  140.7944  154.7692 C   0  0  0  0  0  0  0  0  0  0  0  0
  150.5947  140.7150  155.7478 C   0  0  1  0  0  0  0  0  0  0  0  0
  151.7009  140.1969  155.0373 O   0  0  0  0  0  0  0  0  0  0  0  0
  150.9716  142.1001  156.3149 C   0  0  0  0  0  0  0  0  0  0  0  0
  151.6721  141.9803  157.5905 N   0  0  0  0  0  0  0  0  0  0  0  0
  152.4574  140.9506  157.9836 C   0  0  0  0  0  0  0  0  0  0  0  0
  152.7139  139.9454  157.3213 O   0  0  0  0  0  0  0  0  0  0  0  0
  152.8942  141.2125  159.2378 N   0  0  0  0  0  0  0  0  0  0  0  0
  153.7622  140.3752  160.0569 C   0  0  0  0  0  0  0  0  0  0  0  0
  152.3507  142.4293  159.6692 C   0  0  0  0  0  0  0  0  0  0  0  0
  152.4806  143.1177  160.8873 C   0  0  0  0  0  0  0  0  0  0  0  0
  151.7832  144.3421  161.0143 C   0  0  0  0  0  0  0  0  0  0  0  0
  150.9886  144.8405  159.9489 C   0  0  0  0  0  0  0  0  0  0  0  0
  150.8743  144.1256  158.7334 C   0  0  0  0  0  0  0  0  0  0  0  0
  151.5799  142.9136  158.6332 C   0  0  0  0  0  0  0  0  0  0  0  0
  145.4895  144.8154  151.7135 H   0  0  0  0  0  0  0  0  0  0  0  0
  145.1873  145.6380  153.2388 H   0  0  0  0  0  0  0  0  0  0  0  0
  143.9973  144.4854  152.5847 H   0  0  0  0  0  0  0  0  0  0  0  0
  143.7638  144.8188  154.8997 H   0  0  0  0  0  0  0  0  0  0  0  0
  143.2016  144.2009  157.2016 H   0  0  0  0  0  0  0  0  0  0  0  0
  144.4288  142.3708  158.3543 H   0  0  0  0  0  0  0  0  0  0  0  0
  146.2330  141.1508  157.1657 H   0  0  0  0  0  0  0  0  0  0  0  0
  146.7904  140.4860  154.4866 H   0  0  0  0  0  0  0  0  0  0  0  0
  147.3685  141.8951  153.6494 H   0  0  0  0  0  0  0  0  0  0  0  0
  149.1057  139.7936  154.4624 H   0  0  0  0  0  0  0  0  0  0  0  0
  149.7083  141.3362  153.8691 H   0  0  0  0  0  0  0  0  0  0  0  0
  150.3420  140.0180  156.5483 H   0  0  0  0  0  0  0  0  0  0  0  0
  152.4441  140.1647  155.6205 H   0  0  0  0  0  0  0  0  0  0  0  0
  151.5610  142.6775  155.6002 H   0  0  0  0  0  0  0  0  0  0  0  0
  150.0735  142.6944  156.4864 H   0  0  0  0  0  0  0  0  0  0  0  0
  153.1863  139.9059  160.8550 H   0  0  0  0  0  0  0  0  0  0  0  0
  154.5510  140.9759  160.5110 H   0  0  0  0  0  0  0  0  0  0  0  0
  154.2388  139.5869  159.4727 H   0  0  0  0  0  0  0  0  0  0  0  0
  153.0841  142.7299  161.6944 H   0  0  0  0  0  0  0  0  0  0  0  0
  151.8554  144.9033  161.9344 H   0  0  0  0  0  0  0  0  0  0  0  0
  150.4633  145.7765  160.0676 H   0  0  0  0  0  0  0  0  0  0  0  0
  150.2681  144.4992  157.9216 H   0  0  0  0  0  0  0  0  0  0  0  0
  1  2  1  0  0  0  0
  1 26  1  0  0  0  0
  1 27  1  0  0  0  0
  1 28  1  0  0  0  0
  2  3  1  0  0  0  0
  3  8  1  0  0  0  0
  3  4  2  0  0  0  0
  4  5  1  0  0  0  0
  4 29  1  0  0  0  0
  5  6  2  0  0  0  0
  5 30  1  0  0  0  0
  6  7  1  0  0  0  0
  6 31  1  0  0  0  0
  7  8  2  0  0  0  0
  7 32  1  0  0  0  0
  8  9  1  0  0  0  0
  9 10  1  0  0  0  0
  9 33  1  0  0  0  0
  9 34  1  0  0  0  0
 10 11  1  0  0  0  0
 11 12  1  0  0  0  0
 11 35  1  0  0  0  0
 11 36  1  0  0  0  0
 12 13  1  0  0  0  0
 12 14  1  0  0  0  0
 12 37  1  0  0  0  0
 13 38  1  0  0  0  0
 14 15  1  0  0  0  0
 14 39  1  0  0  0  0
 14 40  1  0  0  0  0
 15 25  1  0  0  0  0
 15 16  1  0  0  0  0
 16 17  2  0  0  0  0
 16 18  1  0  0  0  0
 18 19  1  0  0  0  0
 18 20  1  0  0  0  0
 19 41  1  0  0  0  0
 19 42  1  0  0  0  0
 19 43  1  0  0  0  0
 20 25  2  0  0  0  0
 20 21  1  0  0  0  0
 21 22  2  0  0  0  0
 21 44  1  0  0  0  0
 22 23  1  0  0  0  0
 22 45  1  0  0  0  0
 23 24  2  0  0  0  0
 23 46  1  0  0  0  0
 24 25  1  0  0  0  0
 24 47  1  0  0  0  0
M  END
> <s_m_source_file>
AV-unprocessed.smi

> <i_m_source_file_index>
1335

> <i_lp_mmshare_version>
43012

> <i_f3d_flags>
0

> <s_epik_input>
W0NIM11PYzFbY0hdW2NIXVtjSF1bY0hdYzFbQ0gyXU9bQ0gyXVtDQEhdKFtPSF0pW0NIMl1uKGMoPU8pbjJbQ0gzXSljKGMyMylbY0hdW2NIXVtjSF1bY0hdMw==

> <s_epik_cmdline>
J2VwaWtfcHl0aG9uJywgJy1waCcsICc3LjAnLCAnLXRuJywgJzgnLCAnLW1hJywgJzIwMCcsICctbWV0YWxfYmluZGluZycsICctaW1hZScsICc8aW5maWxlLm1hZT4nLCAnLW9tYWUnLCAnPG91dGZpbGUubWFlPic=

> <r_lp_tautomer_probability>
1

> <r_epik_Ionization_Penalty>
1.07897e-06

> <r_epik_Ionization_Penalty_Charging>
2.2947e-09

> <r_epik_Ionization_Penalty_Neutral>
1.07667e-06

> <r_epik_State_Penalty>
-0

> <r_epik_Charging_Adjusted_Penalty>
2.2947e-09

> <i_epik_Tot_Q>
0

> <i_epik_Tot_abs_Q>
0

> <r_epik_Metal_State_Penalty>
-0

> <b_epik_Metal_Only>
0

> <s_lp_Force_Field>
OPLS_2005

> <r_lp_Energy>
49.5291

> <b_lp_Chiralities_Consistent>
1

> <s_lp_Variant>
AV-unprocessed.smi:1335-2

> <Gold.Version>
5.8.1

> <Gold.Id.Protein>
6NUR|6NUR_protein|mol2

> <Gold.PLP.Fitness>
58.8350

> <Gold.PLP.PLP>
-54.1639

> <Gold.PLP.part.hbond>
-2.8139

> <Gold.PLP.part.metal>
0.0000

> <Gold.PLP.part.buried>
-8.1610

> <Gold.PLP.part.nonpolar>
-42.6948

> <Gold.PLP.part.repulsive>
0.3379

> <Gold.PLP.ligand.clash>
0.0216

> <Gold.PLP.ligand.torsion>
0.7420

> <Gold.PLP.Chemscore.Hbond>
1.9920

> <Gold.PLP.Chemscore.CHOScore>
0.0000

> <Gold.PLP.Chemscore.Metal>
0.0000

> <Gold.Chemscore.Hbonds>
donor molecule, donor type, donor heavy atom, donor atom, acceptor molecule, acceptor atom, score
      P1  H  7989  7998       L1    13  0.93
      P1  H  7997  8009       L1    17  1.00

> <Gold.PLP.Chemscore.Internal.Correction>
0.2006

> <Gold.Rescore>
     Score         DG    S(hbond)    S(metal)    S(lipo)     H(rot)  DE(clash)    DE(int)     intcor
     15.57     -19.56       1.63        0.00     128.68       2.50       0.11       3.88       ----

> <Gold.Chemscore.Fitness>
15.5737

> <Gold.Chemscore.DG>
-19.5577

> <Gold.Chemscore.ZeroCoef>
-5.4800

> <Gold.Chemscore.Hbond>
1.6263

> <Gold.Chemscore.Metal>
0.0000

> <Gold.Chemscore.Lipo>
128.6809

> <Gold.Chemscore.Internal_Hbond>
0.0000

> <Gold.Chemscore.DEClash>
0.1067

> <Gold.Chemscore.DEInternal>
3.8773

> <Gold.Chemscore.Rot>
2.5038

> <Gold.Chemscore.Internal.Correction>
   9.000000E+99

> <Gold.Chemscore.Hbonds>
donor molecule, donor type, donor heavy atom, donor atom, acceptor molecule, acceptor atom, score
      P1  H  7989  7998       L1    13  0.55
      P1  H  7997  8009       L1    17  0.65

> <Gold.Chemscore.Hbond.Weighted>
-5.4318

> <Gold.Chemscore.Metal.Weighted>
-0.0000

> <Gold.Chemscore.Lipo.Weighted>
-15.0557

> <Gold.Chemscore.Internal_Hbond.Weighted>
0.0000

> <Gold.Chemscore.DEClash.Weighted>
0.1067

> <Gold.Chemscore.DEInternal.Weighted>
3.8773

> <Gold.Chemscore.Rot.Weighted>
6.4098

> <Gold.Chemscore.Internal.Correction.Weighted>
   9.000000E+99

> <Gold.Protein.RotatedTorsions>
[ 6907 6896 6895 6894 ] final -174.05 input  -60.11 | X-H torsion
[ 7974 7965 7964 7962 ] final -166.79 input  175.53 | X-H torsion
[ 8008 7997 7996 7995 ] final  172.57 input   59.86 | X-H torsion
[ 10167 10162 10161 10158 ] final  126.31 input  -65.29 | X-H torsion
[ 10718 10713 10712 10709 ] final  126.81 input   66.30 | X-H torsion
[ 10763 10752 10751 10750 ] final  156.51 input  -60.55 | X-H torsion
[ 11005 11000 10999 10996 ] final  -18.00 input  -57.11 | X-H torsion

> <Gold.Protein.ActiveResidues>
 VAL166  LYS551  ARG553  GLY616  TRP617  ASP618  TYR619  PRO620  LYS621  CYS622 
 ASP623  PHE694  ASN695  SER759  ASP760  ASP761  ALA762  ILE779  LEU786  VAL792 
 PHE793  MET794  SER795  GLU796  ALA797  LYS798  CYS799  TRP800  GLU811  SER814 

> <Gold.Protein.RotatedAtoms>
  151.5660  133.3396  159.2980 H   0  0  0  0  0  0  0  0  0  0  0  0  # atno 6907 bound_to 6896
  150.8395  134.7684  159.6932 H   0  0  0  0  0  0  0  0  0  0  0  0  # atno 6908 bound_to 6896
  152.4465  134.5490  159.9913 H   0  0  0  0  0  0  0  0  0  0  0  0  # atno 6909 bound_to 6896
  144.7237  140.2614  143.6264 H   0  0  0  0  0  0  0  0  0  0  0  0  # atno 7974 bound_to 7965
  156.1162  140.1482  156.9270 H   0  0  0  0  0  0  0  0  0  0  0  0  # atno 8008 bound_to 7997
  154.4802  140.0882  156.7401 H   0  0  0  0  0  0  0  0  0  0  0  0  # atno 8009 bound_to 7997
  155.4510  140.3435  155.4303 H   0  0  0  0  0  0  0  0  0  0  0  0  # atno 8010 bound_to 7997
  139.5638  144.6898  151.3968 H   0  0  0  0  0  0  0  0  0  0  0  0  # atno 10167 bound_to 10162
  157.5387  131.1097  150.8893 H   0  0  0  0  0  0  0  0  0  0  0  0  # atno 10718 bound_to 10713
  154.1855  135.2797  155.3039 H   0  0  0  0  0  0  0  0  0  0  0  0  # atno 10763 bound_to 10752
  154.5970  135.5542  153.7338 H   0  0  0  0  0  0  0  0  0  0  0  0  # atno 10764 bound_to 10752
  153.0126  135.6382  154.1994 H   0  0  0  0  0  0  0  0  0  0  0  0  # atno 10765 bound_to 10752
  140.8224  133.8058  155.9673 H   0  0  0  0  0  0  0  0  0  0  0  0  # atno 11005 bound_to 11000
  145.8132  139.2012  143.1981 LP  0  0  0  0  0  0  0  0  0  0  0  0  # atno 17320 bound_to 7965
  146.0578  140.8002  142.9750 LP  0  0  0  0  0  0  0  0  0  0  0  0  # atno 17321 bound_to 7965
  140.6920  143.7839  150.7269 LP  0  0  0  0  0  0  0  0  0  0  0  0  # atno 17342 bound_to 10162
  140.1324  143.4514  152.2246 LP  0  0  0  0  0  0  0  0  0  0  0  0  # atno 17343 bound_to 10162
  156.9453  130.5399  149.5281 LP  0  0  0  0  0  0  0  0  0  0  0  0  # atno 17370 bound_to 10713
  156.0479  130.5553  150.8923 LP  0  0  0  0  0  0  0  0  0  0  0  0  # atno 17371 bound_to 10713
  140.9085  134.2290  157.5000 LP  0  0  0  0  0  0  0  0  0  0  0  0  # atno 17394 bound_to 11000
  139.8708  134.9739  156.4826 LP  0  0  0  0  0  0  0  0  0  0  0  0  # atno 17395 bound_to 11000

$$$$
