AV-unprocessed.smi:513|AV-procd|sdf|2775|dock7
  -GOLD-   2262023243D 1   1.00000     0.00000
 Structure written by MMmdl.
 41 43  0  0  0  0  0  0  0  0  2 V2000
  153.1184  139.0068  155.9254 C   0  0  0  0  0  0  0  0  0  0  0  0
  152.8688  139.8275  157.0517 O   0  0  0  0  0  0  0  0  0  0  0  0
  151.6624  140.5635  156.9357 C   0  0  0  0  0  0  0  0  0  0  0  0
  150.6783  140.1523  158.0411 C   0  0  0  0  0  0  0  0  0  0  0  0
  151.3081  140.1195  159.3587 N   0  0  0  0  0  0  0  0  0  0  0  0
  151.4435  141.1531  160.2265 C   0  0  0  0  0  0  0  0  0  0  0  0
  150.9504  142.4145  159.9136 N   0  0  0  0  0  0  0  0  0  0  0  0
  150.3924  143.3459  160.8872 C   0  0  0  0  0  0  0  0  0  0  0  0
  149.1380  144.0479  160.3320 C   0  0  0  0  0  0  0  0  0  0  0  0
  149.4827  144.7898  159.1242 N   0  0  0  0  0  0  0  0  0  0  0  0
  149.9960  143.8480  158.1357 C   0  0  0  0  0  0  0  0  0  0  0  0
  151.2516  143.1441  158.6875 C   0  0  0  0  0  0  0  0  0  0  0  0
  152.0654  140.8578  161.3682 N   0  0  0  0  0  0  0  0  0  0  0  0
  152.3540  139.5096  161.2110 C   0  0  0  0  0  0  0  0  0  0  0  0
  151.9119  139.0412  160.0127 C   0  0  0  0  0  0  0  0  0  0  0  0
  152.0833  137.6422  159.5642 C   0  0  0  0  0  0  0  0  0  0  0  0
  151.6654  137.2686  158.4703 O   0  0  0  0  0  0  0  0  0  0  0  0
  152.7376  136.8789  160.4961 N   0  5  0  0  0  0  0  0  0  0  0  0
  153.2004  137.3114  161.7209 C   0  0  0  0  0  0  0  0  0  0  0  0
  153.7808  136.5497  162.4948 O   0  0  0  0  0  0  0  0  0  0  0  0
  153.0160  138.6181  162.0957 N   0  0  0  0  0  0  0  0  0  0  0  0
  153.4725  139.1546  163.3815 C   0  0  0  0  0  0  0  0  0  0  0  0
  154.0510  138.4614  156.0699 H   0  0  0  0  0  0  0  0  0  0  0  0
  153.2138  139.6037  155.0175 H   0  0  0  0  0  0  0  0  0  0  0  0
  152.3203  138.2770  155.7839 H   0  0  0  0  0  0  0  0  0  0  0  0
  151.8763  141.6301  157.0076 H   0  0  0  0  0  0  0  0  0  0  0  0
  151.2117  140.3880  155.9580 H   0  0  0  0  0  0  0  0  0  0  0  0
  149.8399  140.8481  158.0651 H   0  0  0  0  0  0  0  0  0  0  0  0
  150.2374  139.1816  157.8225 H   0  0  0  0  0  0  0  0  0  0  0  0
  150.1365  142.8010  161.7965 H   0  0  0  0  0  0  0  0  0  0  0  0
  151.1514  144.0788  161.1642 H   0  0  0  0  0  0  0  0  0  0  0  0
  148.3519  143.3238  160.1137 H   0  0  0  0  0  0  0  0  0  0  0  0
  148.7388  144.7418  161.0720 H   0  0  0  0  0  0  0  0  0  0  0  0
  148.6587  145.2471  158.7610 H   0  0  0  0  0  0  0  0  0  0  0  0
  149.2234  143.1221  157.8794 H   0  0  0  0  0  0  0  0  0  0  0  0
  150.2413  144.3916  157.2233 H   0  0  0  0  0  0  0  0  0  0  0  0
  152.0433  143.8689  158.8823 H   0  0  0  0  0  0  0  0  0  0  0  0
  151.6408  142.4482  157.9435 H   0  0  0  0  0  0  0  0  0  0  0  0
  153.9608  138.4246  164.0275 H   0  0  0  0  0  0  0  0  0  0  0  0
  152.6252  139.5605  163.9349 H   0  0  0  0  0  0  0  0  0  0  0  0
  154.1816  139.9657  163.2133 H   0  0  0  0  0  0  0  0  0  0  0  0
  1  2  1  0  0  0  0
  1 23  1  0  0  0  0
  1 24  1  0  0  0  0
  1 25  1  0  0  0  0
  2  3  1  0  0  0  0
  3  4  1  0  0  0  0
  3 26  1  0  0  0  0
  3 27  1  0  0  0  0
  4  5  1  0  0  0  0
  4 28  1  0  0  0  0
  4 29  1  0  0  0  0
  5 15  1  0  0  0  0
  5  6  1  0  0  0  0
  6  7  1  0  0  0  0
  6 13  2  0  0  0  0
  7 12  1  0  0  0  0
  7  8  1  0  0  0  0
  8  9  1  0  0  0  0
  8 30  1  0  0  0  0
  8 31  1  0  0  0  0
  9 10  1  0  0  0  0
  9 32  1  0  0  0  0
  9 33  1  0  0  0  0
 10 11  1  0  0  0  0
 10 34  1  0  0  0  0
 11 12  1  0  0  0  0
 11 35  1  0  0  0  0
 11 36  1  0  0  0  0
 12 37  1  0  0  0  0
 12 38  1  0  0  0  0
 13 14  1  0  0  0  0
 14 21  1  0  0  0  0
 14 15  2  0  0  0  0
 15 16  1  0  0  0  0
 16 17  2  0  0  0  0
 16 18  1  0  0  0  0
 18 19  1  0  0  0  0
 19 20  2  0  0  0  0
 19 21  1  0  0  0  0
 21 22  1  0  0  0  0
 22 39  1  0  0  0  0
 22 40  1  0  0  0  0
 22 41  1  0  0  0  0
M  CHG  1  18  -1
M  END
> <s_m_source_file>
AV-unprocessed.smi

> <i_m_source_file_index>
513

> <i_lp_mmshare_version>
43012

> <i_f3d_flags>
0

> <s_epik_input>
W0NIM11uMWMoPU8pW25IXWMoPU8pYyhjMTIpbihbQ0gyXVtDSDJdT1tDSDNdKWMobjIpTjNbQ0gyXVtDSDJdW05IXVtDSDJdW0NIMl0z

> <s_epik_cmdline>
J2VwaWtfcHl0aG9uJywgJy1waCcsICc3LjAnLCAnLXRuJywgJzgnLCAnLW1hJywgJzIwMCcsICctbWV0YWxfYmluZGluZycsICctaW1hZScsICc8aW5maWxlLm1hZT4nLCAnLW9tYWUnLCAnPG91dGZpbGUubWFlPic=

> <r_epik_Ionization_Penalty>
8.82084

> <r_epik_Ionization_Penalty_Charging>
0.08198

> <r_epik_Ionization_Penalty_Neutral>
8.73886

> <r_epik_State_Penalty>
8.90453

> <r_epik_Charging_Adjusted_Penalty>
8.98651

> <i_epik_Tot_Q>
-1

> <i_epik_Tot_abs_Q>
1

> <r_epik_Metal_State_Penalty>
4.85612

> <b_epik_Metal_Only>
1

> <s_lp_Force_Field>
OPLS_2005

> <r_lp_Energy>
54.8501

> <b_lp_Chiralities_Consistent>
1

> <s_lp_Variant>
AV-unprocessed.smi:513-4

> <Gold.Version>
5.8.1

> <Gold.Id.Protein>
6NUR|6NUR_protein|mol2

> <Gold.PLP.Fitness>
49.7842

> <Gold.PLP.PLP>
-42.7479

> <Gold.PLP.part.hbond>
-2.4916

> <Gold.PLP.part.metal>
0.0000

> <Gold.PLP.part.buried>
-7.5149

> <Gold.PLP.part.nonpolar>
-33.2165

> <Gold.PLP.part.repulsive>
0.0000

> <Gold.PLP.ligand.clash>
0.0000

> <Gold.PLP.ligand.torsion>
1.4872

> <Gold.PLP.Chemscore.Hbond>
3.0000

> <Gold.PLP.Chemscore.CHOScore>
0.0000

> <Gold.PLP.Chemscore.Metal>
0.0000

> <Gold.Chemscore.Hbonds>
donor molecule, donor type, donor heavy atom, donor atom, acceptor molecule, acceptor atom, score
      L1  H    10    34       P1  8029  0.90
      P1  H  6896  6909       L1    18  1.90

> <Gold.PLP.Chemscore.Internal.Correction>
1.0107

> <Gold.Rescore>
     Score         DG    S(hbond)    S(metal)    S(lipo)     H(rot)  DE(clash)    DE(int)     intcor
     10.94     -12.81       0.83        0.00      72.49       1.53       0.01       1.85       ----

> <Gold.Chemscore.Fitness>
10.9439

> <Gold.Chemscore.DG>
-12.8104

> <Gold.Chemscore.ZeroCoef>
-5.4800

> <Gold.Chemscore.Hbond>
0.8317

> <Gold.Chemscore.Metal>
0.0000

> <Gold.Chemscore.Lipo>
72.4901

> <Gold.Chemscore.Internal_Hbond>
0.0000

> <Gold.Chemscore.DEClash>
0.0149

> <Gold.Chemscore.DEInternal>
1.8516

> <Gold.Chemscore.Rot>
1.5348

> <Gold.Chemscore.Internal.Correction>
   9.000000E+99

> <Gold.Chemscore.Hbonds>
donor molecule, donor type, donor heavy atom, donor atom, acceptor molecule, acceptor atom, score
      L1  H    10    34       P1  8029  0.86
      P1  H  6896  6909       L1    18  0.21

> <Gold.Chemscore.Hbond.Weighted>
-2.7780

> <Gold.Chemscore.Metal.Weighted>
-0.0000

> <Gold.Chemscore.Lipo.Weighted>
-8.4813

> <Gold.Chemscore.Internal_Hbond.Weighted>
0.0000

> <Gold.Chemscore.DEClash.Weighted>
0.0149

> <Gold.Chemscore.DEInternal.Weighted>
1.8516

> <Gold.Chemscore.Rot.Weighted>
3.9290

> <Gold.Chemscore.Internal.Correction.Weighted>
   9.000000E+99

> <Gold.Protein.RotatedTorsions>
[ 6907 6896 6895 6894 ] final  140.34 input  -60.11 | X-H torsion
[ 7974 7965 7964 7962 ] final  -97.31 input  175.53 | X-H torsion
[ 8008 7997 7996 7995 ] final   70.63 input   59.86 | X-H torsion
[ 10167 10162 10161 10158 ] final  150.88 input  -65.29 | X-H torsion
[ 10718 10713 10712 10709 ] final  -20.84 input   66.30 | X-H torsion
[ 10763 10752 10751 10750 ] final -105.75 input  -60.55 | X-H torsion
[ 11005 11000 10999 10996 ] final  -50.50 input  -57.11 | X-H torsion

> <Gold.Protein.ActiveResidues>
 VAL166  LYS551  ARG553  GLY616  TRP617  ASP618  TYR619  PRO620  LYS621  CYS622 
 ASP623  PHE694  ASN695  SER759  ASP760  ASP761  ALA762  ILE779  LEU786  VAL792 
 PHE793  MET794  SER795  GLU796  ALA797  LYS798  CYS799  TRP800  GLU811  SER814 

> <Gold.Protein.RotatedAtoms>
  152.2442  133.5160  159.5287 H   0  0  0  0  0  0  0  0  0  0  0  0  # atno 6907 bound_to 6896
  150.7073  134.1048  159.3988 H   0  0  0  0  0  0  0  0  0  0  0  0  # atno 6908 bound_to 6896
  151.8969  135.0394  160.0553 H   0  0  0  0  0  0  0  0  0  0  0  0  # atno 6909 bound_to 6896
  145.3354  140.9450  143.2638 H   0  0  0  0  0  0  0  0  0  0  0  0  # atno 7974 bound_to 7965
  155.7417  140.3490  155.5107 H   0  0  0  0  0  0  0  0  0  0  0  0  # atno 8008 bound_to 7997
  155.9088  140.1047  157.1316 H   0  0  0  0  0  0  0  0  0  0  0  0  # atno 8009 bound_to 7997
  154.4053  140.1272  156.4518 H   0  0  0  0  0  0  0  0  0  0  0  0  # atno 8010 bound_to 7997
  139.4846  144.5486  151.7440 H   0  0  0  0  0  0  0  0  0  0  0  0  # atno 10167 bound_to 10162
  156.5264  130.4644  149.6570 H   0  0  0  0  0  0  0  0  0  0  0  0  # atno 10718 bound_to 10713
  154.7967  135.4737  154.0178 H   0  0  0  0  0  0  0  0  0  0  0  0  # atno 10763 bound_to 10752
  153.1715  135.6826  153.8608 H   0  0  0  0  0  0  0  0  0  0  0  0  # atno 10764 bound_to 10752
  153.8189  135.3207  155.3386 H   0  0  0  0  0  0  0  0  0  0  0  0  # atno 10765 bound_to 10752
  141.0819  133.6651  156.3741 H   0  0  0  0  0  0  0  0  0  0  0  0  # atno 11005 bound_to 11000
  144.8831  139.4876  143.6713 LP  0  0  0  0  0  0  0  0  0  0  0  0  # atno 17320 bound_to 7965
  146.3029  139.7484  142.9078 LP  0  0  0  0  0  0  0  0  0  0  0  0  # atno 17321 bound_to 7965
  140.5036  144.1131  150.5977 LP  0  0  0  0  0  0  0  0  0  0  0  0  # atno 17342 bound_to 10162
  140.4033  143.2693  151.9922 LP  0  0  0  0  0  0  0  0  0  0  0  0  # atno 17343 bound_to 10162
  156.3101  130.7224  151.2115 LP  0  0  0  0  0  0  0  0  0  0  0  0  # atno 17370 bound_to 10713
  157.7429  131.0483  150.4990 LP  0  0  0  0  0  0  0  0  0  0  0  0  # atno 17371 bound_to 10713
  140.5448  134.6085  157.5390 LP  0  0  0  0  0  0  0  0  0  0  0  0  # atno 17394 bound_to 11000
  139.9634  134.7414  156.0189 LP  0  0  0  0  0  0  0  0  0  0  0  0  # atno 17395 bound_to 11000

$$$$
