AV-unprocessed.smi:1417|AV-procd|sdf|5766|dock3
  -GOLD-   22720 5403D 1   1.00000     0.00000
 Structure written by MMmdl.
 40 41  0  0  0  0  0  0  0  0  2 V2000
  137.0366  139.7312  153.8415 C   0  0  0  0  0  0  0  0  0  0  0  0
  138.5198  139.6349  153.7331 C   0  0  0  0  0  0  0  0  0  0  0  0
  139.3527  138.7013  153.1840 C   0  0  0  0  0  0  0  0  0  0  0  0
  140.6477  139.2425  153.4337 C   0  0  0  0  0  0  0  0  0  0  0  0
  141.8879  138.6601  153.0657 N   0  0  0  0  0  0  0  0  0  0  0  0
  142.2621  137.3723  153.1476 C   0  0  0  0  0  0  0  0  0  0  0  0
  141.5593  136.4492  153.5589 O   0  0  0  0  0  0  0  0  0  0  0  0
  143.5223  137.2047  152.7207 N   0  0  0  0  0  0  0  0  0  0  0  0
  144.2331  135.9301  152.6839 C   0  0  2  0  0  0  0  0  0  0  0  0
  145.2656  135.8449  153.8235 C   0  0  0  0  0  0  0  0  0  0  0  0
  146.0939  134.5542  153.7265 C   0  0  0  0  0  0  0  0  0  0  0  0
  146.7678  134.4523  152.4049 N   0  3  1  0  0  0  0  0  0  0  0  0
  147.7025  133.3015  152.3138 C   0  0  0  0  0  0  0  0  0  0  0  0
  148.5612  133.1332  153.5718 C   0  0  0  0  0  0  0  0  0  0  0  0
  149.1929  134.2196  154.0212 N   0  0  0  0  0  0  0  0  0  0  0  0
  148.6432  132.0456  154.1396 O   0  0  0  0  0  0  0  0  0  0  0  0
  145.7866  134.4815  151.2908 C   0  0  0  0  0  0  0  0  0  0  0  0
  144.9435  135.7676  151.3301 C   0  0  0  0  0  0  0  0  0  0  0  0
  140.6020  140.3956  154.0751 N   0  0  0  0  0  0  0  0  0  0  0  0
  139.2406  140.6554  154.2708 O   0  0  0  0  0  0  0  0  0  0  0  0
  136.5660  138.7773  153.6024 H   0  0  0  0  0  0  0  0  0  0  0  0
  136.6478  140.4818  153.1532 H   0  0  0  0  0  0  0  0  0  0  0  0
  136.7385  140.0110  154.8521 H   0  0  0  0  0  0  0  0  0  0  0  0
  139.0637  137.7869  152.6887 H   0  0  0  0  0  0  0  0  0  0  0  0
  142.5732  139.3051  152.7006 H   0  0  0  0  0  0  0  0  0  0  0  0
  144.0261  138.0182  152.3980 H   0  0  0  0  0  0  0  0  0  0  0  0
  143.5131  135.1163  152.7927 H   0  0  0  0  0  0  0  0  0  0  0  0
  145.9337  136.7069  153.7861 H   0  0  0  0  0  0  0  0  0  0  0  0
  144.7653  135.8847  154.7919 H   0  0  0  0  0  0  0  0  0  0  0  0
  146.8326  134.5434  154.5285 H   0  0  0  0  0  0  0  0  0  0  0  0
  145.4520  133.6849  153.8780 H   0  0  0  0  0  0  0  0  0  0  0  0
  147.1498  132.3854  152.0983 H   0  0  0  0  0  0  0  0  0  0  0  0
  148.3936  133.4537  151.4837 H   0  0  0  0  0  0  0  0  0  0  0  0
  149.7749  134.1668  154.8450 H   0  0  0  0  0  0  0  0  0  0  0  0
  149.0881  135.0967  153.5309 H   0  0  0  0  0  0  0  0  0  0  0  0
  146.3108  134.4286  150.3359 H   0  0  0  0  0  0  0  0  0  0  0  0
  145.1410  133.6037  151.3482 H   0  0  0  0  0  0  0  0  0  0  0  0
  144.2106  135.7513  150.5225 H   0  0  0  0  0  0  0  0  0  0  0  0
  145.5894  136.6273  151.1438 H   0  0  0  0  0  0  0  0  0  0  0  0
  147.3381  135.2800  152.3020 H   0  0  0  0  0  0  0  0  0  0  0  0
  1  2  1  0  0  0  0
  1 21  1  0  0  0  0
  1 22  1  0  0  0  0
  1 23  1  0  0  0  0
  2 20  1  0  0  0  0
  2  3  2  0  0  0  0
  3  4  1  0  0  0  0
  3 24  1  0  0  0  0
  4  5  1  0  0  0  0
  4 19  2  0  0  0  0
  5  6  1  0  0  0  0
  5 25  1  0  0  0  0
  6  7  2  0  0  0  0
  6  8  1  0  0  0  0
  8  9  1  0  0  0  0
  8 26  1  0  0  0  0
  9 18  1  0  0  0  0
  9 10  1  0  0  0  0
  9 27  1  0  0  0  0
 10 11  1  0  0  0  0
 10 28  1  0  0  0  0
 10 29  1  0  0  0  0
 11 12  1  0  0  0  0
 11 30  1  0  0  0  0
 11 31  1  0  0  0  0
 12 13  1  0  0  0  0
 12 17  1  0  0  0  0
 12 40  1  0  0  0  0
 13 14  1  0  0  0  0
 13 32  1  0  0  0  0
 13 33  1  0  0  0  0
 14 15  1  0  0  0  0
 14 16  2  0  0  0  0
 15 34  1  0  0  0  0
 15 35  1  0  0  0  0
 17 18  1  0  0  0  0
 17 36  1  0  0  0  0
 17 37  1  0  0  0  0
 18 38  1  0  0  0  0
 18 39  1  0  0  0  0
 19 20  1  0  0  0  0
M  CHG  1  12   1
M  END
> <s_m_source_file>
AV-unprocessed.smi

> <i_m_source_file_index>
1417

> <i_lp_mmshare_version>
43012

> <i_f3d_flags>
0

> <s_epik_input>
W0NIM11jMVtjSF1jKG5vMSlbTkhdQyg9TylbTkhdW0NIXTJbQ0gyXVtDSDJdTihbQ0gyXVtDSDJdMilbQ0gyXUMoPU8pW05IMl0=

> <s_epik_cmdline>
J2VwaWtfcHl0aG9uJywgJy1waCcsICc3LjAnLCAnLXRuJywgJzgnLCAnLW1hJywgJzIwMCcsICctbWV0YWxfYmluZGluZycsICctaW1hZScsICc8aW5maWxlLm1hZT4nLCAnLW9tYWUnLCAnPG91dGZpbGUubWFlPic=

> <r_epik_Ionization_Penalty>
0.867698

> <r_epik_Ionization_Penalty_Charging>
0.867623

> <r_epik_Ionization_Penalty_Neutral>
7.46743e-05

> <r_epik_State_Penalty>
0.904669

> <r_epik_Charging_Adjusted_Penalty>
1.77229

> <i_epik_Tot_Q>
1

> <i_epik_Tot_abs_Q>
1

> <r_epik_Metal_State_Penalty>
0.930696

> <b_epik_Metal_Only>
0

> <s_lp_Force_Field>
OPLS_2005

> <r_lp_Energy>
11.2149

> <b_lp_Chiralities_Consistent>
1

> <s_lp_Variant>
AV-unprocessed.smi:1417-2

> <Gold.Version>
5.8.1

> <Gold.Id.Protein>
6NUR|6NUR_protein|mol2

> <Gold.PLP.Fitness>
38.9409

> <Gold.PLP.PLP>
-28.3005

> <Gold.PLP.part.hbond>
-4.0414

> <Gold.PLP.part.metal>
0.0000

> <Gold.PLP.part.buried>
-2.5212

> <Gold.PLP.part.nonpolar>
-22.1884

> <Gold.PLP.part.repulsive>
0.6347

> <Gold.PLP.ligand.clash>
0.0000

> <Gold.PLP.ligand.torsion>
0.6935

> <Gold.PLP.Chemscore.Hbond>
4.0000

> <Gold.PLP.Chemscore.CHOScore>
0.0000

> <Gold.PLP.Chemscore.Metal>
0.0000

> <Gold.Chemscore.Hbonds>
donor molecule, donor type, donor heavy atom, donor atom, acceptor molecule, acceptor atom, score
      L1  H     5    25       P1 10175  1.00
      L1  H    12    40       P1  7948  2.00
      L1  H    15    35       P1  7948  1.00

> <Gold.PLP.Chemscore.Internal.Correction>
0.0273

> <Gold.Rescore>
     Score         DG    S(hbond)    S(metal)    S(lipo)     H(rot)  DE(clash)    DE(int)     intcor
     12.01     -13.78       2.42        0.00      46.65       2.05       0.09       1.68       ----

> <Gold.Chemscore.Fitness>
12.0068

> <Gold.Chemscore.DG>
-13.7824

> <Gold.Chemscore.ZeroCoef>
-5.4800

> <Gold.Chemscore.Hbond>
2.4197

> <Gold.Chemscore.Metal>
0.0000

> <Gold.Chemscore.Lipo>
46.6474

> <Gold.Chemscore.Internal_Hbond>
0.0000

> <Gold.Chemscore.DEClash>
0.0944

> <Gold.Chemscore.DEInternal>
1.6813

> <Gold.Chemscore.Rot>
2.0457

> <Gold.Chemscore.Internal.Correction>
   9.000000E+99

> <Gold.Chemscore.Hbonds>
donor molecule, donor type, donor heavy atom, donor atom, acceptor molecule, acceptor atom, score
      L1  H     5    25       P1 10175  0.93
      L1  H     8    26       P1 10175  0.04
      L1  H    12    40       P1  7948  0.97
      L1  H    15    35       P1  7948  0.32

> <Gold.Chemscore.Hbond.Weighted>
-8.0818

> <Gold.Chemscore.Metal.Weighted>
-0.0000

> <Gold.Chemscore.Lipo.Weighted>
-5.4577

> <Gold.Chemscore.Internal_Hbond.Weighted>
0.0000

> <Gold.Chemscore.DEClash.Weighted>
0.0944

> <Gold.Chemscore.DEInternal.Weighted>
1.6813

> <Gold.Chemscore.Rot.Weighted>
5.2371

> <Gold.Chemscore.Internal.Correction.Weighted>
   9.000000E+99

> <Gold.Protein.RotatedTorsions>
[ 6907 6896 6895 6894 ] final   -2.56 input  -60.11 | X-H torsion
[ 7974 7965 7964 7962 ] final   10.35 input  175.53 | X-H torsion
[ 8008 7997 7996 7995 ] final  100.52 input   59.86 | X-H torsion
[ 10167 10162 10161 10158 ] final -140.55 input  -65.29 | X-H torsion
[ 10718 10713 10712 10709 ] final    2.81 input   66.30 | X-H torsion
[ 10763 10752 10751 10750 ] final   19.60 input  -60.55 | X-H torsion
[ 11005 11000 10999 10996 ] final   28.19 input  -57.11 | X-H torsion

> <Gold.Protein.ActiveResidues>
 VAL166  LYS551  ARG553  GLY616  TRP617  ASP618  TYR619  PRO620  LYS621  CYS622 
 ASP623  PHE694  ASN695  SER759  ASP760  ASP761  ALA762  ILE779  LEU786  VAL792 
 PHE793  MET794  SER795  GLU796  ALA797  LYS798  CYS799  TRP800  GLU811  SER814 

> <Gold.Protein.RotatedAtoms>
  151.5279  135.1068  159.9894 H   0  0  0  0  0  0  0  0  0  0  0  0  # atno 6907 bound_to 6896
  152.4592  133.7781  159.6846 H   0  0  0  0  0  0  0  0  0  0  0  0  # atno 6908 bound_to 6896
  150.8547  133.7669  159.3038 H   0  0  0  0  0  0  0  0  0  0  0  0  # atno 6909 bound_to 6896
  146.2390  139.9648  142.8454 H   0  0  0  0  0  0  0  0  0  0  0  0  # atno 7974 bound_to 7965
  156.1211  140.3212  155.8210 H   0  0  0  0  0  0  0  0  0  0  0  0  # atno 8008 bound_to 7997
  155.4503  140.0532  157.3019 H   0  0  0  0  0  0  0  0  0  0  0  0  # atno 8009 bound_to 7997
  154.4828  140.2060  155.9737 H   0  0  0  0  0  0  0  0  0  0  0  0  # atno 8010 bound_to 7997
  139.8270  143.7497  152.2666 H   0  0  0  0  0  0  0  0  0  0  0  0  # atno 10167 bound_to 10162
  156.8685  130.5611  149.5658 H   0  0  0  0  0  0  0  0  0  0  0  0  # atno 10718 bound_to 10713
  153.1148  135.6705  153.9437 H   0  0  0  0  0  0  0  0  0  0  0  0  # atno 10763 bound_to 10752
  153.8970  135.3040  155.3449 H   0  0  0  0  0  0  0  0  0  0  0  0  # atno 10764 bound_to 10752
  154.7565  135.5009  153.9463 H   0  0  0  0  0  0  0  0  0  0  0  0  # atno 10765 bound_to 10752
  140.3183  134.2572  155.7721 H   0  0  0  0  0  0  0  0  0  0  0  0  # atno 11005 bound_to 11000
  145.1737  140.9733  143.4307 LP  0  0  0  0  0  0  0  0  0  0  0  0  # atno 17320 bound_to 7965
  145.0005  139.3603  143.6170 LP  0  0  0  0  0  0  0  0  0  0  0  0  # atno 17321 bound_to 7965
  139.7693  144.7482  151.0248 LP  0  0  0  0  0  0  0  0  0  0  0  0  # atno 17342 bound_to 10162
  140.7809  143.4663  151.0208 LP  0  0  0  0  0  0  0  0  0  0  0  0  # atno 17343 bound_to 10162
  156.0739  130.5766  150.9436 LP  0  0  0  0  0  0  0  0  0  0  0  0  # atno 17370 bound_to 10713
  157.6209  131.0929  150.8623 LP  0  0  0  0  0  0  0  0  0  0  0  0  # atno 17371 bound_to 10713
  141.2092  133.7754  157.0008 LP  0  0  0  0  0  0  0  0  0  0  0  0  # atno 17394 bound_to 11000
  140.0964  134.9561  157.1856 LP  0  0  0  0  0  0  0  0  0  0  0  0  # atno 17395 bound_to 11000

$$$$
