AV-unprocessed.smi:453|AV-procd|sdf|2611|dock7
  -GOLD-   2262023 13D 1   1.00000     0.00000
 Structure written by MMmdl.
 43 44  0  0  0  0  0  0  0  0  1 V2000
  149.5283  132.3523  154.0996 C   0  0  0  0  0  0  0  0  0  0  0  0
  150.6372  133.3499  154.4825 C   0  0  0  0  0  0  0  0  0  0  0  0
  151.5936  132.7168  155.5049 C   0  0  0  0  0  0  0  0  0  0  0  0
  150.0927  134.6968  155.0119 C   0  0  0  0  0  0  0  0  0  0  0  0
  151.1195  135.8336  154.9791 C   0  0  0  0  0  0  0  0  0  0  0  0
  152.1205  135.7857  155.6935 O   0  0  0  0  0  0  0  0  0  0  0  0
  150.8699  136.8392  154.1264 N   0  0  0  0  0  0  0  0  0  0  0  0
  151.7224  138.0088  153.9379 C   0  0  0  0  0  0  0  0  0  0  0  0
  151.7675  138.9631  155.1239 C   0  0  0  0  0  0  0  0  0  0  0  0
  150.7536  139.9265  155.2902 C   0  0  0  0  0  0  0  0  0  0  0  0
  150.8201  140.8119  156.3827 C   0  0  0  0  0  0  0  0  0  0  0  0
  151.9067  140.7161  157.2840 C   0  0  0  0  0  0  0  0  0  0  0  0
  151.9971  141.5978  158.3830 N   0  0  0  0  0  0  0  0  0  0  0  0
  153.1322  141.4457  159.2918 C   0  0  0  0  0  0  0  0  0  0  0  0
  152.9171  142.2840  160.5630 C   0  0  0  0  0  0  0  0  0  0  0  0
  152.6774  143.6415  160.2071 O   0  0  0  0  0  0  0  0  0  0  0  0
  151.5042  143.7808  159.4128 C   0  0  0  0  0  0  0  0  0  0  0  0
  151.6648  142.9924  158.1015 C   0  0  0  0  0  0  0  0  0  0  0  0
  152.8803  139.7860  157.1231 N   0  0  0  0  0  0  0  0  0  0  0  0
  152.8120  138.9402  156.0736 C   0  0  0  0  0  0  0  0  0  0  0  0
  148.8738  132.1441  154.9468 H   0  0  0  0  0  0  0  0  0  0  0  0
  149.9533  131.4044  153.7686 H   0  0  0  0  0  0  0  0  0  0  0  0
  148.9104  132.7249  153.2829 H   0  0  0  0  0  0  0  0  0  0  0  0
  151.2211  133.5525  153.5832 H   0  0  0  0  0  0  0  0  0  0  0  0
  151.0781  132.4819  156.4367 H   0  0  0  0  0  0  0  0  0  0  0  0
  152.4193  133.3884  155.7413 H   0  0  0  0  0  0  0  0  0  0  0  0
  152.0249  131.7917  155.1208 H   0  0  0  0  0  0  0  0  0  0  0  0
  149.2195  134.9987  154.4316 H   0  0  0  0  0  0  0  0  0  0  0  0
  149.7420  134.5757  156.0382 H   0  0  0  0  0  0  0  0  0  0  0  0
  150.0267  136.7937  153.5726 H   0  0  0  0  0  0  0  0  0  0  0  0
  152.7368  137.6580  153.7471 H   0  0  0  0  0  0  0  0  0  0  0  0
  151.4123  138.5506  153.0425 H   0  0  0  0  0  0  0  0  0  0  0  0
  149.9318  139.9870  154.5919 H   0  0  0  0  0  0  0  0  0  0  0  0
  150.0357  141.5405  156.5222 H   0  0  0  0  0  0  0  0  0  0  0  0
  153.2577  140.3978  159.5673 H   0  0  0  0  0  0  0  0  0  0  0  0
  154.0454  141.7629  158.7862 H   0  0  0  0  0  0  0  0  0  0  0  0
  152.0813  141.8965  161.1478 H   0  0  0  0  0  0  0  0  0  0  0  0
  153.8009  142.2341  161.1992 H   0  0  0  0  0  0  0  0  0  0  0  0
  150.6316  143.4353  159.9698 H   0  0  0  0  0  0  0  0  0  0  0  0
  151.3455  144.8376  159.1975 H   0  0  0  0  0  0  0  0  0  0  0  0
  152.4637  143.4289  157.5002 H   0  0  0  0  0  0  0  0  0  0  0  0
  150.7477  143.0810  157.5209 H   0  0  0  0  0  0  0  0  0  0  0  0
  153.6229  138.2316  155.9938 H   0  0  0  0  0  0  0  0  0  0  0  0
  1  2  1  0  0  0  0
  1 21  1  0  0  0  0
  1 22  1  0  0  0  0
  1 23  1  0  0  0  0
  2  3  1  0  0  0  0
  2  4  1  0  0  0  0
  2 24  1  0  0  0  0
  3 25  1  0  0  0  0
  3 26  1  0  0  0  0
  3 27  1  0  0  0  0
  4  5  1  0  0  0  0
  4 28  1  0  0  0  0
  4 29  1  0  0  0  0
  5  6  2  0  0  0  0
  5  7  1  0  0  0  0
  7  8  1  0  0  0  0
  7 30  1  0  0  0  0
  8  9  1  0  0  0  0
  8 31  1  0  0  0  0
  8 32  1  0  0  0  0
  9 20  1  0  0  0  0
  9 10  2  0  0  0  0
 10 11  1  0  0  0  0
 10 33  1  0  0  0  0
 11 12  2  0  0  0  0
 11 34  1  0  0  0  0
 12 13  1  0  0  0  0
 12 19  1  0  0  0  0
 13 18  1  0  0  0  0
 13 14  1  0  0  0  0
 14 15  1  0  0  0  0
 14 35  1  0  0  0  0
 14 36  1  0  0  0  0
 15 16  1  0  0  0  0
 15 37  1  0  0  0  0
 15 38  1  0  0  0  0
 16 17  1  0  0  0  0
 17 18  1  0  0  0  0
 17 39  1  0  0  0  0
 17 40  1  0  0  0  0
 18 41  1  0  0  0  0
 18 42  1  0  0  0  0
 19 20  2  0  0  0  0
 20 43  1  0  0  0  0
M  END
> <s_m_source_file>
AV-unprocessed.smi

> <i_m_source_file_index>
453

> <i_lp_mmshare_version>
43012

> <i_f3d_flags>
0

> <s_epik_input>
W0NIM11bQ0hdKFtDSDNdKVtDSDJdQyg9TylbTkhdW0NIMl1jMVtjSF1bY0hdYyhuW2NIXTEpTjJbQ0gyXVtDSDJdT1tDSDJdW0NIMl0y

> <s_epik_cmdline>
J2VwaWtfcHl0aG9uJywgJy1waCcsICc3LjAnLCAnLXRuJywgJzgnLCAnLW1hJywgJzIwMCcsICctbWV0YWxfYmluZGluZycsICctaW1hZScsICc8aW5maWxlLm1hZT4nLCAnLW9tYWUnLCAnPG91dGZpbGUubWFlPic=

> <r_lp_tautomer_probability>
1

> <r_epik_Ionization_Penalty>
0.00505548

> <r_epik_Ionization_Penalty_Charging>
0

> <r_epik_Ionization_Penalty_Neutral>
0.00505548

> <r_epik_State_Penalty>
0.00367784

> <r_epik_Charging_Adjusted_Penalty>
0.00367784

> <i_epik_Tot_Q>
0

> <i_epik_Tot_abs_Q>
0

> <r_epik_Metal_State_Penalty>
-0

> <b_epik_Metal_Only>
0

> <s_lp_Force_Field>
OPLS_2005

> <r_lp_Energy>
17.3119

> <b_lp_Chiralities_Consistent>
1

> <s_lp_Variant>
AV-unprocessed.smi:453-1

> <Gold.Version>
5.8.1

> <Gold.Id.Protein>
6NUR|6NUR_protein|mol2

> <Gold.PLP.Fitness>
48.1570

> <Gold.PLP.PLP>
-41.2258

> <Gold.PLP.part.hbond>
-4.0000

> <Gold.PLP.part.metal>
0.0000

> <Gold.PLP.part.buried>
-3.2518

> <Gold.PLP.part.nonpolar>
-34.1304

> <Gold.PLP.part.repulsive>
0.1144

> <Gold.PLP.ligand.clash>
0.0000

> <Gold.PLP.ligand.torsion>
0.7624

> <Gold.PLP.Chemscore.Hbond>
2.7040

> <Gold.PLP.Chemscore.CHOScore>
0.0000

> <Gold.PLP.Chemscore.Metal>
0.0000

> <Gold.Chemscore.Hbonds>
donor molecule, donor type, donor heavy atom, donor atom, acceptor molecule, acceptor atom, score
      L1  H     7    30       P1  7948  0.90
      P1  H  7997  8009       L1    19  0.64
      P1  H 10752 10764       L1     6  0.32

> <Gold.PLP.Chemscore.Internal.Correction>
0.3440

> <Gold.Rescore>
     Score         DG    S(hbond)    S(metal)    S(lipo)     H(rot)  DE(clash)    DE(int)     intcor
     16.77     -19.14       1.89        0.00      98.70       1.65       0.25       2.12       ----

> <Gold.Chemscore.Fitness>
16.7670

> <Gold.Chemscore.DG>
-19.1361

> <Gold.Chemscore.ZeroCoef>
-5.4800

> <Gold.Chemscore.Hbond>
1.8948

> <Gold.Chemscore.Metal>
0.0000

> <Gold.Chemscore.Lipo>
98.7046

> <Gold.Chemscore.Internal_Hbond>
0.0000

> <Gold.Chemscore.DEClash>
0.2513

> <Gold.Chemscore.DEInternal>
2.1178

> <Gold.Chemscore.Rot>
1.6488

> <Gold.Chemscore.Internal.Correction>
   9.000000E+99

> <Gold.Chemscore.Hbonds>
donor molecule, donor type, donor heavy atom, donor atom, acceptor molecule, acceptor atom, score
      L1  H     7    30       P1  7948  0.18
      P1  H  7997  8009       L1    19  0.08
      P1  H 10752 10764       L1     6  0.08

> <Gold.Chemscore.Hbond.Weighted>
-6.3285

> <Gold.Chemscore.Metal.Weighted>
-0.0000

> <Gold.Chemscore.Lipo.Weighted>
-11.5484

> <Gold.Chemscore.Internal_Hbond.Weighted>
0.0000

> <Gold.Chemscore.DEClash.Weighted>
0.2513

> <Gold.Chemscore.DEInternal.Weighted>
2.1178

> <Gold.Chemscore.Rot.Weighted>
4.2208

> <Gold.Chemscore.Internal.Correction.Weighted>
   9.000000E+99

> <Gold.Protein.RotatedTorsions>
[ 6907 6896 6895 6894 ] final -157.94 input  -60.11 | X-H torsion
[ 7974 7965 7964 7962 ] final  -40.20 input  175.53 | X-H torsion
[ 8008 7997 7996 7995 ] final  155.33 input   59.86 | X-H torsion
[ 10167 10162 10161 10158 ] final -102.93 input  -65.29 | X-H torsion
[ 10718 10713 10712 10709 ] final  -94.45 input   66.30 | X-H torsion
[ 10763 10752 10751 10750 ] final  -46.42 input  -60.55 | X-H torsion
[ 11005 11000 10999 10996 ] final  -61.77 input  -57.11 | X-H torsion

> <Gold.Protein.ActiveResidues>
 VAL166  LYS551  ARG553  GLY616  TRP617  ASP618  TYR619  PRO620  LYS621  CYS622 
 ASP623  PHE694  ASN695  SER759  ASP760  ASP761  ALA762  ILE779  LEU786  VAL792 
 PHE793  MET794  SER795  GLU796  ALA797  LYS798  CYS799  TRP800  GLU811  SER814 

> <Gold.Protein.RotatedAtoms>
  151.3106  133.4082  159.2646 H   0  0  0  0  0  0  0  0  0  0  0  0  # atno 6907 bound_to 6896
  151.0117  134.9403  159.8021 H   0  0  0  0  0  0  0  0  0  0  0  0  # atno 6908 bound_to 6896
  152.5302  134.3070  159.9152 H   0  0  0  0  0  0  0  0  0  0  0  0  # atno 6909 bound_to 6896
  146.0326  140.6712  142.9125 H   0  0  0  0  0  0  0  0  0  0  0  0  # atno 7974 bound_to 7965
  156.2484  140.1942  156.6785 H   0  0  0  0  0  0  0  0  0  0  0  0  # atno 8008 bound_to 7997
  154.6339  140.0592  156.9791 H   0  0  0  0  0  0  0  0  0  0  0  0  # atno 8009 bound_to 7997
  155.1667  140.3264  155.4403 H   0  0  0  0  0  0  0  0  0  0  0  0  # atno 8010 bound_to 7997
  140.2254  143.3645  152.0933 H   0  0  0  0  0  0  0  0  0  0  0  0  # atno 10167 bound_to 10162
  156.0027  130.5068  150.5928 H   0  0  0  0  0  0  0  0  0  0  0  0  # atno 10718 bound_to 10713
  154.0447  135.6639  153.4794 H   0  0  0  0  0  0  0  0  0  0  0  0  # atno 10763 bound_to 10752
  153.0487  135.5098  154.7808 H   0  0  0  0  0  0  0  0  0  0  0  0  # atno 10764 bound_to 10752
  154.6795  135.3042  154.9598 H   0  0  0  0  0  0  0  0  0  0  0  0  # atno 10765 bound_to 10752
  141.1336  133.6633  156.5426 H   0  0  0  0  0  0  0  0  0  0  0  0  # atno 11005 bound_to 11000
  144.7037  140.3763  143.7135 LP  0  0  0  0  0  0  0  0  0  0  0  0  # atno 17320 bound_to 7965
  145.7015  139.1662  143.2590 LP  0  0  0  0  0  0  0  0  0  0  0  0  # atno 17321 bound_to 7965
  139.5129  144.6924  151.5724 LP  0  0  0  0  0  0  0  0  0  0  0  0  # atno 17342 bound_to 10162
  140.6224  143.9233  150.6537 LP  0  0  0  0  0  0  0  0  0  0  0  0  # atno 17343 bound_to 10162
  157.3790  131.0778  151.1493 LP  0  0  0  0  0  0  0  0  0  0  0  0  # atno 17370 bound_to 10713
  157.2222  130.6486  149.5815 LP  0  0  0  0  0  0  0  0  0  0  0  0  # atno 17371 bound_to 10713
  140.4127  134.7258  157.4845 LP  0  0  0  0  0  0  0  0  0  0  0  0  # atno 17394 bound_to 11000
  140.0416  134.6260  155.8974 LP  0  0  0  0  0  0  0  0  0  0  0  0  # atno 17395 bound_to 11000

$$$$
