#       Name:                AV-unprocessed.smi:1535
#       Creating user name   scv26
#       Creation time:       Fri Mar 27 06:33:13 2020


#       File generated by GOLD software.
#

@<TRIPOS>MOLECULE
AV-unprocessed.smi:1535
    51    52     1
SMALL
NO_CHARGES


@<TRIPOS>ATOM
      1 ****         2.2835   3.8402   1.4422 C.3            1 S1                 0.0000
      2 ****         1.1120   2.9626   1.0355 C.ar           1 S1                 0.0000
      3 ****         0.3891   2.2913   2.0468 C.ar           1 S1                 0.0000
      4 ****        -0.6763   1.4957   1.6433 C.ar           1 S1                 0.0000
      5 ****        -1.5670   0.7191   2.3869 N.pl3          1 S1                 1.0000
      6 ****        -2.4486   0.1100   1.5473 C.2            1 S1                 0.0000
      7 ****        -2.1267   0.4761   0.2764 N.pl3          1 S1                 0.0000
      8 ****        -2.7592   0.0836  -0.9902 C.3            1 S1                 0.0000
      9 ****        -2.3229  -1.3123  -1.4912 C.3            1 S1                 0.0000
     10 ****        -3.2027  -1.6401  -2.5467 O.3            1 S1                 0.0000
     11 ****        -0.8735  -1.3814  -2.0375 C.3            1 S1                 0.0000
     12 ****         0.0413  -2.2794  -1.3265 N.3            1 S1                 0.0000
     13 ****         1.2664  -2.4480  -2.1015 C.3            1 S1                 0.0000
     14 ****         0.3360  -1.8064   0.0274 C.3            1 S1                 0.0000
     15 ****         1.1564  -2.7602   0.9142 C.3            1 S1                 0.0000
     16 ****         1.4262  -2.1289   2.2861 C.3            1 S1                 0.0000
     17 ****         0.4902  -4.0643   1.0655 C.1            1 S1                 0.0000
     18 ****        -0.0343  -5.0884   1.1852 N.1            1 S1                 0.0000
     19 ****        -1.0345   1.3530   0.2878 C.ar           1 S1                 0.0000
     20 ****        -0.3343   2.0128  -0.7201 C.ar           1 S1                 0.0000
     21 ****         0.7556   2.8233  -0.3306 C.ar           1 S1                 0.0000
     22 ****         1.5429   3.5453  -1.4109 C.3            1 S1                 0.0000
     23 ****         2.3979   3.8769   2.5259 H              1 S1                 0.0000
     24 ****         2.1388   4.8616   1.0892 H              1 S1                 0.0000
     25 ****         3.2129   3.4562   1.0209 H              1 S1                 0.0000
     26 ****         0.6545   2.3922   3.0892 H              1 S1                 0.0000
     27 ****        -3.2507  -0.5544   1.8357 H              1 S1                 0.0000
     28 ****        -3.8344   0.0857  -0.8038 H              1 S1                 0.0000
     29 ****        -2.5855   0.8510  -1.7444 H              1 S1                 0.0000
     30 ****        -2.4813  -2.0570  -0.7101 H              1 S1                 0.0000
     31 ****        -2.9989  -2.5130  -2.8467 H              1 S1                 0.0000
     32 ****        -0.9204  -1.7023  -3.0799 H              1 S1                 0.0000
     33 ****        -0.4415  -0.3825  -2.0827 H              1 S1                 0.0000
     34 ****         1.9177  -3.1997  -1.6574 H              1 S1                 0.0000
     35 ****         1.8205  -1.5111  -2.1734 H              1 S1                 0.0000
     36 ****         1.0416  -2.7857  -3.1139 H              1 S1                 0.0000
     37 ****         0.8412  -0.8411  -0.0275 H              1 S1                 0.0000
     38 ****        -0.5995  -1.6329   0.5528 H              1 S1                 0.0000
     39 ****         2.1222  -2.9579   0.4511 H              1 S1                 0.0000
     40 ****         2.0267  -2.7919   2.9097 H              1 S1                 0.0000
     41 ****         0.4955  -1.9250   2.8166 H              1 S1                 0.0000
     42 ****         1.9675  -1.1874   2.1871 H              1 S1                 0.0000
     43 ****        -0.6015   1.9111  -1.7613 H              1 S1                 0.0000
     44 ****         1.1637   3.3103  -2.4059 H              1 S1                 0.0000
     45 ****         2.5931   3.2545  -1.3790 H              1 S1                 0.0000
     46 ****         1.4771   4.6250  -1.2754 H              1 S1                 0.0000
     47 ****        -1.5769   0.6127   3.3933 H              1 S1                 0.0000
     48 ****        -3.0863  -0.9896  -3.2973 LP             1 S1                 0.0000
     49 ****        -4.1475  -1.6074  -2.2208 LP             1 S1                 0.0000
     50 ****        -0.4094  -3.1666  -1.2277 LP             1 S1                 0.0000
     51 ****        -0.4877  -5.9737   1.2887 LP             1 S1                 0.0000
@<TRIPOS>BOND
    1    1    2 1     
    2    1   23 1     
    3    1   24 1     
    4    1   25 1     
    5    2   21 ar    
    6    2    3 ar    
    7    3    4 ar    
    8    3   26 1     
    9    4   19 ar    
   10    4    5 1     
   11    5    6 2     
   12    5   47 1     
   13    6    7 1     
   14    6   27 1     
   15    7    8 1     
   16    7   19 1     
   17    8    9 1     
   18    8   28 1     
   19    8   29 1     
   20    9   10 1     
   21    9   11 1     
   22    9   30 1     
   23   10   31 1     
   24   11   12 1     
   25   11   32 1     
   26   11   33 1     
   27   12   13 1     
   28   12   14 1     
   29   13   34 1     
   30   13   35 1     
   31   13   36 1     
   32   14   15 1     
   33   14   37 1     
   34   14   38 1     
   35   15   16 1     
   36   15   17 1     
   37   15   39 1     
   38   16   40 1     
   39   16   41 1     
   40   16   42 1     
   41   17   18 3     
   42   19   20 ar    
   43   20   21 ar    
   44   20   43 1     
   45   21   22 1     
   46   22   44 1     
   47   22   45 1     
   48   22   46 1     
   49   10   48 1     
   50   10   49 1     
   51   12   50 1     
   52   18   51 1     
@<TRIPOS>SUBSTRUCTURE
      1 S1             1
@<TRIPOS>SET
LONE_PAIRS      STATIC     ATOMS    <user>   **** ""
4 48 49 50 51
DONOR_HYDROGENS      STATIC     ATOMS    <user>   **** ""
2 47 31
ATOM$BLUE        STATIC     ATOMS    COLORGROUP SYSTEM
4 48 49 50 51
ATOM$RED        STATIC     ATOMS    COLORGROUP SYSTEM
2 47 31
