AV-unprocessed.smi:113|AV-procd|sdf|1095|dock3
  -GOLD-   2262018203D 1   1.00000     0.00000
 Structure written by MMmdl.
 52 55  0  0  0  0  0  0  0  0  1 V2000
  154.9189  139.2504  162.4253 C   0  0  0  0  0  0  0  0  0  0  0  0
  154.0944  139.8131  161.2864 C   0  0  0  0  0  0  0  0  0  0  0  0
  153.5791  138.9686  160.2873 C   0  0  0  0  0  0  0  0  0  0  0  0
  152.8198  139.5324  159.2366 C   0  0  0  0  0  0  0  0  0  0  0  0
  152.2352  138.6565  158.1227 C   0  0  0  0  0  0  0  0  0  0  0  0
  150.7948  138.4430  158.1416 N   0  0  0  0  0  0  0  0  0  0  0  0
  150.2698  137.5589  159.1155 C   0  0  0  0  0  0  0  0  0  0  0  0
  151.0013  136.9721  159.9159 O   0  0  0  0  0  0  0  0  0  0  0  0
  148.8114  137.4207  159.1082 C   0  0  0  0  0  0  0  0  0  0  0  0
  148.1740  136.4970  160.1344 C   0  0  0  0  0  0  0  0  0  0  0  0
  148.0743  138.1152  158.2083 C   0  0  0  0  0  0  0  0  0  0  0  0
  148.6135  138.9657  157.2590 N   0  0  0  0  0  0  0  0  0  0  0  0
  147.6927  139.7404  156.3410 C   0  0  2  0  0  0  0  0  0  0  0  0
  146.2015  139.5629  156.6740 C   0  0  0  0  0  0  0  0  0  0  0  0
  145.6304  138.9638  155.3971 C   0  0  1  0  0  0  0  0  0  0  0  0
  144.3524  139.4997  155.1211 O   0  0  0  0  0  0  0  0  0  0  0  0
  146.6634  139.3518  154.3330 C   0  0  2  0  0  0  0  0  0  0  0  0
  146.7286  138.4041  153.1255 C   0  0  0  0  0  0  0  0  0  0  0  0
  147.7425  138.8105  152.2307 O   0  0  0  0  0  0  0  0  0  0  0  0
  147.8969  139.2980  155.0356 O   0  0  0  0  0  0  0  0  0  0  0  0
  150.0093  139.1774  157.2250 C   0  0  0  0  0  0  0  0  0  0  0  0
  150.5149  139.9828  156.4406 O   0  0  0  0  0  0  0  0  0  0  0  0
  152.6143  140.9388  159.2450 C   0  0  0  0  0  0  0  0  0  0  0  0
  151.8647  141.5829  158.2310 C   0  0  0  0  0  0  0  0  0  0  0  0
  151.6723  142.9758  158.2582 C   0  0  0  0  0  0  0  0  0  0  0  0
  152.2272  143.7396  159.2982 C   0  0  0  0  0  0  0  0  0  0  0  0
  152.9739  143.1079  160.3087 C   0  0  0  0  0  0  0  0  0  0  0  0
  153.1794  141.7114  160.3024 C   0  0  0  0  0  0  0  0  0  0  0  0
  153.9024  141.1466  161.2944 N   0  0  0  0  0  0  0  0  0  0  0  0
  154.7059  138.1916  162.5754 H   0  0  0  0  0  0  0  0  0  0  0  0
  154.7029  139.7731  163.3577 H   0  0  0  0  0  0  0  0  0  0  0  0
  155.9819  139.3588  162.2081 H   0  0  0  0  0  0  0  0  0  0  0  0
  153.7730  137.9077  160.3399 H   0  0  0  0  0  0  0  0  0  0  0  0
  152.4879  139.0720  157.1459 H   0  0  0  0  0  0  0  0  0  0  0  0
  152.7099  137.6742  158.1280 H   0  0  0  0  0  0  0  0  0  0  0  0
  147.0890  136.4641  160.0334 H   0  0  0  0  0  0  0  0  0  0  0  0
  148.4046  136.8347  161.1456 H   0  0  0  0  0  0  0  0  0  0  0  0
  148.5503  135.4800  160.0185 H   0  0  0  0  0  0  0  0  0  0  0  0
  147.0007  137.9950  158.2368 H   0  0  0  0  0  0  0  0  0  0  0  0
  147.9970  140.7851  156.4127 H   0  0  0  0  0  0  0  0  0  0  0  0
  146.0399  138.9342  157.5503 H   0  0  0  0  0  0  0  0  0  0  0  0
  145.7834  140.5494  156.8799 H   0  0  0  0  0  0  0  0  0  0  0  0
  145.5613  137.8797  155.4902 H   0  0  0  0  0  0  0  0  0  0  0  0
  144.2776  139.6251  154.1870 H   0  0  0  0  0  0  0  0  0  0  0  0
  146.5125  140.3836  154.0090 H   0  0  0  0  0  0  0  0  0  0  0  0
  146.9529  137.3902  153.4582 H   0  0  0  0  0  0  0  0  0  0  0  0
  145.7711  138.3676  152.6047 H   0  0  0  0  0  0  0  0  0  0  0  0
  148.3234  138.0798  152.0830 H   0  0  0  0  0  0  0  0  0  0  0  0
  151.4251  141.0257  157.4178 H   0  0  0  0  0  0  0  0  0  0  0  0
  151.0984  143.4579  157.4804 H   0  0  0  0  0  0  0  0  0  0  0  0
  152.0809  144.8095  159.3222 H   0  0  0  0  0  0  0  0  0  0  0  0
  153.3958  143.7060  161.1033 H   0  0  0  0  0  0  0  0  0  0  0  0
  1  2  1  0  0  0  0
  1 30  1  0  0  0  0
  1 31  1  0  0  0  0
  1 32  1  0  0  0  0
  2 29  1  0  0  0  0
  2  3  2  0  0  0  0
  3  4  1  0  0  0  0
  3 33  1  0  0  0  0
  4  5  1  0  0  0  0
  4 23  2  0  0  0  0
  5  6  1  0  0  0  0
  5 34  1  0  0  0  0
  5 35  1  0  0  0  0
  6 21  1  0  0  0  0
  6  7  1  0  0  0  0
  7  8  2  0  0  0  0
  7  9  1  0  0  0  0
  9 10  1  0  0  0  0
  9 11  2  0  0  0  0
 10 36  1  0  0  0  0
 10 37  1  0  0  0  0
 10 38  1  0  0  0  0
 11 12  1  0  0  0  0
 11 39  1  0  0  0  0
 12 13  1  0  0  0  0
 12 21  1  0  0  0  0
 13 20  1  0  0  0  0
 13 14  1  0  0  0  0
 13 40  1  0  0  0  0
 14 15  1  0  0  0  0
 14 41  1  0  0  0  0
 14 42  1  0  0  0  0
 15 16  1  0  0  0  0
 15 17  1  0  0  0  0
 15 43  1  0  0  0  0
 16 44  1  0  0  0  0
 17 18  1  0  0  0  0
 17 20  1  0  0  0  0
 17 45  1  0  0  0  0
 18 19  1  0  0  0  0
 18 46  1  0  0  0  0
 18 47  1  0  0  0  0
 19 48  1  0  0  0  0
 21 22  2  0  0  0  0
 23 28  1  0  0  0  0
 23 24  1  0  0  0  0
 24 25  2  0  0  0  0
 24 49  1  0  0  0  0
 25 26  1  0  0  0  0
 25 50  1  0  0  0  0
 26 27  2  0  0  0  0
 26 51  1  0  0  0  0
 27 28  1  0  0  0  0
 27 52  1  0  0  0  0
 28 29  2  0  0  0  0
M  END
> <s_m_source_file>
AV-unprocessed.smi

> <i_m_source_file_index>
113

> <i_lp_mmshare_version>
43012

> <i_f3d_flags>
0

> <s_epik_input>
W2NIXTFbY0hdW2NIXVtjSF1jKGMxMiluYyhbQ0gzXSlbY0hdYzJbQ0gyXW4zYyg9TyljKFtDSDNdKVtjSF1uKGMzPU8pW0NAQEhdNFtDSDJdW0NAQEhdKFtPSF0pW0NASF0oTzQpW0NIMl1bT0hd

> <s_epik_cmdline>
J2VwaWtfcHl0aG9uJywgJy1waCcsICc3LjAnLCAnLXRuJywgJzgnLCAnLW1hJywgJzIwMCcsICctbWV0YWxfYmluZGluZycsICctaW1hZScsICc8aW5maWxlLm1hZT4nLCAnLW9tYWUnLCAnPG91dGZpbGUubWFlPic=

> <r_lp_tautomer_probability>
1

> <r_epik_Ionization_Penalty>
0.214728

> <r_epik_Ionization_Penalty_Charging>
3.04883e-08

> <r_epik_Ionization_Penalty_Neutral>
0.214728

> <r_epik_State_Penalty>
0.204913

> <r_epik_Charging_Adjusted_Penalty>
0.204913

> <i_epik_Tot_Q>
0

> <i_epik_Tot_abs_Q>
0

> <r_epik_Metal_State_Penalty>
0.000244761

> <b_epik_Metal_Only>
0

> <s_epik_Chemistry_Notes>
This compound contains an acetal/aminal-like group ( X-CH(R)-Y where X, Y are N, S, or O) that may be acid/base labile, releasing an aldehyde.

> <s_lp_Force_Field>
OPLS_2005

> <r_lp_Energy>
32.9041

> <b_lp_Chiralities_Consistent>
1

> <s_lp_Variant>
AV-unprocessed.smi:113-5

> <Gold.Version>
5.8.1

> <Gold.Id.Protein>
6NUR|6NUR_protein|mol2

> <Gold.PLP.Fitness>
52.3475

> <Gold.PLP.PLP>
-44.4863

> <Gold.PLP.part.hbond>
-3.5787

> <Gold.PLP.part.metal>
0.0000

> <Gold.PLP.part.buried>
-7.6416

> <Gold.PLP.part.nonpolar>
-33.4760

> <Gold.PLP.part.repulsive>
0.0754

> <Gold.PLP.ligand.clash>
0.0000

> <Gold.PLP.ligand.torsion>
0.4546

> <Gold.PLP.Chemscore.Hbond>
2.9100

> <Gold.PLP.Chemscore.CHOScore>
0.0000

> <Gold.PLP.Chemscore.Metal>
0.0000

> <Gold.Chemscore.Hbonds>
donor molecule, donor type, donor heavy atom, donor atom, acceptor molecule, acceptor atom, score
      L1  H    16    44       P1 10175  1.00
      L1  H    19    48       P1  7948  1.00
      P1  H  6896  6909       L1     8  1.00

> <Gold.PLP.Chemscore.Internal.Correction>
0.0404

> <Gold.Rescore>
     Score         DG    S(hbond)    S(metal)    S(lipo)     H(rot)  DE(clash)    DE(int)     intcor
     19.12     -20.92       2.94        0.00     112.67       2.95       0.01       1.79       ----

> <Gold.Chemscore.Fitness>
19.1217

> <Gold.Chemscore.DG>
-20.9224

> <Gold.Chemscore.ZeroCoef>
-5.4800

> <Gold.Chemscore.Hbond>
2.9354

> <Gold.Chemscore.Metal>
0.0000

> <Gold.Chemscore.Lipo>
112.6683

> <Gold.Chemscore.Internal_Hbond>
0.0000

> <Gold.Chemscore.DEClash>
0.0126

> <Gold.Chemscore.DEInternal>
1.7880

> <Gold.Chemscore.Rot>
2.9469

> <Gold.Chemscore.Internal.Correction>
   9.000000E+99

> <Gold.Chemscore.Hbonds>
donor molecule, donor type, donor heavy atom, donor atom, acceptor molecule, acceptor atom, score
      L1  H    16    44       P1 10175  0.96
      L1  H    19    48       P1  7948  0.99
      P1  H  6896  6909       L1     8  1.00

> <Gold.Chemscore.Hbond.Weighted>
-9.8041

> <Gold.Chemscore.Metal.Weighted>
-0.0000

> <Gold.Chemscore.Lipo.Weighted>
-13.1822

> <Gold.Chemscore.Internal_Hbond.Weighted>
0.0000

> <Gold.Chemscore.DEClash.Weighted>
0.0126

> <Gold.Chemscore.DEInternal.Weighted>
1.7880

> <Gold.Chemscore.Rot.Weighted>
7.5439

> <Gold.Chemscore.Internal.Correction.Weighted>
   9.000000E+99

> <Gold.Protein.RotatedTorsions>
[ 6907 6896 6895 6894 ] final  104.92 input  -60.11 | X-H torsion
[ 7974 7965 7964 7962 ] final   36.75 input  175.53 | X-H torsion
[ 8008 7997 7996 7995 ] final  -17.93 input   59.86 | X-H torsion
[ 10167 10162 10161 10158 ] final  -42.89 input  -65.29 | X-H torsion
[ 10718 10713 10712 10709 ] final  112.34 input   66.30 | X-H torsion
[ 10763 10752 10751 10750 ] final   79.65 input  -60.55 | X-H torsion
[ 11005 11000 10999 10996 ] final   76.15 input  -57.11 | X-H torsion

> <Gold.Protein.ActiveResidues>
 VAL166  LYS551  ARG553  GLY616  TRP617  ASP618  TYR619  PRO620  LYS621  CYS622 
 ASP623  PHE694  ASN695  SER759  ASP760  ASP761  ALA762  ILE779  LEU786  VAL792 
 PHE793  MET794  SER795  GLU796  ALA797  LYS798  CYS799  TRP800  GLU811  SER814 

> <Gold.Protein.RotatedAtoms>
  152.5248  133.9605  159.7714 H   0  0  0  0  0  0  0  0  0  0  0  0  # atno 6907 bound_to 6896
  150.9897  133.6154  159.2717 H   0  0  0  0  0  0  0  0  0  0  0  0  # atno 6908 bound_to 6896
  151.3302  135.0846  159.9389 H   0  0  0  0  0  0  0  0  0  0  0  0  # atno 6909 bound_to 6896
  146.1188  139.5979  142.9303 H   0  0  0  0  0  0  0  0  0  0  0  0  # atno 7974 bound_to 7965
  154.4943  140.2129  155.9481 H   0  0  0  0  0  0  0  0  0  0  0  0  # atno 8008 bound_to 7997
  156.1348  140.3190  155.8372 H   0  0  0  0  0  0  0  0  0  0  0  0  # atno 8009 bound_to 7997
  155.4229  140.0498  157.3015 H   0  0  0  0  0  0  0  0  0  0  0  0  # atno 8010 bound_to 7997
  140.6953  143.3013  151.3273 H   0  0  0  0  0  0  0  0  0  0  0  0  # atno 10167 bound_to 10162
  157.6397  131.0966  150.6881 H   0  0  0  0  0  0  0  0  0  0  0  0  # atno 10718 bound_to 10713
  153.0970  135.4832  154.8796 H   0  0  0  0  0  0  0  0  0  0  0  0  # atno 10763 bound_to 10752
  154.7335  135.3065  154.8853 H   0  0  0  0  0  0  0  0  0  0  0  0  # atno 10764 bound_to 10752
  153.9482  135.6826  153.4797 H   0  0  0  0  0  0  0  0  0  0  0  0  # atno 10765 bound_to 10752
  139.9311  134.7577  156.1360 H   0  0  0  0  0  0  0  0  0  0  0  0  # atno 11005 bound_to 11000
  145.5510  141.0413  143.2278 LP  0  0  0  0  0  0  0  0  0  0  0  0  # atno 17320 bound_to 7965
  144.7578  139.7032  143.7247 LP  0  0  0  0  0  0  0  0  0  0  0  0  # atno 17321 bound_to 7965
  139.6402  144.0554  152.2548 LP  0  0  0  0  0  0  0  0  0  0  0  0  # atno 17342 bound_to 10162
  140.0057  144.6261  150.7691 LP  0  0  0  0  0  0  0  0  0  0  0  0  # atno 17343 bound_to 10162
  156.7207  130.4680  149.5523 LP  0  0  0  0  0  0  0  0  0  0  0  0  # atno 17370 bound_to 10713
  156.1667  130.6410  151.0787 LP  0  0  0  0  0  0  0  0  0  0  0  0  # atno 17371 bound_to 10713
  141.0900  133.6718  156.2519 LP  0  0  0  0  0  0  0  0  0  0  0  0  # atno 17394 bound_to 11000
  140.6200  134.5371  157.5546 LP  0  0  0  0  0  0  0  0  0  0  0  0  # atno 17395 bound_to 11000

$$$$
