AV-unprocessed.smi:926|AV-procd|sdf|4183|dock6
  -GOLD-   22720 2 83D 1   1.00000     0.00000
 Structure written by MMmdl.
 37 39  0  0  0  0  0  0  0  0  1 V2000
  150.7766  140.1037  154.6219 O   0  0  0  0  0  0  0  0  0  0  0  0
  151.4974  139.5188  155.4302 C   0  0  0  0  0  0  0  0  0  0  0  0
  152.0845  138.1522  155.0790 C   0  0  0  0  0  0  0  0  0  0  0  0
  151.9004  137.2168  156.1725 N   0  0  0  0  0  0  0  0  0  0  0  0
  150.7978  136.8197  156.8117 C   0  0  0  0  0  0  0  0  0  0  0  0
  151.0756  135.9484  157.7696 N   0  0  0  0  0  0  0  0  0  0  0  0
  152.4522  135.8200  157.6889 N   0  0  0  0  0  0  0  0  0  0  0  0
  152.9472  136.5701  156.7429 N   0  0  0  0  0  0  0  0  0  0  0  0
  151.8032  140.0097  156.6416 N   0  0  0  0  0  0  0  0  0  0  0  0
  151.3034  141.2683  157.1801 C   0  0  0  0  0  0  0  0  0  0  0  0
  151.8928  141.5532  158.5725 C   0  0  0  0  0  0  0  0  0  0  0  0
  152.4613  142.9787  158.7158 C   0  0  2  0  0  0  0  0  0  0  0  0
  152.7410  143.3977  160.1753 C   0  0  0  0  0  0  0  0  0  0  0  0
  152.0347  144.7620  160.2847 C   0  0  2  0  0  0  0  0  0  0  0  0
  150.5114  144.5409  160.3313 C   0  0  0  0  0  0  0  0  0  0  0  0
  150.1839  144.1379  158.8819 C   0  0  0  0  0  0  0  0  0  0  0  0
  151.5705  144.1389  158.2058 C   0  0  1  0  0  0  0  0  0  0  0  0
  152.2280  145.3357  158.8858 C   0  0  0  0  0  0  0  0  0  0  0  0
  151.5953  137.7514  154.1902 H   0  0  0  0  0  0  0  0  0  0  0  0
  153.1475  138.2454  154.8502 H   0  0  0  0  0  0  0  0  0  0  0  0
  149.8024  137.1696  156.5808 H   0  0  0  0  0  0  0  0  0  0  0  0
  152.4041  139.4618  157.2404 H   0  0  0  0  0  0  0  0  0  0  0  0
  151.5733  142.0681  156.4901 H   0  0  0  0  0  0  0  0  0  0  0  0
  150.2133  141.2437  157.2166 H   0  0  0  0  0  0  0  0  0  0  0  0
  151.1437  141.3685  159.3421 H   0  0  0  0  0  0  0  0  0  0  0  0
  152.6925  140.8383  158.7699 H   0  0  0  0  0  0  0  0  0  0  0  0
  153.4035  143.0154  158.1663 H   0  0  0  0  0  0  0  0  0  0  0  0
  152.3581  142.6833  160.9054 H   0  0  0  0  0  0  0  0  0  0  0  0
  153.8138  143.4985  160.3447 H   0  0  0  0  0  0  0  0  0  0  0  0
  152.4109  145.3851  161.0967 H   0  0  0  0  0  0  0  0  0  0  0  0
  150.2267  143.7726  161.0509 H   0  0  0  0  0  0  0  0  0  0  0  0
  149.9907  145.4610  160.5998 H   0  0  0  0  0  0  0  0  0  0  0  0
  149.6661  143.1820  158.8129 H   0  0  0  0  0  0  0  0  0  0  0  0
  149.5376  144.8859  158.4210 H   0  0  0  0  0  0  0  0  0  0  0  0
  151.5246  144.2096  157.1187 H   0  0  0  0  0  0  0  0  0  0  0  0
  151.6948  146.2745  158.7250 H   0  0  0  0  0  0  0  0  0  0  0  0
  153.2765  145.4695  158.6135 H   0  0  0  0  0  0  0  0  0  0  0  0
  1  2  2  0  0  0  0
  2  3  1  0  0  0  0
  2  9  1  0  0  0  0
  3  4  1  0  0  0  0
  3 19  1  0  0  0  0
  3 20  1  0  0  0  0
  4  8  1  0  0  0  0
  4  5  1  0  0  0  0
  5  6  2  0  0  0  0
  5 21  1  0  0  0  0
  6  7  1  0  0  0  0
  7  8  2  0  0  0  0
  9 10  1  0  0  0  0
  9 22  1  0  0  0  0
 10 11  1  0  0  0  0
 10 23  1  0  0  0  0
 10 24  1  0  0  0  0
 11 12  1  0  0  0  0
 11 25  1  0  0  0  0
 11 26  1  0  0  0  0
 12 17  1  0  0  0  0
 12 13  1  0  0  0  0
 12 27  1  0  0  0  0
 13 14  1  0  0  0  0
 13 28  1  0  0  0  0
 13 29  1  0  0  0  0
 14 18  1  0  0  0  0
 14 15  1  0  0  0  0
 14 30  1  0  0  0  0
 15 16  1  0  0  0  0
 15 31  1  0  0  0  0
 15 32  1  0  0  0  0
 16 17  1  0  0  0  0
 16 33  1  0  0  0  0
 16 34  1  0  0  0  0
 17 18  1  0  0  0  0
 17 35  1  0  0  0  0
 18 36  1  0  0  0  0
 18 37  1  0  0  0  0
M  END
> <s_m_source_file>
AV-unprocessed.smi

> <i_m_source_file_index>
926

> <i_lp_mmshare_version>
43012

> <i_f3d_flags>
0

> <s_epik_input>
bjFubltjSF1uMVtDSDJdQyg9TylbTkhdW0NIMl1bQ0gyXVtDQEhdKFtDSDJdW0NASF0yMylbQ0BIXShbQ0gyXTMpW0NIMl1bQ0gyXTI=

> <s_epik_cmdline>
J2VwaWtfcHl0aG9uJywgJy1waCcsICc3LjAnLCAnLXRuJywgJzgnLCAnLW1hJywgJzIwMCcsICctbWV0YWxfYmluZGluZycsICctaW1hZScsICc8aW5maWxlLm1hZT4nLCAnLW9tYWUnLCAnPG91dGZpbGUubWFlPic=

> <r_lp_tautomer_probability>
1

> <r_epik_Ionization_Penalty>
4.22645e-07

> <r_epik_Ionization_Penalty_Charging>
0

> <r_epik_Ionization_Penalty_Neutral>
4.22645e-07

> <r_epik_State_Penalty>
-0

> <r_epik_Charging_Adjusted_Penalty>
0

> <i_epik_Tot_Q>
0

> <i_epik_Tot_abs_Q>
0

> <r_epik_Metal_State_Penalty>
-0

> <b_epik_Metal_Only>
0

> <s_lp_Force_Field>
OPLS_2005

> <r_lp_Energy>
51.1932

> <b_lp_Chiralities_Consistent>
1

> <s_lp_Variant>
AV-unprocessed.smi:926-1

> <Gold.Version>
5.8.1

> <Gold.Id.Protein>
6NUR|6NUR_protein|mol2

> <Gold.PLP.Fitness>
45.7450

> <Gold.PLP.PLP>
-40.2412

> <Gold.PLP.part.hbond>
-4.0000

> <Gold.PLP.part.metal>
0.0000

> <Gold.PLP.part.buried>
-7.1357

> <Gold.PLP.part.nonpolar>
-30.9543

> <Gold.PLP.part.repulsive>
0.2042

> <Gold.PLP.ligand.clash>
0.0000

> <Gold.PLP.ligand.torsion>
0.6025

> <Gold.PLP.Chemscore.Hbond>
2.2312

> <Gold.PLP.Chemscore.CHOScore>
0.0000

> <Gold.PLP.Chemscore.Metal>
0.0000

> <Gold.Chemscore.Hbonds>
donor molecule, donor type, donor heavy atom, donor atom, acceptor molecule, acceptor atom, score
      P1  H  6896  6908       L1     6  0.18
      P1  H  7989  7998       L1     1  1.00
      P1  H 10752 10765       L1     8  1.00

> <Gold.PLP.Chemscore.Internal.Correction>
0.0151

> <Gold.Rescore>
     Score         DG    S(hbond)    S(metal)    S(lipo)     H(rot)  DE(clash)    DE(int)     intcor
     16.09     -16.80       1.70        0.00     103.99       2.54       0.04       0.66       ----

> <Gold.Chemscore.Fitness>
16.0941

> <Gold.Chemscore.DG>
-16.7976

> <Gold.Chemscore.ZeroCoef>
-5.4800

> <Gold.Chemscore.Hbond>
1.6953

> <Gold.Chemscore.Metal>
0.0000

> <Gold.Chemscore.Lipo>
103.9906

> <Gold.Chemscore.Internal_Hbond>
0.0000

> <Gold.Chemscore.DEClash>
0.0424

> <Gold.Chemscore.DEInternal>
0.6611

> <Gold.Chemscore.Rot>
2.5436

> <Gold.Chemscore.Internal.Correction>
   9.000000E+99

> <Gold.Chemscore.Hbonds>
donor molecule, donor type, donor heavy atom, donor atom, acceptor molecule, acceptor atom, score
      P1  H  6896  6908       L1     6  0.03
      P1  H  7989  7998       L1     1  0.81
      P1  H 10752 10765       L1     8  0.26

> <Gold.Chemscore.Hbond.Weighted>
-5.6624

> <Gold.Chemscore.Metal.Weighted>
-0.0000

> <Gold.Chemscore.Lipo.Weighted>
-12.1669

> <Gold.Chemscore.Internal_Hbond.Weighted>
0.0000

> <Gold.Chemscore.DEClash.Weighted>
0.0424

> <Gold.Chemscore.DEInternal.Weighted>
0.6611

> <Gold.Chemscore.Rot.Weighted>
6.5117

> <Gold.Chemscore.Internal.Correction.Weighted>
   9.000000E+99

> <Gold.Protein.RotatedTorsions>
[ 6907 6896 6895 6894 ] final -178.28 input  -60.11 | X-H torsion
[ 7974 7965 7964 7962 ] final   68.73 input  175.53 | X-H torsion
[ 8008 7997 7996 7995 ] final   35.74 input   59.86 | X-H torsion
[ 10167 10162 10161 10158 ] final  -26.72 input  -65.29 | X-H torsion
[ 10718 10713 10712 10709 ] final  -35.59 input   66.30 | X-H torsion
[ 10763 10752 10751 10750 ] final -118.67 input  -60.55 | X-H torsion
[ 11005 11000 10999 10996 ] final   -0.66 input  -57.11 | X-H torsion

> <Gold.Protein.ActiveResidues>
 VAL166  LYS551  ARG553  GLY616  TRP617  ASP618  TYR619  PRO620  LYS621  CYS622 
 ASP623  PHE694  ASN695  SER759  ASP760  ASP761  ALA762  ILE779  LEU786  VAL792 
 PHE793  MET794  SER795  GLU796  ALA797  LYS798  CYS799  TRP800  GLU811  SER814 

> <Gold.Protein.RotatedAtoms>
  151.6346  133.3330  159.3116 H   0  0  0  0  0  0  0  0  0  0  0  0  # atno 6907 bound_to 6896
  150.8039  134.7154  159.6637 H   0  0  0  0  0  0  0  0  0  0  0  0  # atno 6908 bound_to 6896
  152.4133  134.6091  160.0072 H   0  0  0  0  0  0  0  0  0  0  0  0  # atno 6909 bound_to 6896
  145.7991  139.2973  143.1165 H   0  0  0  0  0  0  0  0  0  0  0  0  # atno 7974 bound_to 7965
  155.1760  140.3296  155.4384 H   0  0  0  0  0  0  0  0  0  0  0  0  # atno 8008 bound_to 7997
  156.2493  140.1935  156.6811 H   0  0  0  0  0  0  0  0  0  0  0  0  # atno 8009 bound_to 7997
  154.6304  140.0583  156.9712 H   0  0  0  0  0  0  0  0  0  0  0  0  # atno 8010 bound_to 7997
  140.7281  143.4154  151.1038 H   0  0  0  0  0  0  0  0  0  0  0  0  # atno 10167 bound_to 10162
  156.3369  130.4287  149.7822 H   0  0  0  0  0  0  0  0  0  0  0  0  # atno 10718 bound_to 10713
  154.8594  135.4265  154.2177 H   0  0  0  0  0  0  0  0  0  0  0  0  # atno 10763 bound_to 10752
  153.3189  135.6981  153.7054 H   0  0  0  0  0  0  0  0  0  0  0  0  # atno 10764 bound_to 10752
  153.6117  135.3518  155.2955 H   0  0  0  0  0  0  0  0  0  0  0  0  # atno 10765 bound_to 10752
  140.6388  133.9508  155.8314 H   0  0  0  0  0  0  0  0  0  0  0  0  # atno 11005 bound_to 11000
  145.9897  140.8613  143.0073 LP  0  0  0  0  0  0  0  0  0  0  0  0  # atno 17320 bound_to 7965
  144.6771  140.2198  143.7368 LP  0  0  0  0  0  0  0  0  0  0  0  0  # atno 17321 bound_to 7965
  139.7792  143.8380  152.3135 LP  0  0  0  0  0  0  0  0  0  0  0  0  # atno 17342 bound_to 10162
  139.8325  144.7247  150.9432 LP  0  0  0  0  0  0  0  0  0  0  0  0  # atno 17343 bound_to 10162
  156.5074  130.8156  151.3156 LP  0  0  0  0  0  0  0  0  0  0  0  0  # atno 17370 bound_to 10713
  157.7440  130.9925  150.2638 LP  0  0  0  0  0  0  0  0  0  0  0  0  # atno 17371 bound_to 10713
  141.0622  134.0329  157.3643 LP  0  0  0  0  0  0  0  0  0  0  0  0  # atno 17394 bound_to 11000
  139.9088  135.0186  156.7603 LP  0  0  0  0  0  0  0  0  0  0  0  0  # atno 17395 bound_to 11000

$$$$
