AV-unprocessed.smi:234|AV-procd|sdf|1791|dock4
  -GOLD-   2262020353D 1   1.00000     0.00000
 Structure written by MMmdl.
 59 62  0  0  0  0  0  0  0  0  1 V2000
  149.4899  132.2913  154.1193 C   0  0  0  0  0  0  0  0  0  0  0  0
  150.1168  132.2095  155.5173 C   0  0  0  0  0  0  0  0  0  0  0  0
  149.1894  132.5309  156.5443 O   0  0  0  0  0  0  0  0  0  0  0  0
  148.8026  133.8979  156.5921 C   0  0  2  0  0  0  0  0  0  0  0  0
  149.9942  134.8151  156.8663 C   0  0  0  0  0  0  0  0  0  0  0  0
  149.0225  135.6397  157.7190 C   0  0  2  0  0  0  0  0  0  0  0  0
  149.6168  136.2199  158.9258 N   0  0  0  0  0  0  0  0  0  0  0  0
  148.7254  136.4459  160.0565 C   0  0  0  0  0  0  0  0  0  0  0  0
  150.4473  137.2732  158.7456 C   0  0  0  0  0  0  0  0  0  0  0  0
  151.7091  137.1513  159.2284 N   0  0  0  0  0  0  0  0  0  0  0  0
  152.5802  138.1549  159.0889 C   0  0  0  0  0  0  0  0  0  0  0  0
  152.3967  139.3466  158.5171 N   0  0  0  0  0  0  0  0  0  0  0  0
  151.1243  139.4789  158.0437 C   0  0  0  0  0  0  0  0  0  0  0  0
  150.0926  138.5003  158.1135 C   0  0  0  0  0  0  0  0  0  0  0  0
  148.9317  138.9978  157.5321 N   0  0  0  0  0  0  0  0  0  0  0  0
  149.2611  140.1956  157.1335 C   0  0  0  0  0  0  0  0  0  0  0  0
  150.5565  140.5698  157.4091 N   0  0  0  0  0  0  0  0  0  0  0  0
  151.1820  141.8440  157.0914 C   0  0  0  0  0  0  0  0  0  0  0  0
  151.3467  142.7710  158.3192 C   0  0  2  0  0  0  0  0  0  0  0  0
  150.2345  142.5857  159.1801 O   0  0  0  0  0  0  0  0  0  0  0  0
  151.4439  144.2495  157.9724 C   0  0  0  0  0  0  0  0  0  0  0  0
  152.1811  144.8236  159.1757 C   0  0  0  0  0  0  0  0  0  0  0  0
  153.1114  143.8144  159.5452 O   0  0  0  0  0  0  0  0  0  0  0  0
  152.6722  142.5394  159.0784 C   0  0  1  0  0  0  0  0  0  0  0  0
  152.6380  141.5178  160.2265 C   0  0  0  0  0  0  0  0  0  0  0  0
  148.2003  134.3421  157.9519 C   0  0  0  0  0  0  0  0  0  0  0  0
  146.6812  134.5152  157.9811 C   0  0  0  0  0  0  0  0  0  0  0  0
  148.5811  133.4671  159.1597 C   0  0  0  0  0  0  0  0  0  0  0  0
  150.1850  131.9253  153.3637 H   0  0  0  0  0  0  0  0  0  0  0  0
  149.2336  133.3164  153.8544 H   0  0  0  0  0  0  0  0  0  0  0  0
  148.5839  131.6880  154.0599 H   0  0  0  0  0  0  0  0  0  0  0  0
  150.4582  131.1894  155.6932 H   0  0  0  0  0  0  0  0  0  0  0  0
  150.9990  132.8475  155.5875 H   0  0  0  0  0  0  0  0  0  0  0  0
  148.2298  134.2431  155.7276 H   0  0  0  0  0  0  0  0  0  0  0  0
  150.7905  134.3335  157.4368 H   0  0  0  0  0  0  0  0  0  0  0  0
  150.3822  135.3311  155.9880 H   0  0  0  0  0  0  0  0  0  0  0  0
  148.4651  136.3588  157.1159 H   0  0  0  0  0  0  0  0  0  0  0  0
  149.2759  136.7855  160.9347 H   0  0  0  0  0  0  0  0  0  0  0  0
  148.2042  135.5309  160.3321 H   0  0  0  0  0  0  0  0  0  0  0  0
  147.9779  137.2000  159.8086 H   0  0  0  0  0  0  0  0  0  0  0  0
  153.5653  137.9783  159.4950 H   0  0  0  0  0  0  0  0  0  0  0  0
  148.5605  140.8466  156.6314 H   0  0  0  0  0  0  0  0  0  0  0  0
  152.1521  141.6496  156.6320 H   0  0  0  0  0  0  0  0  0  0  0  0
  150.5760  142.3325  156.3272 H   0  0  0  0  0  0  0  0  0  0  0  0
  150.2256  143.2878  159.8123 H   0  0  0  0  0  0  0  0  0  0  0  0
  152.0546  144.3873  157.0793 H   0  0  0  0  0  0  0  0  0  0  0  0
  150.4783  144.7250  157.7947 H   0  0  0  0  0  0  0  0  0  0  0  0
  152.6807  145.7663  158.9529 H   0  0  0  0  0  0  0  0  0  0  0  0
  151.4921  144.9910  160.0045 H   0  0  0  0  0  0  0  0  0  0  0  0
  153.4306  142.2184  158.3629 H   0  0  0  0  0  0  0  0  0  0  0  0
  152.2890  140.5464  159.8761 H   0  0  0  0  0  0  0  0  0  0  0  0
  151.9825  141.8414  161.0353 H   0  0  0  0  0  0  0  0  0  0  0  0
  153.6332  141.3798  160.6493 H   0  0  0  0  0  0  0  0  0  0  0  0
  146.3568  135.0718  158.8598 H   0  0  0  0  0  0  0  0  0  0  0  0
  146.1662  133.5549  157.9988 H   0  0  0  0  0  0  0  0  0  0  0  0
  146.3240  135.0590  157.1063 H   0  0  0  0  0  0  0  0  0  0  0  0
  148.2294  133.8951  160.0981 H   0  0  0  0  0  0  0  0  0  0  0  0
  149.6597  133.3377  159.2510 H   0  0  0  0  0  0  0  0  0  0  0  0
  148.1469  132.4702  159.0789 H   0  0  0  0  0  0  0  0  0  0  0  0
  1  2  1  0  0  0  0
  1 29  1  0  0  0  0
  1 30  1  0  0  0  0
  1 31  1  0  0  0  0
  2  3  1  0  0  0  0
  2 32  1  0  0  0  0
  2 33  1  0  0  0  0
  3  4  1  0  0  0  0
  4 26  1  0  0  0  0
  4  5  1  0  0  0  0
  4 34  1  0  0  0  0
  5  6  1  0  0  0  0
  5 35  1  0  0  0  0
  5 36  1  0  0  0  0
  6  7  1  0  0  0  0
  6 26  1  0  0  0  0
  6 37  1  0  0  0  0
  7  8  1  0  0  0  0
  7  9  1  0  0  0  0
  8 38  1  0  0  0  0
  8 39  1  0  0  0  0
  8 40  1  0  0  0  0
  9 14  1  0  0  0  0
  9 10  2  0  0  0  0
 10 11  1  0  0  0  0
 11 12  2  0  0  0  0
 11 41  1  0  0  0  0
 12 13  1  0  0  0  0
 13 17  1  0  0  0  0
 13 14  2  0  0  0  0
 14 15  1  0  0  0  0
 15 16  2  0  0  0  0
 16 17  1  0  0  0  0
 16 42  1  0  0  0  0
 17 18  1  0  0  0  0
 18 19  1  0  0  0  0
 18 43  1  0  0  0  0
 18 44  1  0  0  0  0
 19 24  1  0  0  0  0
 19 20  1  0  0  0  0
 19 21  1  0  0  0  0
 20 45  1  0  0  0  0
 21 22  1  0  0  0  0
 21 46  1  0  0  0  0
 21 47  1  0  0  0  0
 22 23  1  0  0  0  0
 22 48  1  0  0  0  0
 22 49  1  0  0  0  0
 23 24  1  0  0  0  0
 24 25  1  0  0  0  0
 24 50  1  0  0  0  0
 25 51  1  0  0  0  0
 25 52  1  0  0  0  0
 25 53  1  0  0  0  0
 26 27  1  0  0  0  0
 26 28  1  0  0  0  0
 27 54  1  0  0  0  0
 27 55  1  0  0  0  0
 27 56  1  0  0  0  0
 28 57  1  0  0  0  0
 28 58  1  0  0  0  0
 28 59  1  0  0  0  0
M  END
> <s_m_source_file>
AV-unprocessed.smi

> <i_m_source_file_index>
234

> <i_lp_mmshare_version>
43012

> <i_f3d_flags>
0

> <s_epik_input>
W0NIM11bQ0gyXU9bQ0BASF0oQzEoW0NIM10pW0NIM10pW0NIMl1bQ0BIXTFOKFtDSDNdKWMobltjSF1uMiljKGMyMyluW2NIXW4zW0NIMl1bQ0BAXTQoW09IXSlbQ0gyXVtDSDJdT1tDQEhdNFtDSDNd

> <s_epik_cmdline>
J2VwaWtfcHl0aG9uJywgJy1waCcsICc3LjAnLCAnLXRuJywgJzgnLCAnLW1hJywgJzIwMCcsICctbWV0YWxfYmluZGluZycsICctaW1hZScsICc8aW5maWxlLm1hZT4nLCAnLW9tYWUnLCAnPG91dGZpbGUubWFlPic=

> <r_lp_tautomer_probability>
1

> <r_epik_Ionization_Penalty>
0.00349132

> <r_epik_Ionization_Penalty_Charging>
0

> <r_epik_Ionization_Penalty_Neutral>
0.00349132

> <r_epik_State_Penalty>
0.00242418

> <r_epik_Charging_Adjusted_Penalty>
0.00242418

> <i_epik_Tot_Q>
0

> <i_epik_Tot_abs_Q>
0

> <r_epik_Metal_State_Penalty>
-0

> <b_epik_Metal_Only>
0

> <s_lp_Force_Field>
OPLS_2005

> <r_lp_Energy>
50.4374

> <b_lp_Chiralities_Consistent>
1

> <s_lp_Variant>
AV-unprocessed.smi:234-7

> <Gold.Version>
5.8.1

> <Gold.Id.Protein>
6NUR|6NUR_protein|mol2

> <Gold.PLP.Fitness>
42.5027

> <Gold.PLP.PLP>
-41.0395

> <Gold.PLP.part.hbond>
-2.8665

> <Gold.PLP.part.metal>
0.0000

> <Gold.PLP.part.buried>
-5.0807

> <Gold.PLP.part.nonpolar>
-33.4162

> <Gold.PLP.part.repulsive>
0.0000

> <Gold.PLP.ligand.clash>
0.0000

> <Gold.PLP.ligand.torsion>
1.2710

> <Gold.PLP.Chemscore.Hbond>
0.9913

> <Gold.PLP.Chemscore.CHOScore>
0.0000

> <Gold.PLP.Chemscore.Metal>
0.0000

> <Gold.Chemscore.Hbonds>
donor molecule, donor type, donor heavy atom, donor atom, acceptor molecule, acceptor atom, score
      P1  H  6896  6907       L1     7  0.93

> <Gold.PLP.Chemscore.Internal.Correction>
1.0313

> <Gold.Rescore>
     Score         DG    S(hbond)    S(metal)    S(lipo)     H(rot)  DE(clash)    DE(int)     intcor
      7.71     -10.29       0.03        0.00      97.73       2.62       0.01       2.56       ----

> <Gold.Chemscore.Fitness>
7.7144

> <Gold.Chemscore.DG>
-10.2863

> <Gold.Chemscore.ZeroCoef>
-5.4800

> <Gold.Chemscore.Hbond>
0.0253

> <Gold.Chemscore.Metal>
0.0000

> <Gold.Chemscore.Lipo>
97.7263

> <Gold.Chemscore.Internal_Hbond>
0.0000

> <Gold.Chemscore.DEClash>
0.0086

> <Gold.Chemscore.DEInternal>
2.5633

> <Gold.Chemscore.Rot>
2.6219

> <Gold.Chemscore.Internal.Correction>
   9.000000E+99

> <Gold.Chemscore.Hbonds>
donor molecule, donor type, donor heavy atom, donor atom, acceptor molecule, acceptor atom, score
      P1  H  6896  6907       L1     7  0.05

> <Gold.Chemscore.Hbond.Weighted>
-0.0845

> <Gold.Chemscore.Metal.Weighted>
-0.0000

> <Gold.Chemscore.Lipo.Weighted>
-11.4340

> <Gold.Chemscore.Internal_Hbond.Weighted>
0.0000

> <Gold.Chemscore.DEClash.Weighted>
0.0086

> <Gold.Chemscore.DEInternal.Weighted>
2.5633

> <Gold.Chemscore.Rot.Weighted>
6.7121

> <Gold.Chemscore.Internal.Correction.Weighted>
   9.000000E+99

> <Gold.Protein.RotatedTorsions>
[ 6907 6896 6895 6894 ] final  -70.10 input  -60.11 | X-H torsion
[ 7974 7965 7964 7962 ] final   27.97 input  175.53 | X-H torsion
[ 8008 7997 7996 7995 ] final  -15.30 input   59.86 | X-H torsion
[ 10167 10162 10161 10158 ] final  -62.17 input  -65.29 | X-H torsion
[ 10718 10713 10712 10709 ] final  146.84 input   66.30 | X-H torsion
[ 10763 10752 10751 10750 ] final  -69.57 input  -60.55 | X-H torsion
[ 11005 11000 10999 10996 ] final    9.36 input  -57.11 | X-H torsion

> <Gold.Protein.ActiveResidues>
 VAL166  LYS551  ARG553  GLY616  TRP617  ASP618  TYR619  PRO620  LYS621  CYS622 
 ASP623  PHE694  ASN695  SER759  ASP760  ASP761  ALA762  ILE779  LEU786  VAL792 
 PHE793  MET794  SER795  GLU796  ALA797  LYS798  CYS799  TRP800  GLU811  SER814 

> <Gold.Protein.RotatedAtoms>
  150.7274  134.5502  159.5790 H   0  0  0  0  0  0  0  0  0  0  0  0  # atno 6907 bound_to 6896
  152.2991  134.7629  160.0370 H   0  0  0  0  0  0  0  0  0  0  0  0  # atno 6908 bound_to 6896
  151.8216  133.3360  159.3622 H   0  0  0  0  0  0  0  0  0  0  0  0  # atno 6909 bound_to 6896
  146.1755  139.7120  142.8937 H   0  0  0  0  0  0  0  0  0  0  0  0  # atno 7974 bound_to 7965
  154.5141  140.2200  155.9099 H   0  0  0  0  0  0  0  0  0  0  0  0  # atno 8008 bound_to 7997
  156.1587  140.3146  155.8736 H   0  0  0  0  0  0  0  0  0  0  0  0  # atno 8009 bound_to 7997
  155.3795  140.0471  157.3034 H   0  0  0  0  0  0  0  0  0  0  0  0  # atno 8010 bound_to 7997
  140.5957  143.2350  151.6042 H   0  0  0  0  0  0  0  0  0  0  0  0  # atno 10167 bound_to 10162
  157.3283  131.0916  151.1184 H   0  0  0  0  0  0  0  0  0  0  0  0  # atno 10718 bound_to 10713
  154.4053  135.6021  153.5921 H   0  0  0  0  0  0  0  0  0  0  0  0  # atno 10763 bound_to 10752
  152.9789  135.5916  154.4135 H   0  0  0  0  0  0  0  0  0  0  0  0  # atno 10764 bound_to 10752
  154.3939  135.2842  155.2116 H   0  0  0  0  0  0  0  0  0  0  0  0  # atno 10765 bound_to 10752
  140.5266  134.0506  155.7861 H   0  0  0  0  0  0  0  0  0  0  0  0  # atno 11005 bound_to 11000
  145.4223  141.0407  143.2957 LP  0  0  0  0  0  0  0  0  0  0  0  0  # atno 17320 bound_to 7965
  144.8229  139.5760  143.6978 LP  0  0  0  0  0  0  0  0  0  0  0  0  # atno 17321 bound_to 7965
  139.5256  144.3069  152.1026 LP  0  0  0  0  0  0  0  0  0  0  0  0  # atno 17342 bound_to 10162
  140.2240  144.4436  150.6329 LP  0  0  0  0  0  0  0  0  0  0  0  0  # atno 17343 bound_to 10162
  157.2442  130.6584  149.5903 LP  0  0  0  0  0  0  0  0  0  0  0  0  # atno 17370 bound_to 10713
  155.9693  130.4559  150.5903 LP  0  0  0  0  0  0  0  0  0  0  0  0  # atno 17371 bound_to 10713
  141.1304  133.9311  157.2547 LP  0  0  0  0  0  0  0  0  0  0  0  0  # atno 17394 bound_to 11000
  139.9576  135.0162  156.9173 LP  0  0  0  0  0  0  0  0  0  0  0  0  # atno 17395 bound_to 11000

$$$$
