AV-unprocessed.smi:172|AV-procd|sdf|1422|dock9
  -GOLD-   2262019193D 1   1.00000     0.00000
 Structure written by MMmdl.
 56 60  0  0  0  0  0  0  0  0  1 V2000
  151.9549  141.9835  160.2497 O   0  0  0  0  0  0  0  0  0  0  0  0
  152.7832  142.5511  159.2535 C   0  0  0  0  0  0  0  0  0  0  0  0
  152.0549  143.6173  158.4103 C   0  0  0  0  0  0  0  0  0  0  0  0
  151.3485  142.9713  157.1987 C   0  0  0  0  0  0  0  0  0  0  0  0
  150.4729  141.8568  157.5240 N   0  0  0  0  0  0  0  0  0  0  0  0
  149.0956  141.8787  157.5565 C   0  0  0  0  0  0  0  0  0  0  0  0
  148.5265  140.7525  157.8894 N   0  0  0  0  0  0  0  0  0  0  0  0
  149.5935  139.8872  158.0891 C   0  0  0  0  0  0  0  0  0  0  0  0
  149.6967  138.5246  158.4720 C   0  0  0  0  0  0  0  0  0  0  0  0
  148.6034  137.7750  158.7524 N   0  0  0  0  0  0  0  0  0  0  0  0
  148.9014  136.7415  159.7534 C   0  0  0  0  0  0  0  0  0  0  0  0
  147.6937  135.9230  160.1931 C   0  0  0  0  0  0  0  0  0  0  0  0
  146.7728  136.4460  161.2701 C   0  0  0  0  0  0  0  0  0  0  0  0
  147.6622  135.2586  161.5489 C   0  0  0  0  0  0  0  0  0  0  0  0
  147.8362  137.3827  157.5538 C   0  0  0  0  0  0  0  0  0  0  0  0
  148.7212  136.6581  156.4998 C   0  0  0  0  0  0  0  0  0  0  0  0
  147.9340  136.2641  155.2410 C   0  0  0  0  0  0  0  0  0  0  0  0
  147.2664  137.4851  154.5990 C   0  0  0  0  0  0  0  0  0  0  0  0
  146.3656  138.1987  155.6133 C   0  0  0  0  0  0  0  0  0  0  0  0
  147.1442  138.5948  156.8782 C   0  0  0  0  0  0  0  0  0  0  0  0
  150.9382  137.9801  158.5703 N   0  0  0  0  0  0  0  0  0  0  0  0
  152.0139  138.7281  158.3066 C   0  0  0  0  0  0  0  0  0  0  0  0
  152.0704  140.0119  157.9439 N   0  0  0  0  0  0  0  0  0  0  0  0
  150.8243  140.5588  157.8516 C   0  0  0  0  0  0  0  0  0  0  0  0
  151.1568  144.5519  159.2347 C   0  0  0  0  0  0  0  0  0  0  0  0
  152.1407  145.6065  159.2179 O   0  0  0  0  0  0  0  0  0  0  0  0
  152.8360  144.9177  158.1579 C   0  0  0  0  0  0  0  0  0  0  0  0
  151.6922  141.1206  159.9677 H   0  0  0  0  0  0  0  0  0  0  0  0
  153.6722  142.9667  159.7288 H   0  0  0  0  0  0  0  0  0  0  0  0
  153.1291  141.7322  158.6219 H   0  0  0  0  0  0  0  0  0  0  0  0
  150.7587  143.7191  156.6672 H   0  0  0  0  0  0  0  0  0  0  0  0
  152.0826  142.6120  156.4761 H   0  0  0  0  0  0  0  0  0  0  0  0
  148.5224  142.7678  157.3376 H   0  0  0  0  0  0  0  0  0  0  0  0
  149.6316  136.0402  159.3545 H   0  0  0  0  0  0  0  0  0  0  0  0
  149.3556  137.2026  160.6316 H   0  0  0  0  0  0  0  0  0  0  0  0
  147.1897  135.3945  159.3857 H   0  0  0  0  0  0  0  0  0  0  0  0
  147.0315  137.3891  161.7475 H   0  0  0  0  0  0  0  0  0  0  0  0
  145.7072  136.2591  161.1535 H   0  0  0  0  0  0  0  0  0  0  0  0
  147.1948  134.2781  161.6113 H   0  0  0  0  0  0  0  0  0  0  0  0
  148.5166  135.4109  162.2054 H   0  0  0  0  0  0  0  0  0  0  0  0
  147.0548  136.6919  157.8748 H   0  0  0  0  0  0  0  0  0  0  0  0
  149.5553  137.3024  156.2182 H   0  0  0  0  0  0  0  0  0  0  0  0
  149.1620  135.7497  156.9111 H   0  0  0  0  0  0  0  0  0  0  0  0
  148.5996  135.7853  154.5223 H   0  0  0  0  0  0  0  0  0  0  0  0
  147.1755  135.5247  155.5006 H   0  0  0  0  0  0  0  0  0  0  0  0
  148.0296  138.1738  154.2342 H   0  0  0  0  0  0  0  0  0  0  0  0
  146.6823  137.1786  153.7308 H   0  0  0  0  0  0  0  0  0  0  0  0
  145.9242  139.0853  155.1571 H   0  0  0  0  0  0  0  0  0  0  0  0
  145.5349  137.5468  155.8866 H   0  0  0  0  0  0  0  0  0  0  0  0
  146.4344  139.0660  157.5566 H   0  0  0  0  0  0  0  0  0  0  0  0
  147.8884  139.3518  156.6270 H   0  0  0  0  0  0  0  0  0  0  0  0
  152.9659  138.2276  158.4035 H   0  0  0  0  0  0  0  0  0  0  0  0
  150.2389  144.8500  158.7250 H   0  0  0  0  0  0  0  0  0  0  0  0
  150.9397  144.1942  160.2418 H   0  0  0  0  0  0  0  0  0  0  0  0
  153.9089  144.8449  158.3385 H   0  0  0  0  0  0  0  0  0  0  0  0
  152.6365  145.3767  157.1890 H   0  0  0  0  0  0  0  0  0  0  0  0
  1  2  1  0  0  0  0
  1 28  1  0  0  0  0
  2  3  1  0  0  0  0
  2 29  1  0  0  0  0
  2 30  1  0  0  0  0
  3 27  1  0  0  0  0
  3  4  1  0  0  0  0
  3 25  1  0  0  0  0
  4  5  1  0  0  0  0
  4 31  1  0  0  0  0
  4 32  1  0  0  0  0
  5 24  1  0  0  0  0
  5  6  1  0  0  0  0
  6  7  2  0  0  0  0
  6 33  1  0  0  0  0
  7  8  1  0  0  0  0
  8 24  2  0  0  0  0
  8  9  1  0  0  0  0
  9 10  1  0  0  0  0
  9 21  2  0  0  0  0
 10 11  1  0  0  0  0
 10 15  1  0  0  0  0
 11 12  1  0  0  0  0
 11 34  1  0  0  0  0
 11 35  1  0  0  0  0
 12 14  1  0  0  0  0
 12 13  1  0  0  0  0
 12 36  1  0  0  0  0
 13 14  1  0  0  0  0
 13 37  1  0  0  0  0
 13 38  1  0  0  0  0
 14 39  1  0  0  0  0
 14 40  1  0  0  0  0
 15 20  1  0  0  0  0
 15 16  1  0  0  0  0
 15 41  1  0  0  0  0
 16 17  1  0  0  0  0
 16 42  1  0  0  0  0
 16 43  1  0  0  0  0
 17 18  1  0  0  0  0
 17 44  1  0  0  0  0
 17 45  1  0  0  0  0
 18 19  1  0  0  0  0
 18 46  1  0  0  0  0
 18 47  1  0  0  0  0
 19 20  1  0  0  0  0
 19 48  1  0  0  0  0
 19 49  1  0  0  0  0
 20 50  1  0  0  0  0
 20 51  1  0  0  0  0
 21 22  1  0  0  0  0
 22 23  2  0  0  0  0
 22 52  1  0  0  0  0
 23 24  1  0  0  0  0
 25 26  1  0  0  0  0
 25 53  1  0  0  0  0
 25 54  1  0  0  0  0
 26 27  1  0  0  0  0
 27 55  1  0  0  0  0
 27 56  1  0  0  0  0
M  END
> <s_m_source_file>
AV-unprocessed.smi

> <i_m_source_file_index>
172

> <i_lp_mmshare_version>
43012

> <i_f3d_flags>
0

> <s_epik_input>
W0NIMl0xT1tDSDJdQzEoW0NIMl1bT0hdKVtDSDJdbihbY0hdbjIpYyhjMjMpbltjSF1uYzNOKFtDSDJdW0NIXTRbQ0gyXVtDSDJdNClbQ0hdNVtDSDJdW0NIMl1bQ0gyXVtDSDJdW0NIMl01

> <s_epik_cmdline>
J2VwaWtfcHl0aG9uJywgJy1waCcsICc3LjAnLCAnLXRuJywgJzgnLCAnLW1hJywgJzIwMCcsICctbWV0YWxfYmluZGluZycsICctaW1hZScsICc8aW5maWxlLm1hZT4nLCAnLW9tYWUnLCAnPG91dGZpbGUubWFlPic=

> <r_lp_tautomer_probability>
1

> <r_epik_Ionization_Penalty>
0.0023612

> <r_epik_Ionization_Penalty_Charging>
0

> <r_epik_Ionization_Penalty_Neutral>
0.0023612

> <r_epik_State_Penalty>
0.00145434

> <r_epik_Charging_Adjusted_Penalty>
0.00145434

> <i_epik_Tot_Q>
0

> <i_epik_Tot_abs_Q>
0

> <r_epik_Metal_State_Penalty>
-0

> <b_epik_Metal_Only>
0

> <s_lp_Force_Field>
OPLS_2005

> <r_lp_Energy>
48.1575

> <b_lp_Chiralities_Consistent>
1

> <s_lp_Variant>
AV-unprocessed.smi:172-1

> <Gold.Version>
5.8.1

> <Gold.Id.Protein>
6NUR|6NUR_protein|mol2

> <Gold.PLP.Fitness>
39.2758

> <Gold.PLP.PLP>
-39.1522

> <Gold.PLP.part.hbond>
-1.8617

> <Gold.PLP.part.metal>
0.0000

> <Gold.PLP.part.buried>
-6.9290

> <Gold.PLP.part.nonpolar>
-29.7194

> <Gold.PLP.part.repulsive>
0.1191

> <Gold.PLP.ligand.clash>
0.0000

> <Gold.PLP.ligand.torsion>
1.9407

> <Gold.PLP.Chemscore.Hbond>
0.0000

> <Gold.PLP.Chemscore.CHOScore>
0.8724

> <Gold.PLP.Chemscore.Metal>
0.0000

> <Gold.Chemscore.Hbonds>
donor molecule, donor type, donor heavy atom, donor atom, acceptor molecule, acceptor atom, score
      L1  C     6    33       P1  8028  0.86

> <Gold.PLP.Chemscore.Internal.Correction>
1.3880

> <Gold.Rescore>
     Score         DG    S(hbond)    S(metal)    S(lipo)     H(rot)  DE(clash)    DE(int)     intcor
      3.19      -8.76       0.00        0.00      90.93       2.87       0.08       5.49       ----

> <Gold.Chemscore.Fitness>
3.1929

> <Gold.Chemscore.DG>
-8.7600

> <Gold.Chemscore.ZeroCoef>
-5.4800

> <Gold.Chemscore.Hbond>
0.0000

> <Gold.Chemscore.Metal>
0.0000

> <Gold.Chemscore.Lipo>
90.9265

> <Gold.Chemscore.Internal_Hbond>
0.0000

> <Gold.Chemscore.DEClash>
0.0803

> <Gold.Chemscore.DEInternal>
5.4868

> <Gold.Chemscore.Rot>
2.8744

> <Gold.Chemscore.Internal.Correction>
   9.000000E+99

> <Gold.Chemscore.Hbond.Weighted>
-0.0000

> <Gold.Chemscore.Metal.Weighted>
-0.0000

> <Gold.Chemscore.Lipo.Weighted>
-10.6384

> <Gold.Chemscore.Internal_Hbond.Weighted>
0.0000

> <Gold.Chemscore.DEClash.Weighted>
0.0803

> <Gold.Chemscore.DEInternal.Weighted>
5.4868

> <Gold.Chemscore.Rot.Weighted>
7.3584

> <Gold.Chemscore.Internal.Correction.Weighted>
   9.000000E+99

> <Gold.Protein.RotatedTorsions>
[ 6907 6896 6895 6894 ] final  -94.47 input  -60.11 | X-H torsion
[ 7974 7965 7964 7962 ] final  159.89 input  175.53 | X-H torsion
[ 8008 7997 7996 7995 ] final -134.56 input   59.86 | X-H torsion
[ 10167 10162 10161 10158 ] final   65.11 input  -65.29 | X-H torsion
[ 10718 10713 10712 10709 ] final   99.68 input   66.30 | X-H torsion
[ 10763 10752 10751 10750 ] final   -0.06 input  -60.55 | X-H torsion
[ 11005 11000 10999 10996 ] final -100.51 input  -57.11 | X-H torsion

> <Gold.Protein.ActiveResidues>
 VAL166  LYS551  ARG553  GLY616  TRP617  ASP618  TYR619  PRO620  LYS621  CYS622 
 ASP623  PHE694  ASN695  SER759  ASP760  ASP761  ALA762  ILE779  LEU786  VAL792 
 PHE793  MET794  SER795  GLU796  ALA797  LYS798  CYS799  TRP800  GLU811  SER814 

> <Gold.Protein.RotatedAtoms>
  150.6942  134.1807  159.4247 H   0  0  0  0  0  0  0  0  0  0  0  0  # atno 6907 bound_to 6896
  151.9782  135.0040  160.0565 H   0  0  0  0  0  0  0  0  0  0  0  0  # atno 6908 bound_to 6896
  152.1779  133.4653  159.4980 H   0  0  0  0  0  0  0  0  0  0  0  0  # atno 6909 bound_to 6896
  144.7766  139.7681  143.6276 H   0  0  0  0  0  0  0  0  0  0  0  0  # atno 7974 bound_to 7965
  155.3641  140.0484  157.3046 H   0  0  0  0  0  0  0  0  0  0  0  0  # atno 8008 bound_to 7997
  154.5163  140.2209  155.9023 H   0  0  0  0  0  0  0  0  0  0  0  0  # atno 8009 bound_to 7997
  156.1640  140.3110  155.8862 H   0  0  0  0  0  0  0  0  0  0  0  0  # atno 8010 bound_to 7997
  140.1149  144.4785  150.6955 H   0  0  0  0  0  0  0  0  0  0  0  0  # atno 10167 bound_to 10162
  157.6871  131.0677  150.4986 H   0  0  0  0  0  0  0  0  0  0  0  0  # atno 10718 bound_to 10713
  153.3270  135.6973  153.6981 H   0  0  0  0  0  0  0  0  0  0  0  0  # atno 10763 bound_to 10752
  153.5798  135.3500  155.2871 H   0  0  0  0  0  0  0  0  0  0  0  0  # atno 10764 bound_to 10752
  154.8610  135.4292  154.2449 H   0  0  0  0  0  0  0  0  0  0  0  0  # atno 10765 bound_to 10752
  141.1268  133.8405  157.1112 H   0  0  0  0  0  0  0  0  0  0  0  0  # atno 11005 bound_to 11000
  146.1948  139.5209  142.9781 LP  0  0  0  0  0  0  0  0  0  0  0  0  # atno 17320 bound_to 7965
  145.6170  141.0329  143.1936 LP  0  0  0  0  0  0  0  0  0  0  0  0  # atno 17321 bound_to 7965
  140.6905  143.2373  151.5144 LP  0  0  0  0  0  0  0  0  0  0  0  0  # atno 17342 bound_to 10162
  139.5600  144.2181  152.1675 LP  0  0  0  0  0  0  0  0  0  0  0  0  # atno 17343 bound_to 10162
  156.5309  130.4184  149.6202 LP  0  0  0  0  0  0  0  0  0  0  0  0  # atno 17370 bound_to 10713
  156.3070  130.7208  151.2093 LP  0  0  0  0  0  0  0  0  0  0  0  0  # atno 17371 bound_to 10713
  140.0274  134.9917  157.0713 LP  0  0  0  0  0  0  0  0  0  0  0  0  # atno 17394 bound_to 11000
  140.4341  134.1750  155.7169 LP  0  0  0  0  0  0  0  0  0  0  0  0  # atno 17395 bound_to 11000

$$$$
