AV-unprocessed.smi:835|AV-procd|sdf|3887|dock8
  -GOLD-   22720 1343D 1   1.00000     0.00000
 Structure written by MMmdl.
 41 43  0  0  0  0  0  0  0  0  2 V2000
  152.8425  138.3222  154.5970 C   0  0  0  0  0  0  0  0  0  0  0  0
  151.9996  139.4925  155.0096 C   0  0  0  0  0  0  0  0  0  0  0  0
  150.7878  139.9535  154.4174 C   0  0  0  0  0  0  0  0  0  0  0  0
  150.4650  141.0325  155.1941 C   0  0  0  0  0  0  0  0  0  0  0  0
  149.4007  141.8722  155.0908 N   0  0  0  0  0  0  0  0  0  0  0  0
  148.1241  141.5758  154.7909 C   0  0  0  0  0  0  0  0  0  0  0  0
  147.6875  140.4499  154.5519 O   0  0  0  0  0  0  0  0  0  0  0  0
  147.3577  142.6756  154.7906 N   0  0  0  0  0  0  0  0  0  0  0  0
  145.9229  142.6855  154.5252 C   0  0  1  0  0  0  0  0  0  0  0  0
  145.0499  142.5925  155.7785 C   0  0  0  0  0  0  0  0  0  0  0  0
  143.7522  143.3233  155.3955 C   0  0  0  0  0  0  0  0  0  0  0  0
  144.0104  144.0157  154.1105 N   0  3  1  0  0  0  0  0  0  0  0  0
  143.3995  145.3578  154.0099 C   0  0  0  0  0  0  0  0  0  0  0  0
  143.3161  146.0847  155.3305 C   0  0  0  0  0  0  0  0  0  0  0  0
  142.0728  145.4731  154.7216 C   0  0  0  0  0  0  0  0  0  0  0  0
  145.4700  144.0038  153.9057 C   0  0  0  0  0  0  0  0  0  0  0  0
  151.4297  141.1871  156.1646 N   0  0  0  0  0  0  0  0  0  0  0  0
  151.5278  142.1805  157.2161 C   0  0  0  0  0  0  0  0  0  0  0  0
  152.3753  140.2299  156.0488 N   0  0  0  0  0  0  0  0  0  0  0  0
  152.4930  137.8978  153.6556 H   0  0  0  0  0  0  0  0  0  0  0  0
  152.8110  137.5333  155.3485 H   0  0  0  0  0  0  0  0  0  0  0  0
  153.8843  138.6143  154.4623 H   0  0  0  0  0  0  0  0  0  0  0  0
  150.2629  139.5466  153.5662 H   0  0  0  0  0  0  0  0  0  0  0  0
  149.6004  142.8426  155.2835 H   0  0  0  0  0  0  0  0  0  0  0  0
  147.7947  143.5624  154.9958 H   0  0  0  0  0  0  0  0  0  0  0  0
  145.6671  141.8716  153.8435 H   0  0  0  0  0  0  0  0  0  0  0  0
  144.8749  141.5614  156.0880 H   0  0  0  0  0  0  0  0  0  0  0  0
  145.5264  143.1117  156.6116 H   0  0  0  0  0  0  0  0  0  0  0  0
  142.9260  142.6242  155.2624 H   0  0  0  0  0  0  0  0  0  0  0  0
  143.4681  144.0255  156.1809 H   0  0  0  0  0  0  0  0  0  0  0  0
  143.5826  145.9076  153.0881 H   0  0  0  0  0  0  0  0  0  0  0  0
  143.7342  145.6021  156.2123 H   0  0  0  0  0  0  0  0  0  0  0  0
  143.3974  147.1698  155.3122 H   0  0  0  0  0  0  0  0  0  0  0  0
  141.3360  146.1553  154.3026 H   0  0  0  0  0  0  0  0  0  0  0  0
  141.6645  144.5845  155.1996 H   0  0  0  0  0  0  0  0  0  0  0  0
  145.9227  144.8484  154.4291 H   0  0  0  0  0  0  0  0  0  0  0  0
  145.7261  144.0806  152.8485 H   0  0  0  0  0  0  0  0  0  0  0  0
  150.7266  142.0264  157.9391 H   0  0  0  0  0  0  0  0  0  0  0  0
  151.4358  143.1789  156.7882 H   0  0  0  0  0  0  0  0  0  0  0  0
  152.4874  142.1041  157.7291 H   0  0  0  0  0  0  0  0  0  0  0  0
  143.6118  143.4367  153.3850 H   0  0  0  0  0  0  0  0  0  0  0  0
  1  2  1  0  0  0  0
  1 20  1  0  0  0  0
  1 21  1  0  0  0  0
  1 22  1  0  0  0  0
  2 19  2  0  0  0  0
  2  3  1  0  0  0  0
  3  4  2  0  0  0  0
  3 23  1  0  0  0  0
  4  5  1  0  0  0  0
  4 17  1  0  0  0  0
  5  6  1  0  0  0  0
  5 24  1  0  0  0  0
  6  7  2  0  0  0  0
  6  8  1  0  0  0  0
  8  9  1  0  0  0  0
  8 25  1  0  0  0  0
  9 16  1  0  0  0  0
  9 10  1  0  0  0  0
  9 26  1  0  0  0  0
 10 11  1  0  0  0  0
 10 27  1  0  0  0  0
 10 28  1  0  0  0  0
 11 12  1  0  0  0  0
 11 29  1  0  0  0  0
 11 30  1  0  0  0  0
 12 13  1  0  0  0  0
 12 16  1  0  0  0  0
 12 41  1  0  0  0  0
 13 15  1  0  0  0  0
 13 14  1  0  0  0  0
 13 31  1  0  0  0  0
 14 15  1  0  0  0  0
 14 32  1  0  0  0  0
 14 33  1  0  0  0  0
 15 34  1  0  0  0  0
 15 35  1  0  0  0  0
 16 36  1  0  0  0  0
 16 37  1  0  0  0  0
 17 18  1  0  0  0  0
 17 19  1  0  0  0  0
 18 38  1  0  0  0  0
 18 39  1  0  0  0  0
 18 40  1  0  0  0  0
M  CHG  1  12   1
M  END
> <s_m_source_file>
AV-unprocessed.smi

> <i_m_source_file_index>
835

> <i_lp_mmshare_version>
43012

> <i_f3d_flags>
0

> <s_epik_input>
W0NIM11jMVtjSF1jKG4objEpW0NIM10pW05IXUMoPU8pW05IXVtDQEBIXTJbQ0gyXVtDSDJdTihbQ0gyXTIpW0NIXTNbQ0gyXVtDSDJdMw==

> <s_epik_cmdline>
J2VwaWtfcHl0aG9uJywgJy1waCcsICc3LjAnLCAnLXRuJywgJzgnLCAnLW1hJywgJzIwMCcsICctbWV0YWxfYmluZGluZycsICctaW1hZScsICc8aW5maWxlLm1hZT4nLCAnLW9tYWUnLCAnPG91dGZpbGUubWFlPic=

> <r_lp_tautomer_probability>
1

> <r_epik_Ionization_Penalty>
0.000700689

> <r_epik_Ionization_Penalty_Charging>
0.000627528

> <r_epik_Ionization_Penalty_Neutral>
7.31611e-05

> <r_epik_State_Penalty>
0.00039643

> <r_epik_Charging_Adjusted_Penalty>
0.00102396

> <i_epik_Tot_Q>
1

> <i_epik_Tot_abs_Q>
1

> <r_epik_Metal_State_Penalty>
-0

> <b_epik_Metal_Only>
0

> <s_lp_Force_Field>
OPLS_2005

> <r_lp_Energy>
38.0069

> <b_lp_Chiralities_Consistent>
1

> <s_lp_Variant>
AV-unprocessed.smi:835-2

> <Gold.Version>
5.8.1

> <Gold.Id.Protein>
6NUR|6NUR_protein|mol2

> <Gold.PLP.Fitness>
48.0152

> <Gold.PLP.PLP>
-34.9543

> <Gold.PLP.part.hbond>
-4.0000

> <Gold.PLP.part.metal>
0.0000

> <Gold.PLP.part.buried>
-2.0141

> <Gold.PLP.part.nonpolar>
-28.8911

> <Gold.PLP.part.repulsive>
0.4238

> <Gold.PLP.ligand.clash>
0.0000

> <Gold.PLP.ligand.torsion>
1.2979

> <Gold.PLP.Chemscore.Hbond>
4.7979

> <Gold.PLP.Chemscore.CHOScore>
0.0000

> <Gold.PLP.Chemscore.Metal>
0.0000

> <Gold.Chemscore.Hbonds>
donor molecule, donor type, donor heavy atom, donor atom, acceptor molecule, acceptor atom, score
      L1  H     5    24       P1  8028  0.94
      L1  H     8    25       P1  8028  1.00
      L1  H    12    41       P1 10174  2.00
      P1  H  7997  8009       L1    19  0.98

> <Gold.PLP.Chemscore.Internal.Correction>
1.2630

> <Gold.Rescore>
     Score         DG    S(hbond)    S(metal)    S(lipo)     H(rot)  DE(clash)    DE(int)     intcor
     17.17     -19.19       2.54        0.00      71.18       1.22       0.75       1.26       ----

> <Gold.Chemscore.Fitness>
17.1745

> <Gold.Chemscore.DG>
-19.1858

> <Gold.Chemscore.ZeroCoef>
-5.4800

> <Gold.Chemscore.Hbond>
2.5450

> <Gold.Chemscore.Metal>
0.0000

> <Gold.Chemscore.Lipo>
71.1784

> <Gold.Chemscore.Internal_Hbond>
0.0000

> <Gold.Chemscore.DEClash>
0.7468

> <Gold.Chemscore.DEInternal>
1.2645

> <Gold.Chemscore.Rot>
1.2196

> <Gold.Chemscore.Internal.Correction>
   9.000000E+99

> <Gold.Chemscore.Hbonds>
donor molecule, donor type, donor heavy atom, donor atom, acceptor molecule, acceptor atom, score
      L1  H     5    24       P1  8028  0.85
      L1  H     8    25       P1  8028  0.35
      L1  H    12    41       P1 10174  0.70
      P1  H  7997  8009       L1    19  0.78

> <Gold.Chemscore.Hbond.Weighted>
-8.5002

> <Gold.Chemscore.Metal.Weighted>
-0.0000

> <Gold.Chemscore.Lipo.Weighted>
-8.3279

> <Gold.Chemscore.Internal_Hbond.Weighted>
0.0000

> <Gold.Chemscore.DEClash.Weighted>
0.7468

> <Gold.Chemscore.DEInternal.Weighted>
1.2645

> <Gold.Chemscore.Rot.Weighted>
3.1223

> <Gold.Chemscore.Internal.Correction.Weighted>
   9.000000E+99

> <Gold.Protein.RotatedTorsions>
[ 6907 6896 6895 6894 ] final    8.85 input  -60.11 | X-H torsion
[ 7974 7965 7964 7962 ] final  -47.76 input  175.53 | X-H torsion
[ 8008 7997 7996 7995 ] final -171.38 input   59.86 | X-H torsion
[ 10167 10162 10161 10158 ] final  -39.39 input  -65.29 | X-H torsion
[ 10718 10713 10712 10709 ] final -160.15 input   66.30 | X-H torsion
[ 10763 10752 10751 10750 ] final -146.52 input  -60.55 | X-H torsion
[ 11005 11000 10999 10996 ] final  -87.71 input  -57.11 | X-H torsion

> <Gold.Protein.ActiveResidues>
 VAL166  LYS551  ARG553  GLY616  TRP617  ASP618  TYR619  PRO620  LYS621  CYS622 
 ASP623  PHE694  ASN695  SER759  ASP760  ASP761  ALA762  ILE779  LEU786  VAL792 
 PHE793  MET794  SER795  GLU796  ALA797  LYS798  CYS799  TRP800  GLU811  SER814 

> <Gold.Protein.RotatedAtoms>
  151.7127  135.0909  160.0270 H   0  0  0  0  0  0  0  0  0  0  0  0  # atno 6907 bound_to 6896
  152.3652  133.6343  159.6053 H   0  0  0  0  0  0  0  0  0  0  0  0  # atno 6908 bound_to 6896
  150.7632  133.9276  159.3458 H   0  0  0  0  0  0  0  0  0  0  0  0  # atno 6909 bound_to 6896
  145.9582  140.7505  142.9470 H   0  0  0  0  0  0  0  0  0  0  0  0  # atno 7974 bound_to 7965
  155.9308  140.1091  157.1134 H   0  0  0  0  0  0  0  0  0  0  0  0  # atno 8008 bound_to 7997
  154.4070  140.1238  156.4865 H   0  0  0  0  0  0  0  0  0  0  0  0  # atno 8009 bound_to 7997
  155.7083  140.3471  155.4965 H   0  0  0  0  0  0  0  0  0  0  0  0  # atno 8010 bound_to 7997
  140.7065  143.3217  151.2776 H   0  0  0  0  0  0  0  0  0  0  0  0  # atno 10167 bound_to 10162
  156.5780  130.8717  151.2856 H   0  0  0  0  0  0  0  0  0  0  0  0  # atno 10718 bound_to 10713
  154.8332  135.3384  154.6675 H   0  0  0  0  0  0  0  0  0  0  0  0  # atno 10763 bound_to 10752
  153.7292  135.6953  153.4998 H   0  0  0  0  0  0  0  0  0  0  0  0  # atno 10764 bound_to 10752
  153.2324  135.4412  155.0562 H   0  0  0  0  0  0  0  0  0  0  0  0  # atno 10765 bound_to 10752
  141.1613  133.7527  156.9346 H   0  0  0  0  0  0  0  0  0  0  0  0  # atno 11005 bound_to 11000
  144.6809  140.2548  143.7327 LP  0  0  0  0  0  0  0  0  0  0  0  0  # atno 17320 bound_to 7965
  145.8076  139.1990  143.2011 LP  0  0  0  0  0  0  0  0  0  0  0  0  # atno 17321 bound_to 7965
  139.6673  144.0082  152.2731 LP  0  0  0  0  0  0  0  0  0  0  0  0  # atno 17342 bound_to 10162
  139.9669  144.6520  150.8026 LP  0  0  0  0  0  0  0  0  0  0  0  0  # atno 17343 bound_to 10162
  157.7333  130.9728  150.1971 LP  0  0  0  0  0  0  0  0  0  0  0  0  # atno 17370 bound_to 10713
  156.2656  130.3716  149.8085 LP  0  0  0  0  0  0  0  0  0  0  0  0  # atno 17371 bound_to 10713
  140.1363  134.9323  157.2406 LP  0  0  0  0  0  0  0  0  0  0  0  0  # atno 17394 bound_to 11000
  140.2891  134.3261  155.7320 LP  0  0  0  0  0  0  0  0  0  0  0  0  # atno 17395 bound_to 11000

$$$$
