AV-unprocessed.smi:2032|AV-procd|sdf|8252|dock6
  -GOLD-   2272010523D 1   1.00000     0.00000
 Structure written by MMmdl.
 42 43  0  0  0  0  0  0  0  0  3 V2000
  144.6662  132.0789  149.8821 C   0  0  0  0  0  0  0  0  0  0  0  0
  145.0870  132.9099  151.0992 C   0  0  1  0  0  0  0  0  0  0  0  0
  146.5200  133.4648  150.9517 C   0  0  0  0  0  0  0  0  0  0  0  0
  146.8893  134.3236  152.1108 N   0  3  2  0  0  0  0  0  0  0  0  0
  147.1758  133.5956  153.3951 C   0  0  2  0  0  0  0  0  0  0  0  0
  147.5512  134.5728  154.5360 C   0  0  0  0  0  0  0  0  0  0  0  0
  148.2944  132.5292  153.2244 C   0  0  0  0  0  0  0  0  0  0  0  0
  147.8170  131.2986  152.6002 N   0  0  0  0  0  0  0  0  0  0  0  0
  148.0033  130.0594  153.0771 C   0  0  0  0  0  0  0  0  0  0  0  0
  148.6059  129.8952  154.1408 O   0  0  0  0  0  0  0  0  0  0  0  0
  147.4889  129.0899  152.2886 N   0  5  0  0  0  0  0  0  0  0  0  0
  148.1854  127.9624  152.0714 C   0  0  0  0  0  0  0  0  0  0  0  0
  148.8343  127.3070  153.0404 N   0  0  0  0  0  0  0  0  0  0  0  0
  149.4877  126.1577  152.5917 C   0  0  0  0  0  0  0  0  0  0  0  0
  149.3254  125.9284  151.2511 C   0  0  0  0  0  0  0  0  0  0  0  0
  148.3403  127.1559  150.5081 S   0  0  0  0  0  0  0  0  0  0  0  0
  145.8795  135.4138  152.2048 C   0  0  0  0  0  0  0  0  0  0  0  0
  144.4513  134.8418  152.3390 C   0  0  1  0  0  0  0  0  0  0  0  0
  143.3906  135.9478  152.3679 C   0  0  0  0  0  0  0  0  0  0  0  0
  144.1809  134.0033  151.2191 O   0  0  0  0  0  0  0  0  0  0  0  0
  145.3245  131.2202  149.7471 H   0  0  0  0  0  0  0  0  0  0  0  0
  144.6976  132.6722  148.9678 H   0  0  0  0  0  0  0  0  0  0  0  0
  143.6500  131.7017  149.9998 H   0  0  0  0  0  0  0  0  0  0  0  0
  145.0111  132.2771  151.9843 H   0  0  0  0  0  0  0  0  0  0  0  0
  147.2364  132.6676  150.7710 H   0  0  0  0  0  0  0  0  0  0  0  0
  146.5671  134.0806  150.0521 H   0  0  0  0  0  0  0  0  0  0  0  0
  146.2682  133.0792  153.7047 H   0  0  0  0  0  0  0  0  0  0  0  0
  147.8523  134.0492  155.4428 H   0  0  0  0  0  0  0  0  0  0  0  0
  146.7123  135.1989  154.8371 H   0  0  0  0  0  0  0  0  0  0  0  0
  148.3773  135.2224  154.2457 H   0  0  0  0  0  0  0  0  0  0  0  0
  149.1188  132.8849  152.6094 H   0  0  0  0  0  0  0  0  0  0  0  0
  148.7190  132.2749  154.1958 H   0  0  0  0  0  0  0  0  0  0  0  0
  147.3138  131.3895  151.7296 H   0  0  0  0  0  0  0  0  0  0  0  0
  150.0452  125.5598  153.2972 H   0  0  0  0  0  0  0  0  0  0  0  0
  149.7204  125.1170  150.6590 H   0  0  0  0  0  0  0  0  0  0  0  0
  146.1013  136.1210  153.0011 H   0  0  0  0  0  0  0  0  0  0  0  0
  145.9387  136.0049  151.2895 H   0  0  0  0  0  0  0  0  0  0  0  0
  144.3593  134.2589  153.2562 H   0  0  0  0  0  0  0  0  0  0  0  0
  143.5399  136.6121  153.2195 H   0  0  0  0  0  0  0  0  0  0  0  0
  142.3888  135.5251  152.4491 H   0  0  0  0  0  0  0  0  0  0  0  0
  143.4242  136.5527  151.4613 H   0  0  0  0  0  0  0  0  0  0  0  0
  147.7609  134.7697  151.8637 H   0  0  0  0  0  0  0  0  0  0  0  0
  1  2  1  0  0  0  0
  1 21  1  0  0  0  0
  1 22  1  0  0  0  0
  1 23  1  0  0  0  0
  2 20  1  0  0  0  0
  2  3  1  0  0  0  0
  2 24  1  0  0  0  0
  3  4  1  0  0  0  0
  3 25  1  0  0  0  0
  3 26  1  0  0  0  0
  4  5  1  0  0  0  0
  4 17  1  0  0  0  0
  4 42  1  0  0  0  0
  5  6  1  0  0  0  0
  5  7  1  0  0  0  0
  5 27  1  0  0  0  0
  6 28  1  0  0  0  0
  6 29  1  0  0  0  0
  6 30  1  0  0  0  0
  7  8  1  0  0  0  0
  7 31  1  0  0  0  0
  7 32  1  0  0  0  0
  8  9  1  0  0  0  0
  8 33  1  0  0  0  0
  9 10  2  0  0  0  0
  9 11  1  0  0  0  0
 11 12  1  0  0  0  0
 12 16  1  0  0  0  0
 12 13  2  0  0  0  0
 13 14  1  0  0  0  0
 14 15  2  0  0  0  0
 14 34  1  0  0  0  0
 15 16  1  0  0  0  0
 15 35  1  0  0  0  0
 17 18  1  0  0  0  0
 17 36  1  0  0  0  0
 17 37  1  0  0  0  0
 18 19  1  0  0  0  0
 18 20  1  0  0  0  0
 18 38  1  0  0  0  0
 19 39  1  0  0  0  0
 19 40  1  0  0  0  0
 19 41  1  0  0  0  0
M  CHG  1   4   1
M  CHG  1  11  -1
M  END
> <s_m_source_file>
AV-unprocessed.smi

> <i_m_source_file_index>
2032

> <i_lp_mmshare_version>
43012

> <i_f3d_flags>
0

> <s_epik_input>
W0NIM11bQ0BASF0xW0NIMl1OKFtDSDJdW0NASF0oTzEpW0NIM10pW0NASF0oW0NIM10pW0NIMl1bTkhdQyg9TylbTkhdYzJuW2NIXVtjSF1zMg==

> <s_epik_cmdline>
J2VwaWtfcHl0aG9uJywgJy1waCcsICc3LjAnLCAnLXRuJywgJzgnLCAnLW1hJywgJzIwMCcsICctbWV0YWxfYmluZGluZycsICctaW1hZScsICc8aW5maWxlLm1hZT4nLCAnLW9tYWUnLCAnPG91dGZpbGUubWFlPic=

> <r_lp_tautomer_probability>
0.999

> <r_epik_Ionization_Penalty>
6.71699

> <r_epik_Ionization_Penalty_Charging>
5.88592

> <r_epik_Ionization_Penalty_Neutral>
0.831074

> <r_epik_State_Penalty>
6.08365

> <r_epik_Charging_Adjusted_Penalty>
11.9696

> <i_epik_Tot_Q>
0

> <i_epik_Tot_abs_Q>
2

> <r_epik_Metal_State_Penalty>
2.0947

> <b_epik_Metal_Only>
1

> <s_lp_Force_Field>
OPLS_2005

> <r_lp_Energy>
10.9101

> <b_lp_Chiralities_Consistent>
1

> <s_lp_Variant>
AV-unprocessed.smi:2032-22

> <Gold.Version>
5.8.1

> <Gold.Id.Protein>
6NUR|6NUR_protein|mol2

> <Gold.PLP.Fitness>
37.1540

> <Gold.PLP.PLP>
-32.9723

> <Gold.PLP.part.hbond>
-2.0000

> <Gold.PLP.part.metal>
0.0000

> <Gold.PLP.part.buried>
-4.3713

> <Gold.PLP.part.nonpolar>
-26.2384

> <Gold.PLP.part.repulsive>
0.8549

> <Gold.PLP.ligand.clash>
0.0000

> <Gold.PLP.ligand.torsion>
0.9445

> <Gold.PLP.Chemscore.Hbond>
2.0000

> <Gold.PLP.Chemscore.CHOScore>
0.0000

> <Gold.PLP.Chemscore.Metal>
0.0000

> <Gold.Chemscore.Hbonds>
donor molecule, donor type, donor heavy atom, donor atom, acceptor molecule, acceptor atom, score
      L1  H     4    42       P1  7948  2.00

> <Gold.PLP.Chemscore.Internal.Correction>
0.0708

> <Gold.Rescore>
     Score         DG    S(hbond)    S(metal)    S(lipo)     H(rot)  DE(clash)    DE(int)     intcor
      9.76     -12.02       0.97        0.00      62.79       1.58       0.00       2.26       ----

> <Gold.Chemscore.Fitness>
9.7560

> <Gold.Chemscore.DG>
-12.0161

> <Gold.Chemscore.ZeroCoef>
-5.4800

> <Gold.Chemscore.Hbond>
0.9679

> <Gold.Chemscore.Metal>
0.0000

> <Gold.Chemscore.Lipo>
62.7863

> <Gold.Chemscore.Internal_Hbond>
0.0000

> <Gold.Chemscore.DEClash>
0.0000

> <Gold.Chemscore.DEInternal>
2.2601

> <Gold.Chemscore.Rot>
1.5791

> <Gold.Chemscore.Internal.Correction>
   9.000000E+99

> <Gold.Chemscore.Hbonds>
donor molecule, donor type, donor heavy atom, donor atom, acceptor molecule, acceptor atom, score
      L1  H     4    42       P1  7948  0.44
      L1  H     8    33       P1 10747  0.02

> <Gold.Chemscore.Hbond.Weighted>
-3.2326

> <Gold.Chemscore.Metal.Weighted>
-0.0000

> <Gold.Chemscore.Lipo.Weighted>
-7.3460

> <Gold.Chemscore.Internal_Hbond.Weighted>
0.0000

> <Gold.Chemscore.DEClash.Weighted>
0.0000

> <Gold.Chemscore.DEInternal.Weighted>
2.2601

> <Gold.Chemscore.Rot.Weighted>
4.0425

> <Gold.Chemscore.Internal.Correction.Weighted>
   9.000000E+99

> <Gold.Protein.RotatedTorsions>
[ 6907 6896 6895 6894 ] final  163.51 input  -60.11 | X-H torsion
[ 7974 7965 7964 7962 ] final  -95.54 input  175.53 | X-H torsion
[ 8008 7997 7996 7995 ] final   51.76 input   59.86 | X-H torsion
[ 10167 10162 10161 10158 ] final  100.78 input  -65.29 | X-H torsion
[ 10718 10713 10712 10709 ] final  140.67 input   66.30 | X-H torsion
[ 10763 10752 10751 10750 ] final -166.82 input  -60.55 | X-H torsion
[ 11005 11000 10999 10996 ] final   80.69 input  -57.11 | X-H torsion

> <Gold.Protein.ActiveResidues>
 VAL166  LYS551  ARG553  GLY616  TRP617  ASP618  TYR619  PRO620  LYS621  CYS622 
 ASP623  PHE694  ASN695  SER759  ASP760  ASP761  ALA762  ILE779  LEU786  VAL792 
 PHE793  MET794  SER795  GLU796  ALA797  LYS798  CYS799  TRP800  GLU811  SER814 

> <Gold.Protein.RotatedAtoms>
  151.9241  133.3593  159.3907 H   0  0  0  0  0  0  0  0  0  0  0  0  # atno 6907 bound_to 6896
  150.7031  134.4605  159.5387 H   0  0  0  0  0  0  0  0  0  0  0  0  # atno 6908 bound_to 6896
  152.2233  134.8392  160.0534 H   0  0  0  0  0  0  0  0  0  0  0  0  # atno 6909 bound_to 6896
  145.3587  140.9488  143.2513 H   0  0  0  0  0  0  0  0  0  0  0  0  # atno 7974 bound_to 7965
  155.4406  140.3454  155.4289 H   0  0  0  0  0  0  0  0  0  0  0  0  # atno 8008 bound_to 7997
  156.1281  140.1506  156.9136 H   0  0  0  0  0  0  0  0  0  0  0  0  # atno 8009 bound_to 7997
  154.4873  140.0851  156.7496 H   0  0  0  0  0  0  0  0  0  0  0  0  # atno 8010 bound_to 7997
  139.7497  144.6988  151.0451 H   0  0  0  0  0  0  0  0  0  0  0  0  # atno 10167 bound_to 10162
  157.4006  131.1016  151.0555 H   0  0  0  0  0  0  0  0  0  0  0  0  # atno 10718 bound_to 10713
  154.6794  135.2952  154.9634 H   0  0  0  0  0  0  0  0  0  0  0  0  # atno 10763 bound_to 10752
  154.0634  135.6628  153.4818 H   0  0  0  0  0  0  0  0  0  0  0  0  # atno 10764 bound_to 10752
  153.0537  135.5157  154.7830 H   0  0  0  0  0  0  0  0  0  0  0  0  # atno 10765 bound_to 10752
  139.9125  134.7940  156.1943 H   0  0  0  0  0  0  0  0  0  0  0  0  # atno 11005 bound_to 11000
  144.8663  139.5103  143.6789 LP  0  0  0  0  0  0  0  0  0  0  0  0  # atno 17320 bound_to 7965
  146.2937  139.7213  142.9142 LP  0  0  0  0  0  0  0  0  0  0  0  0  # atno 17321 bound_to 7965
  140.7796  143.4824  151.0000 LP  0  0  0  0  0  0  0  0  0  0  0  0  # atno 17342 bound_to 10162
  139.8512  143.7436  152.3178 LP  0  0  0  0  0  0  0  0  0  0  0  0  # atno 17343 bound_to 10162
  157.1556  130.6203  149.5595 LP  0  0  0  0  0  0  0  0  0  0  0  0  # atno 17370 bound_to 10713
  155.9822  130.4834  150.6870 LP  0  0  0  0  0  0  0  0  0  0  0  0  # atno 17371 bound_to 10713
  141.0564  133.6863  156.1869 LP  0  0  0  0  0  0  0  0  0  0  0  0  # atno 17394 bound_to 11000
  140.6729  134.4848  157.5587 LP  0  0  0  0  0  0  0  0  0  0  0  0  # atno 17395 bound_to 11000

$$$$
