AV-unprocessed.smi:3002|AV-procd|sdf|11434|dock8
  -GOLD-   2272016363D 1   1.00000     0.00000
 Structure written by MMmdl.
 34 35  0  0  0  0  0  0  0  0  1 V2000
  146.1047  128.9010  151.4808 C   0  0  0  0  0  0  0  0  0  0  0  0
  145.9495  130.1913  152.3110 C   0  0  1  0  0  0  0  0  0  0  0  0
  147.0008  130.3023  153.4262 C   0  0  0  0  0  0  0  0  0  0  0  0
  146.6635  130.2893  154.6105 O   0  0  0  0  0  0  0  0  0  0  0  0
  148.2791  130.4130  153.0312 N   0  0  0  0  0  0  0  0  0  0  0  0
  149.4262  130.5268  153.9257 C   0  0  0  0  0  0  0  0  0  0  0  0
  149.3473  131.7726  154.8313 C   0  0  2  0  0  0  0  0  0  0  0  0
  149.7857  133.0749  154.1283 C   0  0  0  0  0  0  0  0  0  0  0  0
  149.9485  134.1700  155.1866 C   0  0  0  0  0  0  0  0  0  0  0  0
  150.5768  133.3188  156.6806 S   0  0  0  0  0  0  0  0  0  0  0  0
  152.0375  133.4733  156.7535 O   0  0  0  0  0  0  0  0  0  0  0  0
  149.7205  133.6626  157.8257 O   0  0  0  0  0  0  0  0  0  0  0  0
  150.1893  131.6200  156.1086 C   0  0  0  0  0  0  0  0  0  0  0  0
  145.9672  131.3893  151.4803 N   0  0  0  0  0  0  0  0  0  0  0  0
  146.6648  132.5189  151.6199 C   0  0  0  0  0  0  0  0  0  0  0  0
  146.4716  133.3965  150.6455 N   0  0  0  0  0  0  0  0  0  0  0  0
  145.5896  132.6917  149.8761 C   0  0  0  0  0  0  0  0  0  0  0  0
  145.2626  131.4801  150.3245 N   0  0  0  0  0  0  0  0  0  0  0  0
  146.0367  128.0162  152.1146 H   0  0  0  0  0  0  0  0  0  0  0  0
  147.0615  128.8596  150.9587 H   0  0  0  0  0  0  0  0  0  0  0  0
  145.3172  128.8259  150.7305 H   0  0  0  0  0  0  0  0  0  0  0  0
  144.9685  130.1484  152.7875 H   0  0  0  0  0  0  0  0  0  0  0  0
  148.4717  130.4145  152.0403 H   0  0  0  0  0  0  0  0  0  0  0  0
  149.5102  129.6233  154.5323 H   0  0  0  0  0  0  0  0  0  0  0  0
  150.3266  130.5682  153.3122 H   0  0  0  0  0  0  0  0  0  0  0  0
  148.3121  131.9106  155.1473 H   0  0  0  0  0  0  0  0  0  0  0  0
  150.7463  132.9121  153.6381 H   0  0  0  0  0  0  0  0  0  0  0  0
  149.0799  133.3780  153.3543 H   0  0  0  0  0  0  0  0  0  0  0  0
  150.6335  134.9625  154.8847 H   0  0  0  0  0  0  0  0  0  0  0  0
  148.9843  134.6156  155.4327 H   0  0  0  0  0  0  0  0  0  0  0  0
  149.6700  131.0692  156.8932 H   0  0  0  0  0  0  0  0  0  0  0  0
  151.1343  131.1173  155.9017 H   0  0  0  0  0  0  0  0  0  0  0  0
  147.3308  132.7021  152.4504 H   0  0  0  0  0  0  0  0  0  0  0  0
  145.1815  133.0809  148.9548 H   0  0  0  0  0  0  0  0  0  0  0  0
  1  2  1  0  0  0  0
  1 19  1  0  0  0  0
  1 20  1  0  0  0  0
  1 21  1  0  0  0  0
  2  3  1  0  0  0  0
  2 14  1  0  0  0  0
  2 22  1  0  0  0  0
  3  4  2  0  0  0  0
  3  5  1  0  0  0  0
  5  6  1  0  0  0  0
  5 23  1  0  0  0  0
  6  7  1  0  0  0  0
  6 24  1  0  0  0  0
  6 25  1  0  0  0  0
  7 13  1  0  0  0  0
  7  8  1  0  0  0  0
  7 26  1  0  0  0  0
  8  9  1  0  0  0  0
  8 27  1  0  0  0  0
  8 28  1  0  0  0  0
  9 10  1  0  0  0  0
  9 29  1  0  0  0  0
  9 30  1  0  0  0  0
 10 11  2  0  0  0  0
 10 12  2  0  0  0  0
 10 13  1  0  0  0  0
 13 31  1  0  0  0  0
 13 32  1  0  0  0  0
 14 18  1  0  0  0  0
 14 15  1  0  0  0  0
 15 16  2  0  0  0  0
 15 33  1  0  0  0  0
 16 17  1  0  0  0  0
 17 18  2  0  0  0  0
 17 34  1  0  0  0  0
M  END
> <s_m_source_file>
AV-unprocessed.smi

> <i_m_source_file_index>
3002

> <i_lp_mmshare_version>
43012

> <i_f3d_flags>
0

> <s_epik_input>
bjFbY0hdbltjSF1uMVtDQEhdKFtDSDNdKUMoPU8pW05IXVtDSDJdW0NAQEhdKFtDSDJdMilbQ0gyXVtDSDJdUzIoPU8pPU8=

> <s_epik_cmdline>
J2VwaWtfcHl0aG9uJywgJy1waCcsICc3LjAnLCAnLXRuJywgJzgnLCAnLW1hJywgJzIwMCcsICctbWV0YWxfYmluZGluZycsICctaW1hZScsICc8aW5maWxlLm1hZT4nLCAnLW9tYWUnLCAnPG91dGZpbGUubWFlPic=

> <r_lp_tautomer_probability>
1

> <r_epik_Ionization_Penalty>
1.1748e-05

> <r_epik_Ionization_Penalty_Charging>
0

> <r_epik_Ionization_Penalty_Neutral>
1.1748e-05

> <r_epik_State_Penalty>
-0

> <r_epik_Charging_Adjusted_Penalty>
0

> <i_epik_Tot_Q>
0

> <i_epik_Tot_abs_Q>
0

> <r_epik_Metal_State_Penalty>
-0

> <b_epik_Metal_Only>
0

> <s_lp_Force_Field>
OPLS_2005

> <r_lp_Energy>
11.4636

> <b_lp_Chiralities_Consistent>
1

> <s_lp_Variant>
AV-unprocessed.smi:3002-2

> <Gold.Version>
5.8.1

> <Gold.Id.Protein>
6NUR|6NUR_protein|mol2

> <Gold.PLP.Fitness>
37.2672

> <Gold.PLP.PLP>
-29.6276

> <Gold.PLP.part.hbond>
-2.7198

> <Gold.PLP.part.metal>
0.0000

> <Gold.PLP.part.buried>
-4.7609

> <Gold.PLP.part.nonpolar>
-22.4681

> <Gold.PLP.part.repulsive>
0.4370

> <Gold.PLP.ligand.clash>
0.0000

> <Gold.PLP.ligand.torsion>
0.4422

> <Gold.PLP.Chemscore.Hbond>
2.0000

> <Gold.PLP.Chemscore.CHOScore>
0.8070

> <Gold.PLP.Chemscore.Metal>
0.0000

> <Gold.Chemscore.Hbonds>
donor molecule, donor type, donor heavy atom, donor atom, acceptor molecule, acceptor atom, score
      L1  H     5    23       P1 10747  1.00
      P1  H  6896  6909       L1    12  1.00
      L1  C    17    34       P1  7921  0.92

> <Gold.PLP.Chemscore.Internal.Correction>
0.1029

> <Gold.Rescore>
     Score         DG    S(hbond)    S(metal)    S(lipo)     H(rot)  DE(clash)    DE(int)     intcor
     11.14     -11.96       2.14        0.00      46.75       2.39       0.22       0.60       ----

> <Gold.Chemscore.Fitness>
11.1429

> <Gold.Chemscore.DG>
-11.9603

> <Gold.Chemscore.ZeroCoef>
-5.4800

> <Gold.Chemscore.Hbond>
2.1377

> <Gold.Chemscore.Metal>
0.0000

> <Gold.Chemscore.Lipo>
46.7549

> <Gold.Chemscore.Internal_Hbond>
0.0000

> <Gold.Chemscore.DEClash>
0.2184

> <Gold.Chemscore.DEInternal>
0.5990

> <Gold.Chemscore.Rot>
2.3946

> <Gold.Chemscore.Internal.Correction>
   9.000000E+99

> <Gold.Chemscore.Hbonds>
donor molecule, donor type, donor heavy atom, donor atom, acceptor molecule, acceptor atom, score
      L1  H     5    23       P1 10747  0.82
      P1  H  6896  6909       L1    12  0.60

> <Gold.Chemscore.Hbond.Weighted>
-7.1401

> <Gold.Chemscore.Metal.Weighted>
-0.0000

> <Gold.Chemscore.Lipo.Weighted>
-5.4703

> <Gold.Chemscore.Internal_Hbond.Weighted>
0.0000

> <Gold.Chemscore.DEClash.Weighted>
0.2184

> <Gold.Chemscore.DEInternal.Weighted>
0.5990

> <Gold.Chemscore.Rot.Weighted>
6.1301

> <Gold.Chemscore.Internal.Correction.Weighted>
   9.000000E+99

> <Gold.Protein.RotatedTorsions>
[ 6907 6896 6895 6894 ] final    1.05 input  -60.11 | X-H torsion
[ 7974 7965 7964 7962 ] final  162.33 input  175.53 | X-H torsion
[ 8008 7997 7996 7995 ] final  -73.25 input   59.86 | X-H torsion
[ 10167 10162 10161 10158 ] final   85.30 input  -65.29 | X-H torsion
[ 10718 10713 10712 10709 ] final  175.01 input   66.30 | X-H torsion
[ 10763 10752 10751 10750 ] final  -60.32 input  -60.55 | X-H torsion
[ 11005 11000 10999 10996 ] final   98.15 input  -57.11 | X-H torsion

> <Gold.Protein.ActiveResidues>
 VAL166  LYS551  ARG553  GLY616  TRP617  ASP618  TYR619  PRO620  LYS621  CYS622 
 ASP623  PHE694  ASN695  SER759  ASP760  ASP761  ALA762  ILE779  LEU786  VAL792 
 PHE793  MET794  SER795  GLU796  ALA797  LYS798  CYS799  TRP800  GLU811  SER814 

> <Gold.Protein.RotatedAtoms>
  151.5863  135.1056  160.0028 H   0  0  0  0  0  0  0  0  0  0  0  0  # atno 6907 bound_to 6896
  152.4329  133.7305  159.6595 H   0  0  0  0  0  0  0  0  0  0  0  0  # atno 6908 bound_to 6896
  150.8223  133.8161  159.3156 H   0  0  0  0  0  0  0  0  0  0  0  0  # atno 6909 bound_to 6896
  144.7642  139.8025  143.6321 H   0  0  0  0  0  0  0  0  0  0  0  0  # atno 7974 bound_to 7965
  154.5232  140.0782  156.8211 H   0  0  0  0  0  0  0  0  0  0  0  0  # atno 8008 bound_to 7997
  155.3531  140.3414  155.4221 H   0  0  0  0  0  0  0  0  0  0  0  0  # atno 8009 bound_to 7997
  156.1704  140.1618  156.8445 H   0  0  0  0  0  0  0  0  0  0  0  0  # atno 8010 bound_to 7997
  139.8992  144.6339  150.8655 H   0  0  0  0  0  0  0  0  0  0  0  0  # atno 10167 bound_to 10162
  156.9412  131.0001  151.2968 H   0  0  0  0  0  0  0  0  0  0  0  0  # atno 10718 bound_to 10713
  154.2673  135.6297  153.5297 H   0  0  0  0  0  0  0  0  0  0  0  0  # atno 10763 bound_to 10752
  152.9886  135.5602  154.5638 H   0  0  0  0  0  0  0  0  0  0  0  0  # atno 10764 bound_to 10752
  154.5201  135.2882  155.1245 H   0  0  0  0  0  0  0  0  0  0  0  0  # atno 10765 bound_to 10752
  139.8773  134.9035  156.4413 H   0  0  0  0  0  0  0  0  0  0  0  0  # atno 11005 bound_to 11000
  146.1734  139.4893  142.9913 LP  0  0  0  0  0  0  0  0  0  0  0  0  # atno 17320 bound_to 7965
  145.6523  141.0260  143.1753 LP  0  0  0  0  0  0  0  0  0  0  0  0  # atno 17321 bound_to 7965
  140.7710  143.3450  151.2130 LP  0  0  0  0  0  0  0  0  0  0  0  0  # atno 17342 bound_to 10162
  139.7040  143.9485  152.2918 LP  0  0  0  0  0  0  0  0  0  0  0  0  # atno 17343 bound_to 10162
  157.5784  130.8359  149.8488 LP  0  0  0  0  0  0  0  0  0  0  0  0  # atno 17370 bound_to 10713
  156.0404  130.3740  150.1451 LP  0  0  0  0  0  0  0  0  0  0  0  0  # atno 17371 bound_to 10713
  140.8997  133.7788  155.9666 LP  0  0  0  0  0  0  0  0  0  0  0  0  # atno 17394 bound_to 11000
  140.8664  134.2779  157.5211 LP  0  0  0  0  0  0  0  0  0  0  0  0  # atno 17395 bound_to 11000

$$$$
