#       Name:                AV-unprocessed.smi:1095
#       Creating user name   scv26
#       Creation time:       Fri Mar 27 03:28:24 2020


#       File generated by GOLD software.
#

@<TRIPOS>MOLECULE
AV-unprocessed.smi:1095
    53    54     1
SMALL
NO_CHARGES


@<TRIPOS>ATOM
      1 ****        -3.8026   1.1124   3.3415 C.3            1 S1                 0.0000
      2 ****        -3.4966  -0.3649   3.0576 C.3            1 S1                 0.0000
      3 ****        -2.9981  -0.6403   1.6243 C.3            1 S1                 0.0000
      4 ****        -2.9658  -2.1542   1.3373 C.3            1 S1                 0.0000
      5 ****        -2.4837  -2.4549  -0.0906 C.3            1 S1                 0.0000
      6 ****        -1.0936  -1.8504  -0.3628 C.3            1 S1                 0.0000
      7 ****        -0.6221  -2.1816  -1.7944 C.3            1 S1                 0.0000
      8 ****         0.7418  -1.7206  -2.0284 N.am           1 S1                 0.0000
      9 ****         1.0926  -0.6568  -2.7676 C.2            1 S1                 0.0000
     10 ****         0.2990   0.0038  -3.4372 O.2            1 S1                 0.0000
     11 ****         2.5629  -0.2482  -2.7025 C.3            1 S1                 0.0000
     12 ****         2.7717   0.6326  -1.4955 C.2            1 S1                 0.0000
     13 ****         3.0483   0.2271  -0.1554 C.2            1 S1                 0.0000
     14 ****         3.1993  -1.1646   0.3890 C.3            1 S1                 0.0000
     15 ****         3.1573   1.2541   0.6703 N.2            1 S1                 0.0000
     16 ****         2.9575   2.3403  -0.1022 N.pl3          1 S1                 0.0000
     17 ****         3.0064   3.6586   0.4996 C.3            1 S1                 0.0000
     18 ****         2.7156   1.9986  -1.4185 C.2            1 S1                 0.0000
     19 ****         2.4478   3.0240  -2.4727 C.3            1 S1                 0.0000
     20 ****        -1.1151  -0.3339  -0.0706 C.3            1 S1                 0.0000
     21 ****        -1.6070  -0.0305   1.3536 C.3            1 S1                 0.0000
     22 ****        -4.2232   1.2324   4.3401 H              1 S1                 0.0000
     23 ****        -4.5253   1.5099   2.6284 H              1 S1                 0.0000
     24 ****        -2.9048   1.7281   3.2916 H              1 S1                 0.0000
     25 ****        -2.7689  -0.7330   3.7817 H              1 S1                 0.0000
     26 ****        -4.4092  -0.9361   3.2317 H              1 S1                 0.0000
     27 ****        -3.7088  -0.1889   0.9302 H              1 S1                 0.0000
     28 ****        -2.3113  -2.6520   2.0541 H              1 S1                 0.0000
     29 ****        -3.9588  -2.5822   1.4794 H              1 S1                 0.0000
     30 ****        -2.4566  -3.5343  -0.2432 H              1 S1                 0.0000
     31 ****        -3.2049  -2.0609  -0.8079 H              1 S1                 0.0000
     32 ****        -0.3901  -2.3128   0.3316 H              1 S1                 0.0000
     33 ****        -0.6337  -3.2613  -1.9456 H              1 S1                 0.0000
     34 ****        -1.3147  -1.7650  -2.5276 H              1 S1                 0.0000
     35 ****         1.4719  -2.1980  -1.5197 H              1 S1                 0.0000
     36 ****         3.1876  -1.1412  -2.6629 H              1 S1                 0.0000
     37 ****         2.8323   0.2651  -3.6263 H              1 S1                 0.0000
     38 ****         3.6036  -1.8419  -0.3625 H              1 S1                 0.0000
     39 ****         2.2362  -1.5617   0.7099 H              1 S1                 0.0000
     40 ****         3.8726  -1.1883   1.2467 H              1 S1                 0.0000
     41 ****         2.0060   4.0917   0.5107 H              1 S1                 0.0000
     42 ****         3.6683   4.3032  -0.0792 H              1 S1                 0.0000
     43 ****         3.3791   3.6015   1.5233 H              1 S1                 0.0000
     44 ****         2.0399   2.5666  -3.3739 H              1 S1                 0.0000
     45 ****         3.3651   3.5461  -2.7450 H              1 S1                 0.0000
     46 ****         1.7266   3.7635  -2.1242 H              1 S1                 0.0000
     47 ****        -0.1199   0.0939  -0.1917 H              1 S1                 0.0000
     48 ****        -1.7565   0.1714  -0.7937 H              1 S1                 0.0000
     49 ****        -1.6304   1.0500   1.4925 H              1 S1                 0.0000
     50 ****        -0.8867  -0.4179   2.0756 H              1 S1                 0.0000
     51 ****        -0.6701  -0.2426  -3.4508 LP             1 S1                 0.0000
     52 ****         0.6232   0.7871  -3.9677 LP             1 S1                 0.0000
     53 ****         3.3464   1.2302   1.6520 LP             1 S1                 0.0000
@<TRIPOS>BOND
    1    1    2 1     
    2    1   22 1     
    3    1   23 1     
    4    1   24 1     
    5    2    3 1     
    6    2   25 1     
    7    2   26 1     
    8    3   21 1     
    9    3    4 1     
   10    3   27 1     
   11    4    5 1     
   12    4   28 1     
   13    4   29 1     
   14    5    6 1     
   15    5   30 1     
   16    5   31 1     
   17    6    7 1     
   18    6   20 1     
   19    6   32 1     
   20    7    8 1     
   21    7   33 1     
   22    7   34 1     
   23    8    9 am    
   24    8   35 1     
   25    9   10 2     
   26    9   11 1     
   27   11   12 1     
   28   11   36 1     
   29   11   37 1     
   30   12   18 2     
   31   12   13 1     
   32   13   14 1     
   33   13   15 2     
   34   14   38 1     
   35   14   39 1     
   36   14   40 1     
   37   15   16 1     
   38   16   17 1     
   39   16   18 1     
   40   17   41 1     
   41   17   42 1     
   42   17   43 1     
   43   18   19 1     
   44   19   44 1     
   45   19   45 1     
   46   19   46 1     
   47   20   21 1     
   48   20   47 1     
   49   20   48 1     
   50   21   49 1     
   51   21   50 1     
   52   10   51 1     
   53   10   52 1     
   54   15   53 1     
@<TRIPOS>SUBSTRUCTURE
      1 S1             1
@<TRIPOS>SET
LONE_PAIRS      STATIC     ATOMS    <user>   **** ""
3 51 52 53
DONOR_HYDROGENS      STATIC     ATOMS    <user>   **** ""
1 35
ATOM$BLUE        STATIC     ATOMS    COLORGROUP SYSTEM
3 51 52 53
ATOM$RED        STATIC     ATOMS    COLORGROUP SYSTEM
1 35
