AV-unprocessed.smi:2143|AV-procd|sdf|8726|dock8
  -GOLD-   2272011493D 1   1.00000     0.00000
 Structure written by MMmdl.
 44 45  0  0  0  0  0  0  0  0  1 V2000
  152.7760  144.7080  157.9987 C   0  0  0  0  0  0  0  0  0  0  0  0
  151.5548  144.0882  158.7090 C   0  0  2  0  0  0  0  0  0  0  0  0
  151.3463  144.6941  160.1119 C   0  0  0  0  0  0  0  0  0  0  0  0
  152.4020  144.2070  161.1168 C   0  0  0  0  0  0  0  0  0  0  0  0
  152.4281  142.6742  161.1922 C   0  0  0  0  0  0  0  0  0  0  0  0
  152.6367  142.0314  159.8072 C   0  0  1  0  0  0  0  0  0  0  0  0
  152.5603  140.5780  159.9511 N   0  0  0  0  0  0  0  0  0  0  0  0
  153.5586  139.7086  159.7306 C   0  0  0  0  0  0  0  0  0  0  0  0
  154.6806  140.0441  159.3484 O   0  0  0  0  0  0  0  0  0  0  0  0
  153.2179  138.2297  159.9593 C   0  0  0  0  0  0  0  0  0  0  0  0
  153.8868  137.6576  161.1351 N   0  0  0  0  0  0  0  0  0  0  0  0
  154.1428  138.4571  162.2339 C   0  0  0  0  0  0  0  0  0  0  0  0
  154.7345  138.0062  163.3616 C   0  0  0  0  0  0  0  0  0  0  0  0
  155.1498  136.6142  163.4839 C   0  0  0  0  0  0  0  0  0  0  0  0
  155.6707  136.1551  164.5013 O   0  0  0  0  0  0  0  0  0  0  0  0
  154.8929  135.8223  162.3392 N   0  0  0  0  0  0  0  0  0  0  0  0
  155.2560  134.4208  162.3829 C   0  0  0  0  0  0  0  0  0  0  0  0
  154.2566  136.2955  161.1694 C   0  0  0  0  0  0  0  0  0  0  0  0
  154.0189  135.5577  160.2098 O   0  0  0  0  0  0  0  0  0  0  0  0
  151.5834  142.5379  158.7867 C   0  0  2  0  0  0  0  0  0  0  0  0
  151.7262  141.8838  157.3980 C   0  0  0  0  0  0  0  0  0  0  0  0
  153.7151  144.4386  158.4809 H   0  0  0  0  0  0  0  0  0  0  0  0
  152.7114  145.7962  157.9950 H   0  0  0  0  0  0  0  0  0  0  0  0
  152.8368  144.3925  156.9576 H   0  0  0  0  0  0  0  0  0  0  0  0
  150.6839  144.3675  158.1143 H   0  0  0  0  0  0  0  0  0  0  0  0
  151.3558  145.7833  160.0592 H   0  0  0  0  0  0  0  0  0  0  0  0
  150.3556  144.4199  160.4772 H   0  0  0  0  0  0  0  0  0  0  0  0
  153.3877  144.5788  160.8357 H   0  0  0  0  0  0  0  0  0  0  0  0
  152.1908  144.6206  162.1033 H   0  0  0  0  0  0  0  0  0  0  0  0
  153.2178  142.3555  161.8736 H   0  0  0  0  0  0  0  0  0  0  0  0
  151.4899  142.3228  161.6241 H   0  0  0  0  0  0  0  0  0  0  0  0
  153.6269  142.3179  159.4504 H   0  0  0  0  0  0  0  0  0  0  0  0
  151.6728  140.2031  160.2531 H   0  0  0  0  0  0  0  0  0  0  0  0
  152.1366  138.1098  160.0510 H   0  0  0  0  0  0  0  0  0  0  0  0
  153.5006  137.6745  159.0638 H   0  0  0  0  0  0  0  0  0  0  0  0
  153.8489  139.4960  162.1948 H   0  0  0  0  0  0  0  0  0  0  0  0
  154.8989  138.6837  164.1866 H   0  0  0  0  0  0  0  0  0  0  0  0
  155.5796  134.1038  161.3904 H   0  0  0  0  0  0  0  0  0  0  0  0
  154.3694  133.8746  162.7083 H   0  0  0  0  0  0  0  0  0  0  0  0
  156.0893  134.2724  163.0706 H   0  0  0  0  0  0  0  0  0  0  0  0
  150.6052  142.2340  159.1636 H   0  0  0  0  0  0  0  0  0  0  0  0
  152.7274  142.0234  156.9896 H   0  0  0  0  0  0  0  0  0  0  0  0
  151.0125  142.3056  156.6900 H   0  0  0  0  0  0  0  0  0  0  0  0
  151.5391  140.8107  157.4409 H   0  0  0  0  0  0  0  0  0  0  0  0
  1  2  1  0  0  0  0
  1 22  1  0  0  0  0
  1 23  1  0  0  0  0
  1 24  1  0  0  0  0
  2 20  1  0  0  0  0
  2  3  1  0  0  0  0
  2 25  1  0  0  0  0
  3  4  1  0  0  0  0
  3 26  1  0  0  0  0
  3 27  1  0  0  0  0
  4  5  1  0  0  0  0
  4 28  1  0  0  0  0
  4 29  1  0  0  0  0
  5  6  1  0  0  0  0
  5 30  1  0  0  0  0
  5 31  1  0  0  0  0
  6  7  1  0  0  0  0
  6 20  1  0  0  0  0
  6 32  1  0  0  0  0
  7  8  1  0  0  0  0
  7 33  1  0  0  0  0
  8  9  2  0  0  0  0
  8 10  1  0  0  0  0
 10 11  1  0  0  0  0
 10 34  1  0  0  0  0
 10 35  1  0  0  0  0
 11 18  1  0  0  0  0
 11 12  1  0  0  0  0
 12 13  2  0  0  0  0
 12 36  1  0  0  0  0
 13 14  1  0  0  0  0
 13 37  1  0  0  0  0
 14 15  2  0  0  0  0
 14 16  1  0  0  0  0
 16 17  1  0  0  0  0
 16 18  1  0  0  0  0
 17 38  1  0  0  0  0
 17 39  1  0  0  0  0
 17 40  1  0  0  0  0
 18 19  2  0  0  0  0
 20 21  1  0  0  0  0
 20 41  1  0  0  0  0
 21 42  1  0  0  0  0
 21 43  1  0  0  0  0
 21 44  1  0  0  0  0
M  END
> <s_m_source_file>
AV-unprocessed.smi

> <i_m_source_file_index>
2143

> <i_lp_mmshare_version>
43012

> <i_f3d_flags>
0

> <s_epik_input>
W0NIM11bQ0BASF0xW0NIMl1bQ0gyXVtDSDJdW0NASF0oW0NASF0xW0NIM10pW05IXUMoPU8pW0NIMl1uMltjSF1bY0hdYyg9TyluKFtDSDNdKWMyPU8=

> <s_epik_cmdline>
J2VwaWtfcHl0aG9uJywgJy1waCcsICc3LjAnLCAnLXRuJywgJzgnLCAnLW1hJywgJzIwMCcsICctbWV0YWxfYmluZGluZycsICctaW1hZScsICc8aW5maWxlLm1hZT4nLCAnLW9tYWUnLCAnPG91dGZpbGUubWFlPic=

> <r_lp_tautomer_probability>
1

> <r_epik_Ionization_Penalty>
3.18445e-08

> <r_epik_Ionization_Penalty_Charging>
1.27977e-08

> <r_epik_Ionization_Penalty_Neutral>
1.90469e-08

> <r_epik_State_Penalty>
-0

> <r_epik_Charging_Adjusted_Penalty>
1.27977e-08

> <i_epik_Tot_Q>
0

> <i_epik_Tot_abs_Q>
0

> <r_epik_Metal_State_Penalty>
-0

> <b_epik_Metal_Only>
0

> <s_lp_Force_Field>
OPLS_2005

> <r_lp_Energy>
21.4841

> <b_lp_Chiralities_Consistent>
1

> <s_lp_Variant>
AV-unprocessed.smi:2143-5

> <Gold.Version>
5.8.1

> <Gold.Id.Protein>
6NUR|6NUR_protein|mol2

> <Gold.PLP.Fitness>
46.5013

> <Gold.PLP.PLP>
-41.4779

> <Gold.PLP.part.hbond>
-2.0000

> <Gold.PLP.part.metal>
0.0000

> <Gold.PLP.part.buried>
-5.2282

> <Gold.PLP.part.nonpolar>
-32.7281

> <Gold.PLP.part.repulsive>
0.2081

> <Gold.PLP.ligand.clash>
0.0000

> <Gold.PLP.ligand.torsion>
0.4798

> <Gold.PLP.Chemscore.Hbond>
1.9920

> <Gold.PLP.Chemscore.CHOScore>
0.0000

> <Gold.PLP.Chemscore.Metal>
0.0000

> <Gold.Chemscore.Hbonds>
donor molecule, donor type, donor heavy atom, donor atom, acceptor molecule, acceptor atom, score
      P1  H  6896  6908       L1    19  0.99
      P1  H  7997  8010       L1     9  0.94

> <Gold.PLP.Chemscore.Internal.Correction>
0.0069

> <Gold.Rescore>
     Score         DG    S(hbond)    S(metal)    S(lipo)     H(rot)  DE(clash)    DE(int)     intcor
     20.08     -20.90       1.93        0.00     109.66       1.51       0.44       0.38       ----

> <Gold.Chemscore.Fitness>
20.0755

> <Gold.Chemscore.DG>
-20.8973

> <Gold.Chemscore.ZeroCoef>
-5.4800

> <Gold.Chemscore.Hbond>
1.9342

> <Gold.Chemscore.Metal>
0.0000

> <Gold.Chemscore.Lipo>
109.6626

> <Gold.Chemscore.Internal_Hbond>
0.0000

> <Gold.Chemscore.DEClash>
0.4377

> <Gold.Chemscore.DEInternal>
0.3840

> <Gold.Chemscore.Rot>
1.5131

> <Gold.Chemscore.Internal.Correction>
   9.000000E+99

> <Gold.Chemscore.Hbonds>
donor molecule, donor type, donor heavy atom, donor atom, acceptor molecule, acceptor atom, score
      P1  H  6896  6908       L1    19  0.89
      P1  H  7997  8010       L1     9  0.84

> <Gold.Chemscore.Hbond.Weighted>
-6.4602

> <Gold.Chemscore.Metal.Weighted>
-0.0000

> <Gold.Chemscore.Lipo.Weighted>
-12.8305

> <Gold.Chemscore.Internal_Hbond.Weighted>
0.0000

> <Gold.Chemscore.DEClash.Weighted>
0.4377

> <Gold.Chemscore.DEInternal.Weighted>
0.3840

> <Gold.Chemscore.Rot.Weighted>
3.8734

> <Gold.Chemscore.Internal.Correction.Weighted>
   9.000000E+99

> <Gold.Protein.RotatedTorsions>
[ 6907 6896 6895 6894 ] final  -80.16 input  -60.11 | X-H torsion
[ 7974 7965 7964 7962 ] final  -63.26 input  175.53 | X-H torsion
[ 8008 7997 7996 7995 ] final   -1.52 input   59.86 | X-H torsion
[ 10167 10162 10161 10158 ] final  -37.52 input  -65.29 | X-H torsion
[ 10718 10713 10712 10709 ] final   63.19 input   66.30 | X-H torsion
[ 10763 10752 10751 10750 ] final   83.88 input  -60.55 | X-H torsion
[ 11005 11000 10999 10996 ] final  -86.26 input  -57.11 | X-H torsion

> <Gold.Protein.ActiveResidues>
 VAL166  LYS551  ARG553  GLY616  TRP617  ASP618  TYR619  PRO620  LYS621  CYS622 
 ASP623  PHE694  ASN695  SER759  ASP760  ASP761  ALA762  ILE779  LEU786  VAL792 
 PHE793  MET794  SER795  GLU796  ALA797  LYS798  CYS799  TRP800  GLU811  SER814 

> <Gold.Protein.RotatedAtoms>
  150.6935  134.4012  159.5119 H   0  0  0  0  0  0  0  0  0  0  0  0  # atno 6907 bound_to 6896
  152.1785  134.8771  160.0537 H   0  0  0  0  0  0  0  0  0  0  0  0  # atno 6908 bound_to 6896
  151.9771  133.3710  159.4130 H   0  0  0  0  0  0  0  0  0  0  0  0  # atno 6909 bound_to 6896
  145.7812  140.8761  143.0329 H   0  0  0  0  0  0  0  0  0  0  0  0  # atno 7974 bound_to 7965
  154.6458  140.2557  155.7269 H   0  0  0  0  0  0  0  0  0  0  0  0  # atno 8008 bound_to 7997
  156.2551  140.2878  156.0792 H   0  0  0  0  0  0  0  0  0  0  0  0  # atno 8009 bound_to 7997
  155.1526  140.0382  157.2815 H   0  0  0  0  0  0  0  0  0  0  0  0  # atno 8010 bound_to 7997
  140.7116  143.3336  151.2512 H   0  0  0  0  0  0  0  0  0  0  0  0  # atno 10167 bound_to 10162
  157.5954  130.9091  149.9683 H   0  0  0  0  0  0  0  0  0  0  0  0  # atno 10718 bound_to 10713
  153.1331  135.4675  154.9379 H   0  0  0  0  0  0  0  0  0  0  0  0  # atno 10763 bound_to 10752
  154.7681  135.3151  154.8246 H   0  0  0  0  0  0  0  0  0  0  0  0  # atno 10764 bound_to 10752
  153.8785  135.6896  153.4823 H   0  0  0  0  0  0  0  0  0  0  0  0  # atno 10765 bound_to 10752
  141.1632  133.7444  156.9135 H   0  0  0  0  0  0  0  0  0  0  0  0  # atno 11005 bound_to 11000
  144.6796  139.9992  143.7484 LP  0  0  0  0  0  0  0  0  0  0  0  0  # atno 17320 bound_to 7965
  146.0072  139.3139  143.0892 LP  0  0  0  0  0  0  0  0  0  0  0  0  # atno 17321 bound_to 7965
  139.6825  143.9830  152.2816 LP  0  0  0  0  0  0  0  0  0  0  0  0  # atno 17342 bound_to 10162
  139.9464  144.6648  150.8215 LP  0  0  0  0  0  0  0  0  0  0  0  0  # atno 17343 bound_to 10162
  156.1015  130.3655  150.0209 LP  0  0  0  0  0  0  0  0  0  0  0  0  # atno 17370 bound_to 10713
  156.8324  130.9397  151.3636 LP  0  0  0  0  0  0  0  0  0  0  0  0  # atno 17371 bound_to 10713
  140.1500  134.9236  157.2580 LP  0  0  0  0  0  0  0  0  0  0  0  0  # atno 17394 bound_to 11000
  140.2734  134.3434  155.7366 LP  0  0  0  0  0  0  0  0  0  0  0  0  # atno 17395 bound_to 11000

$$$$
