AV-unprocessed.smi:911|AV-procd|sdf|4139|dock3
  -GOLD-   22720 2 43D 1   1.00000     0.00000
 Structure written by MMmdl.
 47 49  0  0  0  0  0  0  0  0  3 V2000
  146.6963  141.9773  154.9321 C   0  0  0  0  0  0  0  0  0  0  0  0
  147.3699  140.7581  155.6226 C   0  0  0  0  0  0  0  0  0  0  0  0
  146.2140  139.9889  156.3210 C   0  0  0  0  0  0  0  0  0  0  0  0
  148.2277  139.8956  154.6755 C   0  0  1  0  0  0  0  0  0  0  0  0
  149.3587  140.8521  154.2340 C   0  0  0  0  0  0  0  0  0  0  0  0
  149.5933  141.7003  155.4993 C   0  0  0  0  0  0  0  0  0  0  0  0
  148.5981  141.0774  156.5181 C   0  0  1  0  0  0  0  0  0  0  0  0
  148.3227  141.9955  157.7222 C   0  0  0  0  0  0  0  0  0  0  0  0
  149.1188  139.6552  156.9095 C   0  0  2  0  0  0  0  0  0  0  0  0
  150.5328  139.6149  157.2772 N   0  0  0  0  0  0  0  0  0  0  0  0
  151.0402  139.0073  158.3598 C   0  0  0  0  0  0  0  0  0  0  0  0
  150.3730  138.3243  159.1359 O   0  0  0  0  0  0  0  0  0  0  0  0
  152.5327  139.2286  158.6165 C   0  0  0  0  0  0  0  0  0  0  0  0
  152.7418  140.4341  159.4330 N   0  0  0  0  0  0  0  0  0  0  0  0
  152.2677  141.6470  158.8956 C   0  0  0  0  0  0  0  0  0  0  0  0
  152.3516  142.8108  159.5681 C   0  0  0  0  0  0  0  0  0  0  0  0
  151.8352  144.0395  159.0074 N   0  3  0  0  0  0  0  0  0  0  0  0
  151.3959  144.0241  157.8622 O   0  0  0  0  0  0  0  0  0  0  0  0
  151.8545  145.0594  159.6903 O   0  5  0  0  0  0  0  0  0  0  0  0
  152.9638  142.7872  160.8819 C   0  0  0  0  0  0  0  0  0  0  0  0
  153.4201  141.6306  161.4022 C   0  0  0  0  0  0  0  0  0  0  0  0
  153.3175  140.3623  160.6721 C   0  0  0  0  0  0  0  0  0  0  0  0
  153.7204  139.3013  161.1484 O   0  0  0  0  0  0  0  0  0  0  0  0
  148.8643  138.8485  155.6152 C   0  0  0  0  0  0  0  0  0  0  0  0
  145.9469  141.6431  154.2141 H   0  0  0  0  0  0  0  0  0  0  0  0
  147.3708  142.6320  154.3853 H   0  0  0  0  0  0  0  0  0  0  0  0
  146.1814  142.6016  155.6626 H   0  0  0  0  0  0  0  0  0  0  0  0
  146.5106  139.0883  156.8531 H   0  0  0  0  0  0  0  0  0  0  0  0
  145.4633  139.6815  155.5922 H   0  0  0  0  0  0  0  0  0  0  0  0
  145.7104  140.6261  157.0485 H   0  0  0  0  0  0  0  0  0  0  0  0
  147.6867  139.4516  153.8393 H   0  0  0  0  0  0  0  0  0  0  0  0
  150.2575  140.3165  153.9266 H   0  0  0  0  0  0  0  0  0  0  0  0
  149.0538  141.4750  153.3927 H   0  0  0  0  0  0  0  0  0  0  0  0
  150.6329  141.6805  155.8235 H   0  0  0  0  0  0  0  0  0  0  0  0
  149.3661  142.7495  155.3105 H   0  0  0  0  0  0  0  0  0  0  0  0
  149.2416  142.2210  158.2631 H   0  0  0  0  0  0  0  0  0  0  0  0
  147.6303  141.5322  158.4252 H   0  0  0  0  0  0  0  0  0  0  0  0
  147.8917  142.9460  157.4083 H   0  0  0  0  0  0  0  0  0  0  0  0
  148.5291  139.2335  157.7247 H   0  0  0  0  0  0  0  0  0  0  0  0
  151.1648  140.1450  156.6951 H   0  0  0  0  0  0  0  0  0  0  0  0
  152.9512  138.3430  159.0979 H   0  0  0  0  0  0  0  0  0  0  0  0
  153.0618  139.3124  157.6657 H   0  0  0  0  0  0  0  0  0  0  0  0
  151.8211  141.5569  157.9155 H   0  0  0  0  0  0  0  0  0  0  0  0
  153.0583  143.6955  161.4589 H   0  0  0  0  0  0  0  0  0  0  0  0
  153.8704  141.6349  162.3841 H   0  0  0  0  0  0  0  0  0  0  0  0
  148.1869  138.0144  155.7996 H   0  0  0  0  0  0  0  0  0  0  0  0
  149.7742  138.4219  155.1899 H   0  0  0  0  0  0  0  0  0  0  0  0
  1  2  1  0  0  0  0
  1 25  1  0  0  0  0
  1 26  1  0  0  0  0
  1 27  1  0  0  0  0
  2  7  1  0  0  0  0
  2  3  1  0  0  0  0
  2  4  1  0  0  0  0
  3 28  1  0  0  0  0
  3 29  1  0  0  0  0
  3 30  1  0  0  0  0
  4 24  1  0  0  0  0
  4  5  1  0  0  0  0
  4 31  1  0  0  0  0
  5  6  1  0  0  0  0
  5 32  1  0  0  0  0
  5 33  1  0  0  0  0
  6  7  1  0  0  0  0
  6 34  1  0  0  0  0
  6 35  1  0  0  0  0
  7  8  1  0  0  0  0
  7  9  1  0  0  0  0
  8 36  1  0  0  0  0
  8 37  1  0  0  0  0
  8 38  1  0  0  0  0
  9 10  1  0  0  0  0
  9 24  1  0  0  0  0
  9 39  1  0  0  0  0
 10 11  1  0  0  0  0
 10 40  1  0  0  0  0
 11 12  2  0  0  0  0
 11 13  1  0  0  0  0
 13 14  1  0  0  0  0
 13 41  1  0  0  0  0
 13 42  1  0  0  0  0
 14 22  1  0  0  0  0
 14 15  1  0  0  0  0
 15 16  2  0  0  0  0
 15 43  1  0  0  0  0
 16 17  1  0  0  0  0
 16 20  1  0  0  0  0
 17 18  2  0  0  0  0
 17 19  1  0  0  0  0
 20 21  2  0  0  0  0
 20 44  1  0  0  0  0
 21 22  1  0  0  0  0
 21 45  1  0  0  0  0
 22 23  2  0  0  0  0
 24 46  1  0  0  0  0
 24 47  1  0  0  0  0
M  CHG  1  17   1
M  CHG  1  19  -1
M  END
> <s_m_source_file>
AV-unprocessed.smi

> <i_m_source_file_index>
911

> <i_lp_mmshare_version>
43012

> <i_f3d_flags>
0

> <s_epik_input>
W0NIM11bQ0BdMTJDKFtDSDNdKShbQ0gzXSlbQ0BIXShbQ0gyXVtDSDJdMSlbQ0gyXVtDQEBIXTJbTkhdQyg9TylbQ0gyXW4zW2NIXWMoW04rXSg9TylbTy1dKVtjSF1bY0hdYzM9Tw==

> <s_epik_cmdline>
J2VwaWtfcHl0aG9uJywgJy1waCcsICc3LjAnLCAnLXRuJywgJzgnLCAnLW1hJywgJzIwMCcsICctbWV0YWxfYmluZGluZycsICctaW1hZScsICc8aW5maWxlLm1hZT4nLCAnLW9tYWUnLCAnPG91dGZpbGUubWFlPic=

> <r_lp_tautomer_probability>
1

> <r_epik_Ionization_Penalty>
2.04092e-08

> <r_epik_Ionization_Penalty_Charging>
8.54191e-11

> <r_epik_Ionization_Penalty_Neutral>
2.03238e-08

> <r_epik_State_Penalty>
-0

> <r_epik_Charging_Adjusted_Penalty>
8.54191e-11

> <i_epik_Tot_Q>
0

> <i_epik_Tot_abs_Q>
2

> <r_epik_Metal_State_Penalty>
-0

> <b_epik_Metal_Only>
0

> <s_lp_Force_Field>
OPLS_2005

> <r_lp_Energy>
68.3511

> <b_lp_Chiralities_Consistent>
1

> <s_lp_Variant>
AV-unprocessed.smi:911-4

> <Gold.Version>
5.8.1

> <Gold.Id.Protein>
6NUR|6NUR_protein|mol2

> <Gold.PLP.Fitness>
37.2669

> <Gold.PLP.PLP>
-38.1967

> <Gold.PLP.part.hbond>
-0.7923

> <Gold.PLP.part.metal>
0.0000

> <Gold.PLP.part.buried>
-5.3728

> <Gold.PLP.part.nonpolar>
-32.5720

> <Gold.PLP.part.repulsive>
0.2622

> <Gold.PLP.ligand.clash>
0.0000

> <Gold.PLP.ligand.torsion>
0.4785

> <Gold.PLP.Chemscore.Hbond>
0.0000

> <Gold.PLP.Chemscore.CHOScore>
0.0000

> <Gold.PLP.Chemscore.Metal>
0.0000

> <Gold.PLP.Chemscore.Internal.Correction>
0.0273

> <Gold.Rescore>
     Score         DG    S(hbond)    S(metal)    S(lipo)     H(rot)  DE(clash)    DE(int)     intcor
     11.15     -11.63       0.00        0.00      86.00       1.53       0.06       0.42       ----

> <Gold.Chemscore.Fitness>
11.1498

> <Gold.Chemscore.DG>
-11.6308

> <Gold.Chemscore.ZeroCoef>
-5.4800

> <Gold.Chemscore.Hbond>
0.0000

> <Gold.Chemscore.Metal>
0.0000

> <Gold.Chemscore.Lipo>
85.9984

> <Gold.Chemscore.Internal_Hbond>
0.0000

> <Gold.Chemscore.DEClash>
0.0640

> <Gold.Chemscore.DEInternal>
0.4170

> <Gold.Chemscore.Rot>
1.5277

> <Gold.Chemscore.Internal.Correction>
   9.000000E+99

> <Gold.Chemscore.Hbond.Weighted>
-0.0000

> <Gold.Chemscore.Metal.Weighted>
-0.0000

> <Gold.Chemscore.Lipo.Weighted>
-10.0618

> <Gold.Chemscore.Internal_Hbond.Weighted>
0.0000

> <Gold.Chemscore.DEClash.Weighted>
0.0640

> <Gold.Chemscore.DEInternal.Weighted>
0.4170

> <Gold.Chemscore.Rot.Weighted>
3.9110

> <Gold.Chemscore.Internal.Correction.Weighted>
   9.000000E+99

> <Gold.Protein.RotatedTorsions>
[ 6907 6896 6895 6894 ] final -150.48 input  -60.11 | X-H torsion
[ 7974 7965 7964 7962 ] final -163.71 input  175.53 | X-H torsion
[ 8008 7997 7996 7995 ] final   33.22 input   59.86 | X-H torsion
[ 10167 10162 10161 10158 ] final -144.87 input  -65.29 | X-H torsion
[ 10718 10713 10712 10709 ] final  -20.02 input   66.30 | X-H torsion
[ 10763 10752 10751 10750 ] final  150.98 input  -60.55 | X-H torsion
[ 11005 11000 10999 10996 ] final   98.73 input  -57.11 | X-H torsion

> <Gold.Protein.ActiveResidues>
 VAL166  LYS551  ARG553  GLY616  TRP617  ASP618  TYR619  PRO620  LYS621  CYS622 
 ASP623  PHE694  ASN695  SER759  ASP760  ASP761  ALA762  ILE779  LEU786  VAL792 
 PHE793  MET794  SER795  GLU796  ALA797  LYS798  CYS799  TRP800  GLU811  SER814 

> <Gold.Protein.RotatedAtoms>
  151.1992  133.4621  159.2595 H   0  0  0  0  0  0  0  0  0  0  0  0  # atno 6907 bound_to 6896
  151.1087  135.0014  159.8493 H   0  0  0  0  0  0  0  0  0  0  0  0  # atno 6908 bound_to 6896
  152.5449  134.1913  159.8728 H   0  0  0  0  0  0  0  0  0  0  0  0  # atno 6909 bound_to 6896
  144.7318  140.3067  143.6195 H   0  0  0  0  0  0  0  0  0  0  0  0  # atno 7974 bound_to 7965
  155.1351  140.3261  155.4465 H   0  0  0  0  0  0  0  0  0  0  0  0  # atno 8008 bound_to 7997
  156.2622  140.2003  156.6417 H   0  0  0  0  0  0  0  0  0  0  0  0  # atno 8009 bound_to 7997
  154.6584  140.0550  157.0021 H   0  0  0  0  0  0  0  0  0  0  0  0  # atno 8010 bound_to 7997
  139.7859  143.8035  152.2644 H   0  0  0  0  0  0  0  0  0  0  0  0  # atno 10167 bound_to 10162
  156.5377  130.4670  149.6515 H   0  0  0  0  0  0  0  0  0  0  0  0  # atno 10718 bound_to 10713
  154.0962  135.2849  155.3261 H   0  0  0  0  0  0  0  0  0  0  0  0  # atno 10763 bound_to 10752
  154.6586  135.5343  153.7993 H   0  0  0  0  0  0  0  0  0  0  0  0  # atno 10764 bound_to 10752
  153.0395  135.6528  154.1129 H   0  0  0  0  0  0  0  0  0  0  0  0  # atno 10765 bound_to 10752
  139.8772  134.9063  156.4500 H   0  0  0  0  0  0  0  0  0  0  0  0  # atno 11005 bound_to 11000
  145.7706  139.1856  143.2214 LP  0  0  0  0  0  0  0  0  0  0  0  0  # atno 17320 bound_to 7965
  146.0914  140.7652  142.9593 LP  0  0  0  0  0  0  0  0  0  0  0  0  # atno 17321 bound_to 7965
  139.8112  144.7335  150.9695 LP  0  0  0  0  0  0  0  0  0  0  0  0  # atno 17342 bound_to 10162
  140.7819  143.4249  151.0783 LP  0  0  0  0  0  0  0  0  0  0  0  0  # atno 17343 bound_to 10162
  156.3001  130.7172  151.2041 LP  0  0  0  0  0  0  0  0  0  0  0  0  # atno 17370 bound_to 10713
  157.7411  131.0508  150.5122 LP  0  0  0  0  0  0  0  0  0  0  0  0  # atno 17371 bound_to 10713
  140.8939  133.7828  155.9603 LP  0  0  0  0  0  0  0  0  0  0  0  0  # atno 17394 bound_to 11000
  140.8724  134.2710  157.5184 LP  0  0  0  0  0  0  0  0  0  0  0  0  # atno 17395 bound_to 11000

$$$$
