AV-unprocessed.smi:2052|AV-procd|sdf|8329|dock7
  -GOLD-   2272010593D 1   1.00000     0.00000
 Structure written by MMmdl.
 41 42  0  0  0  0  0  0  0  0  1 V2000
  153.0045  142.5835  160.0692 C   0  0  0  0  0  0  0  0  0  0  0  0
  151.7982  143.9116  160.3340 S   0  0  0  0  0  0  0  0  0  0  0  0
  150.9782  143.9618  158.7124 C   0  0  1  0  0  0  0  0  0  0  0  0
  151.9778  144.3833  157.6233 C   0  0  0  0  0  0  0  0  0  0  0  0
  150.3119  142.6245  158.3659 C   0  0  0  0  0  0  0  0  0  0  0  0
  150.5145  141.6284  159.0608 O   0  0  0  0  0  0  0  0  0  0  0  0
  149.5137  142.6155  157.2869 N   0  0  0  0  0  0  0  0  0  0  0  0
  148.8013  141.4443  156.7874 C   0  0  0  0  0  0  0  0  0  0  0  0
  147.3145  141.6739  156.5580 C   0  0  0  0  0  0  0  0  0  0  0  0
  146.3371  140.9628  157.2853 C   0  0  0  0  0  0  0  0  0  0  0  0
  144.9818  141.2299  157.0208 C   0  0  0  0  0  0  0  0  0  0  0  0
  144.5699  142.1255  156.0996 N   0  0  0  0  0  0  0  0  0  0  0  0
  145.4990  142.8052  155.3825 C   0  0  0  0  0  0  0  0  0  0  0  0
  145.0504  143.7349  154.4182 N   0  0  0  0  0  0  0  0  0  0  0  0
  144.2817  144.8656  154.9335 C   0  0  0  0  0  0  0  0  0  0  0  0
  143.5988  145.6211  153.7802 C   0  0  0  0  0  0  0  0  0  0  0  0
  144.5698  146.0085  152.8139 O   0  0  0  0  0  0  0  0  0  0  0  0
  145.2249  144.8810  152.2430 C   0  0  0  0  0  0  0  0  0  0  0  0
  145.9686  144.1028  153.3415 C   0  0  0  0  0  0  0  0  0  0  0  0
  146.8852  142.6043  155.5892 C   0  0  0  0  0  0  0  0  0  0  0  0
  153.5552  142.3904  160.9898 H   0  0  0  0  0  0  0  0  0  0  0  0
  153.7198  142.8594  159.2947 H   0  0  0  0  0  0  0  0  0  0  0  0
  152.5007  141.6645  159.7691 H   0  0  0  0  0  0  0  0  0  0  0  0
  150.2075  144.7324  158.7638 H   0  0  0  0  0  0  0  0  0  0  0  0
  151.5071  144.4063  156.6396 H   0  0  0  0  0  0  0  0  0  0  0  0
  152.8276  143.7017  157.5714 H   0  0  0  0  0  0  0  0  0  0  0  0
  152.3685  145.3817  157.8211 H   0  0  0  0  0  0  0  0  0  0  0  0
  149.3990  143.4757  156.7713 H   0  0  0  0  0  0  0  0  0  0  0  0
  149.2719  141.0930  155.8676 H   0  0  0  0  0  0  0  0  0  0  0  0
  148.9136  140.6419  157.5167 H   0  0  0  0  0  0  0  0  0  0  0  0
  146.6115  140.2322  158.0317 H   0  0  0  0  0  0  0  0  0  0  0  0
  144.2063  140.7088  157.5624 H   0  0  0  0  0  0  0  0  0  0  0  0
  143.5214  144.5491  155.6459 H   0  0  0  0  0  0  0  0  0  0  0  0
  144.9578  145.5341  155.4678 H   0  0  0  0  0  0  0  0  0  0  0  0
  142.8302  145.0034  153.3124 H   0  0  0  0  0  0  0  0  0  0  0  0
  143.1011  146.5135  154.1599 H   0  0  0  0  0  0  0  0  0  0  0  0
  144.4993  144.2420  151.7367 H   0  0  0  0  0  0  0  0  0  0  0  0
  145.9290  145.2251  151.4855 H   0  0  0  0  0  0  0  0  0  0  0  0
  146.7766  144.7123  153.7484 H   0  0  0  0  0  0  0  0  0  0  0  0
  146.4200  143.2099  152.9072 H   0  0  0  0  0  0  0  0  0  0  0  0
  147.6188  143.1660  155.0304 H   0  0  0  0  0  0  0  0  0  0  0  0
  1  2  1  0  0  0  0
  1 21  1  0  0  0  0
  1 22  1  0  0  0  0
  1 23  1  0  0  0  0
  2  3  1  0  0  0  0
  3  4  1  0  0  0  0
  3  5  1  0  0  0  0
  3 24  1  0  0  0  0
  4 25  1  0  0  0  0
  4 26  1  0  0  0  0
  4 27  1  0  0  0  0
  5  6  2  0  0  0  0
  5  7  1  0  0  0  0
  7  8  1  0  0  0  0
  7 28  1  0  0  0  0
  8  9  1  0  0  0  0
  8 29  1  0  0  0  0
  8 30  1  0  0  0  0
  9 20  1  0  0  0  0
  9 10  2  0  0  0  0
 10 11  1  0  0  0  0
 10 31  1  0  0  0  0
 11 12  2  0  0  0  0
 11 32  1  0  0  0  0
 12 13  1  0  0  0  0
 13 14  1  0  0  0  0
 13 20  2  0  0  0  0
 14 19  1  0  0  0  0
 14 15  1  0  0  0  0
 15 16  1  0  0  0  0
 15 33  1  0  0  0  0
 15 34  1  0  0  0  0
 16 17  1  0  0  0  0
 16 35  1  0  0  0  0
 16 36  1  0  0  0  0
 17 18  1  0  0  0  0
 18 19  1  0  0  0  0
 18 37  1  0  0  0  0
 18 38  1  0  0  0  0
 19 39  1  0  0  0  0
 19 40  1  0  0  0  0
 20 41  1  0  0  0  0
M  END
> <s_m_source_file>
AV-unprocessed.smi

> <i_m_source_file_index>
2052

> <i_lp_mmshare_version>
43012

> <i_f3d_flags>
0

> <s_epik_input>
W0NIM11TW0NASF0oW0NIM10pQyg9TylbTkhdW0NIMl1jMVtjSF1bY0hdbmMoW2NIXTEpTjJbQ0gyXVtDSDJdT1tDSDJdW0NIMl0y

> <s_epik_cmdline>
J2VwaWtfcHl0aG9uJywgJy1waCcsICc3LjAnLCAnLXRuJywgJzgnLCAnLW1hJywgJzIwMCcsICctbWV0YWxfYmluZGluZycsICctaW1hZScsICc8aW5maWxlLm1hZT4nLCAnLW9tYWUnLCAnPG91dGZpbGUubWFlPic=

> <r_lp_tautomer_probability>
1

> <r_epik_Ionization_Penalty>
0.00463955

> <r_epik_Ionization_Penalty_Charging>
0

> <r_epik_Ionization_Penalty_Neutral>
0.00463955

> <r_epik_State_Penalty>
0.00335544

> <r_epik_Charging_Adjusted_Penalty>
0.00335544

> <i_epik_Tot_Q>
0

> <i_epik_Tot_abs_Q>
0

> <r_epik_Metal_State_Penalty>
-0

> <b_epik_Metal_Only>
0

> <s_lp_Force_Field>
OPLS_2005

> <r_lp_Energy>
15.5355

> <b_lp_Chiralities_Consistent>
1

> <s_lp_Variant>
AV-unprocessed.smi:2052-2

> <Gold.Version>
5.8.1

> <Gold.Id.Protein>
6NUR|6NUR_protein|mol2

> <Gold.PLP.Fitness>
37.1068

> <Gold.PLP.PLP>
-34.7081

> <Gold.PLP.part.hbond>
-3.5005

> <Gold.PLP.part.metal>
0.0000

> <Gold.PLP.part.buried>
-2.6618

> <Gold.PLP.part.nonpolar>
-28.0517

> <Gold.PLP.part.repulsive>
0.3846

> <Gold.PLP.ligand.clash>
0.0000

> <Gold.PLP.ligand.torsion>
0.4846

> <Gold.PLP.Chemscore.Hbond>
1.0000

> <Gold.PLP.Chemscore.CHOScore>
0.0000

> <Gold.PLP.Chemscore.Metal>
0.0000

> <Gold.Chemscore.Hbonds>
donor molecule, donor type, donor heavy atom, donor atom, acceptor molecule, acceptor atom, score
      L1  H     7    28       P1  8028  1.00

> <Gold.PLP.Chemscore.Internal.Correction>
0.3680

> <Gold.Rescore>
     Score         DG    S(hbond)    S(metal)    S(lipo)     H(rot)  DE(clash)    DE(int)     intcor
     13.77     -14.60       0.99        0.00      86.12       1.67       0.41       0.42       ----

> <Gold.Chemscore.Fitness>
13.7732

> <Gold.Chemscore.DG>
-14.6016

> <Gold.Chemscore.ZeroCoef>
-5.4800

> <Gold.Chemscore.Hbond>
0.9928

> <Gold.Chemscore.Metal>
0.0000

> <Gold.Chemscore.Lipo>
86.1229

> <Gold.Chemscore.Internal_Hbond>
0.0000

> <Gold.Chemscore.DEClash>
0.4092

> <Gold.Chemscore.DEInternal>
0.4192

> <Gold.Chemscore.Rot>
1.6682

> <Gold.Chemscore.Internal.Correction>
   9.000000E+99

> <Gold.Chemscore.Hbonds>
donor molecule, donor type, donor heavy atom, donor atom, acceptor molecule, acceptor atom, score
      L1  H     7    28       P1  8028  0.98

> <Gold.Chemscore.Hbond.Weighted>
-3.3159

> <Gold.Chemscore.Metal.Weighted>
-0.0000

> <Gold.Chemscore.Lipo.Weighted>
-10.0764

> <Gold.Chemscore.Internal_Hbond.Weighted>
0.0000

> <Gold.Chemscore.DEClash.Weighted>
0.4092

> <Gold.Chemscore.DEInternal.Weighted>
0.4192

> <Gold.Chemscore.Rot.Weighted>
4.2707

> <Gold.Chemscore.Internal.Correction.Weighted>
   9.000000E+99

> <Gold.Protein.RotatedTorsions>
[ 6907 6896 6895 6894 ] final   33.01 input  -60.11 | X-H torsion
[ 7974 7965 7964 7962 ] final  -21.43 input  175.53 | X-H torsion
[ 8008 7997 7996 7995 ] final  -80.46 input   59.86 | X-H torsion
[ 10167 10162 10161 10158 ] final  -32.99 input  -65.29 | X-H torsion
[ 10718 10713 10712 10709 ] final   93.60 input   66.30 | X-H torsion
[ 10763 10752 10751 10750 ] final -175.50 input  -60.55 | X-H torsion
[ 11005 11000 10999 10996 ] final   61.02 input  -57.11 | X-H torsion

> <Gold.Protein.ActiveResidues>
 VAL166  LYS551  ARG553  GLY616  TRP617  ASP618  TYR619  PRO620  LYS621  CYS622 
 ASP623  PHE694  ASN695  SER759  ASP760  ASP761  ALA762  ILE779  LEU786  VAL792 
 PHE793  MET794  SER795  GLU796  ALA797  LYS798  CYS799  TRP800  GLU811  SER814 

> <Gold.Protein.RotatedAtoms>
  152.0824  134.9462  160.0573 H   0  0  0  0  0  0  0  0  0  0  0  0  # atno 6907 bound_to 6896
  152.0745  133.4118  159.4482 H   0  0  0  0  0  0  0  0  0  0  0  0  # atno 6908 bound_to 6896
  150.6836  134.2973  159.4735 H   0  0  0  0  0  0  0  0  0  0  0  0  # atno 6909 bound_to 6896
  146.1733  140.4340  142.8523 H   0  0  0  0  0  0  0  0  0  0  0  0  # atno 7974 bound_to 7965
  154.5885  140.0662  156.9205 H   0  0  0  0  0  0  0  0  0  0  0  0  # atno 8008 bound_to 7997
  155.2336  140.3339  155.4282 H   0  0  0  0  0  0  0  0  0  0  0  0  # atno 8009 bound_to 7997
  156.2239  140.1811  156.7394 H   0  0  0  0  0  0  0  0  0  0  0  0  # atno 8010 bound_to 7997
  140.7212  143.3653  151.1882 H   0  0  0  0  0  0  0  0  0  0  0  0  # atno 10167 bound_to 10162
  157.6953  131.0484  150.4059 H   0  0  0  0  0  0  0  0  0  0  0  0  # atno 10718 bound_to 10713
  154.5837  135.2838  155.0707 H   0  0  0  0  0  0  0  0  0  0  0  0  # atno 10763 bound_to 10752
  154.2033  135.6420  153.5097 H   0  0  0  0  0  0  0  0  0  0  0  0  # atno 10764 bound_to 10752
  153.0097  135.5474  154.6499 H   0  0  0  0  0  0  0  0  0  0  0  0  # atno 10765 bound_to 10752
  140.0191  134.6180  155.9666 H   0  0  0  0  0  0  0  0  0  0  0  0  # atno 11005 bound_to 11000
  144.8197  140.6529  143.6361 LP  0  0  0  0  0  0  0  0  0  0  0  0  # atno 17320 bound_to 7965
  145.4280  139.1553  143.4038 LP  0  0  0  0  0  0  0  0  0  0  0  0  # atno 17321 bound_to 7965
  139.7214  143.9218  152.2986 LP  0  0  0  0  0  0  0  0  0  0  0  0  # atno 17342 bound_to 10162
  139.8976  144.6930  150.8701 LP  0  0  0  0  0  0  0  0  0  0  0  0  # atno 17343 bound_to 10162
  156.4448  130.3999  149.6674 LP  0  0  0  0  0  0  0  0  0  0  0  0  # atno 17370 bound_to 10713
  156.3845  130.7596  151.2591 LP  0  0  0  0  0  0  0  0  0  0  0  0  # atno 17371 bound_to 10713
  141.1762  133.6540  156.4838 LP  0  0  0  0  0  0  0  0  0  0  0  0  # atno 17394 bound_to 11000
  140.4419  134.7008  157.4996 LP  0  0  0  0  0  0  0  0  0  0  0  0  # atno 17395 bound_to 11000

$$$$
