AV-unprocessed.smi:1543|AV-procd|sdf|6211|dock3
  -GOLD-   22720 6383D 1   1.00000     0.00000
 Structure written by MMmdl.
 49 50  0  0  0  0  0  0  0  0  2 V2000
  143.1559  137.0989  155.5919 C   0  0  0  0  0  0  0  0  0  0  0  0
  144.5094  136.5829  156.1132 C   0  0  1  0  0  0  0  0  0  0  0  0
  145.6913  136.9028  155.1767 C   0  0  0  0  0  0  0  0  0  0  0  0
  146.0440  138.3496  155.2308 N   0  3  2  0  0  0  0  0  0  0  0  0
  147.0505  138.8221  154.2125 C   0  0  0  0  0  0  0  0  0  0  0  0
  147.3683  140.3214  154.4404 C   0  0  0  0  0  0  0  0  0  0  0  0
  148.3865  138.0663  154.4253 C   0  0  0  0  0  0  0  0  0  0  0  0
  146.5260  138.6114  152.7599 C   0  0  0  0  0  0  0  0  0  0  0  0
  146.6828  137.2405  152.2746 N   0  0  0  0  0  0  0  0  0  0  0  0
  145.6939  136.3468  152.1273 C   0  0  0  0  0  0  0  0  0  0  0  0
  144.5178  136.5861  152.3993 O   0  0  0  0  0  0  0  0  0  0  0  0
  146.1587  135.1843  151.6391 N   0  0  0  0  0  0  0  0  0  0  0  0
  145.4401  133.9884  151.3684 C   0  0  0  0  0  0  0  0  0  0  0  0
  144.0761  133.7873  151.6912 C   0  0  0  0  0  0  0  0  0  0  0  0
  143.4816  132.5473  151.3876 C   0  0  0  0  0  0  0  0  0  0  0  0
  144.2725  131.5521  150.7813 C   0  0  0  0  0  0  0  0  0  0  0  0
  145.5770  131.7246  150.4816 N   0  0  0  0  0  0  0  0  0  0  0  0
  146.1402  132.9161  150.7754 C   0  0  0  0  0  0  0  0  0  0  0  0
  146.3197  138.7351  156.6425 C   0  0  0  0  0  0  0  0  0  0  0  0
  145.1064  138.4207  157.5352 C   0  0  2  0  0  0  0  0  0  0  0  0
  145.3833  138.7344  159.0098 C   0  0  0  0  0  0  0  0  0  0  0  0
  144.7894  137.0362  157.4359 O   0  0  0  0  0  0  0  0  0  0  0  0
  142.9048  136.6301  154.6401 H   0  0  0  0  0  0  0  0  0  0  0  0
  143.1562  138.1764  155.4296 H   0  0  0  0  0  0  0  0  0  0  0  0
  142.3549  136.8657  156.2937 H   0  0  0  0  0  0  0  0  0  0  0  0
  144.4250  135.4977  156.1803 H   0  0  0  0  0  0  0  0  0  0  0  0
  146.5530  136.3048  155.4749 H   0  0  0  0  0  0  0  0  0  0  0  0
  145.4188  136.5842  154.1726 H   0  0  0  0  0  0  0  0  0  0  0  0
  148.2414  140.6401  153.8696 H   0  0  0  0  0  0  0  0  0  0  0  0
  147.5812  140.5284  155.4899 H   0  0  0  0  0  0  0  0  0  0  0  0
  146.5512  140.9712  154.1273 H   0  0  0  0  0  0  0  0  0  0  0  0
  149.2025  138.5201  153.8619 H   0  0  0  0  0  0  0  0  0  0  0  0
  148.3353  137.0287  154.0964 H   0  0  0  0  0  0  0  0  0  0  0  0
  148.6846  138.0730  155.4742 H   0  0  0  0  0  0  0  0  0  0  0  0
  145.4813  138.9111  152.6729 H   0  0  0  0  0  0  0  0  0  0  0  0
  147.0737  139.2457  152.0639 H   0  0  0  0  0  0  0  0  0  0  0  0
  147.6179  136.9548  152.0227 H   0  0  0  0  0  0  0  0  0  0  0  0
  147.1347  135.1683  151.3817 H   0  0  0  0  0  0  0  0  0  0  0  0
  143.4809  134.5465  152.1746 H   0  0  0  0  0  0  0  0  0  0  0  0
  142.4431  132.3616  151.6192 H   0  0  0  0  0  0  0  0  0  0  0  0
  143.8474  130.5898  150.5369 H   0  0  0  0  0  0  0  0  0  0  0  0
  147.1861  133.0170  150.5238 H   0  0  0  0  0  0  0  0  0  0  0  0
  147.1938  138.1990  157.0139 H   0  0  0  0  0  0  0  0  0  0  0  0
  146.5334  139.7979  156.7334 H   0  0  0  0  0  0  0  0  0  0  0  0
  144.2526  139.0198  157.2183 H   0  0  0  0  0  0  0  0  0  0  0  0
  145.6269  139.7881  159.1484 H   0  0  0  0  0  0  0  0  0  0  0  0
  146.2187  138.1455  159.3895 H   0  0  0  0  0  0  0  0  0  0  0  0
  144.5120  138.5117  159.6262 H   0  0  0  0  0  0  0  0  0  0  0  0
  145.1927  138.8355  154.9865 H   0  0  0  0  0  0  0  0  0  0  0  0
  1  2  1  0  0  0  0
  1 23  1  0  0  0  0
  1 24  1  0  0  0  0
  1 25  1  0  0  0  0
  2 22  1  0  0  0  0
  2  3  1  0  0  0  0
  2 26  1  0  0  0  0
  3  4  1  0  0  0  0
  3 27  1  0  0  0  0
  3 28  1  0  0  0  0
  4  5  1  0  0  0  0
  4 19  1  0  0  0  0
  4 49  1  0  0  0  0
  5  6  1  0  0  0  0
  5  7  1  0  0  0  0
  5  8  1  0  0  0  0
  6 29  1  0  0  0  0
  6 30  1  0  0  0  0
  6 31  1  0  0  0  0
  7 32  1  0  0  0  0
  7 33  1  0  0  0  0
  7 34  1  0  0  0  0
  8  9  1  0  0  0  0
  8 35  1  0  0  0  0
  8 36  1  0  0  0  0
  9 10  1  0  0  0  0
  9 37  1  0  0  0  0
 10 11  2  0  0  0  0
 10 12  1  0  0  0  0
 12 13  1  0  0  0  0
 12 38  1  0  0  0  0
 13 18  1  0  0  0  0
 13 14  2  0  0  0  0
 14 15  1  0  0  0  0
 14 39  1  0  0  0  0
 15 16  2  0  0  0  0
 15 40  1  0  0  0  0
 16 17  1  0  0  0  0
 16 41  1  0  0  0  0
 17 18  2  0  0  0  0
 18 42  1  0  0  0  0
 19 20  1  0  0  0  0
 19 43  1  0  0  0  0
 19 44  1  0  0  0  0
 20 21  1  0  0  0  0
 20 22  1  0  0  0  0
 20 45  1  0  0  0  0
 21 46  1  0  0  0  0
 21 47  1  0  0  0  0
 21 48  1  0  0  0  0
M  CHG  1   4   1
M  END
> <s_m_source_file>
AV-unprocessed.smi

> <i_m_source_file_index>
1543

> <i_lp_mmshare_version>
43012

> <i_f3d_flags>
0

> <s_epik_input>
W0NIM11bQ0BASF0xW0NIMl1OKFtDSDJdW0NASF0oTzEpW0NIM10pQyhbQ0gzXSkoW0NIM10pW0NIMl1bTkhdQyg9TylbTkhdYzJbY0hdW2NIXVtjSF1uW2NIXTI=

> <s_epik_cmdline>
J2VwaWtfcHl0aG9uJywgJy1waCcsICc3LjAnLCAnLXRuJywgJzgnLCAnLW1hJywgJzIwMCcsICctbWV0YWxfYmluZGluZycsICctaW1hZScsICc8aW5maWxlLm1hZT4nLCAnLW9tYWUnLCAnPG91dGZpbGUubWFlPic=

> <r_epik_Ionization_Penalty>
0.60676

> <r_epik_Ionization_Penalty_Charging>
0.602531

> <r_epik_Ionization_Penalty_Neutral>
0.00422967

> <r_epik_State_Penalty>
0.607492

> <r_epik_Charging_Adjusted_Penalty>
1.21002

> <i_epik_Tot_Q>
1

> <i_epik_Tot_abs_Q>
1

> <r_epik_Metal_State_Penalty>
0.604589

> <b_epik_Metal_Only>
0

> <s_lp_Force_Field>
OPLS_2005

> <r_lp_Energy>
30.6823

> <b_lp_Chiralities_Consistent>
1

> <s_lp_Variant>
AV-unprocessed.smi:1543-7

> <Gold.Version>
5.8.1

> <Gold.Id.Protein>
6NUR|6NUR_protein|mol2

> <Gold.PLP.Fitness>
41.4215

> <Gold.PLP.PLP>
-28.8315

> <Gold.PLP.part.hbond>
-2.9170

> <Gold.PLP.part.metal>
0.0000

> <Gold.PLP.part.buried>
-4.6598

> <Gold.PLP.part.nonpolar>
-25.8778

> <Gold.PLP.part.repulsive>
4.1044

> <Gold.PLP.ligand.clash>
0.0000

> <Gold.PLP.ligand.torsion>
0.4773

> <Gold.PLP.Chemscore.Hbond>
3.8073

> <Gold.PLP.Chemscore.CHOScore>
0.6689

> <Gold.PLP.Chemscore.Metal>
0.0000

> <Gold.Chemscore.Hbonds>
donor molecule, donor type, donor heavy atom, donor atom, acceptor molecule, acceptor atom, score
      L1  H     9    37       P1  7948  0.94
      L1  H    12    38       P1  7948  0.65
      L1  C    18    42       P1 10747  0.28

> <Gold.PLP.Chemscore.Internal.Correction>
0.1164

> <Gold.Rescore>
     Score         DG    S(hbond)    S(metal)    S(lipo)     H(rot)  DE(clash)    DE(int)     intcor
     16.00     -19.77       2.89        0.00      71.66       1.46       1.91       1.86       ----

> <Gold.Chemscore.Fitness>
15.9994

> <Gold.Chemscore.DG>
-19.7668

> <Gold.Chemscore.ZeroCoef>
-5.4800

> <Gold.Chemscore.Hbond>
2.8888

> <Gold.Chemscore.Metal>
0.0000

> <Gold.Chemscore.Lipo>
71.6579

> <Gold.Chemscore.Internal_Hbond>
0.0000

> <Gold.Chemscore.DEClash>
1.9110

> <Gold.Chemscore.DEInternal>
1.8564

> <Gold.Chemscore.Rot>
1.4632

> <Gold.Chemscore.Internal.Correction>
   9.000000E+99

> <Gold.Chemscore.Hbonds>
donor molecule, donor type, donor heavy atom, donor atom, acceptor molecule, acceptor atom, score
      L1  H     9    37       P1  7948  0.90
      L1  H    12    38       P1  7948  0.53

> <Gold.Chemscore.Hbond.Weighted>
-9.6486

> <Gold.Chemscore.Metal.Weighted>
-0.0000

> <Gold.Chemscore.Lipo.Weighted>
-8.3840

> <Gold.Chemscore.Internal_Hbond.Weighted>
0.0000

> <Gold.Chemscore.DEClash.Weighted>
1.9110

> <Gold.Chemscore.DEInternal.Weighted>
1.8564

> <Gold.Chemscore.Rot.Weighted>
3.7459

> <Gold.Chemscore.Internal.Correction.Weighted>
   9.000000E+99

> <Gold.Protein.RotatedTorsions>
[ 6907 6896 6895 6894 ] final    8.51 input  -60.11 | X-H torsion
[ 7974 7965 7964 7962 ] final  -87.65 input  175.53 | X-H torsion
[ 8008 7997 7996 7995 ] final  -71.82 input   59.86 | X-H torsion
[ 10167 10162 10161 10158 ] final   85.51 input  -65.29 | X-H torsion
[ 10718 10713 10712 10709 ] final -138.78 input   66.30 | X-H torsion
[ 10763 10752 10751 10750 ] final  -31.42 input  -60.55 | X-H torsion
[ 11005 11000 10999 10996 ] final -153.23 input  -57.11 | X-H torsion

> <Gold.Protein.ActiveResidues>
 VAL166  LYS551  ARG553  GLY616  TRP617  ASP618  TYR619  PRO620  LYS621  CYS622 
 ASP623  PHE694  ASN695  SER759  ASP760  ASP761  ALA762  ILE779  LEU786  VAL792 
 PHE793  MET794  SER795  GLU796  ALA797  LYS798  CYS799  TRP800  GLU811  SER814 

> <Gold.Protein.RotatedAtoms>
  151.7071  135.0919  160.0260 H   0  0  0  0  0  0  0  0  0  0  0  0  # atno 6907 bound_to 6896
  152.3684  133.6383  159.6077 H   0  0  0  0  0  0  0  0  0  0  0  0  # atno 6908 bound_to 6896
  150.7655  133.9226  159.3444 H   0  0  0  0  0  0  0  0  0  0  0  0  # atno 6909 bound_to 6896
  145.4637  140.9560  143.1955 H   0  0  0  0  0  0  0  0  0  0  0  0  # atno 7974 bound_to 7965
  154.5117  140.0808  156.8003 H   0  0  0  0  0  0  0  0  0  0  0  0  # atno 8008 bound_to 7997
  155.3770  140.3426  155.4227 H   0  0  0  0  0  0  0  0  0  0  0  0  # atno 8009 bound_to 7997
  156.1581  140.1579  156.8646 H   0  0  0  0  0  0  0  0  0  0  0  0  # atno 8010 bound_to 7997
  139.8970  144.6352  150.8678 H   0  0  0  0  0  0  0  0  0  0  0  0  # atno 10167 bound_to 10162
  156.3032  130.7440  151.1497 H   0  0  0  0  0  0  0  0  0  0  0  0  # atno 10718 bound_to 10713
  153.7971  135.6893  153.4862 H   0  0  0  0  0  0  0  0  0  0  0  0  # atno 10763 bound_to 10752
  153.1712  135.4542  154.9904 H   0  0  0  0  0  0  0  0  0  0  0  0  # atno 10764 bound_to 10752
  154.8021  135.3342  154.7462 H   0  0  0  0  0  0  0  0  0  0  0  0  # atno 10765 bound_to 10752
  140.7103  134.3839  157.5198 H   0  0  0  0  0  0  0  0  0  0  0  0  # atno 11005 bound_to 11000
  144.7987  139.6183  143.7081 LP  0  0  0  0  0  0  0  0  0  0  0  0  # atno 17320 bound_to 7965
  146.2436  139.6052  142.9474 LP  0  0  0  0  0  0  0  0  0  0  0  0  # atno 17321 bound_to 7965
  140.7715  143.3466  151.2099 LP  0  0  0  0  0  0  0  0  0  0  0  0  # atno 17342 bound_to 10162
  139.7059  143.9456  152.2926 LP  0  0  0  0  0  0  0  0  0  0  0  0  # atno 17343 bound_to 10162
  157.7373  131.0553  150.5363 LP  0  0  0  0  0  0  0  0  0  0  0  0  # atno 17370 bound_to 10713
  156.5493  130.4227  149.6115 LP  0  0  0  0  0  0  0  0  0  0  0  0  # atno 17371 bound_to 10713
  139.8873  134.8886  156.2535 LP  0  0  0  0  0  0  0  0  0  0  0  0  # atno 17394 bound_to 11000
  141.0090  133.7107  156.1080 LP  0  0  0  0  0  0  0  0  0  0  0  0  # atno 17395 bound_to 11000

$$$$
