#       Name:                AV-unprocessed.smi:33
#       Creating user name   scv26
#       Creation time:       Thu Mar 26 15:51:27 2020


#       File generated by GOLD software.
#

@<TRIPOS>MOLECULE
AV-unprocessed.smi:33
    80    85     1
SMALL
NO_CHARGES


@<TRIPOS>ATOM
      1 ****        -5.1924   4.1289   1.2881 O.2            1 S1                 0.0000
      2 ****        -5.4795   3.5730   0.2260 C.2            1 S1                 0.0000
      3 ****        -5.3914   2.2426   0.0327 O.3            1 S1                 0.0000
      4 ****        -4.9378   1.4012   1.0801 C.3            1 S1                 0.0000
      5 ****        -4.7351  -0.0174   0.5344 C.3            1 S1                 0.0000
      6 ****        -3.5548  -0.0943  -0.2501 O.3            1 S1                 0.0000
      7 ****        -3.1664  -1.4295  -0.3399 C.3            1 S1                 0.0000
      8 ****        -1.6740  -1.4848  -0.3180 N.pl3          1 S1                 0.0000
      9 ****        -0.8554  -2.3056  -1.0614 C.2            1 S1                 0.0000
     10 ****         0.4240  -2.1736  -0.8362 N.2            1 S1                 0.0000
     11 ****         0.4928  -1.1798   0.1318 C.ar           1 S1                 0.0000
     12 ****         1.5598  -0.5531   0.8305 C.ar           1 S1                 0.0000
     13 ****         2.8592  -0.8811   0.6366 N.am           1 S1                 0.0000
     14 ****         3.4506  -0.5365  -0.6643 C.2            1 S1                 0.0000
     15 ****         2.9832   0.3989  -1.3166 O.2            1 S1                 0.0000
     16 ****         4.6479  -1.2849  -1.1780 C.ar           1 S1                 0.0000
     17 ****         5.7453  -0.5789  -1.7179 C.ar           1 S1                 0.0000
     18 ****         6.8636  -1.2767  -2.2140 C.ar           1 S1                 0.0000
     19 ****         6.8840  -2.6843  -2.1904 C.ar           1 S1                 0.0000
     20 ****         5.7812  -3.3950  -1.6796 C.ar           1 S1                 0.0000
     21 ****         4.6627  -2.6981  -1.1834 C.ar           1 S1                 0.0000
     22 ****         3.5568  -1.5541   1.7429 C.2            1 S1                 0.0000
     23 ****         2.9054  -2.1933   2.5716 O.2            1 S1                 0.0000
     24 ****         5.0562  -1.5174   1.8373 C.ar           1 S1                 0.0000
     25 ****         5.7756  -2.7035   2.1021 C.ar           1 S1                 0.0000
     26 ****         7.1796  -2.6741   2.2088 C.ar           1 S1                 0.0000
     27 ****         7.8719  -1.4561   2.0699 C.ar           1 S1                 0.0000
     28 ****         7.1590  -0.2654   1.8334 C.ar           1 S1                 0.0000
     29 ****         5.7551  -0.2940   1.7259 C.ar           1 S1                 0.0000
     30 ****         1.2499   0.4082   1.7388 N.ar           1 S1                 0.0000
     31 ****        -0.0286   0.7322   1.9520 C.ar           1 S1                 0.0000
     32 ****        -1.1240   0.2277   1.3799 N.ar           1 S1                 0.0000
     33 ****        -0.8170  -0.7368   0.4642 C.ar           1 S1                 0.0000
     34 ****        -3.7542  -2.1752   0.8715 C.3            1 S1                 0.0000
     35 ****        -4.6472  -3.1977   0.4781 O.3            1 S1                 0.0000
     36 ****        -4.5108  -1.0801   1.6113 C.3            1 S1                 0.0000
     37 ****        -3.7508  -0.6059   2.6001 F              1 S1                 0.0000
     38 ****        -5.9582   4.3042  -0.9827 C.ar           1 S1                 0.0000
     39 ****        -6.0606   5.7145  -0.9439 C.ar           1 S1                 0.0000
     40 ****        -6.5060   6.4326  -2.0708 C.ar           1 S1                 0.0000
     41 ****        -6.8561   5.7492  -3.2498 C.ar           1 S1                 0.0000
     42 ****        -6.7607   4.3463  -3.3005 C.ar           1 S1                 0.0000
     43 ****        -6.3142   3.6265  -2.1750 C.ar           1 S1                 0.0000
     44 ****        -4.0082   1.7792   1.5087 H              1 S1                 0.0000
     45 ****        -5.6881   1.3933   1.8718 H              1 S1                 0.0000
     46 ****        -5.5861  -0.3126  -0.0823 H              1 S1                 0.0000
     47 ****        -3.4539  -1.8544  -1.3030 H              1 S1                 0.0000
     48 ****        -1.2411  -3.0186  -1.7755 H              1 S1                 0.0000
     49 ****         5.7408   0.5014  -1.7410 H              1 S1                 0.0000
     50 ****         7.7058  -0.7313  -2.6137 H              1 S1                 0.0000
     51 ****         7.7421  -3.2188  -2.5704 H              1 S1                 0.0000
     52 ****         5.7920  -4.4748  -1.6697 H              1 S1                 0.0000
     53 ****         3.8195  -3.2544  -0.7994 H              1 S1                 0.0000
     54 ****         5.2549  -3.6440   2.2112 H              1 S1                 0.0000
     55 ****         7.7252  -3.5866   2.3988 H              1 S1                 0.0000
     56 ****         8.9486  -1.4342   2.1519 H              1 S1                 0.0000
     57 ****         7.6887   0.6706   1.7359 H              1 S1                 0.0000
     58 ****         5.2185   0.6273   1.5492 H              1 S1                 0.0000
     59 ****        -0.1992   1.5041   2.6878 H              1 S1                 0.0000
     60 ****        -2.9668  -2.6120   1.4883 H              1 S1                 0.0000
     61 ****        -4.9875  -3.6140   1.2554 H              1 S1                 0.0000
     62 ****        -5.4404  -1.4197   2.0698 H              1 S1                 0.0000
     63 ****        -5.7964   6.2612  -0.0501 H              1 S1                 0.0000
     64 ****        -6.5781   7.5094  -2.0300 H              1 S1                 0.0000
     65 ****        -7.1974   6.3000  -4.1139 H              1 S1                 0.0000
     66 ****        -7.0295   3.8202  -4.2047 H              1 S1                 0.0000
     67 ****        -6.2523   2.5506  -2.2482 H              1 S1                 0.0000
     68 ****        -4.8738   3.5871   2.0658 LP             1 S1                 0.0000
     69 ****        -5.2781   5.1217   1.3719 LP             1 S1                 0.0000
     70 ****        -2.8279   0.4396   0.1818 LP             1 S1                 0.0000
     71 ****        -3.7345   0.2665  -1.1653 LP             1 S1                 0.0000
     72 ****         1.1791  -2.6723  -1.2619 LP             1 S1                 0.0000
     73 ****         2.2064   0.9181  -0.9602 LP             1 S1                 0.0000
     74 ****         3.3807   0.6386  -2.2024 LP             1 S1                 0.0000
     75 ****         1.9105  -2.2513   2.4886 LP             1 S1                 0.0000
     76 ****         3.3719  -2.6538   3.3268 LP             1 S1                 0.0000
     77 ****         1.9763   0.8718   2.2462 LP             1 S1                 0.0000
     78 ****        -2.0555   0.5205   1.5957 LP             1 S1                 0.0000
     79 ****        -4.1637  -3.8712  -0.0811 LP             1 S1                 0.0000
     80 ****        -5.3992  -2.8039  -0.0504 LP             1 S1                 0.0000
@<TRIPOS>BOND
    1    1    2 2     
    2    2    3 1     
    3    2   38 1     
    4    3    4 1     
    5    4    5 1     
    6    4   44 1     
    7    4   45 1     
    8    5   36 1     
    9    5    6 1     
   10    5   46 1     
   11    6    7 1     
   12    7    8 1     
   13    7   34 1     
   14    7   47 1     
   15    8   33 1     
   16    8    9 1     
   17    9   10 2     
   18    9   48 1     
   19   10   11 1     
   20   11   33 ar    
   21   11   12 ar    
   22   12   13 1     
   23   12   30 ar    
   24   13   14 am    
   25   13   22 am    
   26   14   15 2     
   27   14   16 1     
   28   16   21 ar    
   29   16   17 ar    
   30   17   18 ar    
   31   17   49 1     
   32   18   19 ar    
   33   18   50 1     
   34   19   20 ar    
   35   19   51 1     
   36   20   21 ar    
   37   20   52 1     
   38   21   53 1     
   39   22   23 2     
   40   22   24 1     
   41   24   29 ar    
   42   24   25 ar    
   43   25   26 ar    
   44   25   54 1     
   45   26   27 ar    
   46   26   55 1     
   47   27   28 ar    
   48   27   56 1     
   49   28   29 ar    
   50   28   57 1     
   51   29   58 1     
   52   30   31 ar    
   53   31   32 ar    
   54   31   59 1     
   55   32   33 ar    
   56   34   35 1     
   57   34   36 1     
   58   34   60 1     
   59   35   61 1     
   60   36   37 1     
   61   36   62 1     
   62   38   43 ar    
   63   38   39 ar    
   64   39   40 ar    
   65   39   63 1     
   66   40   41 ar    
   67   40   64 1     
   68   41   42 ar    
   69   41   65 1     
   70   42   43 ar    
   71   42   66 1     
   72   43   67 1     
   73    1   68 1     
   74    1   69 1     
   75    6   70 1     
   76    6   71 1     
   77   10   72 1     
   78   15   73 1     
   79   15   74 1     
   80   23   75 1     
   81   23   76 1     
   82   30   77 1     
   83   32   78 1     
   84   35   79 1     
   85   35   80 1     
@<TRIPOS>SUBSTRUCTURE
      1 S1             1
@<TRIPOS>SET
LONE_PAIRS      STATIC     ATOMS    <user>   **** ""
13 68 69 70 71 72 73 74 75 76 77 78 79 80
DONOR_HYDROGENS      STATIC     ATOMS    <user>   **** ""
1 61
ATOM$BLUE        STATIC     ATOMS    COLORGROUP SYSTEM
13 68 69 70 71 72 73 74 75 76 77 78 79 80
ATOM$RED        STATIC     ATOMS    COLORGROUP SYSTEM
1 61
