AV-unprocessed.smi:1723|AV-procd|sdf|6947|dock9
  -GOLD-   22720 8153D 1   1.00000     0.00000
 Structure written by MMmdl.
 37 37  0  0  0  0  0  0  0  0  2 V2000
  155.3159  138.0240  164.7940 C   0  0  0  0  0  0  0  0  0  0  0  0
  154.1578  137.1301  164.3371 C   0  0  0  0  0  0  0  0  0  0  0  0
  154.3836  136.5431  162.9352 C   0  0  0  0  0  0  0  0  0  0  0  0
  154.2680  137.5932  161.8235 C   0  0  0  0  0  0  0  0  0  0  0  0
  155.4977  138.3032  161.7241 O   0  0  0  0  0  0  0  0  0  0  0  0
  155.7314  138.9483  160.4750 C   0  0  2  0  0  0  0  0  0  0  0  0
  157.2322  139.2630  160.3911 C   0  0  0  0  0  0  0  0  0  0  0  0
  154.8868  140.2288  160.3716 C   0  0  0  0  0  0  0  0  0  0  0  0
  155.1244  141.1693  161.1289 O   0  0  0  0  0  0  0  0  0  0  0  0
  153.9059  140.1973  159.4479 N   0  0  0  0  0  0  0  0  0  0  0  0
  152.9630  141.1792  159.0973 C   0  0  0  0  0  0  0  0  0  0  0  0
  152.7542  142.3426  159.7746 C   0  0  0  0  0  0  0  0  0  0  0  0
  151.7625  143.3242  159.3535 C   0  0  0  0  0  0  0  0  0  0  0  0
  151.5588  144.6624  160.0420 C   0  0  0  0  0  0  0  0  0  0  0  0
  152.1951  144.7037  161.2130 F   0  0  0  0  0  0  0  0  0  0  0  0
  152.0343  145.6429  159.2757 F   0  0  0  0  0  0  0  0  0  0  0  0
  150.2642  144.8954  160.2585 F   0  0  0  0  0  0  0  0  0  0  0  0
  151.1074  142.9450  158.1981 C   0  0  0  0  0  0  0  0  0  0  0  0
  151.2467  141.8131  157.4739 N   0  5  0  0  0  0  0  0  0  0  0  0
  152.1706  140.8982  157.8818 C   0  0  0  0  0  0  0  0  0  0  0  0
  152.3557  139.8501  157.2618 O   0  0  0  0  0  0  0  0  0  0  0  0
  155.1270  138.4257  165.7896 H   0  0  0  0  0  0  0  0  0  0  0  0
  155.4539  138.8667  164.1161 H   0  0  0  0  0  0  0  0  0  0  0  0
  156.2524  137.4673  164.8324 H   0  0  0  0  0  0  0  0  0  0  0  0
  154.0240  136.3206  165.0556 H   0  0  0  0  0  0  0  0  0  0  0  0
  153.2330  137.7080  164.3496 H   0  0  0  0  0  0  0  0  0  0  0  0
  155.3628  136.0656  162.8848 H   0  0  0  0  0  0  0  0  0  0  0  0
  153.6491  135.7573  162.7552 H   0  0  0  0  0  0  0  0  0  0  0  0
  154.0562  137.0997  160.8741 H   0  0  0  0  0  0  0  0  0  0  0  0
  153.4324  138.2613  162.0352 H   0  0  0  0  0  0  0  0  0  0  0  0
  155.4785  138.2658  159.6613 H   0  0  0  0  0  0  0  0  0  0  0  0
  157.4773  139.7794  159.4623 H   0  0  0  0  0  0  0  0  0  0  0  0
  157.8210  138.3460  160.4232 H   0  0  0  0  0  0  0  0  0  0  0  0
  157.5580  139.8912  161.2212 H   0  0  0  0  0  0  0  0  0  0  0  0
  153.8023  139.3295  158.9416 H   0  0  0  0  0  0  0  0  0  0  0  0
  153.3290  142.5876  160.6515 H   0  0  0  0  0  0  0  0  0  0  0  0
  150.3608  143.6603  157.7918 H   0  0  0  0  0  0  0  0  0  0  0  0
  1  2  1  0  0  0  0
  1 22  1  0  0  0  0
  1 23  1  0  0  0  0
  1 24  1  0  0  0  0
  2  3  1  0  0  0  0
  2 25  1  0  0  0  0
  2 26  1  0  0  0  0
  3  4  1  0  0  0  0
  3 27  1  0  0  0  0
  3 28  1  0  0  0  0
  4  5  1  0  0  0  0
  4 29  1  0  0  0  0
  4 30  1  0  0  0  0
  5  6  1  0  0  0  0
  6  7  1  0  0  0  0
  6  8  1  0  0  0  0
  6 31  1  0  0  0  0
  7 32  1  0  0  0  0
  7 33  1  0  0  0  0
  7 34  1  0  0  0  0
  8  9  2  0  0  0  0
  8 10  1  0  0  0  0
 10 11  1  0  0  0  0
 10 35  1  0  0  0  0
 11 20  1  0  0  0  0
 11 12  2  0  0  0  0
 12 13  1  0  0  0  0
 12 36  1  0  0  0  0
 13 14  1  0  0  0  0
 13 18  2  0  0  0  0
 14 15  1  0  0  0  0
 14 16  1  0  0  0  0
 14 17  1  0  0  0  0
 18 19  1  0  0  0  0
 18 37  1  0  0  0  0
 19 20  1  0  0  0  0
 20 21  2  0  0  0  0
M  CHG  1  19  -1
M  END
> <s_m_source_file>
AV-unprocessed.smi

> <i_m_source_file_index>
1723

> <i_lp_mmshare_version>
43012

> <i_f3d_flags>
0

> <s_epik_input>
W0NIM11bQ0gyXVtDSDJdW0NIMl1PW0NASF0oW0NIM10pQyg9TylbTkhdYzFbY0hdYyhDKEYpKEYpRilbY0hdW25IXWMxPU8=

> <s_epik_cmdline>
J2VwaWtfcHl0aG9uJywgJy1waCcsICc3LjAnLCAnLXRuJywgJzgnLCAnLW1hJywgJzIwMCcsICctbWV0YWxfYmluZGluZycsICctaW1hZScsICc8aW5maWxlLm1hZT4nLCAnLW9tYWUnLCAnPG91dGZpbGUubWFlPic=

> <r_lp_tautomer_probability>
0.999

> <r_epik_Ionization_Penalty>
2.64397

> <r_epik_Ionization_Penalty_Charging>
0.0618254

> <r_epik_Ionization_Penalty_Neutral>
2.58215

> <r_epik_State_Penalty>
2.58023

> <r_epik_Charging_Adjusted_Penalty>
2.64205

> <i_epik_Tot_Q>
-1

> <i_epik_Tot_abs_Q>
1

> <r_epik_Metal_State_Penalty>
0.429101

> <b_epik_Metal_Only>
1

> <s_lp_Force_Field>
OPLS_2005

> <r_lp_Energy>
21.4098

> <b_lp_Chiralities_Consistent>
1

> <s_lp_Variant>
AV-unprocessed.smi:1723-3

> <Gold.Version>
5.8.1

> <Gold.Id.Protein>
6NUR|6NUR_protein|mol2

> <Gold.PLP.Fitness>
46.0348

> <Gold.PLP.PLP>
-44.5008

> <Gold.PLP.part.hbond>
-2.0000

> <Gold.PLP.part.metal>
0.0000

> <Gold.PLP.part.buried>
-4.5334

> <Gold.PLP.part.nonpolar>
-37.3768

> <Gold.PLP.part.repulsive>
0.1329

> <Gold.PLP.ligand.clash>
0.0000

> <Gold.PLP.ligand.torsion>
0.8162

> <Gold.PLP.Chemscore.Hbond>
1.0000

> <Gold.PLP.Chemscore.CHOScore>
0.0000

> <Gold.PLP.Chemscore.Metal>
0.0000

> <Gold.Chemscore.Hbonds>
donor molecule, donor type, donor heavy atom, donor atom, acceptor molecule, acceptor atom, score
      P1  H  7997  8009       L1    21  0.75

> <Gold.PLP.Chemscore.Internal.Correction>
0.1665

> <Gold.Rescore>
     Score         DG    S(hbond)    S(metal)    S(lipo)     H(rot)  DE(clash)    DE(int)     intcor
     10.32     -12.63       0.63        0.00      85.77       1.95       0.62       1.70       ----

> <Gold.Chemscore.Fitness>
10.3176

> <Gold.Chemscore.DG>
-12.6327

> <Gold.Chemscore.ZeroCoef>
-5.4800

> <Gold.Chemscore.Hbond>
0.6321

> <Gold.Chemscore.Metal>
0.0000

> <Gold.Chemscore.Lipo>
85.7725

> <Gold.Chemscore.Internal_Hbond>
0.0000

> <Gold.Chemscore.DEClash>
0.6166

> <Gold.Chemscore.DEInternal>
1.6985

> <Gold.Chemscore.Rot>
1.9507

> <Gold.Chemscore.Internal.Correction>
   9.000000E+99

> <Gold.Chemscore.Hbonds>
donor molecule, donor type, donor heavy atom, donor atom, acceptor molecule, acceptor atom, score
      P1  H  7997  8009       L1    21  0.26

> <Gold.Chemscore.Hbond.Weighted>
-2.1112

> <Gold.Chemscore.Metal.Weighted>
-0.0000

> <Gold.Chemscore.Lipo.Weighted>
-10.0354

> <Gold.Chemscore.Internal_Hbond.Weighted>
0.0000

> <Gold.Chemscore.DEClash.Weighted>
0.6166

> <Gold.Chemscore.DEInternal.Weighted>
1.6985

> <Gold.Chemscore.Rot.Weighted>
4.9939

> <Gold.Chemscore.Internal.Correction.Weighted>
   9.000000E+99

> <Gold.Protein.RotatedTorsions>
[ 6907 6896 6895 6894 ] final  109.72 input  -60.11 | X-H torsion
[ 7974 7965 7964 7962 ] final  -60.45 input  175.53 | X-H torsion
[ 8008 7997 7996 7995 ] final -173.76 input   59.86 | X-H torsion
[ 10167 10162 10161 10158 ] final  -57.45 input  -65.29 | X-H torsion
[ 10718 10713 10712 10709 ] final   64.04 input   66.30 | X-H torsion
[ 10763 10752 10751 10750 ] final -106.46 input  -60.55 | X-H torsion
[ 11005 11000 10999 10996 ] final   56.41 input  -57.11 | X-H torsion

> <Gold.Protein.ActiveResidues>
 VAL166  LYS551  ARG553  GLY616  TRP617  ASP618  TYR619  PRO620  LYS621  CYS622 
 ASP623  PHE694  ASN695  SER759  ASP760  ASP761  ALA762  ILE779  LEU786  VAL792 
 PHE793  MET794  SER795  GLU796  ALA797  LYS798  CYS799  TRP800  GLU811  SER814 

> <Gold.Protein.RotatedAtoms>
  152.5054  133.8903  159.7390 H   0  0  0  0  0  0  0  0  0  0  0  0  # atno 6907 bound_to 6896
  150.9344  133.6721  159.2811 H   0  0  0  0  0  0  0  0  0  0  0  0  # atno 6908 bound_to 6896
  151.4054  135.0982  159.9621 H   0  0  0  0  0  0  0  0  0  0  0  0  # atno 6909 bound_to 6896
  145.8153  140.8573  143.0161 H   0  0  0  0  0  0  0  0  0  0  0  0  # atno 7974 bound_to 7965
  155.9615  140.1145  157.0891 H   0  0  0  0  0  0  0  0  0  0  0  0  # atno 8008 bound_to 7997
  154.4133  140.1181  156.5253 H   0  0  0  0  0  0  0  0  0  0  0  0  # atno 8009 bound_to 7997
  155.6714  140.3473  155.4822 H   0  0  0  0  0  0  0  0  0  0  0  0  # atno 8010 bound_to 7997
  140.6257  143.2437  151.5368 H   0  0  0  0  0  0  0  0  0  0  0  0  # atno 10167 bound_to 10162
  157.6012  130.9138  149.9794 H   0  0  0  0  0  0  0  0  0  0  0  0  # atno 10718 bound_to 10713
  154.8013  135.4711  154.0283 H   0  0  0  0  0  0  0  0  0  0  0  0  # atno 10763 bound_to 10752
  153.1786  135.6837  153.8515 H   0  0  0  0  0  0  0  0  0  0  0  0  # atno 10764 bound_to 10752
  153.8073  135.3222  155.3374 H   0  0  0  0  0  0  0  0  0  0  0  0  # atno 10765 bound_to 10752
  140.0531  134.5708  155.9240 H   0  0  0  0  0  0  0  0  0  0  0  0  # atno 11005 bound_to 11000
  144.6753  140.0455  143.7480 LP  0  0  0  0  0  0  0  0  0  0  0  0  # atno 17320 bound_to 7965
  145.9733  139.2886  143.1085 LP  0  0  0  0  0  0  0  0  0  0  0  0  # atno 17321 bound_to 7965
  139.5478  144.2475  152.1475 LP  0  0  0  0  0  0  0  0  0  0  0  0  # atno 17342 bound_to 10162
  140.1706  144.4939  150.6582 LP  0  0  0  0  0  0  0  0  0  0  0  0  # atno 17343 bound_to 10162
  156.1086  130.3651  150.0089 LP  0  0  0  0  0  0  0  0  0  0  0  0  # atno 17370 bound_to 10713
  156.8191  130.9352  151.3642 LP  0  0  0  0  0  0  0  0  0  0  0  0  # atno 17371 bound_to 10713
  141.1939  133.6581  156.5572 LP  0  0  0  0  0  0  0  0  0  0  0  0  # atno 17394 bound_to 11000
  140.3886  134.7460  157.4707 LP  0  0  0  0  0  0  0  0  0  0  0  0  # atno 17395 bound_to 11000

$$$$
