#       Name:                AV-unprocessed.smi:669
#       Creating user name   scv26
#       Creation time:       Fri Mar 27 00:21:40 2020


#       File generated by GOLD software.
#

@<TRIPOS>MOLECULE
AV-unprocessed.smi:669
    42    43     1
SMALL
NO_CHARGES


@<TRIPOS>ATOM
      1 ****        -2.4148   2.7825  -1.6449 C.3            1 S1                 0.0000
      2 ****        -1.9922   2.4718  -0.2399 C.2            1 S1                 0.0000
      3 ****        -2.0202   3.4519   0.8279 C.2            1 S1                 0.0000
      4 ****        -1.6472   3.0838   2.0720 C.2            1 S1                 0.0000
      5 ****        -1.2065   1.7231   2.3721 C.2            1 S1                 0.0000
      6 ****        -0.9028   1.3517   3.5051 O.2            1 S1                 0.0000
      7 ****        -1.1718   0.9023   1.2803 N.am           1 S1                 0.0000
      8 ****        -0.7271  -0.4973   1.3881 C.3            1 S1                 0.0000
      9 ****         0.8128  -0.7079   1.2580 C.3            1 S1                 0.0000
     10 ****         1.3934  -0.3372   2.4936 O.3            1 S1                 0.0000
     11 ****         1.1598  -2.2068   1.0891 C.3            1 S1                 0.0000
     12 ****         0.8552  -2.7413  -0.3226 C.3            1 S1                 0.0000
     13 ****         1.5518  -1.9032  -1.4102 C.3            1 S1                 0.0000
     14 ****         1.2340  -2.4317  -2.8159 C.3            1 S1                 0.0000
     15 ****         1.1745  -0.4175  -1.2660 C.3            1 S1                 0.0000
     16 ****         1.5049   0.1121   0.1407 C.3            1 S1                 0.0000
     17 ****        -1.5880   1.2703   0.0105 N.2            1 S1                 0.0000
     18 ****        -2.8306   3.7876  -1.7187 H              1 S1                 0.0000
     19 ****        -3.1765   2.0809  -1.9865 H              1 S1                 0.0000
     20 ****        -1.5665   2.7195  -2.3269 H              1 S1                 0.0000
     21 ****        -2.3426   4.4621   0.6230 H              1 S1                 0.0000
     22 ****        -1.6722   3.8135   2.8679 H              1 S1                 0.0000
     23 ****        -1.0926  -0.9435   2.3150 H              1 S1                 0.0000
     24 ****        -1.2342  -1.0619   0.6050 H              1 S1                 0.0000
     25 ****         2.3242  -0.4923   2.4476 H              1 S1                 0.0000
     26 ****         2.2229  -2.3597   1.2830 H              1 S1                 0.0000
     27 ****         0.6308  -2.8046   1.8326 H              1 S1                 0.0000
     28 ****         1.1828  -3.7793  -0.3918 H              1 S1                 0.0000
     29 ****        -0.2206  -2.7547  -0.4966 H              1 S1                 0.0000
     30 ****         2.6293  -1.9914  -1.2634 H              1 S1                 0.0000
     31 ****         0.1662  -2.3748  -3.0293 H              1 S1                 0.0000
     32 ****         1.5400  -3.4730  -2.9212 H              1 S1                 0.0000
     33 ****         1.7582  -1.8566  -3.5796 H              1 S1                 0.0000
     34 ****         1.7090   0.1746  -2.0097 H              1 S1                 0.0000
     35 ****         0.1136  -0.2855  -1.4770 H              1 S1                 0.0000
     36 ****         1.2567   1.1711   0.2139 H              1 S1                 0.0000
     37 ****         2.5866   0.0600   0.2746 H              1 S1                 0.0000
     38 ****        -0.9520   1.9925   4.2713 LP             1 S1                 0.0000
     39 ****        -0.6068   0.4092   3.6598 LP             1 S1                 0.0000
     40 ****         0.9965  -0.8848   3.2302 LP             1 S1                 0.0000
     41 ****         1.2216   0.6322   2.6693 LP             1 S1                 0.0000
     42 ****        -1.5752   0.5935  -0.7255 LP             1 S1                 0.0000
@<TRIPOS>BOND
    1    1    2 1     
    2    1   18 1     
    3    1   19 1     
    4    1   20 1     
    5    2   17 2     
    6    2    3 1     
    7    3    4 2     
    8    3   21 1     
    9    4    5 1     
   10    4   22 1     
   11    5    6 2     
   12    5    7 am    
   13    7    8 1     
   14    7   17 1     
   15    8    9 1     
   16    8   23 1     
   17    8   24 1     
   18    9   16 1     
   19    9   10 1     
   20    9   11 1     
   21   10   25 1     
   22   11   12 1     
   23   11   26 1     
   24   11   27 1     
   25   12   13 1     
   26   12   28 1     
   27   12   29 1     
   28   13   14 1     
   29   13   15 1     
   30   13   30 1     
   31   14   31 1     
   32   14   32 1     
   33   14   33 1     
   34   15   16 1     
   35   15   34 1     
   36   15   35 1     
   37   16   36 1     
   38   16   37 1     
   39    6   38 1     
   40    6   39 1     
   41   10   40 1     
   42   10   41 1     
   43   17   42 1     
@<TRIPOS>SUBSTRUCTURE
      1 S1             1
@<TRIPOS>SET
LONE_PAIRS      STATIC     ATOMS    <user>   **** ""
5 38 39 40 41 42
DONOR_HYDROGENS      STATIC     ATOMS    <user>   **** ""
1 25
ATOM$BLUE        STATIC     ATOMS    COLORGROUP SYSTEM
5 38 39 40 41 42
ATOM$RED        STATIC     ATOMS    COLORGROUP SYSTEM
1 25
