AV-unprocessed.smi:2366|AV-procd|sdf|9423|dock4
  -GOLD-   2272013 63D 1   1.00000     0.00000
 Structure written by MMmdl.
 31 32  0  0  0  0  0  0  0  0  1 V2000
  151.7291  141.5224  157.0614 O   0  0  0  0  0  0  0  0  0  0  0  0
  151.0409  142.4793  156.7040 C   0  0  0  0  0  0  0  0  0  0  0  0
  150.0374  142.4239  155.8100 N   0  0  0  0  0  0  0  0  0  0  0  0
  149.5571  141.2917  155.0996 C   0  0  0  0  0  0  0  0  0  0  0  0
  148.2128  141.3739  154.6745 C   0  0  0  0  0  0  0  0  0  0  0  0
  147.6468  140.3007  153.9605 C   0  0  0  0  0  0  0  0  0  0  0  0
  148.4400  139.1716  153.6895 C   0  0  0  0  0  0  0  0  0  0  0  0
  149.7712  139.1607  154.1466 C   0  0  0  0  0  0  0  0  0  0  0  0
  150.5533  138.0546  153.8840 O   0  0  0  0  0  0  0  0  0  0  0  0
  151.8131  137.9432  154.5404 C   0  0  0  0  0  0  0  0  0  0  0  0
  151.6696  136.9846  155.7266 C   0  0  0  0  0  0  0  0  0  0  0  0
  150.9846  137.5704  156.7079 F   0  0  0  0  0  0  0  0  0  0  0  0
  151.0354  135.8733  155.3539 F   0  0  0  0  0  0  0  0  0  0  0  0
  150.3112  140.1969  154.8339 N   0  0  0  0  0  0  0  0  0  0  0  0
  151.2063  143.7260  157.1683 N   0  0  0  0  0  0  0  0  0  0  0  0
  152.1867  144.1308  158.1236 C   0  0  0  0  0  0  0  0  0  0  0  0
  152.2025  143.4207  159.4602 C   0  0  0  0  0  0  0  0  0  0  0  0
  151.7012  144.8359  159.3716 C   0  0  0  0  0  0  0  0  0  0  0  0
  149.5631  143.2927  155.6135 H   0  0  0  0  0  0  0  0  0  0  0  0
  147.6171  142.2491  154.8904 H   0  0  0  0  0  0  0  0  0  0  0  0
  146.6207  140.3432  153.6265 H   0  0  0  0  0  0  0  0  0  0  0  0
  148.0361  138.3316  153.1438 H   0  0  0  0  0  0  0  0  0  0  0  0
  152.5546  137.5472  153.8444 H   0  0  0  0  0  0  0  0  0  0  0  0
  152.1629  138.9176  154.8860 H   0  0  0  0  0  0  0  0  0  0  0  0
  152.6398  136.6987  156.1335 H   0  0  0  0  0  0  0  0  0  0  0  0
  150.5939  144.4472  156.8171 H   0  0  0  0  0  0  0  0  0  0  0  0
  153.1545  144.4530  157.7414 H   0  0  0  0  0  0  0  0  0  0  0  0
  151.4658  142.6380  159.6312 H   0  0  0  0  0  0  0  0  0  0  0  0
  153.1705  143.2588  159.9301 H   0  0  0  0  0  0  0  0  0  0  0  0
  152.3343  145.6199  159.7825 H   0  0  0  0  0  0  0  0  0  0  0  0
  150.6305  144.9968  159.4825 H   0  0  0  0  0  0  0  0  0  0  0  0
  1  2  2  0  0  0  0
  2  3  1  0  0  0  0
  2 15  1  0  0  0  0
  3  4  1  0  0  0  0
  3 19  1  0  0  0  0
  4 14  1  0  0  0  0
  4  5  2  0  0  0  0
  5  6  1  0  0  0  0
  5 20  1  0  0  0  0
  6  7  2  0  0  0  0
  6 21  1  0  0  0  0
  7  8  1  0  0  0  0
  7 22  1  0  0  0  0
  8  9  1  0  0  0  0
  8 14  2  0  0  0  0
  9 10  1  0  0  0  0
 10 11  1  0  0  0  0
 10 23  1  0  0  0  0
 10 24  1  0  0  0  0
 11 12  1  0  0  0  0
 11 13  1  0  0  0  0
 11 25  1  0  0  0  0
 15 16  1  0  0  0  0
 15 26  1  0  0  0  0
 16 18  1  0  0  0  0
 16 17  1  0  0  0  0
 16 27  1  0  0  0  0
 17 18  1  0  0  0  0
 17 28  1  0  0  0  0
 17 29  1  0  0  0  0
 18 30  1  0  0  0  0
 18 31  1  0  0  0  0
M  END
> <s_m_source_file>
AV-unprocessed.smi

> <i_m_source_file_index>
2366

> <i_lp_mmshare_version>
43012

> <i_f3d_flags>
0

> <s_epik_input>
W0NIMl0xW0NIMl1bQ0hdMVtOSF1DKD1PKVtOSF1jMltjSF1bY0hdW2NIXWMobjIpT1tDSDJdW0NIXShGKUY=

> <s_epik_cmdline>
J2VwaWtfcHl0aG9uJywgJy1waCcsICc3LjAnLCAnLXRuJywgJzgnLCAnLW1hJywgJzIwMCcsICctbWV0YWxfYmluZGluZycsICctaW1hZScsICc8aW5maWxlLm1hZT4nLCAnLW9tYWUnLCAnPG91dGZpbGUubWFlPic=

> <r_lp_tautomer_probability>
1

> <r_epik_Ionization_Penalty>
4.14306e-05

> <r_epik_Ionization_Penalty_Charging>
0

> <r_epik_Ionization_Penalty_Neutral>
4.14306e-05

> <r_epik_State_Penalty>
-0

> <r_epik_Charging_Adjusted_Penalty>
0

> <i_epik_Tot_Q>
0

> <i_epik_Tot_abs_Q>
0

> <r_epik_Metal_State_Penalty>
-0

> <b_epik_Metal_Only>
0

> <s_lp_Force_Field>
OPLS_2005

> <r_lp_Energy>
17.3665

> <b_lp_Chiralities_Consistent>
1

> <s_lp_Variant>
AV-unprocessed.smi:2366-1

> <Gold.Version>
5.8.1

> <Gold.Id.Protein>
6NUR|6NUR_protein|mol2

> <Gold.PLP.Fitness>
41.8363

> <Gold.PLP.PLP>
-35.1339

> <Gold.PLP.part.hbond>
-2.9106

> <Gold.PLP.part.metal>
0.0000

> <Gold.PLP.part.buried>
-3.4938

> <Gold.PLP.part.nonpolar>
-31.1021

> <Gold.PLP.part.repulsive>
0.5066

> <Gold.PLP.ligand.clash>
0.0000

> <Gold.PLP.ligand.torsion>
0.6216

> <Gold.PLP.Chemscore.Hbond>
2.6279

> <Gold.PLP.Chemscore.CHOScore>
0.0000

> <Gold.PLP.Chemscore.Metal>
0.0000

> <Gold.Chemscore.Hbonds>
donor molecule, donor type, donor heavy atom, donor atom, acceptor molecule, acceptor atom, score
      L1  H     3    19       P1  8028  1.00
      L1  H    15    26       P1  8028  0.83
      P1  H  7989  7998       L1    14  1.00

> <Gold.PLP.Chemscore.Internal.Correction>
0.0619

> <Gold.Rescore>
     Score         DG    S(hbond)    S(metal)    S(lipo)     H(rot)  DE(clash)    DE(int)     intcor
     13.17     -15.23       1.86        0.00      66.70       1.66       0.09       1.97       ----

> <Gold.Chemscore.Fitness>
13.1679

> <Gold.Chemscore.DG>
-15.2291

> <Gold.Chemscore.ZeroCoef>
-5.4800

> <Gold.Chemscore.Hbond>
1.8574

> <Gold.Chemscore.Metal>
0.0000

> <Gold.Chemscore.Lipo>
66.7010

> <Gold.Chemscore.Internal_Hbond>
0.0000

> <Gold.Chemscore.DEClash>
0.0922

> <Gold.Chemscore.DEInternal>
1.9690

> <Gold.Chemscore.Rot>
1.6635

> <Gold.Chemscore.Internal.Correction>
   9.000000E+99

> <Gold.Chemscore.Hbonds>
donor molecule, donor type, donor heavy atom, donor atom, acceptor molecule, acceptor atom, score
      L1  H     3    19       P1  8028  0.97
      L1  H    15    26       P1  8028  0.73
      P1  H  7989  7998       L1    14  0.11

> <Gold.Chemscore.Hbond.Weighted>
-6.2036

> <Gold.Chemscore.Metal.Weighted>
-0.0000

> <Gold.Chemscore.Lipo.Weighted>
-7.8040

> <Gold.Chemscore.Internal_Hbond.Weighted>
0.0000

> <Gold.Chemscore.DEClash.Weighted>
0.0922

> <Gold.Chemscore.DEInternal.Weighted>
1.9690

> <Gold.Chemscore.Rot.Weighted>
4.2585

> <Gold.Chemscore.Internal.Correction.Weighted>
   9.000000E+99

> <Gold.Protein.RotatedTorsions>
[ 6907 6896 6895 6894 ] final  -82.66 input  -60.11 | X-H torsion
[ 7974 7965 7964 7962 ] final   28.07 input  175.53 | X-H torsion
[ 8008 7997 7996 7995 ] final -101.20 input   59.86 | X-H torsion
[ 10167 10162 10161 10158 ] final   17.78 input  -65.29 | X-H torsion
[ 10718 10713 10712 10709 ] final  130.15 input   66.30 | X-H torsion
[ 10763 10752 10751 10750 ] final -154.71 input  -60.55 | X-H torsion
[ 11005 11000 10999 10996 ] final   25.21 input  -57.11 | X-H torsion

> <Gold.Protein.ActiveResidues>
 VAL166  LYS551  ARG553  GLY616  TRP617  ASP618  TYR619  PRO620  LYS621  CYS622 
 ASP623  PHE694  ASN695  SER759  ASP760  ASP761  ALA762  ILE779  LEU786  VAL792 
 PHE793  MET794  SER795  GLU796  ALA797  LYS798  CYS799  TRP800  GLU811  SER814 

> <Gold.Protein.RotatedAtoms>
  150.6894  134.3630  159.4958 H   0  0  0  0  0  0  0  0  0  0  0  0  # atno 6907 bound_to 6896
  152.1457  134.9025  160.0560 H   0  0  0  0  0  0  0  0  0  0  0  0  # atno 6908 bound_to 6896
  152.0142  133.3838  159.4269 H   0  0  0  0  0  0  0  0  0  0  0  0  # atno 6909 bound_to 6896
  146.1749  139.7106  142.8941 H   0  0  0  0  0  0  0  0  0  0  0  0  # atno 7974 bound_to 7965
  154.8393  140.0436  157.1530 H   0  0  0  0  0  0  0  0  0  0  0  0  # atno 8008 bound_to 7997
  154.9065  140.3007  155.5269 H   0  0  0  0  0  0  0  0  0  0  0  0  # atno 8009 bound_to 7997
  156.2991  140.2366  156.4099 H   0  0  0  0  0  0  0  0  0  0  0  0  # atno 8010 bound_to 7997
  140.5701  143.9176  150.6706 H   0  0  0  0  0  0  0  0  0  0  0  0  # atno 10167 bound_to 10162
  157.5089  131.1096  150.9321 H   0  0  0  0  0  0  0  0  0  0  0  0  # atno 10718 bound_to 10713
  154.7839  135.3184  154.7929 H   0  0  0  0  0  0  0  0  0  0  0  0  # atno 10763 bound_to 10752
  153.8634  135.6851  153.4785 H   0  0  0  0  0  0  0  0  0  0  0  0  # atno 10764 bound_to 10752
  153.1484  135.4709  154.9539 H   0  0  0  0  0  0  0  0  0  0  0  0  # atno 10765 bound_to 10752
  140.3503  134.2236  155.7680 H   0  0  0  0  0  0  0  0  0  0  0  0  # atno 11005 bound_to 11000
  145.4238  141.0409  143.2949 LP  0  0  0  0  0  0  0  0  0  0  0  0  # atno 17320 bound_to 7965
  144.8221  139.5774  143.6982 LP  0  0  0  0  0  0  0  0  0  0  0  0  # atno 17321 bound_to 7965
  140.2650  143.3497  152.1289 LP  0  0  0  0  0  0  0  0  0  0  0  0  # atno 17342 bound_to 10162
  139.5113  144.6899  151.5789 LP  0  0  0  0  0  0  0  0  0  0  0  0  # atno 17343 bound_to 10162
  156.9968  130.5584  149.5308 LP  0  0  0  0  0  0  0  0  0  0  0  0  # atno 17370 bound_to 10713
  156.0276  130.5369  150.8448 LP  0  0  0  0  0  0  0  0  0  0  0  0  # atno 17371 bound_to 10713
  141.2014  133.7964  157.0443 LP  0  0  0  0  0  0  0  0  0  0  0  0  # atno 17394 bound_to 11000
  140.0708  134.9703  157.1465 LP  0  0  0  0  0  0  0  0  0  0  0  0  # atno 17395 bound_to 11000

$$$$
