#       Name:                AV-unprocessed.smi:3285
#       Creating user name   scv26
#       Creation time:       Fri Mar 27 18:50:26 2020


#       File generated by GOLD software.
#

@<TRIPOS>MOLECULE
AV-unprocessed.smi:3285
    48    49     1
SMALL
NO_CHARGES


@<TRIPOS>ATOM
      1 ****        -3.3023   1.9871  -2.4699 C.3            1 S1                 0.0000
      2 ****        -3.4124   2.7436  -1.1771 C.2            1 S1                 0.0000
      3 ****        -3.8377   3.9953  -1.1903 N.2            1 S1                 0.0000
      4 ****        -3.8231   4.4196   0.1417 O.3            1 S1                 0.0000
      5 ****        -3.3814   3.3948   0.9139 C.2            1 S1                 0.0000
      6 ****        -3.2886   3.6506   2.3804 C.3            1 S1                 0.0000
      7 ****        -3.1013   2.3016   0.1412 C.2            1 S1                 0.0000
      8 ****        -2.5838   0.9559   0.5719 C.3            1 S1                 0.0000
      9 ****        -1.0676   0.8461   0.3662 C.3            1 S1                 0.0000
     10 ****        -0.5702  -0.4767   0.7977 N.4            1 S1                 1.0000
     11 ****         0.8963  -0.6585   0.7189 C.3            1 S1                 0.0000
     12 ****         1.3161  -1.8644   1.5783 C.3            1 S1                 0.0000
     13 ****         2.8312  -2.1167   1.4984 C.3            1 S1                 0.0000
     14 ****         3.3172  -2.3085   0.0473 C.3            1 S1                 0.0000
     15 ****         2.8858  -3.6757  -0.5213 C.3            1 S1                 0.0000
     16 ****         2.8900  -1.0961  -0.8190 C.3            1 S1                 0.0000
     17 ****         3.3775  -1.1867  -2.2746 C.3            1 S1                 0.0000
     18 ****         1.3704  -0.8421  -0.7390 C.3            1 S1                 0.0000
     19 ****        -2.2945   2.0612  -2.8786 H              1 S1                 0.0000
     20 ****        -3.9945   2.3719  -3.2198 H              1 S1                 0.0000
     21 ****        -3.5272   0.9300  -2.3291 H              1 S1                 0.0000
     22 ****        -2.2591   3.5521   2.7242 H              1 S1                 0.0000
     23 ****        -3.9003   2.9393   2.9352 H              1 S1                 0.0000
     24 ****        -3.6323   4.6552   2.6278 H              1 S1                 0.0000
     25 ****        -2.8184   0.7741   1.6215 H              1 S1                 0.0000
     26 ****        -3.0829   0.1602   0.0177 H              1 S1                 0.0000
     27 ****        -0.8280   1.0058  -0.6850 H              1 S1                 0.0000
     28 ****        -0.5601   1.6254   0.9366 H              1 S1                 0.0000
     29 ****        -0.8398  -0.5964   1.7637 H              1 S1                 0.0000
     30 ****         1.3714   0.2305   1.1371 H              1 S1                 0.0000
     31 ****         1.0331  -1.6951   2.6180 H              1 S1                 0.0000
     32 ****         0.7767  -2.7569   1.2589 H              1 S1                 0.0000
     33 ****         3.3558  -1.2698   1.9429 H              1 S1                 0.0000
     34 ****         3.0971  -2.9842   2.1035 H              1 S1                 0.0000
     35 ****         4.4077  -2.3208   0.0774 H              1 S1                 0.0000
     36 ****         1.8064  -3.7475  -0.6504 H              1 S1                 0.0000
     37 ****         3.1905  -4.4853   0.1424 H              1 S1                 0.0000
     38 ****         3.3485  -3.8704  -1.4887 H              1 S1                 0.0000
     39 ****         3.3790  -0.2193  -0.3912 H              1 S1                 0.0000
     40 ****         2.8761  -1.9860  -2.8208 H              1 S1                 0.0000
     41 ****         4.4512  -1.3710  -2.3194 H              1 S1                 0.0000
     42 ****         3.1826  -0.2564  -2.8088 H              1 S1                 0.0000
     43 ****         0.8293  -1.6660  -1.2058 H              1 S1                 0.0000
     44 ****         1.1327   0.0463  -1.3240 H              1 S1                 0.0000
     45 ****        -1.0188  -1.1967   0.2496 H              1 S1                 0.0000
     46 ****        -4.1134   4.5293  -1.9895 LP             1 S1                 0.0000
     47 ****        -4.7465   4.6805   0.4230 LP             1 S1                 0.0000
     48 ****        -3.2107   5.2041   0.2394 LP             1 S1                 0.0000
@<TRIPOS>BOND
    1    1    2 1     
    2    1   19 1     
    3    1   20 1     
    4    1   21 1     
    5    2    7 1     
    6    2    3 2     
    7    3    4 1     
    8    4    5 1     
    9    5    6 1     
   10    5    7 2     
   11    6   22 1     
   12    6   23 1     
   13    6   24 1     
   14    7    8 1     
   15    8    9 1     
   16    8   25 1     
   17    8   26 1     
   18    9   10 1     
   19    9   27 1     
   20    9   28 1     
   21   10   11 1     
   22   10   29 1     
   23   10   45 1     
   24   11   18 1     
   25   11   12 1     
   26   11   30 1     
   27   12   13 1     
   28   12   31 1     
   29   12   32 1     
   30   13   14 1     
   31   13   33 1     
   32   13   34 1     
   33   14   15 1     
   34   14   16 1     
   35   14   35 1     
   36   15   36 1     
   37   15   37 1     
   38   15   38 1     
   39   16   17 1     
   40   16   18 1     
   41   16   39 1     
   42   17   40 1     
   43   17   41 1     
   44   17   42 1     
   45   18   43 1     
   46   18   44 1     
   47    3   46 1     
   48    4   47 1     
   49    4   48 1     
@<TRIPOS>SUBSTRUCTURE
      1 S1             1
@<TRIPOS>SET
LONE_PAIRS      STATIC     ATOMS    <user>   **** ""
3 46 47 48
DONOR_HYDROGENS      STATIC     ATOMS    <user>   **** ""
2 29 45
ATOM$BLUE        STATIC     ATOMS    COLORGROUP SYSTEM
3 46 47 48
ATOM$RED        STATIC     ATOMS    COLORGROUP SYSTEM
2 29 45
