AV-unprocessed.smi:2036|AV-procd|sdf|8275|dock1
  -GOLD-   2272010543D 1   1.00000     0.00000
 Structure written by MMmdl.
 41 42  0  0  0  0  0  0  0  0  1 V2000
  145.8118  136.9672  151.7125 C   0  0  0  0  0  0  0  0  0  0  0  0
  145.9062  137.9519  152.7265 O   0  0  0  0  0  0  0  0  0  0  0  0
  146.6936  139.0653  152.3317 C   0  0  0  0  0  0  0  0  0  0  0  0
  147.1504  139.8434  153.5680 C   0  0  0  0  0  0  0  0  0  0  0  0
  146.3209  140.3649  154.3132 O   0  0  0  0  0  0  0  0  0  0  0  0
  148.4836  139.9135  153.7375 N   0  0  0  0  0  0  0  0  0  0  0  0
  149.2211  140.5515  154.7721 C   0  0  0  0  0  0  0  0  0  0  0  0
  150.6320  140.5260  154.8853 C   0  0  0  0  0  0  0  0  0  0  0  0
  151.2422  141.2163  155.9503 C   0  0  0  0  0  0  0  0  0  0  0  0
  150.4281  141.9159  156.8640 C   0  0  0  0  0  0  0  0  0  0  0  0
  151.0324  142.6047  157.9250 N   0  0  0  0  0  0  0  0  0  0  0  0
  151.9905  141.8013  158.6714 C   0  0  0  0  0  0  0  0  0  0  0  0
  152.4655  142.5723  159.9154 C   0  0  1  0  0  0  0  0  0  0  0  0
  153.5543  141.8107  160.6780 C   0  0  0  0  0  0  0  0  0  0  0  0
  153.0039  143.8332  159.5150 O   0  0  0  0  0  0  0  0  0  0  0  0
  152.1074  144.6613  158.7688 C   0  0  2  0  0  0  0  0  0  0  0  0
  150.9926  145.2485  159.6526 C   0  0  0  0  0  0  0  0  0  0  0  0
  151.5797  143.8983  157.5368 C   0  0  0  0  0  0  0  0  0  0  0  0
  149.0790  141.9546  156.7559 N   0  0  0  0  0  0  0  0  0  0  0  0
  148.5007  141.2912  155.7329 C   0  0  0  0  0  0  0  0  0  0  0  0
  145.1971  136.1383  152.0632 H   0  0  0  0  0  0  0  0  0  0  0  0
  146.7953  136.5720  151.4544 H   0  0  0  0  0  0  0  0  0  0  0  0
  145.3489  137.3722  150.8115 H   0  0  0  0  0  0  0  0  0  0  0  0
  147.5700  138.7306  151.7745 H   0  0  0  0  0  0  0  0  0  0  0  0
  146.1153  139.7266  151.6844 H   0  0  0  0  0  0  0  0  0  0  0  0
  149.0413  139.5011  153.0038 H   0  0  0  0  0  0  0  0  0  0  0  0
  151.2586  140.0081  154.1765 H   0  0  0  0  0  0  0  0  0  0  0  0
  152.3170  141.2111  156.0582 H   0  0  0  0  0  0  0  0  0  0  0  0
  151.5292  140.8581  158.9664 H   0  0  0  0  0  0  0  0  0  0  0  0
  152.8431  141.5593  158.0348 H   0  0  0  0  0  0  0  0  0  0  0  0
  151.6248  142.7292  160.5919 H   0  0  0  0  0  0  0  0  0  0  0  0
  153.1924  140.8382  161.0121 H   0  0  0  0  0  0  0  0  0  0  0  0
  153.8734  142.3670  161.5596 H   0  0  0  0  0  0  0  0  0  0  0  0
  154.4316  141.6451  160.0521 H   0  0  0  0  0  0  0  0  0  0  0  0
  152.6991  145.5030  158.4082 H   0  0  0  0  0  0  0  0  0  0  0  0
  150.3975  145.9705  159.0932 H   0  0  0  0  0  0  0  0  0  0  0  0
  151.4130  145.7658  160.5152 H   0  0  0  0  0  0  0  0  0  0  0  0
  150.3095  144.4834  160.0208 H   0  0  0  0  0  0  0  0  0  0  0  0
  152.3965  143.7433  156.8302 H   0  0  0  0  0  0  0  0  0  0  0  0
  150.8201  144.4873  157.0211 H   0  0  0  0  0  0  0  0  0  0  0  0
  147.4234  141.3520  155.6832 H   0  0  0  0  0  0  0  0  0  0  0  0
  1  2  1  0  0  0  0
  1 21  1  0  0  0  0
  1 22  1  0  0  0  0
  1 23  1  0  0  0  0
  2  3  1  0  0  0  0
  3  4  1  0  0  0  0
  3 24  1  0  0  0  0
  3 25  1  0  0  0  0
  4  5  2  0  0  0  0
  4  6  1  0  0  0  0
  6  7  1  0  0  0  0
  6 26  1  0  0  0  0
  7 20  1  0  0  0  0
  7  8  2  0  0  0  0
  8  9  1  0  0  0  0
  8 27  1  0  0  0  0
  9 10  2  0  0  0  0
  9 28  1  0  0  0  0
 10 11  1  0  0  0  0
 10 19  1  0  0  0  0
 11 18  1  0  0  0  0
 11 12  1  0  0  0  0
 12 13  1  0  0  0  0
 12 29  1  0  0  0  0
 12 30  1  0  0  0  0
 13 14  1  0  0  0  0
 13 15  1  0  0  0  0
 13 31  1  0  0  0  0
 14 32  1  0  0  0  0
 14 33  1  0  0  0  0
 14 34  1  0  0  0  0
 15 16  1  0  0  0  0
 16 17  1  0  0  0  0
 16 18  1  0  0  0  0
 16 35  1  0  0  0  0
 17 36  1  0  0  0  0
 17 37  1  0  0  0  0
 17 38  1  0  0  0  0
 18 39  1  0  0  0  0
 18 40  1  0  0  0  0
 19 20  2  0  0  0  0
 20 41  1  0  0  0  0
M  END
> <s_m_source_file>
AV-unprocessed.smi

> <i_m_source_file_index>
2036

> <i_lp_mmshare_version>
43012

> <i_f3d_flags>
0

> <s_epik_input>
W0NIM11PW0NIMl1DKD1PKVtOSF1jMVtjSF1bY0hdYyhuW2NIXTEpTjJbQ0gyXVtDQEBIXShbQ0gzXSlPW0NAQEhdKFtDSDNdKVtDSDJdMg==

> <s_epik_cmdline>
J2VwaWtfcHl0aG9uJywgJy1waCcsICc3LjAnLCAnLXRuJywgJzgnLCAnLW1hJywgJzIwMCcsICctbWV0YWxfYmluZGluZycsICctaW1hZScsICc8aW5maWxlLm1hZT4nLCAnLW9tYWUnLCAnPG91dGZpbGUubWFlPic=

> <r_lp_tautomer_probability>
1

> <r_epik_Ionization_Penalty>
0.000662619

> <r_epik_Ionization_Penalty_Charging>
0

> <r_epik_Ionization_Penalty_Neutral>
0.000662619

> <r_epik_State_Penalty>
0.000419321

> <r_epik_Charging_Adjusted_Penalty>
0.000419321

> <i_epik_Tot_Q>
0

> <i_epik_Tot_abs_Q>
0

> <r_epik_Metal_State_Penalty>
-0

> <b_epik_Metal_Only>
0

> <s_lp_Force_Field>
OPLS_2005

> <r_lp_Energy>
28.2221

> <b_lp_Chiralities_Consistent>
1

> <s_lp_Variant>
AV-unprocessed.smi:2036-3

> <Gold.Version>
5.8.1

> <Gold.Id.Protein>
6NUR|6NUR_protein|mol2

> <Gold.PLP.Fitness>
42.2367

> <Gold.PLP.PLP>
-41.2823

> <Gold.PLP.part.hbond>
-1.0000

> <Gold.PLP.part.metal>
0.0000

> <Gold.PLP.part.buried>
-1.5793

> <Gold.PLP.part.nonpolar>
-39.0125

> <Gold.PLP.part.repulsive>
1.6956

> <Gold.PLP.ligand.clash>
0.0000

> <Gold.PLP.ligand.torsion>
0.4669

> <Gold.PLP.Chemscore.Hbond>
0.5920

> <Gold.PLP.Chemscore.CHOScore>
0.0000

> <Gold.PLP.Chemscore.Metal>
0.0000

> <Gold.Chemscore.Hbonds>
donor molecule, donor type, donor heavy atom, donor atom, acceptor molecule, acceptor atom, score
      L1  H     6    26       P1  7957  0.72

> <Gold.PLP.Chemscore.Internal.Correction>
0.1121

> <Gold.Rescore>
     Score         DG    S(hbond)    S(metal)    S(lipo)     H(rot)  DE(clash)    DE(int)     intcor
     12.12     -14.43       0.04        0.00     106.20       1.41       0.38       1.93       ----

> <Gold.Chemscore.Fitness>
12.1218

> <Gold.Chemscore.DG>
-14.4335

> <Gold.Chemscore.ZeroCoef>
-5.4800

> <Gold.Chemscore.Hbond>
0.0396

> <Gold.Chemscore.Metal>
0.0000

> <Gold.Chemscore.Lipo>
106.1950

> <Gold.Chemscore.Internal_Hbond>
0.0000

> <Gold.Chemscore.DEClash>
0.3824

> <Gold.Chemscore.DEInternal>
1.9293

> <Gold.Chemscore.Rot>
1.4077

> <Gold.Chemscore.Internal.Correction>
   9.000000E+99

> <Gold.Chemscore.Hbonds>
donor molecule, donor type, donor heavy atom, donor atom, acceptor molecule, acceptor atom, score
      L1  H     6    26       P1  7957  0.69

> <Gold.Chemscore.Hbond.Weighted>
-0.1322

> <Gold.Chemscore.Metal.Weighted>
-0.0000

> <Gold.Chemscore.Lipo.Weighted>
-12.4248

> <Gold.Chemscore.Internal_Hbond.Weighted>
0.0000

> <Gold.Chemscore.DEClash.Weighted>
0.3824

> <Gold.Chemscore.DEInternal.Weighted>
1.9293

> <Gold.Chemscore.Rot.Weighted>
3.6036

> <Gold.Chemscore.Internal.Correction.Weighted>
   9.000000E+99

> <Gold.Protein.RotatedTorsions>
[ 6907 6896 6895 6894 ] final   94.96 input  -60.11 | X-H torsion
[ 7974 7965 7964 7962 ] final  123.90 input  175.53 | X-H torsion
[ 8008 7997 7996 7995 ] final  110.48 input   59.86 | X-H torsion
[ 10167 10162 10161 10158 ] final -143.46 input  -65.29 | X-H torsion
[ 10718 10713 10712 10709 ] final   12.20 input   66.30 | X-H torsion
[ 10763 10752 10751 10750 ] final -108.81 input  -60.55 | X-H torsion
[ 11005 11000 10999 10996 ] final   98.10 input  -57.11 | X-H torsion

> <Gold.Protein.ActiveResidues>
 VAL166  LYS551  ARG553  GLY616  TRP617  ASP618  TYR619  PRO620  LYS621  CYS622 
 ASP623  PHE694  ASN695  SER759  ASP760  ASP761  ALA762  ILE779  LEU786  VAL792 
 PHE793  MET794  SER795  GLU796  ALA797  LYS798  CYS799  TRP800  GLU811  SER814 

> <Gold.Protein.RotatedAtoms>
  152.5446  134.1113  159.8359 H   0  0  0  0  0  0  0  0  0  0  0  0  # atno 6907 bound_to 6896
  151.1179  133.5118  159.2610 H   0  0  0  0  0  0  0  0  0  0  0  0  # atno 6908 bound_to 6896
  151.1811  135.0371  159.8847 H   0  0  0  0  0  0  0  0  0  0  0  0  # atno 6909 bound_to 6896
  145.0906  139.3589  143.4862 H   0  0  0  0  0  0  0  0  0  0  0  0  # atno 7974 bound_to 7965
  156.2056  140.3038  155.9620 H   0  0  0  0  0  0  0  0  0  0  0  0  # atno 8008 bound_to 7997
  155.2849  140.0439  157.3035 H   0  0  0  0  0  0  0  0  0  0  0  0  # atno 8009 bound_to 7997
  154.5628  140.2325  155.8317 H   0  0  0  0  0  0  0  0  0  0  0  0  # atno 8010 bound_to 7997
  139.7991  143.7858  152.2656 H   0  0  0  0  0  0  0  0  0  0  0  0  # atno 10167 bound_to 10162
  157.0067  130.6101  149.5703 H   0  0  0  0  0  0  0  0  0  0  0  0  # atno 10718 bound_to 10713
  154.8157  135.4624  154.0638 H   0  0  0  0  0  0  0  0  0  0  0  0  # atno 10763 bound_to 10752
  153.2032  135.6872  153.8211 H   0  0  0  0  0  0  0  0  0  0  0  0  # atno 10764 bound_to 10752
  153.7689  135.3273  155.3326 H   0  0  0  0  0  0  0  0  0  0  0  0  # atno 10765 bound_to 10752
  139.8773  134.9033  156.4406 H   0  0  0  0  0  0  0  0  0  0  0  0  # atno 11005 bound_to 11000
  146.3531  140.0739  142.8621 LP  0  0  0  0  0  0  0  0  0  0  0  0  # atno 17320 bound_to 7965
  145.1070  140.9381  143.4679 LP  0  0  0  0  0  0  0  0  0  0  0  0  # atno 17321 bound_to 7965
  139.7973  144.7387  150.9873 LP  0  0  0  0  0  0  0  0  0  0  0  0  # atno 17342 bound_to 10162
  140.7820  143.4381  151.0593 LP  0  0  0  0  0  0  0  0  0  0  0  0  # atno 17343 bound_to 10162
  156.0151  130.5245  150.8109 LP  0  0  0  0  0  0  0  0  0  0  0  0  # atno 17370 bound_to 10713
  157.5350  131.0938  150.9904 LP  0  0  0  0  0  0  0  0  0  0  0  0  # atno 17371 bound_to 10713
  140.9002  133.7785  155.9672 LP  0  0  0  0  0  0  0  0  0  0  0  0  # atno 17394 bound_to 11000
  140.8659  134.2785  157.5213 LP  0  0  0  0  0  0  0  0  0  0  0  0  # atno 17395 bound_to 11000

$$$$
