#       Name:                AV-unprocessed.smi:2027
#       Creating user name   scv26
#       Creation time:       Fri Mar 27 10:48:20 2020


#       File generated by GOLD software.
#

@<TRIPOS>MOLECULE
AV-unprocessed.smi:2027
    54    56     1
SMALL
NO_CHARGES


@<TRIPOS>ATOM
      1 ****        -5.4243   1.4078  -1.4830 C.3            1 S1                 0.0000
      2 ****        -4.3070   0.9088  -0.5827 C.ar           1 S1                 0.0000
      3 ****        -4.6361   0.4688   0.7194 C.ar           1 S1                 0.0000
      4 ****        -3.5927   0.0189   1.5198 C.ar           1 S1                 0.0000
      5 ****        -3.5893  -0.4736   2.8267 N.pl3          1 S1                 1.0000
      6 ****        -2.3161  -0.7926   3.1893 C.2            1 S1                 0.0000
      7 ****        -1.5057  -0.5095   2.1338 N.pl3          1 S1                 0.0000
      8 ****        -0.0508  -0.6681   1.9973 C.3            1 S1                 0.0000
      9 ****         0.3558  -2.1118   1.6378 C.3            1 S1                 0.0000
     10 ****        -0.2623  -2.5260   0.4351 O.3            1 S1                 0.0000
     11 ****         1.8735  -2.3837   1.5306 C.3            1 S1                 0.0000
     12 ****         2.5742  -1.6272   0.4876 N.3            1 S1                 0.0000
     13 ****         3.6357  -2.4320  -0.1110 C.3            1 S1                 0.0000
     14 ****         3.1199  -0.3605   0.9839 C.3            1 S1                 0.0000
     15 ****         3.4693   0.5891  -0.1310 C.2            1 S1                 0.0000
     16 ****         4.6811   1.3136  -0.3179 C.2            1 S1                 0.0000
     17 ****         4.6665   2.0690  -1.4044 N.2            1 S1                 0.0000
     18 ****         3.4480   1.8594  -1.9436 N.pl3          1 S1                 0.0000
     19 ****         3.0803   2.5378  -3.1678 C.3            1 S1                 0.0000
     20 ****         2.7036   0.9734  -1.1962 C.2            1 S1                 0.0000
     21 ****        -2.2590  -0.0029   1.0675 C.ar           1 S1                 0.0000
     22 ****        -1.9189   0.4244  -0.2145 C.ar           1 S1                 0.0000
     23 ****        -2.9653   0.8869  -1.0434 C.ar           1 S1                 0.0000
     24 ****        -2.6209   1.3606  -2.4453 C.3            1 S1                 0.0000
     25 ****        -6.3984   1.3066  -1.0036 H              1 S1                 0.0000
     26 ****        -5.4518   0.8396  -2.4131 H              1 S1                 0.0000
     27 ****        -5.2784   2.4611  -1.7237 H              1 S1                 0.0000
     28 ****        -5.6558   0.4813   1.0762 H              1 S1                 0.0000
     29 ****        -2.0058  -1.1992   4.1411 H              1 S1                 0.0000
     30 ****         0.3068   0.0452   1.2570 H              1 S1                 0.0000
     31 ****         0.3959  -0.3808   2.9497 H              1 S1                 0.0000
     32 ****        -0.0336  -2.7657   2.4190 H              1 S1                 0.0000
     33 ****         0.1343  -2.0523  -0.2802 H              1 S1                 0.0000
     34 ****         2.3536  -2.2185   2.4964 H              1 S1                 0.0000
     35 ****         1.9831  -3.4528   1.3402 H              1 S1                 0.0000
     36 ****         4.1314  -1.8950  -0.9203 H              1 S1                 0.0000
     37 ****         3.2312  -3.3518  -0.5348 H              1 S1                 0.0000
     38 ****         4.3901  -2.7027   0.6291 H              1 S1                 0.0000
     39 ****         2.4143   0.1231   1.6546 H              1 S1                 0.0000
     40 ****         3.9917  -0.5618   1.6081 H              1 S1                 0.0000
     41 ****         5.5674   1.3099   0.2992 H              1 S1                 0.0000
     42 ****         2.0029   2.4701  -3.3221 H              1 S1                 0.0000
     43 ****         3.5903   2.0730  -4.0120 H              1 S1                 0.0000
     44 ****         3.3633   3.5896  -3.1117 H              1 S1                 0.0000
     45 ****         1.7013   0.6885  -1.4808 H              1 S1                 0.0000
     46 ****        -0.9000   0.4035  -0.5712 H              1 S1                 0.0000
     47 ****        -1.5455   1.3295  -2.6235 H              1 S1                 0.0000
     48 ****        -2.9525   2.3880  -2.5966 H              1 S1                 0.0000
     49 ****        -3.1011   0.7267  -3.1910 H              1 S1                 0.0000
     50 ****        -4.3951  -0.5875   3.4283 H              1 S1                 0.0000
     51 ****        -1.2414  -2.3260   0.4716 LP             1 S1                 0.0000
     52 ****        -0.1273  -3.5084   0.3063 LP             1 S1                 0.0000
     53 ****         1.8949  -1.4055  -0.2120 LP             1 S1                 0.0000
     54 ****         5.3948   2.6618  -1.7483 LP             1 S1                 0.0000
@<TRIPOS>BOND
    1    1    2 1     
    2    1   25 1     
    3    1   26 1     
    4    1   27 1     
    5    2   23 ar    
    6    2    3 ar    
    7    3    4 ar    
    8    3   28 1     
    9    4   21 ar    
   10    4    5 1     
   11    5    6 2     
   12    5   50 1     
   13    6    7 1     
   14    6   29 1     
   15    7    8 1     
   16    7   21 1     
   17    8    9 1     
   18    8   30 1     
   19    8   31 1     
   20    9   10 1     
   21    9   11 1     
   22    9   32 1     
   23   10   33 1     
   24   11   12 1     
   25   11   34 1     
   26   11   35 1     
   27   12   13 1     
   28   12   14 1     
   29   13   36 1     
   30   13   37 1     
   31   13   38 1     
   32   14   15 1     
   33   14   39 1     
   34   14   40 1     
   35   15   20 2     
   36   15   16 1     
   37   16   17 2     
   38   16   41 1     
   39   17   18 1     
   40   18   19 1     
   41   18   20 1     
   42   19   42 1     
   43   19   43 1     
   44   19   44 1     
   45   20   45 1     
   46   21   22 ar    
   47   22   23 ar    
   48   22   46 1     
   49   23   24 1     
   50   24   47 1     
   51   24   48 1     
   52   24   49 1     
   53   10   51 1     
   54   10   52 1     
   55   12   53 1     
   56   17   54 1     
@<TRIPOS>SUBSTRUCTURE
      1 S1             1
@<TRIPOS>SET
LONE_PAIRS      STATIC     ATOMS    <user>   **** ""
4 51 52 53 54
DONOR_HYDROGENS      STATIC     ATOMS    <user>   **** ""
2 50 33
ATOM$BLUE        STATIC     ATOMS    COLORGROUP SYSTEM
4 51 52 53 54
ATOM$RED        STATIC     ATOMS    COLORGROUP SYSTEM
2 50 33
