AV-unprocessed.smi:1215|AV-procd|sdf|5096|dock5
  -GOLD-   22720 4143D 1   1.00000     0.00000
 Structure written by MMmdl.
 46 47  0  0  0  0  0  0  0  0  2 V2000
  151.8728  145.2464  159.4386 C   0  0  0  0  0  0  0  0  0  0  0  0
  152.3615  144.5194  158.1800 C   0  0  0  0  0  0  0  0  0  0  0  0
  151.8847  143.1510  158.1304 N   0  0  0  0  0  0  0  0  0  0  0  0
  150.9264  142.6109  157.2957 C   0  0  0  0  0  0  0  0  0  0  0  0
  150.8394  141.2911  157.6385 C   0  0  0  0  0  0  0  0  0  0  0  0
  150.0125  140.2734  157.0991 N   0  0  0  0  0  0  0  0  0  0  0  0
  149.8031  139.9953  155.8020 C   0  0  0  0  0  0  0  0  0  0  0  0
  150.3160  140.5938  154.8560 O   0  0  0  0  0  0  0  0  0  0  0  0
  148.9492  138.9728  155.6523 N   0  0  0  0  0  0  0  0  0  0  0  0
  148.5182  138.4274  154.3704 C   0  0  0  0  0  0  0  0  0  0  0  0
  147.3497  137.4361  154.5414 C   0  0  0  0  0  0  0  0  0  0  0  0
  146.8993  136.8269  153.2603 N   0  3  2  0  0  0  0  0  0  0  0  0
  146.1200  137.7862  152.4312 C   0  0  0  0  0  0  0  0  0  0  0  0
  145.8515  137.2258  151.0255 C   0  0  0  0  0  0  0  0  0  0  0  0
  145.1452  135.8684  151.0984 C   0  0  0  0  0  0  0  0  0  0  0  0
  145.9597  134.9044  151.9717 C   0  0  0  0  0  0  0  0  0  0  0  0
  146.2443  135.4850  153.3735 C   0  0  2  0  0  0  0  0  0  0  0  0
  144.9884  135.4819  154.2712 C   0  0  0  0  0  0  0  0  0  0  0  0
  151.7753  141.1016  158.6887 C   0  0  0  0  0  0  0  0  0  0  0  0
  152.4022  142.2306  158.9815 N   0  0  0  0  0  0  0  0  0  0  0  0
  152.2522  146.2679  159.4681 H   0  0  0  0  0  0  0  0  0  0  0  0
  152.2116  144.7390  160.3421 H   0  0  0  0  0  0  0  0  0  0  0  0
  150.7839  145.2956  159.4693 H   0  0  0  0  0  0  0  0  0  0  0  0
  152.0247  145.0423  157.2837 H   0  0  0  0  0  0  0  0  0  0  0  0
  153.4517  144.5103  158.1509 H   0  0  0  0  0  0  0  0  0  0  0  0
  150.4115  143.2044  156.5546 H   0  0  0  0  0  0  0  0  0  0  0  0
  149.5254  139.7012  157.7733 H   0  0  0  0  0  0  0  0  0  0  0  0
  148.5768  138.5372  156.4839 H   0  0  0  0  0  0  0  0  0  0  0  0
  148.2409  139.2370  153.6929 H   0  0  0  0  0  0  0  0  0  0  0  0
  149.3849  137.9335  153.9325 H   0  0  0  0  0  0  0  0  0  0  0  0
  147.6042  136.6601  155.2636 H   0  0  0  0  0  0  0  0  0  0  0  0
  146.5046  137.9753  154.9713 H   0  0  0  0  0  0  0  0  0  0  0  0
  145.1814  138.0350  152.9272 H   0  0  0  0  0  0  0  0  0  0  0  0
  146.6745  138.7202  152.3340 H   0  0  0  0  0  0  0  0  0  0  0  0
  145.2471  137.9298  150.4526 H   0  0  0  0  0  0  0  0  0  0  0  0
  146.7946  137.1188  150.4879 H   0  0  0  0  0  0  0  0  0  0  0  0
  144.1418  135.9914  151.5069 H   0  0  0  0  0  0  0  0  0  0  0  0
  145.0231  135.4554  150.0966 H   0  0  0  0  0  0  0  0  0  0  0  0
  145.4421  133.9480  152.0547 H   0  0  0  0  0  0  0  0  0  0  0  0
  146.9069  134.6910  151.4741 H   0  0  0  0  0  0  0  0  0  0  0  0
  146.9608  134.8033  153.8303 H   0  0  0  0  0  0  0  0  0  0  0  0
  144.5392  134.4889  154.2989 H   0  0  0  0  0  0  0  0  0  0  0  0
  144.2228  136.1720  153.9181 H   0  0  0  0  0  0  0  0  0  0  0  0
  145.2257  135.7455  155.3016 H   0  0  0  0  0  0  0  0  0  0  0  0
  152.0157  140.2027  159.2371 H   0  0  0  0  0  0  0  0  0  0  0  0
  147.7475  136.6630  152.7368 H   0  0  0  0  0  0  0  0  0  0  0  0
  1  2  1  0  0  0  0
  1 21  1  0  0  0  0
  1 22  1  0  0  0  0
  1 23  1  0  0  0  0
  2  3  1  0  0  0  0
  2 24  1  0  0  0  0
  2 25  1  0  0  0  0
  3 20  1  0  0  0  0
  3  4  1  0  0  0  0
  4  5  2  0  0  0  0
  4 26  1  0  0  0  0
  5  6  1  0  0  0  0
  5 19  1  0  0  0  0
  6  7  1  0  0  0  0
  6 27  1  0  0  0  0
  7  8  2  0  0  0  0
  7  9  1  0  0  0  0
  9 10  1  0  0  0  0
  9 28  1  0  0  0  0
 10 11  1  0  0  0  0
 10 29  1  0  0  0  0
 10 30  1  0  0  0  0
 11 12  1  0  0  0  0
 11 31  1  0  0  0  0
 11 32  1  0  0  0  0
 12 17  1  0  0  0  0
 12 13  1  0  0  0  0
 12 46  1  0  0  0  0
 13 14  1  0  0  0  0
 13 33  1  0  0  0  0
 13 34  1  0  0  0  0
 14 15  1  0  0  0  0
 14 35  1  0  0  0  0
 14 36  1  0  0  0  0
 15 16  1  0  0  0  0
 15 37  1  0  0  0  0
 15 38  1  0  0  0  0
 16 17  1  0  0  0  0
 16 39  1  0  0  0  0
 16 40  1  0  0  0  0
 17 18  1  0  0  0  0
 17 41  1  0  0  0  0
 18 42  1  0  0  0  0
 18 43  1  0  0  0  0
 18 44  1  0  0  0  0
 19 20  2  0  0  0  0
 19 45  1  0  0  0  0
M  CHG  1  12   1
M  END
> <s_m_source_file>
AV-unprocessed.smi

> <i_m_source_file_index>
1215

> <i_lp_mmshare_version>
43012

> <i_f3d_flags>
0

> <s_epik_input>
W0NIM11bQ0gyXW4xW2NIXWMoW2NIXW4xKVtOSF1DKD1PKVtOSF1bQ0gyXVtDSDJdTjJbQ0gyXVtDSDJdW0NIMl1bQ0gyXVtDQEhdMltDSDNd

> <s_epik_cmdline>
J2VwaWtfcHl0aG9uJywgJy1waCcsICc3LjAnLCAnLXRuJywgJzgnLCAnLW1hJywgJzIwMCcsICctbWV0YWxfYmluZGluZycsICctaW1hZScsICc8aW5maWxlLm1hZT4nLCAnLW9tYWUnLCAnPG91dGZpbGUubWFlPic=

> <r_lp_tautomer_probability>
1

> <r_epik_Ionization_Penalty>
0.00247187

> <r_epik_Ionization_Penalty_Charging>
0.00232067

> <r_epik_Ionization_Penalty_Neutral>
0.000151201

> <r_epik_State_Penalty>
0.00160128

> <r_epik_Charging_Adjusted_Penalty>
0.00392194

> <i_epik_Tot_Q>
1

> <i_epik_Tot_abs_Q>
1

> <r_epik_Metal_State_Penalty>
-0

> <b_epik_Metal_Only>
0

> <s_lp_Force_Field>
OPLS_2005

> <r_lp_Energy>
24.1958

> <b_lp_Chiralities_Consistent>
1

> <s_lp_Variant>
AV-unprocessed.smi:1215-3

> <Gold.Version>
5.8.1

> <Gold.Id.Protein>
6NUR|6NUR_protein|mol2

> <Gold.PLP.Fitness>
44.3261

> <Gold.PLP.PLP>
-33.8057

> <Gold.PLP.part.hbond>
-2.0000

> <Gold.PLP.part.metal>
0.0000

> <Gold.PLP.part.buried>
-1.0849

> <Gold.PLP.part.nonpolar>
-31.8596

> <Gold.PLP.part.repulsive>
0.1219

> <Gold.PLP.ligand.clash>
0.0000

> <Gold.PLP.ligand.torsion>
0.7744

> <Gold.PLP.Chemscore.Hbond>
3.0000

> <Gold.PLP.Chemscore.CHOScore>
1.0000

> <Gold.PLP.Chemscore.Metal>
0.0000

> <Gold.Chemscore.Hbonds>
donor molecule, donor type, donor heavy atom, donor atom, acceptor molecule, acceptor atom, score
      L1  H    12    46       P1  7948  2.00
      P1  H  7989  7998       L1     8  0.93
      L1  C     4    26       P1  8028  1.00

> <Gold.PLP.Chemscore.Internal.Correction>
0.0692

> <Gold.Rescore>
     Score         DG    S(hbond)    S(metal)    S(lipo)     H(rot)  DE(clash)    DE(int)     intcor
     16.17     -17.64       1.97        0.00      82.52       1.59       0.71       0.76       ----

> <Gold.Chemscore.Fitness>
16.1679

> <Gold.Chemscore.DG>
-17.6378

> <Gold.Chemscore.ZeroCoef>
-5.4800

> <Gold.Chemscore.Hbond>
1.9686

> <Gold.Chemscore.Metal>
0.0000

> <Gold.Chemscore.Lipo>
82.5242

> <Gold.Chemscore.Internal_Hbond>
0.0000

> <Gold.Chemscore.DEClash>
0.7102

> <Gold.Chemscore.DEInternal>
0.7597

> <Gold.Chemscore.Rot>
1.5909

> <Gold.Chemscore.Internal.Correction>
   9.000000E+99

> <Gold.Chemscore.Hbonds>
donor molecule, donor type, donor heavy atom, donor atom, acceptor molecule, acceptor atom, score
      L1  H    12    46       P1  7948  0.95
      P1  H  7989  7998       L1     8  0.89

> <Gold.Chemscore.Hbond.Weighted>
-6.5753

> <Gold.Chemscore.Metal.Weighted>
-0.0000

> <Gold.Chemscore.Lipo.Weighted>
-9.6553

> <Gold.Chemscore.Internal_Hbond.Weighted>
0.0000

> <Gold.Chemscore.DEClash.Weighted>
0.7102

> <Gold.Chemscore.DEInternal.Weighted>
0.7597

> <Gold.Chemscore.Rot.Weighted>
4.0728

> <Gold.Chemscore.Internal.Correction.Weighted>
   9.000000E+99

> <Gold.Protein.RotatedTorsions>
[ 6907 6896 6895 6894 ] final  -20.53 input  -60.11 | X-H torsion
[ 7974 7965 7964 7962 ] final -142.10 input  175.53 | X-H torsion
[ 8008 7997 7996 7995 ] final  -87.71 input   59.86 | X-H torsion
[ 10167 10162 10161 10158 ] final  139.97 input  -65.29 | X-H torsion
[ 10718 10713 10712 10709 ] final  156.95 input   66.30 | X-H torsion
[ 10763 10752 10751 10750 ] final -161.74 input  -60.55 | X-H torsion
[ 11005 11000 10999 10996 ] final  109.53 input  -57.11 | X-H torsion

> <Gold.Protein.ActiveResidues>
 VAL166  LYS551  ARG553  GLY616  TRP617  ASP618  TYR619  PRO620  LYS621  CYS622 
 ASP623  PHE694  ASN695  SER759  ASP760  ASP761  ALA762  ILE779  LEU786  VAL792 
 PHE793  MET794  SER795  GLU796  ALA797  LYS798  CYS799  TRP800  GLU811  SER814 

> <Gold.Protein.RotatedAtoms>
  151.2468  135.0608  159.9046 H   0  0  0  0  0  0  0  0  0  0  0  0  # atno 6907 bound_to 6896
  152.5385  134.0375  159.8062 H   0  0  0  0  0  0  0  0  0  0  0  0  # atno 6908 bound_to 6896
  151.0577  133.5521  159.2668 H   0  0  0  0  0  0  0  0  0  0  0  0  # atno 6909 bound_to 6896
  144.8469  140.6000  143.5415 H   0  0  0  0  0  0  0  0  0  0  0  0  # atno 7974 bound_to 7965
  154.6663  140.0562  157.0117 H   0  0  0  0  0  0  0  0  0  0  0  0  # atno 8008 bound_to 7997
  155.1154  140.3242  155.4492 H   0  0  0  0  0  0  0  0  0  0  0  0  # atno 8009 bound_to 7997
  156.2639  140.2007  156.6277 H   0  0  0  0  0  0  0  0  0  0  0  0  # atno 8010 bound_to 7997
  139.5062  144.6262  151.5930 H   0  0  0  0  0  0  0  0  0  0  0  0  # atno 10167 bound_to 10162
  157.1981  131.0670  151.2041 H   0  0  0  0  0  0  0  0  0  0  0  0  # atno 10718 bound_to 10713
  154.7276  135.3039  154.8944 H   0  0  0  0  0  0  0  0  0  0  0  0  # atno 10763 bound_to 10752
  153.9797  135.6732  153.4754 H   0  0  0  0  0  0  0  0  0  0  0  0  # atno 10764 bound_to 10752
  153.0889  135.4969  154.8571 H   0  0  0  0  0  0  0  0  0  0  0  0  # atno 10765 bound_to 10752
  139.8864  134.9460  156.6139 H   0  0  0  0  0  0  0  0  0  0  0  0  # atno 11005 bound_to 11000
  145.4578  139.1516  143.3883 LP  0  0  0  0  0  0  0  0  0  0  0  0  # atno 17320 bound_to 7965
  146.2752  140.4707  142.8798 LP  0  0  0  0  0  0  0  0  0  0  0  0  # atno 17321 bound_to 7965
  140.5980  143.9661  150.6367 LP  0  0  0  0  0  0  0  0  0  0  0  0  # atno 17342 bound_to 10162
  140.2863  143.3354  152.1104 LP  0  0  0  0  0  0  0  0  0  0  0  0  # atno 17343 bound_to 10162
  157.3794  130.7223  149.6620 LP  0  0  0  0  0  0  0  0  0  0  0  0  # atno 17370 bound_to 10713
  155.9703  130.4176  150.4290 LP  0  0  0  0  0  0  0  0  0  0  0  0  # atno 17371 bound_to 10713
  140.7790  133.8675  155.8552 LP  0  0  0  0  0  0  0  0  0  0  0  0  # atno 17394 bound_to 11000
  140.9776  134.1448  157.4522 LP  0  0  0  0  0  0  0  0  0  0  0  0  # atno 17395 bound_to 11000

$$$$
