#       Name:                AV-unprocessed.smi:75
#       Creating user name   scv26
#       Creation time:       Thu Mar 26 17:10:53 2020


#       File generated by GOLD software.
#

@<TRIPOS>MOLECULE
AV-unprocessed.smi:75
    63    66     1
SMALL
NO_CHARGES


@<TRIPOS>ATOM
      1 ****        -2.0028  -0.3736   3.2958 N.am           1 S1                 0.0000
      2 ****        -2.1970   0.8101   2.7092 C.2            1 S1                 0.0000
      3 ****        -1.3186   1.6680   2.6578 O.2            1 S1                 0.0000
      4 ****        -3.5869   1.0776   2.1214 C.3            1 S1                 0.0000
      5 ****        -3.8704   0.3782   0.7618 C.3            1 S1                 0.0000
      6 ****        -5.3923   0.1517   0.6175 C.3            1 S1                 0.0000
      7 ****        -5.6912  -0.4877  -0.6175 O.3            1 S1                 0.0000
      8 ****        -5.3009   0.3078  -1.7284 C.3            1 S1                 0.0000
      9 ****        -3.7811   0.5100  -1.6827 C.3            1 S1                 0.0000
     10 ****        -3.3840   1.1158  -0.4153 N.3            1 S1                 0.0000
     11 ****        -2.0742   1.4447  -0.4428 C.ar           1 S1                 0.0000
     12 ****        -1.7716   2.7641  -0.5092 N.ar           1 S1                 0.0000
     13 ****        -0.4935   3.1537  -0.5320 C.ar           1 S1                 0.0000
     14 ****         0.6099   2.4027  -0.5030 N.ar           1 S1                 0.0000
     15 ****         0.3066   1.0736  -0.4451 C.ar           1 S1                 0.0000
     16 ****        -0.9999   0.5105  -0.4172 C.ar           1 S1                 0.0000
     17 ****        -0.9196  -0.8755  -0.3589 N.2            1 S1                 0.0000
     18 ****         0.3626  -1.1182  -0.3488 C.2            1 S1                 0.0000
     19 ****         1.1730  -0.0056  -0.3984 N.pl3          1 S1                 0.0000
     20 ****         2.6080   0.0107  -0.4032 C.3            1 S1                 0.0000
     21 ****         3.3993  -0.8050  -1.4283 C.3            1 S1                 0.0000
     22 ****         4.5073  -1.0312  -0.3724 C.3            1 S1                 0.0000
     23 ****         5.1466  -2.4322  -0.3067 C.3            1 S1                 0.0000
     24 ****         4.1827  -3.4653  -0.2524 O.3            1 S1                 0.0000
     25 ****         5.6567  -0.0061  -0.3937 C.3            1 S1                 0.0000
     26 ****         6.3973  -0.0808  -1.5951 O.3            1 S1                 0.0000
     27 ****         3.4095  -0.7257   0.6736 C.3            1 S1                 0.0000
     28 ****        -1.1015  -0.5927   3.6949 H              1 S1                 0.0000
     29 ****        -2.7546  -1.0464   3.3376 H              1 S1                 0.0000
     30 ****        -4.3064   0.7358   2.8670 H              1 S1                 0.0000
     31 ****        -3.7482   2.1531   2.0326 H              1 S1                 0.0000
     32 ****        -3.3965  -0.6043   0.7632 H              1 S1                 0.0000
     33 ****        -5.7579  -0.4828   1.4253 H              1 S1                 0.0000
     34 ****        -5.9356   1.0959   0.6869 H              1 S1                 0.0000
     35 ****        -5.5852  -0.2014  -2.6493 H              1 S1                 0.0000
     36 ****        -5.8252   1.2648  -1.7149 H              1 S1                 0.0000
     37 ****        -3.2820  -0.4520  -1.8060 H              1 S1                 0.0000
     38 ****        -3.4689   1.1434  -2.5146 H              1 S1                 0.0000
     39 ****        -0.3310   4.2202  -0.5785 H              1 S1                 0.0000
     40 ****         0.7549  -2.1240  -0.3053 H              1 S1                 0.0000
     41 ****         2.9133   1.0575  -0.4446 H              1 S1                 0.0000
     42 ****         2.8848  -1.7204  -1.7233 H              1 S1                 0.0000
     43 ****         3.7061  -0.2370  -2.3069 H              1 S1                 0.0000
     44 ****         5.7773  -2.6184  -1.1764 H              1 S1                 0.0000
     45 ****         5.7866  -2.5252   0.5714 H              1 S1                 0.0000
     46 ****         4.6340  -4.2952  -0.2232 H              1 S1                 0.0000
     47 ****         5.2816   1.0130  -0.2977 H              1 S1                 0.0000
     48 ****         6.3356  -0.1602   0.4459 H              1 S1                 0.0000
     49 ****         5.8175   0.1116  -2.3163 H              1 S1                 0.0000
     50 ****         3.7309  -0.0935   1.5020 H              1 S1                 0.0000
     51 ****         2.8948  -1.6127   1.0452 H              1 S1                 0.0000
     52 ****        -0.4221   1.4906   3.0638 LP             1 S1                 0.0000
     53 ****        -1.5003   2.5434   2.2100 LP             1 S1                 0.0000
     54 ****        -6.6762  -0.6528  -0.6671 LP             1 S1                 0.0000
     55 ****        -5.2046  -1.3605  -0.6568 LP             1 S1                 0.0000
     56 ****        -3.8600   1.9877  -0.3002 LP             1 S1                 0.0000
     57 ****        -2.5034   3.4448  -0.5411 LP             1 S1                 0.0000
     58 ****         1.5406   2.7679  -0.5214 LP             1 S1                 0.0000
     59 ****        -1.6709  -1.5348  -0.3311 LP             1 S1                 0.0000
     60 ****         3.6004  -3.4264  -1.0644 LP             1 S1                 0.0000
     61 ****         3.6196  -3.3586   0.5670 LP             1 S1                 0.0000
     62 ****         6.7753  -1.0004  -1.7020 LP             1 S1                 0.0000
     63 ****         7.1426   0.5856  -1.5742 LP             1 S1                 0.0000
@<TRIPOS>BOND
    1    1    2 am    
    2    1   28 1     
    3    1   29 1     
    4    2    3 2     
    5    2    4 1     
    6    4    5 1     
    7    4   30 1     
    8    4   31 1     
    9    5   10 1     
   10    5    6 1     
   11    5   32 1     
   12    6    7 1     
   13    6   33 1     
   14    6   34 1     
   15    7    8 1     
   16    8    9 1     
   17    8   35 1     
   18    8   36 1     
   19    9   10 1     
   20    9   37 1     
   21    9   38 1     
   22   10   11 1     
   23   11   16 ar    
   24   11   12 ar    
   25   12   13 ar    
   26   13   14 ar    
   27   13   39 1     
   28   14   15 ar    
   29   15   19 1     
   30   15   16 ar    
   31   16   17 1     
   32   17   18 2     
   33   18   19 1     
   34   18   40 1     
   35   19   20 1     
   36   20   27 1     
   37   20   21 1     
   38   20   41 1     
   39   21   22 1     
   40   21   42 1     
   41   21   43 1     
   42   22   23 1     
   43   22   25 1     
   44   22   27 1     
   45   23   24 1     
   46   23   44 1     
   47   23   45 1     
   48   24   46 1     
   49   25   26 1     
   50   25   47 1     
   51   25   48 1     
   52   26   49 1     
   53   27   50 1     
   54   27   51 1     
   55    3   52 1     
   56    3   53 1     
   57    7   54 1     
   58    7   55 1     
   59   10   56 1     
   60   12   57 1     
   61   14   58 1     
   62   17   59 1     
   63   24   60 1     
   64   24   61 1     
   65   26   62 1     
   66   26   63 1     
@<TRIPOS>SUBSTRUCTURE
      1 S1             1
@<TRIPOS>SET
LONE_PAIRS      STATIC     ATOMS    <user>   **** ""
12 52 53 54 55 56 57 58 59 60 61 62 63
DONOR_HYDROGENS      STATIC     ATOMS    <user>   **** ""
4 28 29 46 49
ATOM$BLUE        STATIC     ATOMS    COLORGROUP SYSTEM
12 52 53 54 55 56 57 58 59 60 61 62 63
ATOM$RED        STATIC     ATOMS    COLORGROUP SYSTEM
4 28 29 46 49
