AV-unprocessed.smi:283|AV-procd|sdf|2130|dock7
  -GOLD-   2262021443D 1   1.00000     0.00000
 Structure written by MMmdl.
 48 51  0  0  0  0  0  0  0  0  1 V2000
  147.5694  136.5107  163.0153 C   0  0  0  0  0  0  0  0  0  0  0  0
  146.8509  135.8075  161.8494 C   0  0  1  0  0  0  0  0  0  0  0  0
  147.5297  134.5658  161.4799 N   0  0  0  0  0  0  0  0  0  0  0  0
  147.9459  134.3305  160.2158 C   0  0  0  0  0  0  0  0  0  0  0  0
  148.2068  133.0706  159.7790 N   0  0  0  0  0  0  0  0  0  0  0  0
  148.6229  132.8701  158.5251 C   0  0  0  0  0  0  0  0  0  0  0  0
  148.8398  133.7709  157.5638 N   0  0  0  0  0  0  0  0  0  0  0  0
  148.5825  135.0387  157.9988 C   0  0  0  0  0  0  0  0  0  0  0  0
  148.1396  135.3980  159.3017 C   0  0  0  0  0  0  0  0  0  0  0  0
  147.9951  136.7757  159.3844 N   0  0  0  0  0  0  0  0  0  0  0  0
  148.3423  137.2012  158.1996 C   0  0  0  0  0  0  0  0  0  0  0  0
  148.6930  136.2187  157.2936 N   0  0  0  0  0  0  0  0  0  0  0  0
  149.1703  136.3371  155.8737 C   0  0  2  0  0  0  0  0  0  0  0  0
  150.3566  137.0686  155.8930 O   0  0  0  0  0  0  0  0  0  0  0  0
  150.0708  138.4421  155.6621 C   0  0  1  0  0  0  0  0  0  0  0  0
  151.3422  139.2169  155.2698 C   0  0  0  0  0  0  0  0  0  0  0  0
  151.0174  140.5539  154.9538 O   0  0  0  0  0  0  0  0  0  0  0  0
  148.9749  138.3629  154.5879 C   0  0  1  0  0  0  0  0  0  0  0  0
  149.5498  138.2531  153.2954 O   0  0  0  0  0  0  0  0  0  0  0  0
  148.1754  137.1167  154.9903 C   0  0  1  0  0  0  0  0  0  0  0  0
  147.7226  136.3647  153.8797 O   0  0  0  0  0  0  0  0  0  0  0  0
  145.3804  135.5879  162.2012 C   0  0  0  0  0  0  0  0  0  0  0  0
  144.5026  136.6944  162.2872 C   0  0  0  0  0  0  0  0  0  0  0  0
  143.1435  136.5107  162.6039 C   0  0  0  0  0  0  0  0  0  0  0  0
  142.6439  135.2162  162.8322 C   0  0  0  0  0  0  0  0  0  0  0  0
  143.5040  134.1069  162.7368 C   0  0  0  0  0  0  0  0  0  0  0  0
  144.8656  134.2844  162.4189 C   0  0  0  0  0  0  0  0  0  0  0  0
  145.8687  132.8811  162.2958 Cl  0  0  0  0  0  0  0  0  0  0  0  0
  149.3466  135.3135  155.5417 H   0  0  0  0  0  0  0  0  0  0  0  0
  149.6413  138.8794  156.5642 H   0  0  0  0  0  0  0  0  0  0  0  0
  148.3494  139.2561  154.5966 H   0  0  0  0  0  0  0  0  0  0  0  0
  147.2985  137.4038  155.5691 H   0  0  0  0  0  0  0  0  0  0  0  0
  147.0869  137.4585  163.2552 H   0  0  0  0  0  0  0  0  0  0  0  0
  148.6106  136.7298  162.7802 H   0  0  0  0  0  0  0  0  0  0  0  0
  147.5568  135.8959  163.9158 H   0  0  0  0  0  0  0  0  0  0  0  0
  146.8861  136.4571  160.9759 H   0  0  0  0  0  0  0  0  0  0  0  0
  147.7168  133.9300  162.2417 H   0  0  0  0  0  0  0  0  0  0  0  0
  148.8087  131.8415  158.2535 H   0  0  0  0  0  0  0  0  0  0  0  0
  148.3472  138.2548  157.9634 H   0  0  0  0  0  0  0  0  0  0  0  0
  152.0881  139.1902  156.0648 H   0  0  0  0  0  0  0  0  0  0  0  0
  151.7947  138.7730  154.3826 H   0  0  0  0  0  0  0  0  0  0  0  0
  150.4785  140.9050  155.6461 H   0  0  0  0  0  0  0  0  0  0  0  0
  149.2312  137.4592  152.8935 H   0  0  0  0  0  0  0  0  0  0  0  0
  148.4414  136.2581  153.2754 H   0  0  0  0  0  0  0  0  0  0  0  0
  144.8639  137.6959  162.1063 H   0  0  0  0  0  0  0  0  0  0  0  0
  142.4839  137.3635  162.6688 H   0  0  0  0  0  0  0  0  0  0  0  0
  141.6012  135.0734  163.0746 H   0  0  0  0  0  0  0  0  0  0  0  0
  143.1149  133.1134  162.9045 H   0  0  0  0  0  0  0  0  0  0  0  0
  1  2  1  0  0  0  0
  1 33  1  0  0  0  0
  1 34  1  0  0  0  0
  1 35  1  0  0  0  0
  2  3  1  0  0  0  0
  2 22  1  0  0  0  0
  2 36  1  0  0  0  0
  3  4  1  0  0  0  0
  3 37  1  0  0  0  0
  4  9  1  0  0  0  0
  4  5  2  0  0  0  0
  5  6  1  0  0  0  0
  6  7  2  0  0  0  0
  6 38  1  0  0  0  0
  7  8  1  0  0  0  0
  8 12  1  0  0  0  0
  8  9  2  0  0  0  0
  9 10  1  0  0  0  0
 10 11  2  0  0  0  0
 11 12  1  0  0  0  0
 11 39  1  0  0  0  0
 12 13  1  0  0  0  0
 13 29  1  0  0  0  0
 13 20  1  0  0  0  0
 13 14  1  0  0  0  0
 14 15  1  0  0  0  0
 15 30  1  0  0  0  0
 15 16  1  0  0  0  0
 15 18  1  0  0  0  0
 16 17  1  0  0  0  0
 16 40  1  0  0  0  0
 16 41  1  0  0  0  0
 17 42  1  0  0  0  0
 18 31  1  0  0  0  0
 18 19  1  0  0  0  0
 18 20  1  0  0  0  0
 19 43  1  0  0  0  0
 20 32  1  0  0  0  0
 20 21  1  0  0  0  0
 21 44  1  0  0  0  0
 22 27  1  0  0  0  0
 22 23  2  0  0  0  0
 23 24  1  0  0  0  0
 23 45  1  0  0  0  0
 24 25  2  0  0  0  0
 24 46  1  0  0  0  0
 25 26  1  0  0  0  0
 25 47  1  0  0  0  0
 26 27  2  0  0  0  0
 26 48  1  0  0  0  0
 27 28  1  0  0  0  0
M  END
> <s_m_source_file>
AV-unprocessed.smi

> <i_m_source_file_index>
283

> <i_lp_mmshare_version>
43012

> <i_f3d_flags>
0

> <s_epik_input>
Q2xjMVtjSF1bY0hdW2NIXVtjSF1jMVtDQEhdKFtDSDNdKVtOSF1jKG5bY0hdbjIpYyhjMjMpbltjSF1uM1tDQEBIXTRPW0NASF0oW0NIMl1bT0hdKVtDQEBIXShbT0hdKVtDQEhdNFtPSF0=

> <s_epik_cmdline>
J2VwaWtfcHl0aG9uJywgJy1waCcsICc3LjAnLCAnLXRuJywgJzgnLCAnLW1hJywgJzIwMCcsICctbWV0YWxfYmluZGluZycsICctaW1hZScsICc8aW5maWxlLm1hZT4nLCAnLW9tYWUnLCAnPG91dGZpbGUubWFlPic=

> <r_lp_tautomer_probability>
1

> <r_epik_Ionization_Penalty>
0.000266407

> <r_epik_Ionization_Penalty_Charging>
0

> <r_epik_Ionization_Penalty_Neutral>
0.000266407

> <r_epik_State_Penalty>
-0

> <r_epik_Charging_Adjusted_Penalty>
0

> <i_epik_Tot_Q>
0

> <i_epik_Tot_abs_Q>
0

> <r_epik_Metal_State_Penalty>
-0

> <b_epik_Metal_Only>
0

> <s_epik_Chemistry_Notes>
This compound contains an acetal/aminal-like group ( X-CH(R)-Y where X, Y are N, S, or O) that may be acid/base labile, releasing an aldehyde.

> <s_lp_Force_Field>
OPLS_2005

> <r_lp_Energy>
48.0921

> <b_lp_Chiralities_Consistent>
1

> <s_lp_Variant>
AV-unprocessed.smi:283-6

> <Gold.Version>
5.8.1

> <Gold.Id.Protein>
6NUR|6NUR_protein|mol2

> <Gold.PLP.Fitness>
48.4668

> <Gold.PLP.PLP>
-40.4169

> <Gold.PLP.part.hbond>
-3.8530

> <Gold.PLP.part.metal>
0.0000

> <Gold.PLP.part.buried>
-8.1822

> <Gold.PLP.part.nonpolar>
-28.7491

> <Gold.PLP.part.repulsive>
0.0977

> <Gold.PLP.ligand.clash>
0.0000

> <Gold.PLP.ligand.torsion>
0.4159

> <Gold.PLP.Chemscore.Hbond>
2.9280

> <Gold.PLP.Chemscore.CHOScore>
0.0000

> <Gold.PLP.Chemscore.Metal>
0.0000

> <Gold.Chemscore.Hbonds>
donor molecule, donor type, donor heavy atom, donor atom, acceptor molecule, acceptor atom, score
      L1  H    19    43       P1  7948  1.00
      L1  H    21    44       P1  7948  0.93
      P1  H  7989  7998       L1    17  0.99

> <Gold.PLP.Chemscore.Internal.Correction>
0.0978

> <Gold.Rescore>
     Score         DG    S(hbond)    S(metal)    S(lipo)     H(rot)  DE(clash)    DE(int)     intcor
     11.56     -15.02       2.95        0.00      87.01       4.10       0.06       3.40       ----

> <Gold.Chemscore.Fitness>
11.5579

> <Gold.Chemscore.DG>
-15.0169

> <Gold.Chemscore.ZeroCoef>
-5.4800

> <Gold.Chemscore.Hbond>
2.9475

> <Gold.Chemscore.Metal>
0.0000

> <Gold.Chemscore.Lipo>
87.0091

> <Gold.Chemscore.Internal_Hbond>
0.0000

> <Gold.Chemscore.DEClash>
0.0580

> <Gold.Chemscore.DEInternal>
3.4010

> <Gold.Chemscore.Rot>
4.0968

> <Gold.Chemscore.Internal.Correction>
   9.000000E+99

> <Gold.Chemscore.Hbonds>
donor molecule, donor type, donor heavy atom, donor atom, acceptor molecule, acceptor atom, score
      L1  H    19    43       P1  7948  0.96
      L1  H    21    44       P1  7948  0.84
      P1  H  7989  7998       L1    17  0.61

> <Gold.Chemscore.Hbond.Weighted>
-9.8447

> <Gold.Chemscore.Metal.Weighted>
-0.0000

> <Gold.Chemscore.Lipo.Weighted>
-10.1801

> <Gold.Chemscore.Internal_Hbond.Weighted>
0.0000

> <Gold.Chemscore.DEClash.Weighted>
0.0580

> <Gold.Chemscore.DEInternal.Weighted>
3.4010

> <Gold.Chemscore.Rot.Weighted>
10.4879

> <Gold.Chemscore.Internal.Correction.Weighted>
   9.000000E+99

> <Gold.Protein.RotatedTorsions>
[ 6907 6896 6895 6894 ] final -112.92 input  -60.11 | X-H torsion
[ 7974 7965 7964 7962 ] final  122.61 input  175.53 | X-H torsion
[ 8008 7997 7996 7995 ] final -103.05 input   59.86 | X-H torsion
[ 10167 10162 10161 10158 ] final -113.92 input  -65.29 | X-H torsion
[ 10718 10713 10712 10709 ] final -172.09 input   66.30 | X-H torsion
[ 10763 10752 10751 10750 ] final  -64.58 input  -60.55 | X-H torsion
[ 11005 11000 10999 10996 ] final   20.76 input  -57.11 | X-H torsion

> <Gold.Protein.ActiveResidues>
 VAL166  LYS551  ARG553  GLY616  TRP617  ASP618  TYR619  PRO620  LYS621  CYS622 
 ASP623  PHE694  ASN695  SER759  ASP760  ASP761  ALA762  ILE779  LEU786  VAL792 
 PHE793  MET794  SER795  GLU796  ALA797  LYS798  CYS799  TRP800  GLU811  SER814 

> <Gold.Protein.RotatedAtoms>
  150.7792  133.9019  159.3343 H   0  0  0  0  0  0  0  0  0  0  0  0  # atno 6907 bound_to 6896
  151.6886  135.0948  160.0239 H   0  0  0  0  0  0  0  0  0  0  0  0  # atno 6908 bound_to 6896
  152.3838  133.6545  159.6218 H   0  0  0  0  0  0  0  0  0  0  0  0  # atno 6909 bound_to 6896
  145.1056  139.3488  143.4789 H   0  0  0  0  0  0  0  0  0  0  0  0  # atno 7974 bound_to 7965
  154.8654  140.0425  157.1691 H   0  0  0  0  0  0  0  0  0  0  0  0  # atno 8008 bound_to 7997
  154.8795  140.2970  155.5413 H   0  0  0  0  0  0  0  0  0  0  0  0  # atno 8009 bound_to 7997
  156.2999  140.2414  156.3796 H   0  0  0  0  0  0  0  0  0  0  0  0  # atno 8010 bound_to 7997
  140.1066  143.4565  152.1779 H   0  0  0  0  0  0  0  0  0  0  0  0  # atno 10167 bound_to 10162
  156.7504  130.9376  151.3114 H   0  0  0  0  0  0  0  0  0  0  0  0  # atno 10718 bound_to 10713
  154.3323  135.6174  153.5557 H   0  0  0  0  0  0  0  0  0  0  0  0  # atno 10763 bound_to 10752
  152.9810  135.5749  154.4948 H   0  0  0  0  0  0  0  0  0  0  0  0  # atno 10764 bound_to 10752
  154.4636  135.2857  155.1671 H   0  0  0  0  0  0  0  0  0  0  0  0  # atno 10765 bound_to 10752
  140.3990  134.1738  155.7663 H   0  0  0  0  0  0  0  0  0  0  0  0  # atno 11005 bound_to 11000
  146.3528  140.0952  142.8610 LP  0  0  0  0  0  0  0  0  0  0  0  0  # atno 17320 bound_to 7965
  145.0906  140.9281  143.4771 LP  0  0  0  0  0  0  0  0  0  0  0  0  # atno 17321 bound_to 7965
  139.5642  144.7425  151.4070 LP  0  0  0  0  0  0  0  0  0  0  0  0  # atno 17342 bound_to 10162
  140.6948  143.7774  150.7310 LP  0  0  0  0  0  0  0  0  0  0  0  0  # atno 17343 bound_to 10162
  157.6779  130.9112  150.0196 LP  0  0  0  0  0  0  0  0  0  0  0  0  # atno 17370 bound_to 10713
  156.1405  130.3642  149.9590 LP  0  0  0  0  0  0  0  0  0  0  0  0  # atno 17371 bound_to 10713
  141.1863  133.8304  157.1072 LP  0  0  0  0  0  0  0  0  0  0  0  0  # atno 17394 bound_to 11000
  140.0350  134.9882  157.0853 LP  0  0  0  0  0  0  0  0  0  0  0  0  # atno 17395 bound_to 11000

$$$$
