AV-unprocessed.smi:3029|AV-procd|sdf|11525|dock3
  -GOLD-   2272016463D 1   1.00000     0.00000
 Structure written by MMmdl.
 42 43  0  0  0  0  0  0  0  0  4 V2000
  150.3522  133.1955  157.3921 O   0  0  0  0  0  0  0  0  0  0  0  0
  150.7448  134.2977  157.0107 C   0  0  0  0  0  0  0  0  0  0  0  0
  151.6591  135.1192  157.8104 C   0  0  0  0  0  0  0  0  0  0  0  0
  152.0669  136.3344  157.3947 C   0  0  0  0  0  0  0  0  0  0  0  0
  151.6068  136.8708  156.1286 C   0  0  0  0  0  0  0  0  0  0  0  0
  152.0145  138.1851  155.6847 N   0  3  0  0  0  0  0  0  0  0  0  0
  153.0177  138.6937  156.1761 O   0  0  0  0  0  0  0  0  0  0  0  0
  151.3458  138.7493  154.8252 O   0  5  0  0  0  0  0  0  0  0  0  0
  150.7763  136.1089  155.3901 C   0  0  0  0  0  0  0  0  0  0  0  0
  150.3485  134.8367  155.8182 N   0  0  0  0  0  0  0  0  0  0  0  0
  149.4204  134.1069  154.9388 C   0  0  0  0  0  0  0  0  0  0  0  0
  147.9897  134.6789  154.9852 C   0  0  0  0  0  0  0  0  0  0  0  0
  147.4340  134.8728  153.6282 N   0  3  0  0  0  0  0  0  0  0  0  0
  146.4864  133.8333  153.1677 C   0  0  2  0  0  0  0  0  0  0  0  0
  147.1481  132.4406  153.2677 C   0  0  0  0  0  0  0  0  0  0  0  0
  146.2323  131.3272  152.7452 C   0  0  0  0  0  0  0  0  0  0  0  0
  145.8050  131.6118  151.3022 C   0  0  0  0  0  0  0  0  0  0  0  0
  145.1153  132.9784  151.1995 C   0  0  0  0  0  0  0  0  0  0  0  0
  146.0080  134.1311  151.7169 C   0  0  1  0  0  0  0  0  0  0  0  0
  145.2619  135.4842  151.5842 C   0  0  0  0  0  0  0  0  0  0  0  0
  146.0710  136.4978  151.8927 F   0  0  0  0  0  0  0  0  0  0  0  0
  144.8025  135.6666  150.3464 F   0  0  0  0  0  0  0  0  0  0  0  0
  144.2130  135.5086  152.4061 F   0  0  0  0  0  0  0  0  0  0  0  0
  152.0145  134.7389  158.7569 H   0  0  0  0  0  0  0  0  0  0  0  0
  152.7421  136.9024  158.0178 H   0  0  0  0  0  0  0  0  0  0  0  0
  150.3736  136.4217  154.4375 H   0  0  0  0  0  0  0  0  0  0  0  0
  149.7827  134.1259  153.9098 H   0  0  0  0  0  0  0  0  0  0  0  0
  149.4020  133.0491  155.2072 H   0  0  0  0  0  0  0  0  0  0  0  0
  147.3460  134.0093  155.5554 H   0  0  0  0  0  0  0  0  0  0  0  0
  147.9956  135.6345  155.5109 H   0  0  0  0  0  0  0  0  0  0  0  0
  146.9286  135.7476  153.6422 H   0  0  0  0  0  0  0  0  0  0  0  0
  145.6107  133.8524  153.8184 H   0  0  0  0  0  0  0  0  0  0  0  0
  148.0802  132.4342  152.7007 H   0  0  0  0  0  0  0  0  0  0  0  0
  147.4160  132.2173  154.3005 H   0  0  0  0  0  0  0  0  0  0  0  0
  146.7459  130.3668  152.7991 H   0  0  0  0  0  0  0  0  0  0  0  0
  145.3506  131.2446  153.3822 H   0  0  0  0  0  0  0  0  0  0  0  0
  146.6765  131.5881  150.6465 H   0  0  0  0  0  0  0  0  0  0  0  0
  145.1323  130.8283  150.9523 H   0  0  0  0  0  0  0  0  0  0  0  0
  144.8384  133.1547  150.1599 H   0  0  0  0  0  0  0  0  0  0  0  0
  144.1820  132.9528  151.7637 H   0  0  0  0  0  0  0  0  0  0  0  0
  146.8883  134.1749  151.0732 H   0  0  0  0  0  0  0  0  0  0  0  0
  148.1894  134.9534  152.9624 H   0  0  0  0  0  0  0  0  0  0  0  0
  1  2  2  0  0  0  0
  2 10  1  0  0  0  0
  2  3  1  0  0  0  0
  3  4  2  0  0  0  0
  3 24  1  0  0  0  0
  4  5  1  0  0  0  0
  4 25  1  0  0  0  0
  5  6  1  0  0  0  0
  5  9  2  0  0  0  0
  6  7  2  0  0  0  0
  6  8  1  0  0  0  0
  9 10  1  0  0  0  0
  9 26  1  0  0  0  0
 10 11  1  0  0  0  0
 11 12  1  0  0  0  0
 11 27  1  0  0  0  0
 11 28  1  0  0  0  0
 12 13  1  0  0  0  0
 12 29  1  0  0  0  0
 12 30  1  0  0  0  0
 13 14  1  0  0  0  0
 13 31  1  0  0  0  0
 13 42  1  0  0  0  0
 14 19  1  0  0  0  0
 14 15  1  0  0  0  0
 14 32  1  0  0  0  0
 15 16  1  0  0  0  0
 15 33  1  0  0  0  0
 15 34  1  0  0  0  0
 16 17  1  0  0  0  0
 16 35  1  0  0  0  0
 16 36  1  0  0  0  0
 17 18  1  0  0  0  0
 17 37  1  0  0  0  0
 17 38  1  0  0  0  0
 18 19  1  0  0  0  0
 18 39  1  0  0  0  0
 18 40  1  0  0  0  0
 19 20  1  0  0  0  0
 19 41  1  0  0  0  0
 20 21  1  0  0  0  0
 20 22  1  0  0  0  0
 20 23  1  0  0  0  0
M  CHG  1   6   1
M  CHG  1   8  -1
M  CHG  1  13   1
M  END
> <s_m_source_file>
AV-unprocessed.smi

> <i_m_source_file_index>
3029

> <i_lp_mmshare_version>
43012

> <i_f3d_flags>
0

> <s_epik_input>
Tz1jMVtjSF1bY0hdYyhbTitdKD1PKVtPLV0pW2NIXW4xW0NIMl1bQ0gyXVtOSF1bQ0BASF0yW0NIMl1bQ0gyXVtDSDJdW0NIMl1bQ0BIXTJDKEYpKEYpRg==

> <s_epik_cmdline>
J2VwaWtfcHl0aG9uJywgJy1waCcsICc3LjAnLCAnLXRuJywgJzgnLCAnLW1hJywgJzIwMCcsICctbWV0YWxfYmluZGluZycsICctaW1hZScsICc8aW5maWxlLm1hZT4nLCAnLW9tYWUnLCAnPG91dGZpbGUubWFlPic=

> <r_lp_tautomer_probability>
1

> <r_epik_Ionization_Penalty>
0.037386

> <r_epik_Ionization_Penalty_Charging>
0.037386

> <r_epik_Ionization_Penalty_Neutral>
0

> <r_epik_State_Penalty>
0.0312892

> <r_epik_Charging_Adjusted_Penalty>
0.0686752

> <i_epik_Tot_Q>
1

> <i_epik_Tot_abs_Q>
3

> <r_epik_Metal_State_Penalty>
0.0312892

> <b_epik_Metal_Only>
0

> <s_lp_Force_Field>
OPLS_2005

> <r_lp_Energy>
38.6527

> <b_lp_Chiralities_Consistent>
1

> <s_lp_Variant>
AV-unprocessed.smi:3029-1

> <Gold.Version>
5.8.1

> <Gold.Id.Protein>
6NUR|6NUR_protein|mol2

> <Gold.PLP.Fitness>
51.4857

> <Gold.PLP.PLP>
-37.5717

> <Gold.PLP.part.hbond>
-4.5891

> <Gold.PLP.part.metal>
0.0000

> <Gold.PLP.part.buried>
-3.4808

> <Gold.PLP.part.nonpolar>
-30.8958

> <Gold.PLP.part.repulsive>
0.1836

> <Gold.PLP.ligand.clash>
0.0000

> <Gold.PLP.ligand.torsion>
1.0329

> <Gold.PLP.Chemscore.Hbond>
4.2718

> <Gold.PLP.Chemscore.CHOScore>
1.0372

> <Gold.PLP.Chemscore.Metal>
0.0000

> <Gold.Chemscore.Hbonds>
donor molecule, donor type, donor heavy atom, donor atom, acceptor molecule, acceptor atom, score
      L1  H    13    42       P1  7948  1.63
      P1  H  6896  6908       L1     1  0.45
      P1  H  7997  8009       L1     7  0.91
      L1  C     9    26       P1  7948  0.05

> <Gold.PLP.Chemscore.Internal.Correction>
0.0528

> <Gold.Rescore>
     Score         DG    S(hbond)    S(metal)    S(lipo)     H(rot)  DE(clash)    DE(int)     intcor
     17.21     -19.94       3.71        0.00      59.29       1.90       0.14       2.59       ----

> <Gold.Chemscore.Fitness>
17.2051

> <Gold.Chemscore.DG>
-19.9385

> <Gold.Chemscore.ZeroCoef>
-5.4800

> <Gold.Chemscore.Hbond>
3.7112

> <Gold.Chemscore.Metal>
0.0000

> <Gold.Chemscore.Lipo>
59.2885

> <Gold.Chemscore.Internal_Hbond>
0.0000

> <Gold.Chemscore.DEClash>
0.1400

> <Gold.Chemscore.DEInternal>
2.5933

> <Gold.Chemscore.Rot>
1.9037

> <Gold.Chemscore.Internal.Correction>
   9.000000E+99

> <Gold.Chemscore.Hbonds>
donor molecule, donor type, donor heavy atom, donor atom, acceptor molecule, acceptor atom, score
      L1  H    13    42       P1  7948  0.72
      P1  H  6896  6908       L1     1  0.02
      P1  H  7989  7998       L1     8  0.01
      P1  H  7997  8009       L1     7  0.86

> <Gold.Chemscore.Hbond.Weighted>
-12.3953

> <Gold.Chemscore.Metal.Weighted>
-0.0000

> <Gold.Chemscore.Lipo.Weighted>
-6.9368

> <Gold.Chemscore.Internal_Hbond.Weighted>
0.0000

> <Gold.Chemscore.DEClash.Weighted>
0.1400

> <Gold.Chemscore.DEInternal.Weighted>
2.5933

> <Gold.Chemscore.Rot.Weighted>
4.8736

> <Gold.Chemscore.Internal.Correction.Weighted>
   9.000000E+99

> <Gold.Protein.RotatedTorsions>
[ 6907 6896 6895 6894 ] final  112.91 input  -60.11 | X-H torsion
[ 7974 7965 7964 7962 ] final   37.57 input  175.53 | X-H torsion
[ 8008 7997 7996 7995 ] final -145.63 input   59.86 | X-H torsion
[ 10167 10162 10161 10158 ] final  -83.90 input  -65.29 | X-H torsion
[ 10718 10713 10712 10709 ] final  164.27 input   66.30 | X-H torsion
[ 10763 10752 10751 10750 ] final  -61.96 input  -60.55 | X-H torsion
[ 11005 11000 10999 10996 ] final  106.84 input  -57.11 | X-H torsion

> <Gold.Protein.ActiveResidues>
 VAL166  LYS551  ARG553  GLY616  TRP617  ASP618  TYR619  PRO620  LYS621  CYS622 
 ASP623  PHE694  ASN695  SER759  ASP760  ASP761  ALA762  ILE779  LEU786  VAL792 
 PHE793  MET794  SER795  GLU796  ALA797  LYS798  CYS799  TRP800  GLU811  SER814 

> <Gold.Protein.RotatedAtoms>
  152.4890  133.8449  159.7171 H   0  0  0  0  0  0  0  0  0  0  0  0  # atno 6907 bound_to 6896
  150.9002  133.7119  159.2887 H   0  0  0  0  0  0  0  0  0  0  0  0  # atno 6908 bound_to 6896
  151.4563  135.1038  159.9764 H   0  0  0  0  0  0  0  0  0  0  0  0  # atno 6909 bound_to 6896
  146.1127  139.5878  142.9341 H   0  0  0  0  0  0  0  0  0  0  0  0  # atno 7974 bound_to 7965
  155.5463  140.0612  157.2859 H   0  0  0  0  0  0  0  0  0  0  0  0  # atno 8008 bound_to 7997
  154.4435  140.1910  156.0686 H   0  0  0  0  0  0  0  0  0  0  0  0  # atno 8009 bound_to 7997
  156.0548  140.3280  155.7397 H   0  0  0  0  0  0  0  0  0  0  0  0  # atno 8010 bound_to 7997
  140.4183  143.2595  151.8925 H   0  0  0  0  0  0  0  0  0  0  0  0  # atno 10167 bound_to 10162
  157.0968  131.0432  151.2514 H   0  0  0  0  0  0  0  0  0  0  0  0  # atno 10718 bound_to 10713
  154.2925  135.6250  153.5391 H   0  0  0  0  0  0  0  0  0  0  0  0  # atno 10763 bound_to 10752
  152.9850  135.5659  154.5374 H   0  0  0  0  0  0  0  0  0  0  0  0  # atno 10764 bound_to 10752
  154.4988  135.2871  155.1414 H   0  0  0  0  0  0  0  0  0  0  0  0  # atno 10765 bound_to 10752
  139.8819  134.9382  156.5728 H   0  0  0  0  0  0  0  0  0  0  0  0  # atno 11005 bound_to 11000
  145.5630  141.0402  143.2216 LP  0  0  0  0  0  0  0  0  0  0  0  0  # atno 17320 bound_to 7965
  144.7526  139.7156  143.7267 LP  0  0  0  0  0  0  0  0  0  0  0  0  # atno 17321 bound_to 7965
  139.4782  144.5464  151.8451 LP  0  0  0  0  0  0  0  0  0  0  0  0  # atno 17342 bound_to 10162
  140.4562  144.1786  150.5902 LP  0  0  0  0  0  0  0  0  0  0  0  0  # atno 17343 bound_to 10162
  157.4675  130.7689  149.7292 LP  0  0  0  0  0  0  0  0  0  0  0  0  # atno 17370 bound_to 10713
  155.9884  130.3959  150.3121 LP  0  0  0  0  0  0  0  0  0  0  0  0  # atno 17371 bound_to 10713
  140.8085  133.8448  155.8789 LP  0  0  0  0  0  0  0  0  0  0  0  0  # atno 17394 bound_to 11000
  140.9527  134.1757  157.4715 LP  0  0  0  0  0  0  0  0  0  0  0  0  # atno 17395 bound_to 11000

$$$$
