AV-unprocessed.smi:157|AV-procd|sdf|1294|dock3
  -GOLD-   2262018573D 1   1.00000     0.00000
 Structure written by MMmdl.
 35 37  0  0  0  0  0  0  0  0  1 V2000
  150.2023  140.2217  153.7376 O   0  0  0  0  0  0  0  0  0  0  0  0
  149.8041  139.5252  154.9004 C   0  0  0  0  0  0  0  0  0  0  0  0
  148.4192  140.0068  155.3811 C   0  0  2  0  0  0  0  0  0  0  0  0
  147.4577  139.0565  154.9174 O   0  0  0  0  0  0  0  0  0  0  0  0
  146.6262  139.6265  153.9495 C   0  0  2  0  0  0  0  0  0  0  0  0
  146.5209  138.6910  152.7862 N   0  0  0  0  0  0  0  0  0  0  0  0
  146.9716  138.9087  151.5433 C   0  0  0  0  0  0  0  0  0  0  0  0
  146.7484  137.9171  150.6973 N   0  0  0  0  0  0  0  0  0  0  0  0
  146.0767  136.9659  151.4633 C   0  0  0  0  0  0  0  0  0  0  0  0
  145.9163  137.4313  152.7607 C   0  0  0  0  0  0  0  0  0  0  0  0
  145.3477  136.9552  153.9268 N   0  0  0  0  0  0  0  0  0  0  0  0
  144.4966  135.9826  153.8348 C   0  0  0  0  0  0  0  0  0  0  0  0
  144.1041  135.2374  152.7319 N   0  0  0  0  0  0  0  0  0  0  0  0
  145.0437  134.6437  151.7963 C   0  0  0  0  0  0  0  0  0  0  0  0
  145.6794  135.6592  150.8389 C   0  0  1  0  0  0  0  0  0  0  0  0
  144.7663  135.9560  149.8023 O   0  0  0  0  0  0  0  0  0  0  0  0
  147.2751  140.9363  153.5170 C   0  0  0  0  0  0  0  0  0  0  0  0
  147.9373  141.3534  154.8103 C   0  0  2  0  0  0  0  0  0  0  0  0
  148.9577  142.3055  154.5881 O   0  0  0  0  0  0  0  0  0  0  0  0
  148.3966  140.0201  156.4716 H   0  0  0  0  0  0  0  0  0  0  0  0
  145.6160  139.7403  154.3443 H   0  0  0  0  0  0  0  0  0  0  0  0
  146.5478  135.1946  150.3707 H   0  0  0  0  0  0  0  0  0  0  0  0
  147.1888  141.7835  155.4773 H   0  0  0  0  0  0  0  0  0  0  0  0
  149.9265  139.7263  152.9816 H   0  0  0  0  0  0  0  0  0  0  0  0
  149.8159  138.4504  154.7182 H   0  0  0  0  0  0  0  0  0  0  0  0
  150.5509  139.7243  155.6695 H   0  0  0  0  0  0  0  0  0  0  0  0
  147.4793  139.8157  151.2498 H   0  0  0  0  0  0  0  0  0  0  0  0
  143.9856  135.6542  154.7409 H   0  0  0  0  0  0  0  0  0  0  0  0
  143.2588  134.6891  152.7986 H   0  0  0  0  0  0  0  0  0  0  0  0
  145.8334  134.1747  152.3852 H   0  0  0  0  0  0  0  0  0  0  0  0
  144.5592  133.8390  151.2428 H   0  0  0  0  0  0  0  0  0  0  0  0
  144.3611  136.7878  149.9960 H   0  0  0  0  0  0  0  0  0  0  0  0
  148.0146  140.7450  152.7374 H   0  0  0  0  0  0  0  0  0  0  0  0
  146.5334  141.6442  153.1459 H   0  0  0  0  0  0  0  0  0  0  0  0
  148.5989  143.1678  154.7334 H   0  0  0  0  0  0  0  0  0  0  0  0
  1  2  1  0  0  0  0
  1 24  1  0  0  0  0
  2  3  1  0  0  0  0
  2 25  1  0  0  0  0
  2 26  1  0  0  0  0
  3 20  1  0  0  0  0
  3 18  1  0  0  0  0
  3  4  1  0  0  0  0
  4  5  1  0  0  0  0
  5 21  1  0  0  0  0
  5  6  1  0  0  0  0
  5 17  1  0  0  0  0
  6 10  1  0  0  0  0
  6  7  1  0  0  0  0
  7  8  2  0  0  0  0
  7 27  1  0  0  0  0
  8  9  1  0  0  0  0
  9 15  1  0  0  0  0
  9 10  2  0  0  0  0
 10 11  1  0  0  0  0
 11 12  2  0  0  0  0
 12 13  1  0  0  0  0
 12 28  1  0  0  0  0
 13 14  1  0  0  0  0
 13 29  1  0  0  0  0
 14 15  1  0  0  0  0
 14 30  1  0  0  0  0
 14 31  1  0  0  0  0
 15 22  1  0  0  0  0
 15 16  1  0  0  0  0
 16 32  1  0  0  0  0
 17 18  1  0  0  0  0
 17 33  1  0  0  0  0
 17 34  1  0  0  0  0
 18 23  1  0  0  0  0
 18 19  1  0  0  0  0
 19 35  1  0  0  0  0
M  END
> <s_m_source_file>
AV-unprocessed.smi

> <i_m_source_file_index>
157

> <i_lp_mmshare_version>
43012

> <i_f3d_flags>
0

> <s_epik_input>
W09IXVtDSDJdW0NASF0xT1tDQEhdKFtDSDJdW0NAQEhdMVtPSF0pbihbY0hdbjIpYyhjMjMpTj1bQ0hdW05IXVtDSDJdW0NASF0zW09IXQ==

> <s_epik_cmdline>
J2VwaWtfcHl0aG9uJywgJy1waCcsICc3LjAnLCAnLXRuJywgJzgnLCAnLW1hJywgJzIwMCcsICctbWV0YWxfYmluZGluZycsICctaW1hZScsICc8aW5maWxlLm1hZT4nLCAnLW9tYWUnLCAnPG91dGZpbGUubWFlPic=

> <r_lp_tautomer_probability>
1

> <r_epik_Ionization_Penalty>
0.0357149

> <r_epik_Ionization_Penalty_Charging>
0.0355056

> <r_epik_Ionization_Penalty_Neutral>
0.000209255

> <r_epik_State_Penalty>
0.0296046

> <r_epik_Charging_Adjusted_Penalty>
0.0651102

> <i_epik_Tot_Q>
0

> <i_epik_Tot_abs_Q>
0

> <r_epik_Metal_State_Penalty>
3.03559e-05

> <b_epik_Metal_Only>
0

> <s_epik_Chemistry_Notes>
This compound has an imine and may undergo hydrolysis. This compound contains an acetal/aminal-like group ( X-CH(R)-Y where X, Y are N, S, or O) that may be acid/base labile, releasing an aldehyde.

> <s_lp_Force_Field>
OPLS_2005

> <r_lp_Energy>
46.7001

> <b_lp_Chiralities_Consistent>
1

> <s_lp_Variant>
AV-unprocessed.smi:157-4

> <Gold.Version>
5.8.1

> <Gold.Id.Protein>
6NUR|6NUR_protein|mol2

> <Gold.PLP.Fitness>
43.4084

> <Gold.PLP.PLP>
-28.2417

> <Gold.PLP.part.hbond>
-6.7081

> <Gold.PLP.part.metal>
0.0000

> <Gold.PLP.part.buried>
-1.4178

> <Gold.PLP.part.nonpolar>
-23.4617

> <Gold.PLP.part.repulsive>
1.7624

> <Gold.PLP.ligand.clash>
0.0045

> <Gold.PLP.ligand.torsion>
0.6321

> <Gold.PLP.Chemscore.Hbond>
4.6080

> <Gold.PLP.Chemscore.CHOScore>
0.8661

> <Gold.PLP.Chemscore.Metal>
0.0000

> <Gold.Chemscore.Hbonds>
donor molecule, donor type, donor heavy atom, donor atom, acceptor molecule, acceptor atom, score
      L1  H     1    24       P1  7957  0.75
      L1  H    16    32       P1 10171  1.00
      L1  H    19    35       P1  8028  0.88
      P1  H  7954  7966       L1     8  1.00
      P1  H  7989  7998       L1     1  0.77
      P1  H  8011  8017       L1    19  0.02
      L1  C     7    27       P1  7957  0.90

> <Gold.PLP.Chemscore.Internal.Correction>
0.0131

> <Gold.Rescore>
     Score         DG    S(hbond)    S(metal)    S(lipo)     H(rot)  DE(clash)    DE(int)     intcor
      9.60     -13.72       3.81        0.00      41.14       3.64       2.50       1.62       ----

> <Gold.Chemscore.Fitness>
9.6033

> <Gold.Chemscore.DG>
-13.7201

> <Gold.Chemscore.ZeroCoef>
-5.4800

> <Gold.Chemscore.Hbond>
3.8129

> <Gold.Chemscore.Metal>
0.0000

> <Gold.Chemscore.Lipo>
41.1437

> <Gold.Chemscore.Internal_Hbond>
0.0000

> <Gold.Chemscore.DEClash>
2.4957

> <Gold.Chemscore.DEInternal>
1.6210

> <Gold.Chemscore.Rot>
3.6362

> <Gold.Chemscore.Internal.Correction>
   9.000000E+99

> <Gold.Chemscore.Hbonds>
donor molecule, donor type, donor heavy atom, donor atom, acceptor molecule, acceptor atom, score
      L1  H     1    24       P1  7957  0.76
      L1  H    16    32       P1 10171  0.99
      L1  H    19    35       P1  8028  0.87
      P1  H  7954  7966       L1     8  0.29
      P1  H  7989  7998       L1     1  0.56
      P1  H  8011  8017       L1    19  0.01

> <Gold.Chemscore.Hbond.Weighted>
-12.7350

> <Gold.Chemscore.Metal.Weighted>
-0.0000

> <Gold.Chemscore.Lipo.Weighted>
-4.8138

> <Gold.Chemscore.Internal_Hbond.Weighted>
0.0000

> <Gold.Chemscore.DEClash.Weighted>
2.4957

> <Gold.Chemscore.DEInternal.Weighted>
1.6210

> <Gold.Chemscore.Rot.Weighted>
9.3087

> <Gold.Chemscore.Internal.Correction.Weighted>
   9.000000E+99

> <Gold.Protein.RotatedTorsions>
[ 6907 6896 6895 6894 ] final  160.60 input  -60.11 | X-H torsion
[ 7974 7965 7964 7962 ] final   80.29 input  175.53 | X-H torsion
[ 8008 7997 7996 7995 ] final  174.25 input   59.86 | X-H torsion
[ 10167 10162 10161 10158 ] final   82.89 input  -65.29 | X-H torsion
[ 10718 10713 10712 10709 ] final   44.31 input   66.30 | X-H torsion
[ 10763 10752 10751 10750 ] final  -65.17 input  -60.55 | X-H torsion
[ 11005 11000 10999 10996 ] final  128.78 input  -57.11 | X-H torsion

> <Gold.Protein.ActiveResidues>
 VAL166  LYS551  ARG553  GLY616  TRP617  ASP618  TYR619  PRO620  LYS621  CYS622 
 ASP623  PHE694  ASN695  SER759  ASP760  ASP761  ALA762  ILE779  LEU786  VAL792 
 PHE793  MET794  SER795  GLU796  ALA797  LYS798  CYS799  TRP800  GLU811  SER814 

> <Gold.Protein.RotatedAtoms>
  151.9682  133.3717  159.4060 H   0  0  0  0  0  0  0  0  0  0  0  0  # atno 6907 bound_to 6896
  150.6953  134.4168  159.5196 H   0  0  0  0  0  0  0  0  0  0  0  0  # atno 6908 bound_to 6896
  152.1868  134.8707  160.0572 H   0  0  0  0  0  0  0  0  0  0  0  0  # atno 6909 bound_to 6896
  145.6532  139.2452  143.1965 H   0  0  0  0  0  0  0  0  0  0  0  0  # atno 7974 bound_to 7965
  156.0993  140.1439  156.9489 H   0  0  0  0  0  0  0  0  0  0  0  0  # atno 8008 bound_to 7997
  154.4692  140.0916  156.7145 H   0  0  0  0  0  0  0  0  0  0  0  0  # atno 8009 bound_to 7997
  155.4788  140.3444  155.4339 H   0  0  0  0  0  0  0  0  0  0  0  0  # atno 8010 bound_to 7997
  139.9241  144.6194  150.8410 H   0  0  0  0  0  0  0  0  0  0  0  0  # atno 10167 bound_to 10162
  157.4255  130.7994  149.7554 H   0  0  0  0  0  0  0  0  0  0  0  0  # atno 10718 bound_to 10713
  154.3410  135.6156  153.5596 H   0  0  0  0  0  0  0  0  0  0  0  0  # atno 10763 bound_to 10752
  152.9804  135.5769  154.4852 H   0  0  0  0  0  0  0  0  0  0  0  0  # atno 10764 bound_to 10752
  154.4556  135.2854  155.1727 H   0  0  0  0  0  0  0  0  0  0  0  0  # atno 10765 bound_to 10752
  139.9579  134.9609  156.9052 H   0  0  0  0  0  0  0  0  0  0  0  0  # atno 11005 bound_to 11000
  146.1187  140.7337  142.9468 LP  0  0  0  0  0  0  0  0  0  0  0  0  # atno 17320 bound_to 7965
  144.7115  140.4056  143.7077 LP  0  0  0  0  0  0  0  0  0  0  0  0  # atno 17321 bound_to 7965
  140.7654  143.3276  151.2481 LP  0  0  0  0  0  0  0  0  0  0  0  0  # atno 17342 bound_to 10162
  139.6837  143.9811  152.2822 LP  0  0  0  0  0  0  0  0  0  0  0  0  # atno 17343 bound_to 10162
  155.9895  130.3951  150.3071 LP  0  0  0  0  0  0  0  0  0  0  0  0  # atno 17370 bound_to 10713
  157.1223  131.0250  151.3004 LP  0  0  0  0  0  0  0  0  0  0  0  0  # atno 17371 bound_to 10713
  140.5566  134.0575  155.7385 LP  0  0  0  0  0  0  0  0  0  0  0  0  # atno 17394 bound_to 11000
  141.1253  133.9393  157.2647 LP  0  0  0  0  0  0  0  0  0  0  0  0  # atno 17395 bound_to 11000

$$$$
