AV-unprocessed.smi:2790|AV-procd|sdf|10766|dock10
  -GOLD-   2272015203D 1   1.00000     0.00000
 Structure written by MMmdl.
 46 47  0  0  0  0  0  0  0  0  2 V2000
  147.3382  142.3816  152.6899 C   0  0  0  0  0  0  0  0  0  0  0  0
  146.5272  141.4474  153.5054 N   0  3  0  0  0  0  0  0  0  0  0  0
  147.2166  140.1531  153.6994 C   0  0  0  0  0  0  0  0  0  0  0  0
  146.0699  142.0394  154.7884 C   0  0  0  0  0  0  0  0  0  0  0  0
  147.1976  142.7185  155.5717 C   0  0  0  0  0  0  0  0  0  0  0  0
  147.2331  143.9442  155.6823 O   0  0  0  0  0  0  0  0  0  0  0  0
  148.1068  141.9043  156.1236 N   0  0  0  0  0  0  0  0  0  0  0  0
  149.2613  142.3535  156.8961 C   0  0  0  0  0  0  0  0  0  0  0  0
  150.0673  141.1734  157.4971 C   0  0  0  0  0  0  0  0  0  0  0  0
  151.4640  141.6885  157.9205 C   0  0  0  0  0  0  0  0  0  0  0  0
  151.9382  141.6061  159.2541 C   0  0  0  0  0  0  0  0  0  0  0  0
  153.2332  142.0716  159.5558 C   0  0  0  0  0  0  0  0  0  0  0  0
  154.0714  142.5860  158.6340 N   0  0  0  0  0  0  0  0  0  0  0  0
  153.6348  142.6495  157.3602 C   0  0  0  0  0  0  0  0  0  0  0  0
  152.3584  142.2122  156.9556 C   0  0  0  0  0  0  0  0  0  0  0  0
  149.2716  140.6142  158.7122 C   0  0  0  0  0  0  0  0  0  0  0  0
  149.8971  139.3402  159.3072 C   0  0  0  0  0  0  0  0  0  0  0  0
  149.9772  138.2302  158.2507 C   0  0  0  0  0  0  0  0  0  0  0  0
  150.7317  138.7108  157.0040 C   0  0  0  0  0  0  0  0  0  0  0  0
  150.1253  140.0175  156.4507 C   0  0  0  0  0  0  0  0  0  0  0  0
  148.2655  142.6434  153.2013 H   0  0  0  0  0  0  0  0  0  0  0  0
  146.7928  143.3024  152.4815 H   0  0  0  0  0  0  0  0  0  0  0  0
  147.5940  141.9293  151.7312 H   0  0  0  0  0  0  0  0  0  0  0  0
  148.1230  140.2786  154.2931 H   0  0  0  0  0  0  0  0  0  0  0  0
  147.4939  139.7157  152.7398 H   0  0  0  0  0  0  0  0  0  0  0  0
  146.5673  139.4414  154.2103 H   0  0  0  0  0  0  0  0  0  0  0  0
  145.3210  142.8073  154.5899 H   0  0  0  0  0  0  0  0  0  0  0  0
  145.5829  141.2772  155.3992 H   0  0  0  0  0  0  0  0  0  0  0  0
  148.0057  140.9082  155.9908 H   0  0  0  0  0  0  0  0  0  0  0  0
  149.9037  142.9440  156.2405 H   0  0  0  0  0  0  0  0  0  0  0  0
  148.9240  143.0277  157.6854 H   0  0  0  0  0  0  0  0  0  0  0  0
  151.3422  141.1974  160.0541 H   0  0  0  0  0  0  0  0  0  0  0  0
  153.6085  142.0220  160.5673 H   0  0  0  0  0  0  0  0  0  0  0  0
  154.3276  143.0536  156.6371 H   0  0  0  0  0  0  0  0  0  0  0  0
  152.0920  142.2763  155.9122 H   0  0  0  0  0  0  0  0  0  0  0  0
  149.1461  141.3623  159.4935 H   0  0  0  0  0  0  0  0  0  0  0  0
  148.2558  140.3731  158.3945 H   0  0  0  0  0  0  0  0  0  0  0  0
  150.8923  139.5554  159.6981 H   0  0  0  0  0  0  0  0  0  0  0  0
  149.3023  138.9975  160.1542 H   0  0  0  0  0  0  0  0  0  0  0  0
  150.4646  137.3485  158.6679 H   0  0  0  0  0  0  0  0  0  0  0  0
  148.9692  137.9228  157.9695 H   0  0  0  0  0  0  0  0  0  0  0  0
  151.7839  138.8479  157.2504 H   0  0  0  0  0  0  0  0  0  0  0  0
  150.7007  137.9373  156.2364 H   0  0  0  0  0  0  0  0  0  0  0  0
  149.1105  139.7921  156.1188 H   0  0  0  0  0  0  0  0  0  0  0  0
  150.6494  140.3213  155.5451 H   0  0  0  0  0  0  0  0  0  0  0  0
  145.6910  141.2460  152.9748 H   0  0  0  0  0  0  0  0  0  0  0  0
  1  2  1  0  0  0  0
  1 21  1  0  0  0  0
  1 22  1  0  0  0  0
  1 23  1  0  0  0  0
  2  3  1  0  0  0  0
  2  4  1  0  0  0  0
  2 46  1  0  0  0  0
  3 24  1  0  0  0  0
  3 25  1  0  0  0  0
  3 26  1  0  0  0  0
  4  5  1  0  0  0  0
  4 27  1  0  0  0  0
  4 28  1  0  0  0  0
  5  6  2  0  0  0  0
  5  7  1  0  0  0  0
  7  8  1  0  0  0  0
  7 29  1  0  0  0  0
  8  9  1  0  0  0  0
  8 30  1  0  0  0  0
  8 31  1  0  0  0  0
  9 20  1  0  0  0  0
  9 10  1  0  0  0  0
  9 16  1  0  0  0  0
 10 15  1  0  0  0  0
 10 11  2  0  0  0  0
 11 12  1  0  0  0  0
 11 32  1  0  0  0  0
 12 13  2  0  0  0  0
 12 33  1  0  0  0  0
 13 14  1  0  0  0  0
 14 15  2  0  0  0  0
 14 34  1  0  0  0  0
 15 35  1  0  0  0  0
 16 17  1  0  0  0  0
 16 36  1  0  0  0  0
 16 37  1  0  0  0  0
 17 18  1  0  0  0  0
 17 38  1  0  0  0  0
 17 39  1  0  0  0  0
 18 19  1  0  0  0  0
 18 40  1  0  0  0  0
 18 41  1  0  0  0  0
 19 20  1  0  0  0  0
 19 42  1  0  0  0  0
 19 43  1  0  0  0  0
 20 44  1  0  0  0  0
 20 45  1  0  0  0  0
M  CHG  1   2   1
M  END
> <s_m_source_file>
AV-unprocessed.smi

> <i_m_source_file_index>
2790

> <i_lp_mmshare_version>
43012

> <i_f3d_flags>
0

> <s_epik_input>
W0NIM11OKFtDSDNdKVtDSDJdQyg9TylbTkhdW0NIMl1DMShbQ0gyXVtDSDJdW0NIMl1bQ0gyXVtDSDJdMSljMltjSF1bY0hdbltjSF1bY0hdMg==

> <s_epik_cmdline>
J2VwaWtfcHl0aG9uJywgJy1waCcsICc3LjAnLCAnLXRuJywgJzgnLCAnLW1hJywgJzIwMCcsICctbWV0YWxfYmluZGluZycsICctaW1hZScsICc8aW5maWxlLm1hZT4nLCAnLW9tYWUnLCAnPG91dGZpbGUubWFlPic=

> <r_epik_Ionization_Penalty>
0.089928

> <r_epik_Ionization_Penalty_Charging>
0.0368445

> <r_epik_Ionization_Penalty_Neutral>
0.0530835

> <r_epik_State_Penalty>
0.0777876

> <r_epik_Charging_Adjusted_Penalty>
0.114632

> <i_epik_Tot_Q>
1

> <i_epik_Tot_abs_Q>
1

> <r_epik_Metal_State_Penalty>
0.0848697

> <b_epik_Metal_Only>
0

> <s_lp_Force_Field>
OPLS_2005

> <r_lp_Energy>
21.8656

> <b_lp_Chiralities_Consistent>
1

> <s_lp_Variant>
AV-unprocessed.smi:2790-1

> <Gold.Version>
5.8.1

> <Gold.Id.Protein>
6NUR|6NUR_protein|mol2

> <Gold.PLP.Fitness>
42.8080

> <Gold.PLP.PLP>
-37.6632

> <Gold.PLP.part.hbond>
-1.0000

> <Gold.PLP.part.metal>
0.0000

> <Gold.PLP.part.buried>
-4.6742

> <Gold.PLP.part.nonpolar>
-32.3088

> <Gold.PLP.part.repulsive>
0.1423

> <Gold.PLP.ligand.clash>
0.0000

> <Gold.PLP.ligand.torsion>
0.4582

> <Gold.PLP.Chemscore.Hbond>
2.0000

> <Gold.PLP.Chemscore.CHOScore>
0.0000

> <Gold.PLP.Chemscore.Metal>
0.0000

> <Gold.Chemscore.Hbonds>
donor molecule, donor type, donor heavy atom, donor atom, acceptor molecule, acceptor atom, score
      L1  H     2    46       P1 10175  0.96

> <Gold.PLP.Chemscore.Internal.Correction>
0.0613

> <Gold.Rescore>
     Score         DG    S(hbond)    S(metal)    S(lipo)     H(rot)  DE(clash)    DE(int)     intcor
     16.04     -16.78       0.99        0.00     104.62       1.65       0.02       0.72       ----

> <Gold.Chemscore.Fitness>
16.0435

> <Gold.Chemscore.DG>
-16.7832

> <Gold.Chemscore.ZeroCoef>
-5.4800

> <Gold.Chemscore.Hbond>
0.9876

> <Gold.Chemscore.Metal>
0.0000

> <Gold.Chemscore.Lipo>
104.6223

> <Gold.Chemscore.Internal_Hbond>
0.0000

> <Gold.Chemscore.DEClash>
0.0186

> <Gold.Chemscore.DEInternal>
0.7210

> <Gold.Chemscore.Rot>
1.6547

> <Gold.Chemscore.Internal.Correction>
   9.000000E+99

> <Gold.Chemscore.Hbonds>
donor molecule, donor type, donor heavy atom, donor atom, acceptor molecule, acceptor atom, score
      L1  H     2    46       P1 10175  0.07

> <Gold.Chemscore.Hbond.Weighted>
-3.2984

> <Gold.Chemscore.Metal.Weighted>
-0.0000

> <Gold.Chemscore.Lipo.Weighted>
-12.2408

> <Gold.Chemscore.Internal_Hbond.Weighted>
0.0000

> <Gold.Chemscore.DEClash.Weighted>
0.0186

> <Gold.Chemscore.DEInternal.Weighted>
0.7210

> <Gold.Chemscore.Rot.Weighted>
4.2361

> <Gold.Chemscore.Internal.Correction.Weighted>
   9.000000E+99

> <Gold.Protein.RotatedTorsions>
[ 6907 6896 6895 6894 ] final  -53.60 input  -60.11 | X-H torsion
[ 7974 7965 7964 7962 ] final  142.97 input  175.53 | X-H torsion
[ 8008 7997 7996 7995 ] final   -1.81 input   59.86 | X-H torsion
[ 10167 10162 10161 10158 ] final  179.87 input  -65.29 | X-H torsion
[ 10718 10713 10712 10709 ] final -119.18 input   66.30 | X-H torsion
[ 10763 10752 10751 10750 ] final   26.44 input  -60.55 | X-H torsion
[ 11005 11000 10999 10996 ] final  -27.96 input  -57.11 | X-H torsion

> <Gold.Protein.ActiveResidues>
 VAL166  LYS551  ARG553  GLY616  TRP617  ASP618  TYR619  PRO620  LYS621  CYS622 
 ASP623  PHE694  ASN695  SER759  ASP760  ASP761  ALA762  ILE779  LEU786  VAL792 
 PHE793  MET794  SER795  GLU796  ALA797  LYS798  CYS799  TRP800  GLU811  SER814 

> <Gold.Protein.RotatedAtoms>
  150.8412  134.7704  159.6933 H   0  0  0  0  0  0  0  0  0  0  0  0  # atno 6907 bound_to 6896
  152.4499  134.5413  159.9849 H   0  0  0  0  0  0  0  0  0  0  0  0  # atno 6908 bound_to 6896
  151.5553  133.3373  159.2996 H   0  0  0  0  0  0  0  0  0  0  0  0  # atno 6909 bound_to 6896
  144.8961  139.5489  143.5776 H   0  0  0  0  0  0  0  0  0  0  0  0  # atno 7974 bound_to 7965
  154.6427  140.2550  155.7304 H   0  0  0  0  0  0  0  0  0  0  0  0  # atno 8008 bound_to 7997
  156.2537  140.2884  156.0748 H   0  0  0  0  0  0  0  0  0  0  0  0  # atno 8009 bound_to 7997
  155.1572  140.0383  157.2824 H   0  0  0  0  0  0  0  0  0  0  0  0  # atno 8010 bound_to 7997
  139.5355  144.2510  152.0785 H   0  0  0  0  0  0  0  0  0  0  0  0  # atno 10167 bound_to 10162
  156.1161  130.6287  150.9384 H   0  0  0  0  0  0  0  0  0  0  0  0  # atno 10718 bound_to 10713
  153.0622  135.6560  154.0435 H   0  0  0  0  0  0  0  0  0  0  0  0  # atno 10763 bound_to 10752
  154.0100  135.2929  155.3395 H   0  0  0  0  0  0  0  0  0  0  0  0  # atno 10764 bound_to 10752
  154.6966  135.5261  153.8535 H   0  0  0  0  0  0  0  0  0  0  0  0  # atno 10765 bound_to 10752
  140.9166  133.7426  156.0744 H   0  0  0  0  0  0  0  0  0  0  0  0  # atno 11005 bound_to 11000
  146.3082  139.7653  142.9040 LP  0  0  0  0  0  0  0  0  0  0  0  0  # atno 17320 bound_to 7965
  145.3698  141.0340  143.3238 LP  0  0  0  0  0  0  0  0  0  0  0  0  # atno 17321 bound_to 7965
  140.1979  144.4687  150.6446 LP  0  0  0  0  0  0  0  0  0  0  0  0  # atno 17342 bound_to 10162
  140.6559  143.2237  151.5970 LP  0  0  0  0  0  0  0  0  0  0  0  0  # atno 17343 bound_to 10162
  157.6345  131.0917  150.8376 LP  0  0  0  0  0  0  0  0  0  0  0  0  # atno 17370 bound_to 10713
  156.8479  130.5070  149.5314 LP  0  0  0  0  0  0  0  0  0  0  0  0  # atno 17371 bound_to 10713
  140.8042  134.3474  157.5431 LP  0  0  0  0  0  0  0  0  0  0  0  0  # atno 17394 bound_to 11000
  139.8767  134.9215  156.3278 LP  0  0  0  0  0  0  0  0  0  0  0  0  # atno 17395 bound_to 11000

$$$$
