AV-unprocessed.smi:2878|AV-procd|sdf|11047|dock9
  -GOLD-   2272015513D 1   1.00000     0.00000
 Structure written by MMmdl.
 42 43  0  0  0  0  0  0  0  0  1 V2000
  144.0738  136.5697  153.1852 C   0  0  0  0  0  0  0  0  0  0  0  0
  143.1467  135.0177  153.0448 S   0  0  0  0  0  0  0  0  0  0  0  0
  144.1328  134.1384  151.7907 C   0  0  2  0  0  0  0  0  0  0  0  0
  143.2926  133.0401  151.1104 C   0  0  0  0  0  0  0  0  0  0  0  0
  144.0955  132.3130  150.0201 C   0  0  0  0  0  0  0  0  0  0  0  0
  145.4005  131.7309  150.5832 C   0  0  0  0  0  0  0  0  0  0  0  0
  146.2455  132.8182  151.2693 C   0  0  0  0  0  0  0  0  0  0  0  0
  145.4552  133.5699  152.3628 C   0  0  2  0  0  0  0  0  0  0  0  0
  145.1992  132.7023  153.5134 N   0  0  0  0  0  0  0  0  0  0  0  0
  146.1398  132.1160  154.2662 C   0  0  0  0  0  0  0  0  0  0  0  0
  147.3499  132.2227  154.0665 O   0  0  0  0  0  0  0  0  0  0  0  0
  145.6037  131.3998  155.2638 N   0  0  0  0  0  0  0  0  0  0  0  0
  146.3666  130.6373  156.2457 C   0  0  0  0  0  0  0  0  0  0  0  0
  146.2243  131.2242  157.6592 C   0  0  0  0  0  0  0  0  0  0  0  0
  144.7986  131.4431  158.0416 C   0  0  0  0  0  0  0  0  0  0  0  0
  143.9506  130.5424  158.5323 N   0  0  0  0  0  0  0  0  0  0  0  0
  142.8463  131.3108  158.7409 C   0  0  0  0  0  0  0  0  0  0  0  0
  141.5727  130.7670  159.2919 C   0  0  0  0  0  0  0  0  0  0  0  0
  142.9668  132.5962  158.4330 N   0  0  0  0  0  0  0  0  0  0  0  0
  144.2869  132.6956  157.9701 O   0  0  0  0  0  0  0  0  0  0  0  0
  143.5636  137.2479  153.8690 H   0  0  0  0  0  0  0  0  0  0  0  0
  144.1528  137.0564  152.2130 H   0  0  0  0  0  0  0  0  0  0  0  0
  145.0771  136.3899  153.5703 H   0  0  0  0  0  0  0  0  0  0  0  0
  144.3833  134.8746  151.0255 H   0  0  0  0  0  0  0  0  0  0  0  0
  142.9484  132.3186  151.8526 H   0  0  0  0  0  0  0  0  0  0  0  0
  142.3959  133.4777  150.6702 H   0  0  0  0  0  0  0  0  0  0  0  0
  143.4924  131.5174  149.5818 H   0  0  0  0  0  0  0  0  0  0  0  0
  144.3255  133.0080  149.2115 H   0  0  0  0  0  0  0  0  0  0  0  0
  145.1709  130.9369  151.2949 H   0  0  0  0  0  0  0  0  0  0  0  0
  145.9753  131.2669  149.7812 H   0  0  0  0  0  0  0  0  0  0  0  0
  147.1521  132.3781  151.6860 H   0  0  0  0  0  0  0  0  0  0  0  0
  146.5791  133.5342  150.5171 H   0  0  0  0  0  0  0  0  0  0  0  0
  146.0683  134.4072  152.6985 H   0  0  0  0  0  0  0  0  0  0  0  0
  144.2318  132.5555  153.7614 H   0  0  0  0  0  0  0  0  0  0  0  0
  144.5978  131.3754  155.3472 H   0  0  0  0  0  0  0  0  0  0  0  0
  146.0022  129.6098  156.2332 H   0  0  0  0  0  0  0  0  0  0  0  0
  147.4171  130.5982  155.9519 H   0  0  0  0  0  0  0  0  0  0  0  0
  146.6791  130.5606  158.3958 H   0  0  0  0  0  0  0  0  0  0  0  0
  146.7533  132.1755  157.7266 H   0  0  0  0  0  0  0  0  0  0  0  0
  140.7205  131.1445  158.7259 H   0  0  0  0  0  0  0  0  0  0  0  0
  141.4569  131.0643  160.3344 H   0  0  0  0  0  0  0  0  0  0  0  0
  141.5644  129.6778  159.2395 H   0  0  0  0  0  0  0  0  0  0  0  0
  1  2  1  0  0  0  0
  1 21  1  0  0  0  0
  1 22  1  0  0  0  0
  1 23  1  0  0  0  0
  2  3  1  0  0  0  0
  3  8  1  0  0  0  0
  3  4  1  0  0  0  0
  3 24  1  0  0  0  0
  4  5  1  0  0  0  0
  4 25  1  0  0  0  0
  4 26  1  0  0  0  0
  5  6  1  0  0  0  0
  5 27  1  0  0  0  0
  5 28  1  0  0  0  0
  6  7  1  0  0  0  0
  6 29  1  0  0  0  0
  6 30  1  0  0  0  0
  7  8  1  0  0  0  0
  7 31  1  0  0  0  0
  7 32  1  0  0  0  0
  8  9  1  0  0  0  0
  8 33  1  0  0  0  0
  9 10  1  0  0  0  0
  9 34  1  0  0  0  0
 10 11  2  0  0  0  0
 10 12  1  0  0  0  0
 12 13  1  0  0  0  0
 12 35  1  0  0  0  0
 13 14  1  0  0  0  0
 13 36  1  0  0  0  0
 13 37  1  0  0  0  0
 14 15  1  0  0  0  0
 14 38  1  0  0  0  0
 14 39  1  0  0  0  0
 15 20  1  0  0  0  0
 15 16  2  0  0  0  0
 16 17  1  0  0  0  0
 17 18  1  0  0  0  0
 17 19  2  0  0  0  0
 18 40  1  0  0  0  0
 18 41  1  0  0  0  0
 18 42  1  0  0  0  0
 19 20  1  0  0  0  0
M  END
> <s_m_source_file>
AV-unprocessed.smi

> <i_m_source_file_index>
2878

> <i_lp_mmshare_version>
43012

> <i_f3d_flags>
0

> <s_epik_input>
W0NIM11TW0NAQEhdMVtDSDJdW0NIMl1bQ0gyXVtDSDJdW0NASF0xW05IXUMoPU8pW05IXVtDSDJdW0NIMl1jMm5jKFtDSDNdKW5vMg==

> <s_epik_cmdline>
J2VwaWtfcHl0aG9uJywgJy1waCcsICc3LjAnLCAnLXRuJywgJzgnLCAnLW1hJywgJzIwMCcsICctbWV0YWxfYmluZGluZycsICctaW1hZScsICc8aW5maWxlLm1hZT4nLCAnLW9tYWUnLCAnPG91dGZpbGUubWFlPic=

> <r_lp_tautomer_probability>
1

> <r_epik_Ionization_Penalty>
4.9299e-05

> <r_epik_Ionization_Penalty_Charging>
0

> <r_epik_Ionization_Penalty_Neutral>
4.9299e-05

> <r_epik_State_Penalty>
-0

> <r_epik_Charging_Adjusted_Penalty>
0

> <i_epik_Tot_Q>
0

> <i_epik_Tot_abs_Q>
0

> <r_epik_Metal_State_Penalty>
-0

> <b_epik_Metal_Only>
0

> <s_lp_Force_Field>
OPLS_2005

> <r_lp_Energy>
0.628987

> <b_lp_Chiralities_Consistent>
1

> <s_lp_Variant>
AV-unprocessed.smi:2878-3

> <Gold.Version>
5.8.1

> <Gold.Id.Protein>
6NUR|6NUR_protein|mol2

> <Gold.PLP.Fitness>
37.4738

> <Gold.PLP.PLP>
-29.4717

> <Gold.PLP.part.hbond>
-3.1158

> <Gold.PLP.part.metal>
0.0000

> <Gold.PLP.part.buried>
-6.1743

> <Gold.PLP.part.nonpolar>
-21.5865

> <Gold.PLP.part.repulsive>
0.2800

> <Gold.PLP.ligand.clash>
0.0000

> <Gold.PLP.ligand.torsion>
0.5086

> <Gold.PLP.Chemscore.Hbond>
2.9913

> <Gold.PLP.Chemscore.CHOScore>
0.0000

> <Gold.PLP.Chemscore.Metal>
0.0000

> <Gold.Chemscore.Hbonds>
donor molecule, donor type, donor heavy atom, donor atom, acceptor molecule, acceptor atom, score
      L1  H     9    34       P1 10957  1.00
      L1  H    12    35       P1 10957  0.50

> <Gold.PLP.Chemscore.Internal.Correction>
0.0455

> <Gold.Rescore>
     Score         DG    S(hbond)    S(metal)    S(lipo)     H(rot)  DE(clash)    DE(int)     intcor
     13.76     -14.70       2.32        0.00      58.20       2.09       0.05       0.88       ----

> <Gold.Chemscore.Fitness>
13.7630

> <Gold.Chemscore.DG>
-14.6987

> <Gold.Chemscore.ZeroCoef>
-5.4800

> <Gold.Chemscore.Hbond>
2.3250

> <Gold.Chemscore.Metal>
0.0000

> <Gold.Chemscore.Lipo>
58.2020

> <Gold.Chemscore.Internal_Hbond>
0.0000

> <Gold.Chemscore.DEClash>
0.0515

> <Gold.Chemscore.DEInternal>
0.8842

> <Gold.Chemscore.Rot>
2.0923

> <Gold.Chemscore.Internal.Correction>
   9.000000E+99

> <Gold.Chemscore.Hbonds>
donor molecule, donor type, donor heavy atom, donor atom, acceptor molecule, acceptor atom, score
      L1  H     9    34       P1 10957  0.47
      L1  H    12    35       P1 10957  0.02

> <Gold.Chemscore.Hbond.Weighted>
-7.7653

> <Gold.Chemscore.Metal.Weighted>
-0.0000

> <Gold.Chemscore.Lipo.Weighted>
-6.8096

> <Gold.Chemscore.Internal_Hbond.Weighted>
0.0000

> <Gold.Chemscore.DEClash.Weighted>
0.0515

> <Gold.Chemscore.DEInternal.Weighted>
0.8842

> <Gold.Chemscore.Rot.Weighted>
5.3562

> <Gold.Chemscore.Internal.Correction.Weighted>
   9.000000E+99

> <Gold.Protein.RotatedTorsions>
[ 6907 6896 6895 6894 ] final -173.31 input  -60.11 | X-H torsion
[ 7974 7965 7964 7962 ] final   -1.32 input  175.53 | X-H torsion
[ 8008 7997 7996 7995 ] final  -72.15 input   59.86 | X-H torsion
[ 10167 10162 10161 10158 ] final  104.23 input  -65.29 | X-H torsion
[ 10718 10713 10712 10709 ] final    1.25 input   66.30 | X-H torsion
[ 10763 10752 10751 10750 ] final -143.47 input  -60.55 | X-H torsion
[ 11005 11000 10999 10996 ] final -113.22 input  -57.11 | X-H torsion

> <Gold.Protein.ActiveResidues>
 VAL166  LYS551  ARG553  GLY616  TRP617  ASP618  TYR619  PRO620  LYS621  CYS622 
 ASP623  PHE694  ASN695  SER759  ASP760  ASP761  ALA762  ILE779  LEU786  VAL792 
 PHE793  MET794  SER795  GLU796  ALA797  LYS798  CYS799  TRP800  GLU811  SER814 

> <Gold.Protein.RotatedAtoms>
  151.5541  133.3413  159.2958 H   0  0  0  0  0  0  0  0  0  0  0  0  # atno 6907 bound_to 6896
  150.8461  134.7773  159.6982 H   0  0  0  0  0  0  0  0  0  0  0  0  # atno 6908 bound_to 6896
  152.4518  134.5384  159.9883 H   0  0  0  0  0  0  0  0  0  0  0  0  # atno 6909 bound_to 6896
  146.2418  140.1402  142.8336 H   0  0  0  0  0  0  0  0  0  0  0  0  # atno 7974 bound_to 7965
  154.5143  140.0802  156.8051 H   0  0  0  0  0  0  0  0  0  0  0  0  # atno 8008 bound_to 7997
  155.3715  140.3423  155.4225 H   0  0  0  0  0  0  0  0  0  0  0  0  # atno 8009 bound_to 7997
  156.1610  140.1588  156.8600 H   0  0  0  0  0  0  0  0  0  0  0  0  # atno 8010 bound_to 7997
  139.7195  144.7061  151.0895 H   0  0  0  0  0  0  0  0  0  0  0  0  # atno 10167 bound_to 10162
  156.8454  130.5535  149.5674 H   0  0  0  0  0  0  0  0  0  0  0  0  # atno 10718 bound_to 10713
  154.8468  135.3467  154.6192 H   0  0  0  0  0  0  0  0  0  0  0  0  # atno 10763 bound_to 10752
  153.6801  135.6980  153.5125 H   0  0  0  0  0  0  0  0  0  0  0  0  # atno 10764 bound_to 10752
  153.2675  135.4303  155.0911 H   0  0  0  0  0  0  0  0  0  0  0  0  # atno 10765 bound_to 10752
  141.0628  133.9508  157.2636 H   0  0  0  0  0  0  0  0  0  0  0  0  # atno 11005 bound_to 11000
  145.0253  140.8827  143.5142 LP  0  0  0  0  0  0  0  0  0  0  0  0  # atno 17320 bound_to 7965
  145.1457  139.2545  143.5467 LP  0  0  0  0  0  0  0  0  0  0  0  0  # atno 17321 bound_to 7965
  140.7751  143.5185  150.9565 LP  0  0  0  0  0  0  0  0  0  0  0  0  # atno 17342 bound_to 10162
  139.8872  143.6999  152.3150 LP  0  0  0  0  0  0  0  0  0  0  0  0  # atno 17343 bound_to 10162
  156.0857  130.5856  150.9644 LP  0  0  0  0  0  0  0  0  0  0  0  0  # atno 17370 bound_to 10713
  157.6332  131.0919  150.8399 LP  0  0  0  0  0  0  0  0  0  0  0  0  # atno 17371 bound_to 10713
  139.9448  135.0186  156.8818 LP  0  0  0  0  0  0  0  0  0  0  0  0  # atno 17394 bound_to 11000
  140.5835  134.0329  155.7473 LP  0  0  0  0  0  0  0  0  0  0  0  0  # atno 17395 bound_to 11000

$$$$
