AV-unprocessed.smi:1381|AV-procd|sdf|5604|dock2
  -GOLD-   22720 5213D 1   1.00000     0.00000
 Structure written by MMmdl.
 42 43  0  0  0  0  0  0  0  0  1 V2000
  143.4869  132.3776  149.2662 C   0  0  0  0  0  0  0  0  0  0  0  0
  144.5325  133.0421  150.0945 C   0  0  0  0  0  0  0  0  0  0  0  0
  144.7689  134.3476  150.4219 C   0  0  0  0  0  0  0  0  0  0  0  0
  145.9303  134.2681  151.2353 C   0  0  0  0  0  0  0  0  0  0  0  0
  146.5148  135.4375  151.7851 N   0  0  0  0  0  0  0  0  0  0  0  0
  145.8811  136.5103  152.2890 C   0  0  0  0  0  0  0  0  0  0  0  0
  144.6591  136.6545  152.3374 O   0  0  0  0  0  0  0  0  0  0  0  0
  146.7526  137.4243  152.7389 N   0  0  0  0  0  0  0  0  0  0  0  0
  146.3884  138.7118  153.3214 C   0  0  0  0  0  0  0  0  0  0  0  0
  146.7305  138.7810  154.8227 C   0  0  0  0  0  0  0  0  0  0  0  0
  148.0685  139.2829  155.1390 N   0  0  0  0  0  0  0  0  0  0  0  0
  148.3130  140.6137  154.5876 C   0  0  0  0  0  0  0  0  0  0  0  0
  149.7333  141.1323  154.8900 C   0  0  1  0  0  0  0  0  0  0  0  0
  149.9242  141.5660  156.3537 C   0  0  0  0  0  0  0  0  0  0  0  0
  150.7089  140.1681  154.4914 O   0  0  0  0  0  0  0  0  0  0  0  0
  150.5122  138.8538  155.0098 C   0  0  2  0  0  0  0  0  0  0  0  0
  151.5960  137.9440  154.4217 C   0  0  0  0  0  0  0  0  0  0  0  0
  149.0954  138.3712  154.6519 C   0  0  0  0  0  0  0  0  0  0  0  0
  146.3626  133.0260  151.3924 N   0  0  0  0  0  0  0  0  0  0  0  0
  145.4687  132.2339  150.6621 O   0  0  0  0  0  0  0  0  0  0  0  0
  142.7013  133.0820  148.9922 H   0  0  0  0  0  0  0  0  0  0  0  0
  143.0266  131.5530  149.8106 H   0  0  0  0  0  0  0  0  0  0  0  0
  143.9183  131.9786  148.3478 H   0  0  0  0  0  0  0  0  0  0  0  0
  144.2018  135.2171  150.1238 H   0  0  0  0  0  0  0  0  0  0  0  0
  147.5236  135.4560  151.8033 H   0  0  0  0  0  0  0  0  0  0  0  0
  147.7390  137.2262  152.6562 H   0  0  0  0  0  0  0  0  0  0  0  0
  146.9027  139.5140  152.7898 H   0  0  0  0  0  0  0  0  0  0  0  0
  145.3253  138.8813  153.1546 H   0  0  0  0  0  0  0  0  0  0  0  0
  145.9895  139.4214  155.3032 H   0  0  0  0  0  0  0  0  0  0  0  0
  146.5960  137.7936  155.2666 H   0  0  0  0  0  0  0  0  0  0  0  0
  148.1706  140.5885  153.5061 H   0  0  0  0  0  0  0  0  0  0  0  0
  147.5878  141.3280  154.9763 H   0  0  0  0  0  0  0  0  0  0  0  0
  149.9057  142.0143  154.2726 H   0  0  0  0  0  0  0  0  0  0  0  0
  149.2531  142.3873  156.6053 H   0  0  0  0  0  0  0  0  0  0  0  0
  150.9442  141.9085  156.5273 H   0  0  0  0  0  0  0  0  0  0  0  0
  149.7206  140.7547  157.0522 H   0  0  0  0  0  0  0  0  0  0  0  0
  150.6287  138.8703  156.0940 H   0  0  0  0  0  0  0  0  0  0  0  0
  151.4992  136.9247  154.7966 H   0  0  0  0  0  0  0  0  0  0  0  0
  152.5909  138.3023  154.6868 H   0  0  0  0  0  0  0  0  0  0  0  0
  151.5337  137.9087  153.3337 H   0  0  0  0  0  0  0  0  0  0  0  0
  148.9381  137.3793  155.0773 H   0  0  0  0  0  0  0  0  0  0  0  0
  149.0085  138.2626  153.5695 H   0  0  0  0  0  0  0  0  0  0  0  0
  1  2  1  0  0  0  0
  1 21  1  0  0  0  0
  1 22  1  0  0  0  0
  1 23  1  0  0  0  0
  2 20  1  0  0  0  0
  2  3  2  0  0  0  0
  3  4  1  0  0  0  0
  3 24  1  0  0  0  0
  4  5  1  0  0  0  0
  4 19  2  0  0  0  0
  5  6  1  0  0  0  0
  5 25  1  0  0  0  0
  6  7  2  0  0  0  0
  6  8  1  0  0  0  0
  8  9  1  0  0  0  0
  8 26  1  0  0  0  0
  9 10  1  0  0  0  0
  9 27  1  0  0  0  0
  9 28  1  0  0  0  0
 10 11  1  0  0  0  0
 10 29  1  0  0  0  0
 10 30  1  0  0  0  0
 11 18  1  0  0  0  0
 11 12  1  0  0  0  0
 12 13  1  0  0  0  0
 12 31  1  0  0  0  0
 12 32  1  0  0  0  0
 13 14  1  0  0  0  0
 13 15  1  0  0  0  0
 13 33  1  0  0  0  0
 14 34  1  0  0  0  0
 14 35  1  0  0  0  0
 14 36  1  0  0  0  0
 15 16  1  0  0  0  0
 16 17  1  0  0  0  0
 16 18  1  0  0  0  0
 16 37  1  0  0  0  0
 17 38  1  0  0  0  0
 17 39  1  0  0  0  0
 17 40  1  0  0  0  0
 18 41  1  0  0  0  0
 18 42  1  0  0  0  0
 19 20  1  0  0  0  0
M  END
> <s_m_source_file>
AV-unprocessed.smi

> <i_m_source_file_index>
1381

> <i_lp_mmshare_version>
43012

> <i_f3d_flags>
0

> <s_epik_input>
W0NIM11jMVtjSF1jKG5vMSlbTkhdQyg9TylbTkhdW0NIMl1bQ0gyXU4yW0NIMl1bQ0BASF0oW0NIM10pT1tDQEBIXShbQ0gzXSlbQ0gyXTI=

> <s_epik_cmdline>
J2VwaWtfcHl0aG9uJywgJy1waCcsICc3LjAnLCAnLXRuJywgJzgnLCAnLW1hJywgJzIwMCcsICctbWV0YWxfYmluZGluZycsICctaW1hZScsICc8aW5maWxlLm1hZT4nLCAnLW9tYWUnLCAnPG91dGZpbGUubWFlPic=

> <r_epik_Ionization_Penalty>
0.214073

> <r_epik_Ionization_Penalty_Charging>
0

> <r_epik_Ionization_Penalty_Neutral>
0.214073

> <r_epik_State_Penalty>
0.204211

> <r_epik_Charging_Adjusted_Penalty>
0.204211

> <i_epik_Tot_Q>
0

> <i_epik_Tot_abs_Q>
0

> <r_epik_Metal_State_Penalty>
0.217067

> <b_epik_Metal_Only>
0

> <s_lp_Force_Field>
OPLS_2005

> <r_lp_Energy>
24.2919

> <b_lp_Chiralities_Consistent>
1

> <s_lp_Variant>
AV-unprocessed.smi:1381-3

> <Gold.Version>
5.8.1

> <Gold.Id.Protein>
6NUR|6NUR_protein|mol2

> <Gold.PLP.Fitness>
38.0865

> <Gold.PLP.PLP>
-30.3958

> <Gold.PLP.part.hbond>
-2.9025

> <Gold.PLP.part.metal>
0.0000

> <Gold.PLP.part.buried>
-3.0290

> <Gold.PLP.part.nonpolar>
-26.1734

> <Gold.PLP.part.repulsive>
0.7323

> <Gold.PLP.ligand.clash>
0.0000

> <Gold.PLP.ligand.torsion>
0.5253

> <Gold.PLP.Chemscore.Hbond>
2.9033

> <Gold.PLP.Chemscore.CHOScore>
0.0000

> <Gold.PLP.Chemscore.Metal>
0.0000

> <Gold.Chemscore.Hbonds>
donor molecule, donor type, donor heavy atom, donor atom, acceptor molecule, acceptor atom, score
      L1  H     5    25       P1  7948  1.00
      L1  H     8    26       P1  7948  0.90
      P1  H  7989  7998       L1    15  0.99

> <Gold.PLP.Chemscore.Internal.Correction>
0.0317

> <Gold.Rescore>
     Score         DG    S(hbond)    S(metal)    S(lipo)     H(rot)  DE(clash)    DE(int)     intcor
     18.13     -19.87       2.85        0.00      75.94       1.57       0.11       1.63       ----

> <Gold.Chemscore.Fitness>
18.1315

> <Gold.Chemscore.DG>
-19.8710

> <Gold.Chemscore.ZeroCoef>
-5.4800

> <Gold.Chemscore.Hbond>
2.8518

> <Gold.Chemscore.Metal>
0.0000

> <Gold.Chemscore.Lipo>
75.9350

> <Gold.Chemscore.Internal_Hbond>
0.0000

> <Gold.Chemscore.DEClash>
0.1062

> <Gold.Chemscore.DEInternal>
1.6334

> <Gold.Chemscore.Rot>
1.5697

> <Gold.Chemscore.Internal.Correction>
   9.000000E+99

> <Gold.Chemscore.Hbonds>
donor molecule, donor type, donor heavy atom, donor atom, acceptor molecule, acceptor atom, score
      L1  H     5    25       P1  7948  0.94
      L1  H     8    26       P1  7948  0.88
      P1  H  7989  7998       L1    15  0.51

> <Gold.Chemscore.Hbond.Weighted>
-9.5251

> <Gold.Chemscore.Metal.Weighted>
-0.0000

> <Gold.Chemscore.Lipo.Weighted>
-8.8844

> <Gold.Chemscore.Internal_Hbond.Weighted>
0.0000

> <Gold.Chemscore.DEClash.Weighted>
0.1062

> <Gold.Chemscore.DEInternal.Weighted>
1.6334

> <Gold.Chemscore.Rot.Weighted>
4.0185

> <Gold.Chemscore.Internal.Correction.Weighted>
   9.000000E+99

> <Gold.Protein.RotatedTorsions>
[ 6907 6896 6895 6894 ] final  119.69 input  -60.11 | X-H torsion
[ 7974 7965 7964 7962 ] final -127.60 input  175.53 | X-H torsion
[ 8008 7997 7996 7995 ] final -174.00 input   59.86 | X-H torsion
[ 10167 10162 10161 10158 ] final   45.38 input  -65.29 | X-H torsion
[ 10718 10713 10712 10709 ] final  117.98 input   66.30 | X-H torsion
[ 10763 10752 10751 10750 ] final -173.88 input  -60.55 | X-H torsion
[ 11005 11000 10999 10996 ] final -149.23 input  -57.11 | X-H torsion

> <Gold.Protein.ActiveResidues>
 VAL166  LYS551  ARG553  GLY616  TRP617  ASP618  TYR619  PRO620  LYS621  CYS622 
 ASP623  PHE694  ASN695  SER759  ASP760  ASP761  ALA762  ILE779  LEU786  VAL792 
 PHE793  MET794  SER795  GLU796  ALA797  LYS798  CYS799  TRP800  GLU811  SER814 

> <Gold.Protein.RotatedAtoms>
  152.4453  133.7525  159.6701 H   0  0  0  0  0  0  0  0  0  0  0  0  # atno 6907 bound_to 6896
  150.8352  133.8015  159.3089 H   0  0  0  0  0  0  0  0  0  0  0  0  # atno 6908 bound_to 6896
  151.5657  135.1066  160.0035 H   0  0  0  0  0  0  0  0  0  0  0  0  # atno 6909 bound_to 6896
  144.9754  140.7588  143.4644 H   0  0  0  0  0  0  0  0  0  0  0  0  # atno 7974 bound_to 7965
  155.9646  140.1151  157.0866 H   0  0  0  0  0  0  0  0  0  0  0  0  # atno 8008 bound_to 7997
  154.4140  140.1175  156.5291 H   0  0  0  0  0  0  0  0  0  0  0  0  # atno 8009 bound_to 7997
  155.6676  140.3473  155.4808 H   0  0  0  0  0  0  0  0  0  0  0  0  # atno 8010 bound_to 7997
  140.3247  144.2662  150.6177 H   0  0  0  0  0  0  0  0  0  0  0  0  # atno 10167 bound_to 10162
  157.6060  131.1043  150.7692 H   0  0  0  0  0  0  0  0  0  0  0  0  # atno 10718 bound_to 10713
  154.6027  135.2856  155.0517 H   0  0  0  0  0  0  0  0  0  0  0  0  # atno 10763 bound_to 10752
  154.1776  135.6462  153.5029 H   0  0  0  0  0  0  0  0  0  0  0  0  # atno 10764 bound_to 10752
  153.0163  135.5416  154.6752 H   0  0  0  0  0  0  0  0  0  0  0  0  # atno 10765 bound_to 10752
  140.7530  134.3385  157.5121 H   0  0  0  0  0  0  0  0  0  0  0  0  # atno 11005 bound_to 11000
  145.2497  139.2037  143.4949 LP  0  0  0  0  0  0  0  0  0  0  0  0  # atno 17320 bound_to 7965
  146.3394  140.2408  142.8595 LP  0  0  0  0  0  0  0  0  0  0  0  0  # atno 17321 bound_to 7965
  140.5451  143.2216  151.8020 LP  0  0  0  0  0  0  0  0  0  0  0  0  # atno 17342 bound_to 10162
  139.4867  144.4549  151.9610 LP  0  0  0  0  0  0  0  0  0  0  0  0  # atno 17343 bound_to 10162
  156.8080  130.4943  149.5360 LP  0  0  0  0  0  0  0  0  0  0  0  0  # atno 17370 bound_to 10713
  156.1147  130.6066  151.0102 LP  0  0  0  0  0  0  0  0  0  0  0  0  # atno 17371 bound_to 10713
  139.8784  134.9154  156.3129 LP  0  0  0  0  0  0  0  0  0  0  0  0  # atno 17394 bound_to 11000
  140.9733  133.7313  156.0566 LP  0  0  0  0  0  0  0  0  0  0  0  0  # atno 17395 bound_to 11000

$$$$
