AV-unprocessed.smi:212|AV-procd|sdf|1618|dock3
  -GOLD-   2262019543D 1   1.00000     0.00000
 Structure written by MMmdl.
 65 68  0  0  0  0  0  0  0  0  2 V2000
  149.3859  131.6541  154.5309 C   0  0  0  0  0  0  0  0  0  0  0  0
  149.3973  133.1523  154.1834 C   0  0  1  0  0  0  0  0  0  0  0  0
  148.4119  133.4936  153.0459 C   0  0  0  0  0  0  0  0  0  0  0  0
  147.0011  133.4256  153.5082 N   0  3  2  0  0  0  0  0  0  0  0  0
  146.0114  133.6078  152.4146 C   0  0  0  0  0  0  0  0  0  0  0  0
  146.0919  132.4799  151.3607 C   0  0  0  0  0  0  0  0  0  0  0  0
  146.5188  131.1605  152.0254 C   0  0  0  0  0  0  0  0  0  0  0  0
  144.7723  132.2853  150.5916 C   0  0  0  0  0  0  0  0  0  0  0  0
  147.1026  132.8140  150.4295 O   0  0  0  0  0  0  0  0  0  0  0  0
  146.7513  134.3001  154.6810 C   0  0  0  0  0  0  0  0  0  0  0  0
  147.7303  133.9783  155.8254 C   0  0  0  0  0  0  0  0  0  0  0  0
  149.1179  133.9827  155.3581 N   0  0  0  0  0  0  0  0  0  0  0  0
  149.8365  135.1320  155.4560 C   0  0  0  0  0  0  0  0  0  0  0  0
  150.4578  135.6400  154.3584 N   0  0  0  0  0  0  0  0  0  0  0  0
  151.1807  136.7600  154.4487 C   0  0  0  0  0  0  0  0  0  0  0  0
  151.4080  137.5213  155.5201 N   0  0  0  0  0  0  0  0  0  0  0  0
  150.7774  137.0256  156.6223 C   0  0  0  0  0  0  0  0  0  0  0  0
  149.9811  135.8470  156.6785 C   0  0  0  0  0  0  0  0  0  0  0  0
  149.5009  135.6623  157.9697 N   0  0  0  0  0  0  0  0  0  0  0  0
  149.9914  136.6687  158.6401 C   0  0  0  0  0  0  0  0  0  0  0  0
  150.7568  137.5458  157.9047 N   0  0  0  0  0  0  0  0  0  0  0  0
  151.4279  138.7363  158.3942 C   0  0  0  0  0  0  0  0  0  0  0  0
  150.9960  140.0634  157.7080 C   0  0  2  0  0  0  0  0  0  0  0  0
  151.6221  140.1526  156.2985 C   0  0  0  0  0  0  0  0  0  0  0  0
  150.6934  140.6421  155.3532 O   0  0  0  0  0  0  0  0  0  0  0  0
  151.2825  141.3777  158.4927 C   0  0  2  0  0  0  0  0  0  0  0  0
  150.9187  142.6853  157.8144 C   0  0  0  0  0  0  0  0  0  0  0  0
  151.6391  143.7099  158.6907 C   0  0  0  0  0  0  0  0  0  0  0  0
  152.7212  143.0214  159.3159 O   0  0  0  0  0  0  0  0  0  0  0  0
  152.7229  141.6530  158.9266 C   0  0  0  0  0  0  0  0  0  0  0  0
  149.6580  131.0520  153.6637 H   0  0  0  0  0  0  0  0  0  0  0  0
  148.4058  131.3176  154.8693 H   0  0  0  0  0  0  0  0  0  0  0  0
  150.1050  131.4335  155.3205 H   0  0  0  0  0  0  0  0  0  0  0  0
  150.3958  133.3723  153.8062 H   0  0  0  0  0  0  0  0  0  0  0  0
  148.6132  134.5010  152.6776 H   0  0  0  0  0  0  0  0  0  0  0  0
  148.5661  132.8179  152.2039 H   0  0  0  0  0  0  0  0  0  0  0  0
  145.0015  133.6416  152.8274 H   0  0  0  0  0  0  0  0  0  0  0  0
  146.1568  134.5767  151.9338 H   0  0  0  0  0  0  0  0  0  0  0  0
  145.7833  130.8339  152.7613 H   0  0  0  0  0  0  0  0  0  0  0  0
  147.4748  131.2635  152.5405 H   0  0  0  0  0  0  0  0  0  0  0  0
  146.6260  130.3601  151.2922 H   0  0  0  0  0  0  0  0  0  0  0  0
  143.9518  132.0531  151.2713 H   0  0  0  0  0  0  0  0  0  0  0  0
  144.8477  131.4656  149.8765 H   0  0  0  0  0  0  0  0  0  0  0  0
  144.4937  133.1769  150.0291 H   0  0  0  0  0  0  0  0  0  0  0  0
  147.8019  132.1822  150.5035 H   0  0  0  0  0  0  0  0  0  0  0  0
  146.8479  135.3438  154.3789 H   0  0  0  0  0  0  0  0  0  0  0  0
  145.7271  134.1637  155.0303 H   0  0  0  0  0  0  0  0  0  0  0  0
  147.5935  134.6738  156.6545 H   0  0  0  0  0  0  0  0  0  0  0  0
  147.5083  132.9908  156.2301 H   0  0  0  0  0  0  0  0  0  0  0  0
  151.6434  137.0946  153.5319 H   0  0  0  0  0  0  0  0  0  0  0  0
  149.7995  136.8024  159.6948 H   0  0  0  0  0  0  0  0  0  0  0  0
  151.2849  138.8010  159.4730 H   0  0  0  0  0  0  0  0  0  0  0  0
  152.4959  138.5727  158.2491 H   0  0  0  0  0  0  0  0  0  0  0  0
  149.9158  140.0275  157.5611 H   0  0  0  0  0  0  0  0  0  0  0  0
  152.4752  140.8315  156.2940 H   0  0  0  0  0  0  0  0  0  0  0  0
  151.9878  139.1778  155.9743 H   0  0  0  0  0  0  0  0  0  0  0  0
  150.2295  141.3709  155.7364 H   0  0  0  0  0  0  0  0  0  0  0  0
  150.7127  141.3321  159.4225 H   0  0  0  0  0  0  0  0  0  0  0  0
  151.3206  142.7323  156.8034 H   0  0  0  0  0  0  0  0  0  0  0  0
  149.8435  142.8572  157.7614 H   0  0  0  0  0  0  0  0  0  0  0  0
  151.9965  144.5622  158.1123 H   0  0  0  0  0  0  0  0  0  0  0  0
  150.9741  144.0854  159.4690 H   0  0  0  0  0  0  0  0  0  0  0  0
  153.0447  141.0079  159.7445 H   0  0  0  0  0  0  0  0  0  0  0  0
  153.4368  141.5466  158.1149 H   0  0  0  0  0  0  0  0  0  0  0  0
  146.8608  132.4822  153.8414 H   0  0  0  0  0  0  0  0  0  0  0  0
  1  2  1  0  0  0  0
  1 31  1  0  0  0  0
  1 32  1  0  0  0  0
  1 33  1  0  0  0  0
  2 12  1  0  0  0  0
  2  3  1  0  0  0  0
  2 34  1  0  0  0  0
  3  4  1  0  0  0  0
  3 35  1  0  0  0  0
  3 36  1  0  0  0  0
  4  5  1  0  0  0  0
  4 10  1  0  0  0  0
  4 65  1  0  0  0  0
  5  6  1  0  0  0  0
  5 37  1  0  0  0  0
  5 38  1  0  0  0  0
  6  7  1  0  0  0  0
  6  8  1  0  0  0  0
  6  9  1  0  0  0  0
  7 39  1  0  0  0  0
  7 40  1  0  0  0  0
  7 41  1  0  0  0  0
  8 42  1  0  0  0  0
  8 43  1  0  0  0  0
  8 44  1  0  0  0  0
  9 45  1  0  0  0  0
 10 11  1  0  0  0  0
 10 46  1  0  0  0  0
 10 47  1  0  0  0  0
 11 12  1  0  0  0  0
 11 48  1  0  0  0  0
 11 49  1  0  0  0  0
 12 13  1  0  0  0  0
 13 18  1  0  0  0  0
 13 14  2  0  0  0  0
 14 15  1  0  0  0  0
 15 16  2  0  0  0  0
 15 50  1  0  0  0  0
 16 17  1  0  0  0  0
 17 21  1  0  0  0  0
 17 18  2  0  0  0  0
 18 19  1  0  0  0  0
 19 20  2  0  0  0  0
 20 21  1  0  0  0  0
 20 51  1  0  0  0  0
 21 22  1  0  0  0  0
 22 23  1  0  0  0  0
 22 52  1  0  0  0  0
 22 53  1  0  0  0  0
 23 24  1  0  0  0  0
 23 26  1  0  0  0  0
 23 54  1  0  0  0  0
 24 25  1  0  0  0  0
 24 55  1  0  0  0  0
 24 56  1  0  0  0  0
 25 57  1  0  0  0  0
 26 30  1  0  0  0  0
 26 27  1  0  0  0  0
 26 58  1  0  0  0  0
 27 28  1  0  0  0  0
 27 59  1  0  0  0  0
 27 60  1  0  0  0  0
 28 29  1  0  0  0  0
 28 61  1  0  0  0  0
 28 62  1  0  0  0  0
 29 30  1  0  0  0  0
 30 63  1  0  0  0  0
 30 64  1  0  0  0  0
M  CHG  1   4   1
M  END
> <s_m_source_file>
AV-unprocessed.smi

> <i_m_source_file_index>
212

> <i_lp_mmshare_version>
43012

> <i_f3d_flags>
0

> <s_epik_input>
W0NIM11bQ0BASF0xW0NIMl1OKFtDSDJdQyhbQ0gzXSkoW0NIM10pW09IXSlbQ0gyXVtDSDJdTjFjKG5bY0hdbjIpYyhjMjMpbltjSF1uM1tDSDJdW0NASF0oW0NIMl1bT0hdKVtDQEBIXTRbQ0gyXVtDSDJdT1tDSDJdNA==

> <s_epik_cmdline>
J2VwaWtfcHl0aG9uJywgJy1waCcsICc3LjAnLCAnLXRuJywgJzgnLCAnLW1hJywgJzIwMCcsICctbWV0YWxfYmluZGluZycsICctaW1hZScsICc8aW5maWxlLm1hZT4nLCAnLW9tYWUnLCAnPG91dGZpbGUubWFlPic=

> <r_lp_tautomer_probability>
1

> <r_epik_Ionization_Penalty>
0.00182193

> <r_epik_Ionization_Penalty_Charging>
0.00173996

> <r_epik_Ionization_Penalty_Neutral>
8.19718e-05

> <r_epik_State_Penalty>
-0

> <r_epik_Charging_Adjusted_Penalty>
0.00173996

> <i_epik_Tot_Q>
1

> <i_epik_Tot_abs_Q>
1

> <r_epik_Metal_State_Penalty>
-0

> <b_epik_Metal_Only>
0

> <s_lp_Force_Field>
OPLS_2005

> <r_lp_Energy>
59.4292

> <b_lp_Chiralities_Consistent>
1

> <s_lp_Variant>
AV-unprocessed.smi:212-2

> <Gold.Version>
5.8.1

> <Gold.Id.Protein>
6NUR|6NUR_protein|mol2

> <Gold.PLP.Fitness>
47.8692

> <Gold.PLP.PLP>
-41.5829

> <Gold.PLP.part.hbond>
-2.0000

> <Gold.PLP.part.metal>
0.0000

> <Gold.PLP.part.buried>
-6.2627

> <Gold.PLP.part.nonpolar>
-34.3584

> <Gold.PLP.part.repulsive>
0.2344

> <Gold.PLP.ligand.clash>
0.0059

> <Gold.PLP.ligand.torsion>
1.7674

> <Gold.PLP.Chemscore.Hbond>
1.9760

> <Gold.PLP.Chemscore.CHOScore>
0.9038

> <Gold.PLP.Chemscore.Metal>
0.0000

> <Gold.Chemscore.Hbonds>
donor molecule, donor type, donor heavy atom, donor atom, acceptor molecule, acceptor atom, score
      L1  H     9    45       P1 10747  1.00
      P1  H  7989  7998       L1    25  0.79
      L1  C    15    50       P1  7949  0.81

> <Gold.PLP.Chemscore.Internal.Correction>
1.1876

> <Gold.Rescore>
     Score         DG    S(hbond)    S(metal)    S(lipo)     H(rot)  DE(clash)    DE(int)     intcor
      9.24     -13.27       1.43        0.00     100.10       3.40       0.83       3.20       ----

> <Gold.Chemscore.Fitness>
9.2390

> <Gold.Chemscore.DG>
-13.2744

> <Gold.Chemscore.ZeroCoef>
-5.4800

> <Gold.Chemscore.Hbond>
1.4320

> <Gold.Chemscore.Metal>
0.0000

> <Gold.Chemscore.Lipo>
100.1029

> <Gold.Chemscore.Internal_Hbond>
0.0000

> <Gold.Chemscore.DEClash>
0.8342

> <Gold.Chemscore.DEInternal>
3.2012

> <Gold.Chemscore.Rot>
3.3986

> <Gold.Chemscore.Internal.Correction>
   9.000000E+99

> <Gold.Chemscore.Hbonds>
donor molecule, donor type, donor heavy atom, donor atom, acceptor molecule, acceptor atom, score
      L1  H     9    45       P1 10747  1.00
      P1  H  7989  7998       L1    25  0.53

> <Gold.Chemscore.Hbond.Weighted>
-4.7828

> <Gold.Chemscore.Metal.Weighted>
-0.0000

> <Gold.Chemscore.Lipo.Weighted>
-11.7120

> <Gold.Chemscore.Internal_Hbond.Weighted>
0.0000

> <Gold.Chemscore.DEClash.Weighted>
0.8342

> <Gold.Chemscore.DEInternal.Weighted>
3.2012

> <Gold.Chemscore.Rot.Weighted>
8.7005

> <Gold.Chemscore.Internal.Correction.Weighted>
   9.000000E+99

> <Gold.Protein.RotatedTorsions>
[ 6907 6896 6895 6894 ] final  123.07 input  -60.11 | X-H torsion
[ 7974 7965 7964 7962 ] final   64.54 input  175.53 | X-H torsion
[ 8008 7997 7996 7995 ] final  -47.89 input   59.86 | X-H torsion
[ 10167 10162 10161 10158 ] final  -10.48 input  -65.29 | X-H torsion
[ 10718 10713 10712 10709 ] final  107.73 input   66.30 | X-H torsion
[ 10763 10752 10751 10750 ] final  122.70 input  -60.55 | X-H torsion
[ 11005 11000 10999 10996 ] final -104.00 input  -57.11 | X-H torsion

> <Gold.Protein.ActiveResidues>
 VAL166  LYS551  ARG553  GLY616  TRP617  ASP618  TYR619  PRO620  LYS621  CYS622 
 ASP623  PHE694  ASN695  SER759  ASP760  ASP761  ALA762  ILE779  LEU786  VAL792 
 PHE793  MET794  SER795  GLU796  ALA797  LYS798  CYS799  TRP800  GLU811  SER814 

> <Gold.Protein.RotatedAtoms>
  152.4192  133.7088  159.6466 H   0  0  0  0  0  0  0  0  0  0  0  0  # atno 6907 bound_to 6896
  150.8068  133.8484  159.3207 H   0  0  0  0  0  0  0  0  0  0  0  0  # atno 6908 bound_to 6896
  151.6205  135.1034  160.0152 H   0  0  0  0  0  0  0  0  0  0  0  0  # atno 6909 bound_to 6896
  145.8490  139.3242  143.0886 H   0  0  0  0  0  0  0  0  0  0  0  0  # atno 7974 bound_to 7965
  154.4022  140.1335  156.4250 H   0  0  0  0  0  0  0  0  0  0  0  0  # atno 8008 bound_to 7997
  155.7606  140.3486  155.5176 H   0  0  0  0  0  0  0  0  0  0  0  0  # atno 8009 bound_to 7997
  155.8862  140.0995  157.1441 H   0  0  0  0  0  0  0  0  0  0  0  0  # atno 8010 bound_to 7997
  140.7115  143.5744  150.9058 H   0  0  0  0  0  0  0  0  0  0  0  0  # atno 10167 bound_to 10162
  157.6616  131.0879  150.6199 H   0  0  0  0  0  0  0  0  0  0  0  0  # atno 10718 bound_to 10713
  153.6340  135.3391  155.3050 H   0  0  0  0  0  0  0  0  0  0  0  0  # atno 10763 bound_to 10752
  154.8574  135.4302  154.2076 H   0  0  0  0  0  0  0  0  0  0  0  0  # atno 10764 bound_to 10752
  153.2978  135.7022  153.7305 H   0  0  0  0  0  0  0  0  0  0  0  0  # atno 10765 bound_to 10752
  141.1120  133.8686  157.1556 H   0  0  0  0  0  0  0  0  0  0  0  0  # atno 11005 bound_to 11000
  145.9379  140.9001  143.0323 LP  0  0  0  0  0  0  0  0  0  0  0  0  # atno 17320 bound_to 7965
  144.6730  140.1508  143.7430 LP  0  0  0  0  0  0  0  0  0  0  0  0  # atno 17321 bound_to 7965
  139.9470  143.6316  152.3039 LP  0  0  0  0  0  0  0  0  0  0  0  0  # atno 17342 bound_to 10162
  139.6821  144.7654  151.1590 LP  0  0  0  0  0  0  0  0  0  0  0  0  # atno 17343 bound_to 10162
  156.6502  130.4483  149.5722 LP  0  0  0  0  0  0  0  0  0  0  0  0  # atno 17370 bound_to 10713
  156.2143  130.6698  151.1303 LP  0  0  0  0  0  0  0  0  0  0  0  0  # atno 17371 bound_to 10713
  140.0020  135.0024  157.0211 LP  0  0  0  0  0  0  0  0  0  0  0  0  # atno 17394 bound_to 11000
  140.4748  134.1350  155.7208 LP  0  0  0  0  0  0  0  0  0  0  0  0  # atno 17395 bound_to 11000

$$$$
