AV-unprocessed.smi:2164|AV-procd|sdf|8810|dock8
  -GOLD-   2272012 03D 1   1.00000     0.00000
 Structure written by MMmdl.
 38 40  0  0  0  0  0  0  0  0  2 V2000
  154.7749  138.3070  158.1580 O   0  0  0  0  0  0  0  0  0  0  0  0
  153.6200  138.5985  158.4948 C   0  0  0  0  0  0  0  0  0  0  0  0
  153.1609  138.6260  159.7827 N   0  5  0  0  0  0  0  0  0  0  0  0
  153.9707  138.9264  160.9634 C   0  0  0  0  0  0  0  0  0  0  0  0
  154.7399  140.2441  160.7416 C   0  0  0  0  0  0  0  0  0  0  0  0
  153.9001  141.4920  160.9773 C   0  0  0  0  0  0  0  0  0  0  0  0
  153.7187  142.0119  162.2776 C   0  0  0  0  0  0  0  0  0  0  0  0
  152.9228  143.1611  162.4464 C   0  0  0  0  0  0  0  0  0  0  0  0
  152.3360  143.7433  161.3055 C   0  0  0  0  0  0  0  0  0  0  0  0
  152.4951  143.2539  160.0573 N   0  0  0  0  0  0  0  0  0  0  0  0
  153.2602  142.1515  159.9037 C   0  0  0  0  0  0  0  0  0  0  0  0
  152.6560  138.9443  157.4395 C   0  0  0  0  0  0  0  0  0  0  0  0
  151.4480  139.4947  157.6911 C   0  0  0  0  0  0  0  0  0  0  0  0
  150.5256  139.8253  156.6949 N   0  0  0  0  0  0  0  0  0  0  0  0
  149.2186  140.3227  157.1088 C   0  0  0  0  0  0  0  0  0  0  0  0
  148.7721  141.4576  156.2009 C   0  0  0  0  0  0  0  0  0  0  0  0
  148.6039  140.7397  154.5223 S   0  0  0  0  0  0  0  0  0  0  0  0
  147.5902  139.6749  154.5818 O   0  0  0  0  0  0  0  0  0  0  0  0
  148.4323  141.8450  153.5673 O   0  0  0  0  0  0  0  0  0  0  0  0
  150.1183  140.0483  154.3269 N   0  0  0  0  0  0  0  0  0  0  0  0
  150.8527  139.6594  155.3249 C   0  0  0  0  0  0  0  0  0  0  0  0
  152.1342  139.0301  155.0519 C   0  0  0  0  0  0  0  0  0  0  0  0
  152.9833  138.6949  156.0445 C   0  0  0  0  0  0  0  0  0  0  0  0
  153.3548  139.0224  161.8585 H   0  0  0  0  0  0  0  0  0  0  0  0
  154.6858  138.1302  161.1741 H   0  0  0  0  0  0  0  0  0  0  0  0
  155.6081  140.2821  161.4015 H   0  0  0  0  0  0  0  0  0  0  0  0
  155.1311  140.2776  159.7236 H   0  0  0  0  0  0  0  0  0  0  0  0
  154.1833  141.5395  163.1307 H   0  0  0  0  0  0  0  0  0  0  0  0
  152.7661  143.5856  163.4268 H   0  0  0  0  0  0  0  0  0  0  0  0
  151.7194  144.6251  161.3986 H   0  0  0  0  0  0  0  0  0  0  0  0
  153.3654  141.7842  158.8934 H   0  0  0  0  0  0  0  0  0  0  0  0
  151.1048  139.7195  158.6907 H   0  0  0  0  0  0  0  0  0  0  0  0
  148.4991  139.5035  157.0889 H   0  0  0  0  0  0  0  0  0  0  0  0
  149.2531  140.6842  158.1371 H   0  0  0  0  0  0  0  0  0  0  0  0
  147.8087  141.8645  156.5067 H   0  0  0  0  0  0  0  0  0  0  0  0
  149.4990  142.2703  156.1762 H   0  0  0  0  0  0  0  0  0  0  0  0
  152.4481  138.8210  154.0395 H   0  0  0  0  0  0  0  0  0  0  0  0
  153.9222  138.2320  155.7776 H   0  0  0  0  0  0  0  0  0  0  0  0
  1  2  2  0  0  0  0
  2  3  1  0  0  0  0
  2 12  1  0  0  0  0
  3  4  1  0  0  0  0
  4  5  1  0  0  0  0
  4 24  1  0  0  0  0
  4 25  1  0  0  0  0
  5  6  1  0  0  0  0
  5 26  1  0  0  0  0
  5 27  1  0  0  0  0
  6 11  1  0  0  0  0
  6  7  2  0  0  0  0
  7  8  1  0  0  0  0
  7 28  1  0  0  0  0
  8  9  2  0  0  0  0
  8 29  1  0  0  0  0
  9 10  1  0  0  0  0
  9 30  1  0  0  0  0
 10 11  2  0  0  0  0
 11 31  1  0  0  0  0
 12 23  1  0  0  0  0
 12 13  2  0  0  0  0
 13 14  1  0  0  0  0
 13 32  1  0  0  0  0
 14 21  1  0  0  0  0
 14 15  1  0  0  0  0
 15 16  1  0  0  0  0
 15 33  1  0  0  0  0
 15 34  1  0  0  0  0
 16 17  1  0  0  0  0
 16 35  1  0  0  0  0
 16 36  1  0  0  0  0
 17 18  2  0  0  0  0
 17 19  2  0  0  0  0
 17 20  1  0  0  0  0
 20 21  2  0  0  0  0
 21 22  1  0  0  0  0
 22 23  2  0  0  0  0
 22 37  1  0  0  0  0
 23 38  1  0  0  0  0
M  CHG  1   3  -1
M  END
> <s_m_source_file>
AV-unprocessed.smi

> <i_m_source_file_index>
2164

> <i_lp_mmshare_version>
43012

> <i_f3d_flags>
0

> <s_epik_input>
W0NIMl0xW0NIMl1TKD1PKSg9TylOPUMoTjEyKVtDSF09W0NIXUMoPVtDSF0yKUMoPU8pW05IXVtDSDJdW0NIMl1jM1tjSF1bY0hdW2NIXW5bY0hdMw==

> <s_epik_cmdline>
J2VwaWtfcHl0aG9uJywgJy1waCcsICc3LjAnLCAnLXRuJywgJzgnLCAnLW1hJywgJzIwMCcsICctbWV0YWxfYmluZGluZycsICctaW1hZScsICc8aW5maWxlLm1hZT4nLCAnLW9tYWUnLCAnPG91dGZpbGUubWFlPic=

> <r_epik_Ionization_Penalty>
5.17728

> <r_epik_Ionization_Penalty_Charging>
5.15676

> <r_epik_Ionization_Penalty_Neutral>
0.0205175

> <r_epik_State_Penalty>
5.1638

> <r_epik_Charging_Adjusted_Penalty>
10.3206

> <i_epik_Tot_Q>
-1

> <i_epik_Tot_abs_Q>
1

> <r_epik_Metal_State_Penalty>
1.2481

> <b_epik_Metal_Only>
1

> <s_lp_Force_Field>
OPLS_2005

> <r_lp_Energy>
26.7817

> <b_lp_Chiralities_Consistent>
1

> <s_lp_Variant>
AV-unprocessed.smi:2164-3

> <Gold.Version>
5.8.1

> <Gold.Id.Protein>
6NUR|6NUR_protein|mol2

> <Gold.PLP.Fitness>
45.9920

> <Gold.PLP.PLP>
-41.3777

> <Gold.PLP.part.hbond>
-3.0000

> <Gold.PLP.part.metal>
0.0000

> <Gold.PLP.part.buried>
-2.2203

> <Gold.PLP.part.nonpolar>
-36.8635

> <Gold.PLP.part.repulsive>
0.4587

> <Gold.PLP.ligand.clash>
0.0000

> <Gold.PLP.ligand.torsion>
0.7129

> <Gold.PLP.Chemscore.Hbond>
2.0084

> <Gold.PLP.Chemscore.CHOScore>
0.0000

> <Gold.PLP.Chemscore.Metal>
0.0000

> <Gold.Chemscore.Hbonds>
donor molecule, donor type, donor heavy atom, donor atom, acceptor molecule, acceptor atom, score
      P1  H  7989  7998       L1    20  0.60
      P1  H  7997  8010       L1     1  0.76
      P1  H  8011  8017       L1    19  0.53

> <Gold.PLP.Chemscore.Internal.Correction>
0.0148

> <Gold.Rescore>
     Score         DG    S(hbond)    S(metal)    S(lipo)     H(rot)  DE(clash)    DE(int)     intcor
     14.78     -15.51       0.60        0.00     100.11       1.44       0.09       0.64       ----

> <Gold.Chemscore.Fitness>
14.7784

> <Gold.Chemscore.DG>
-15.5098

> <Gold.Chemscore.ZeroCoef>
-5.4800

> <Gold.Chemscore.Hbond>
0.6022

> <Gold.Chemscore.Metal>
0.0000

> <Gold.Chemscore.Lipo>
100.1148

> <Gold.Chemscore.Internal_Hbond>
0.0000

> <Gold.Chemscore.DEClash>
0.0888

> <Gold.Chemscore.DEInternal>
0.6427

> <Gold.Chemscore.Rot>
1.4433

> <Gold.Chemscore.Internal.Correction>
   9.000000E+99

> <Gold.Chemscore.Hbonds>
donor molecule, donor type, donor heavy atom, donor atom, acceptor molecule, acceptor atom, score
      P1  H  7989  7998       L1    20  0.04
      P1  H  7997  8010       L1     1  0.13
      P1  H  8011  8017       L1    19  0.52

> <Gold.Chemscore.Hbond.Weighted>
-2.0113

> <Gold.Chemscore.Metal.Weighted>
-0.0000

> <Gold.Chemscore.Lipo.Weighted>
-11.7134

> <Gold.Chemscore.Internal_Hbond.Weighted>
0.0000

> <Gold.Chemscore.DEClash.Weighted>
0.0888

> <Gold.Chemscore.DEInternal.Weighted>
0.6427

> <Gold.Chemscore.Rot.Weighted>
3.6949

> <Gold.Chemscore.Internal.Correction.Weighted>
   9.000000E+99

> <Gold.Protein.RotatedTorsions>
[ 6907 6896 6895 6894 ] final   64.89 input  -60.11 | X-H torsion
[ 7974 7965 7964 7962 ] final -136.47 input  175.53 | X-H torsion
[ 8008 7997 7996 7995 ] final   -6.77 input   59.86 | X-H torsion
[ 10167 10162 10161 10158 ] final  -82.22 input  -65.29 | X-H torsion
[ 10718 10713 10712 10709 ] final  -54.83 input   66.30 | X-H torsion
[ 10763 10752 10751 10750 ] final  -48.65 input  -60.55 | X-H torsion
[ 11005 11000 10999 10996 ] final   50.52 input  -57.11 | X-H torsion

> <Gold.Protein.ActiveResidues>
 VAL166  LYS551  ARG553  GLY616  TRP617  ASP618  TYR619  PRO620  LYS621  CYS622 
 ASP623  PHE694  ASN695  SER759  ASP760  ASP761  ALA762  ILE779  LEU786  VAL792 
 PHE793  MET794  SER795  GLU796  ALA797  LYS798  CYS799  TRP800  GLU811  SER814 

> <Gold.Protein.RotatedAtoms>
  152.4366  134.5674  159.9911 H   0  0  0  0  0  0  0  0  0  0  0  0  # atno 6907 bound_to 6896
  151.5783  133.3375  159.3011 H   0  0  0  0  0  0  0  0  0  0  0  0  # atno 6908 bound_to 6896
  150.8265  134.7533  159.6882 H   0  0  0  0  0  0  0  0  0  0  0  0  # atno 6909 bound_to 6896
  144.8924  140.6660  143.5137 H   0  0  0  0  0  0  0  0  0  0  0  0  # atno 7974 bound_to 7965
  154.5904  140.2424  155.7929 H   0  0  0  0  0  0  0  0  0  0  0  0  # atno 8008 bound_to 7997
  156.2243  140.2987  155.9982 H   0  0  0  0  0  0  0  0  0  0  0  0  # atno 8009 bound_to 7997
  155.2384  140.0406  157.2962 H   0  0  0  0  0  0  0  0  0  0  0  0  # atno 8010 bound_to 7997
  140.4340  143.2538  151.8719 H   0  0  0  0  0  0  0  0  0  0  0  0  # atno 10167 bound_to 10162
  156.1418  130.4154  150.0090 H   0  0  0  0  0  0  0  0  0  0  0  0  # atno 10718 bound_to 10713
  154.0813  135.6590  153.4838 H   0  0  0  0  0  0  0  0  0  0  0  0  # atno 10763 bound_to 10752
  153.0355  135.5180  154.7471 H   0  0  0  0  0  0  0  0  0  0  0  0  # atno 10764 bound_to 10752
  154.6567  135.3009  154.9887 H   0  0  0  0  0  0  0  0  0  0  0  0  # atno 10765 bound_to 10752
  140.1011  134.5080  155.8762 H   0  0  0  0  0  0  0  0  0  0  0  0  # atno 11005 bound_to 11000
  145.3759  139.1648  143.4306 LP  0  0  0  0  0  0  0  0  0  0  0  0  # atno 17320 bound_to 7965
  146.3061  140.3836  142.8686 LP  0  0  0  0  0  0  0  0  0  0  0  0  # atno 17321 bound_to 7965
  139.4786  144.5303  151.8676 LP  0  0  0  0  0  0  0  0  0  0  0  0  # atno 17342 bound_to 10162
  140.4394  144.2006  150.5890 LP  0  0  0  0  0  0  0  0  0  0  0  0  # atno 17343 bound_to 10162
  156.7973  130.9278  151.3646 LP  0  0  0  0  0  0  0  0  0  0  0  0  # atno 17370 bound_to 10713
  157.6582  130.8943  149.9774 LP  0  0  0  0  0  0  0  0  0  0  0  0  # atno 17371 bound_to 10713
  141.2106  133.6696  156.6519 LP  0  0  0  0  0  0  0  0  0  0  0  0  # atno 17394 bound_to 11000
  140.3219  134.8000  157.4259 LP  0  0  0  0  0  0  0  0  0  0  0  0  # atno 17395 bound_to 11000

$$$$
