#       Name:                AV-unprocessed.smi:787
#       Creating user name   scv26
#       Creation time:       Fri Mar 27 01:16:04 2020


#       File generated by GOLD software.
#

@<TRIPOS>MOLECULE
AV-unprocessed.smi:787
    52    54     1
SMALL
NO_CHARGES


@<TRIPOS>ATOM
      1 ****        -1.1601   1.2013   4.3547 C.3            1 S1                 0.0000
      2 ****        -1.3183   1.2836   2.9113 N.pl3          1 S1                 0.0000
      3 ****        -0.6373   2.2644   2.1762 C.ar           1 S1                 0.0000
      4 ****         0.2520   3.0719   2.7987 N.ar           1 S1                 0.0000
      5 ****         0.8784   4.0002   2.0645 C.ar           1 S1                 0.0000
      6 ****         0.7590   4.2622   0.7542 N.ar           1 S1                 0.0000
      7 ****        -0.1155   3.4649   0.1265 C.ar           1 S1                 0.0000
      8 ****        -0.4309   3.5117  -1.2197 N.2            1 S1                 0.0000
      9 ****        -1.3214   2.5295  -1.3230 C.2            1 S1                 0.0000
     10 ****        -1.6191   1.8364  -0.2056 N.pl3          1 S1                 0.0000
     11 ****        -2.5415   0.7126  -0.1118 C.3            1 S1                 0.0000
     12 ****        -1.9134  -0.6365  -0.5312 C.3            1 S1                 0.0000
     13 ****        -1.6410  -0.5910  -1.9196 O.3            1 S1                 0.0000
     14 ****        -0.6061  -0.9629   0.2211 C.3            1 S1                 0.0000
     15 ****        -0.0986  -2.3231  -0.0971 N.4            1 S1                 1.0000
     16 ****        -0.6795  -3.3649   0.7801 C.3            1 S1                 0.0000
     17 ****         1.3824  -2.4027  -0.1549 C.3            1 S1                 0.0000
     18 ****         1.9343  -1.6937  -1.3805 C.ar           1 S1                 0.0000
     19 ****         1.8249  -2.2976  -2.6512 C.ar           1 S1                 0.0000
     20 ****         2.3195  -1.6386  -3.7934 C.ar           1 S1                 0.0000
     21 ****         2.9264  -0.3739  -3.6698 C.ar           1 S1                 0.0000
     22 ****         3.0414   0.2308  -2.4033 C.ar           1 S1                 0.0000
     23 ****         2.5496  -0.4288  -1.2603 C.ar           1 S1                 0.0000
     24 ****        -0.8474   2.4344   0.7918 C.ar           1 S1                 0.0000
     25 ****        -1.7752   0.3936   4.7508 H              1 S1                 0.0000
     26 ****        -1.4705   2.1316   4.8314 H              1 S1                 0.0000
     27 ****        -0.1216   1.0004   4.6201 H              1 S1                 0.0000
     28 ****        -2.0439   0.7390   2.4686 H              1 S1                 0.0000
     29 ****         1.5757   4.6252   2.6023 H              1 S1                 0.0000
     30 ****        -1.7767   2.2900  -2.2730 H              1 S1                 0.0000
     31 ****        -2.9188   0.6492   0.9075 H              1 S1                 0.0000
     32 ****        -3.4106   0.9299  -0.7346 H              1 S1                 0.0000
     33 ****        -2.6487  -1.4233  -0.3622 H              1 S1                 0.0000
     34 ****        -1.3764  -1.4493  -2.2123 H              1 S1                 0.0000
     35 ****         0.1388  -0.2076  -0.0252 H              1 S1                 0.0000
     36 ****        -0.7566  -0.8838   1.2979 H              1 S1                 0.0000
     37 ****        -0.3443  -3.2392   1.8107 H              1 S1                 0.0000
     38 ****        -0.3843  -4.3596   0.4449 H              1 S1                 0.0000
     39 ****        -1.7688  -3.3246   0.7687 H              1 S1                 0.0000
     40 ****         1.8175  -1.9930   0.7585 H              1 S1                 0.0000
     41 ****         1.6960  -3.4463  -0.2084 H              1 S1                 0.0000
     42 ****         1.3583  -3.2663  -2.7546 H              1 S1                 0.0000
     43 ****         2.2330  -2.1026  -4.7650 H              1 S1                 0.0000
     44 ****         3.3054   0.1315  -4.5459 H              1 S1                 0.0000
     45 ****         3.5070   1.2008  -2.3086 H              1 S1                 0.0000
     46 ****         2.6399   0.0444  -0.2934 H              1 S1                 0.0000
     47 ****        -0.4126  -2.5317  -1.0338 H              1 S1                 0.0000
     48 ****         0.4359   2.9784   3.7771 LP             1 S1                 0.0000
     49 ****         1.2735   4.9836   0.2905 LP             1 S1                 0.0000
     50 ****        -0.0810   4.1236  -1.9291 LP             1 S1                 0.0000
     51 ****        -0.9057   0.0637  -2.0950 LP             1 S1                 0.0000
     52 ****        -2.4637  -0.3082  -2.4129 LP             1 S1                 0.0000
@<TRIPOS>BOND
    1    1    2 1     
    2    1   25 1     
    3    1   26 1     
    4    1   27 1     
    5    2    3 1     
    6    2   28 1     
    7    3   24 ar    
    8    3    4 ar    
    9    4    5 ar    
   10    5    6 ar    
   11    5   29 1     
   12    6    7 ar    
   13    7   24 ar    
   14    7    8 1     
   15    8    9 2     
   16    9   10 1     
   17    9   30 1     
   18   10   11 1     
   19   10   24 1     
   20   11   12 1     
   21   11   31 1     
   22   11   32 1     
   23   12   13 1     
   24   12   14 1     
   25   12   33 1     
   26   13   34 1     
   27   14   15 1     
   28   14   35 1     
   29   14   36 1     
   30   15   16 1     
   31   15   17 1     
   32   15   47 1     
   33   16   37 1     
   34   16   38 1     
   35   16   39 1     
   36   17   18 1     
   37   17   40 1     
   38   17   41 1     
   39   18   23 ar    
   40   18   19 ar    
   41   19   20 ar    
   42   19   42 1     
   43   20   21 ar    
   44   20   43 1     
   45   21   22 ar    
   46   21   44 1     
   47   22   23 ar    
   48   22   45 1     
   49   23   46 1     
   50    4   48 1     
   51    6   49 1     
   52    8   50 1     
   53   13   51 1     
   54   13   52 1     
@<TRIPOS>SUBSTRUCTURE
      1 S1             1
@<TRIPOS>SET
LONE_PAIRS      STATIC     ATOMS    <user>   **** ""
5 48 49 50 51 52
DONOR_HYDROGENS      STATIC     ATOMS    <user>   **** ""
3 28 34 47
ATOM$BLUE        STATIC     ATOMS    COLORGROUP SYSTEM
5 48 49 50 51 52
ATOM$RED        STATIC     ATOMS    COLORGROUP SYSTEM
3 28 34 47
