AV-unprocessed.smi:966|AV-procd|sdf|4283|dock10
  -GOLD-   22720 2193D 1   1.00000     0.00000
 Structure written by MMmdl.
 30 31  0  0  0  0  0  0  0  0  2 V2000
  153.8617  136.7260  162.1792 C   0  0  0  0  0  0  0  0  0  0  0  0
  153.9517  138.1021  161.5447 C   0  0  0  0  0  0  0  0  0  0  0  0
  154.8465  139.0873  162.1089 C   0  0  0  0  0  0  0  0  0  0  0  0
  154.9098  140.3391  161.5281 C   0  0  0  0  0  0  0  0  0  0  0  0
  155.6192  141.3239  161.8421 O   0  5  0  0  0  0  0  0  0  0  0  0
  154.0994  140.6615  160.3881 N   0  0  0  0  0  0  0  0  0  0  0  0
  154.1382  142.0137  159.7577 C   0  0  0  0  0  0  0  0  0  0  0  0
  152.7539  142.6931  159.7629 C   0  0  2  0  0  0  0  0  0  0  0  0
  152.7180  144.0073  158.9838 C   0  0  0  0  0  0  0  0  0  0  0  0
  151.5645  144.7256  159.6451 C   0  0  0  0  0  0  0  0  0  0  0  0
  151.7640  144.3385  161.1062 C   0  0  0  0  0  0  0  0  0  0  0  0
  152.3517  143.0408  161.0871 O   0  0  0  0  0  0  0  0  0  0  0  0
  153.2678  139.7332  159.8161 C   0  0  0  0  0  0  0  0  0  0  0  0
  152.5944  139.9837  158.8132 O   0  0  0  0  0  0  0  0  0  0  0  0
  153.2145  138.4173  160.4599 C   0  0  0  0  0  0  0  0  0  0  0  0
  152.3220  137.4742  159.8633 C   0  0  0  0  0  0  0  0  0  0  0  0
  151.5949  136.7249  159.3619 N   0  0  0  0  0  0  0  0  0  0  0  0
  154.5134  136.6496  163.0501 H   0  0  0  0  0  0  0  0  0  0  0  0
  154.1607  135.9573  161.4659 H   0  0  0  0  0  0  0  0  0  0  0  0
  152.8411  136.5204  162.5030 H   0  0  0  0  0  0  0  0  0  0  0  0
  155.4622  138.8459  162.9631 H   0  0  0  0  0  0  0  0  0  0  0  0
  154.8615  142.6725  160.2409 H   0  0  0  0  0  0  0  0  0  0  0  0
  154.5216  141.9625  158.7376 H   0  0  0  0  0  0  0  0  0  0  0  0
  151.9958  142.0240  159.3535 H   0  0  0  0  0  0  0  0  0  0  0  0
  153.6405  144.5702  159.1340 H   0  0  0  0  0  0  0  0  0  0  0  0
  152.5759  143.8615  157.9127 H   0  0  0  0  0  0  0  0  0  0  0  0
  151.5765  145.8036  159.4820 H   0  0  0  0  0  0  0  0  0  0  0  0
  150.6162  144.3323  159.2764 H   0  0  0  0  0  0  0  0  0  0  0  0
  152.4603  145.0246  161.5898 H   0  0  0  0  0  0  0  0  0  0  0  0
  150.8318  144.3479  161.6712 H   0  0  0  0  0  0  0  0  0  0  0  0
  1  2  1  0  0  0  0
  1 18  1  0  0  0  0
  1 19  1  0  0  0  0
  1 20  1  0  0  0  0
  2 15  2  0  0  0  0
  2  3  1  0  0  0  0
  3  4  2  0  0  0  0
  3 21  1  0  0  0  0
  4  5  1  0  0  0  0
  4  6  1  0  0  0  0
  6  7  1  0  0  0  0
  6 13  1  0  0  0  0
  7  8  1  0  0  0  0
  7 22  1  0  0  0  0
  7 23  1  0  0  0  0
  8 12  1  0  0  0  0
  8  9  1  0  0  0  0
  8 24  1  0  0  0  0
  9 10  1  0  0  0  0
  9 25  1  0  0  0  0
  9 26  1  0  0  0  0
 10 11  1  0  0  0  0
 10 27  1  0  0  0  0
 10 28  1  0  0  0  0
 11 12  1  0  0  0  0
 11 29  1  0  0  0  0
 11 30  1  0  0  0  0
 13 14  2  0  0  0  0
 13 15  1  0  0  0  0
 15 16  1  0  0  0  0
 16 17  3  0  0  0  0
M  CHG  1   5  -1
M  END
> <s_m_source_file>
AV-unprocessed.smi

> <i_m_source_file_index>
966

> <i_lp_mmshare_version>
43012

> <i_f3d_flags>
0

> <s_epik_input>
W0NIM11jMVtjSF1jKFtPSF0pbihjKD1PKWMxQyNOKVtDSDJdW0NAQEhdMltDSDJdW0NIMl1bQ0gyXU8y

> <s_epik_cmdline>
J2VwaWtfcHl0aG9uJywgJy1waCcsICc3LjAnLCAnLXRuJywgJzgnLCAnLW1hJywgJzIwMCcsICctbWV0YWxfYmluZGluZycsICctaW1hZScsICc8aW5maWxlLm1hZT4nLCAnLW9tYWUnLCAnPG91dGZpbGUubWFlPic=

> <r_lp_tautomer_probability>
1

> <r_epik_Ionization_Penalty>
3.48555e-06

> <r_epik_Ionization_Penalty_Charging>
3.48554e-06

> <r_epik_Ionization_Penalty_Neutral>
1.71861e-11

> <r_epik_State_Penalty>
-0

> <r_epik_Charging_Adjusted_Penalty>
3.48554e-06

> <i_epik_Tot_Q>
-1

> <i_epik_Tot_abs_Q>
1

> <r_epik_Metal_State_Penalty>
-0

> <b_epik_Metal_Only>
0

> <s_lp_Force_Field>
OPLS_2005

> <r_lp_Energy>
36.1557

> <b_lp_Chiralities_Consistent>
1

> <s_lp_Variant>
AV-unprocessed.smi:966-1

> <Gold.Version>
5.8.1

> <Gold.Id.Protein>
6NUR|6NUR_protein|mol2

> <Gold.PLP.Fitness>
38.3090

> <Gold.PLP.PLP>
-35.6802

> <Gold.PLP.part.hbond>
-1.4091

> <Gold.PLP.part.metal>
0.0000

> <Gold.PLP.part.buried>
-3.4031

> <Gold.PLP.part.nonpolar>
-30.2615

> <Gold.PLP.part.repulsive>
0.0803

> <Gold.PLP.ligand.clash>
0.0000

> <Gold.PLP.ligand.torsion>
0.0305

> <Gold.PLP.Chemscore.Hbond>
0.8960

> <Gold.PLP.Chemscore.CHOScore>
0.0000

> <Gold.PLP.Chemscore.Metal>
0.0000

> <Gold.Chemscore.Hbonds>
donor molecule, donor type, donor heavy atom, donor atom, acceptor molecule, acceptor atom, score
      P1  H  6896  6908       L1    17  1.00

> <Gold.PLP.Chemscore.Internal.Correction>
0.0018

> <Gold.Rescore>
     Score         DG    S(hbond)    S(metal)    S(lipo)     H(rot)  DE(clash)    DE(int)     intcor
     12.36     -15.63       0.97        0.00      86.53       1.25       1.86       1.41       ----

> <Gold.Chemscore.Fitness>
12.3639

> <Gold.Chemscore.DG>
-15.6305

> <Gold.Chemscore.ZeroCoef>
-5.4800

> <Gold.Chemscore.Hbond>
0.9670

> <Gold.Chemscore.Metal>
0.0000

> <Gold.Chemscore.Lipo>
86.5333

> <Gold.Chemscore.Internal_Hbond>
0.0000

> <Gold.Chemscore.DEClash>
1.8587

> <Gold.Chemscore.DEInternal>
1.4078

> <Gold.Chemscore.Rot>
1.2514

> <Gold.Chemscore.Internal.Correction>
   9.000000E+99

> <Gold.Chemscore.Hbonds>
donor molecule, donor type, donor heavy atom, donor atom, acceptor molecule, acceptor atom, score
      P1  H  6896  6908       L1    17  0.97

> <Gold.Chemscore.Hbond.Weighted>
-3.2296

> <Gold.Chemscore.Metal.Weighted>
-0.0000

> <Gold.Chemscore.Lipo.Weighted>
-10.1244

> <Gold.Chemscore.Internal_Hbond.Weighted>
0.0000

> <Gold.Chemscore.DEClash.Weighted>
1.8587

> <Gold.Chemscore.DEInternal.Weighted>
1.4078

> <Gold.Chemscore.Rot.Weighted>
3.2036

> <Gold.Chemscore.Internal.Correction.Weighted>
   9.000000E+99

> <Gold.Protein.RotatedTorsions>
[ 6907 6896 6895 6894 ] final -132.08 input  -60.11 | X-H torsion
[ 7974 7965 7964 7962 ] final  133.75 input  175.53 | X-H torsion
[ 8008 7997 7996 7995 ] final -120.61 input   59.86 | X-H torsion
[ 10167 10162 10161 10158 ] final  -94.59 input  -65.29 | X-H torsion
[ 10718 10713 10712 10709 ] final -149.00 input   66.30 | X-H torsion
[ 10763 10752 10751 10750 ] final  136.26 input  -60.55 | X-H torsion
[ 11005 11000 10999 10996 ] final -131.91 input  -57.11 | X-H torsion

> <Gold.Protein.ActiveResidues>
 VAL166  LYS551  ARG553  GLY616  TRP617  ASP618  TYR619  PRO620  LYS621  CYS622 
 ASP623  PHE694  ASN695  SER759  ASP760  ASP761  ALA762  ILE779  LEU786  VAL792 
 PHE793  MET794  SER795  GLU796  ALA797  LYS798  CYS799  TRP800  GLU811  SER814 

> <Gold.Protein.RotatedAtoms>
  150.9583  133.6473  159.2758 H   0  0  0  0  0  0  0  0  0  0  0  0  # atno 6907 bound_to 6896
  151.3805  135.0938  159.9504 H   0  0  0  0  0  0  0  0  0  0  0  0  # atno 6908 bound_to 6896
  152.5137  133.9118  159.7546 H   0  0  0  0  0  0  0  0  0  0  0  0  # atno 6909 bound_to 6896
  144.9833  139.4481  143.5375 H   0  0  0  0  0  0  0  0  0  0  0  0  # atno 7974 bound_to 7965
  155.1345  140.0401  157.2783 H   0  0  0  0  0  0  0  0  0  0  0  0  # atno 8008 bound_to 7997
  154.6518  140.2571  155.7179 H   0  0  0  0  0  0  0  0  0  0  0  0  # atno 8009 bound_to 7997
  156.2580  140.2835  156.0955 H   0  0  0  0  0  0  0  0  0  0  0  0  # atno 8010 bound_to 7997
  140.3129  143.3094  152.0129 H   0  0  0  0  0  0  0  0  0  0  0  0  # atno 10167 bound_to 10162
  156.4274  130.8059  151.2284 H   0  0  0  0  0  0  0  0  0  0  0  0  # atno 10718 bound_to 10713
  153.8536  135.3076  155.3434 H   0  0  0  0  0  0  0  0  0  0  0  0  # atno 10763 bound_to 10752
  154.7880  135.4798  153.9992 H   0  0  0  0  0  0  0  0  0  0  0  0  # atno 10764 bound_to 10752
  153.1504  135.6842  153.8985 H   0  0  0  0  0  0  0  0  0  0  0  0  # atno 10765 bound_to 10752
  140.9217  134.1435  157.4308 H   0  0  0  0  0  0  0  0  0  0  0  0  # atno 11005 bound_to 11000
  146.3414  139.9120  142.8779 LP  0  0  0  0  0  0  0  0  0  0  0  0  # atno 17320 bound_to 7965
  145.2389  141.0001  143.3947 LP  0  0  0  0  0  0  0  0  0  0  0  0  # atno 17321 bound_to 7965
  139.4890  144.6371  151.6954 LP  0  0  0  0  0  0  0  0  0  0  0  0  # atno 17342 bound_to 10162
  140.5552  144.0359  150.6144 LP  0  0  0  0  0  0  0  0  0  0  0  0  # atno 17343 bound_to 10162
  157.7508  131.0209  150.3727 LP  0  0  0  0  0  0  0  0  0  0  0  0  # atno 17370 bound_to 10713
  156.4057  130.3924  149.6927 LP  0  0  0  0  0  0  0  0  0  0  0  0  # atno 17371 bound_to 10713
  139.8777  134.9974  156.5843 LP  0  0  0  0  0  0  0  0  0  0  0  0  # atno 17394 bound_to 11000
  140.7979  133.8529  155.8701 LP  0  0  0  0  0  0  0  0  0  0  0  0  # atno 17395 bound_to 11000

$$$$
