AV-unprocessed.smi:915|AV-procd|sdf|4154|dock1
  -GOLD-   22720 2 63D 1   1.00000     0.00000
 Structure written by MMmdl.
 34 35  0  0  0  0  0  0  0  0  1 V2000
  151.4243  139.9481  155.5999 C   0  0  0  0  0  0  0  0  0  0  0  0
  150.4109  141.0973  155.5607 C   0  0  0  0  0  0  0  0  0  0  0  0
  149.1868  140.7499  154.7693 C   0  0  0  0  0  0  0  0  0  0  0  0
  148.1141  141.5673  154.5091 C   0  0  0  0  0  0  0  0  0  0  0  0
  146.8953  140.7638  153.5560 S   0  0  0  0  0  0  0  0  0  0  0  0
  147.9061  139.3274  153.5455 C   0  0  0  0  0  0  0  0  0  0  0  0
  147.5109  138.1356  152.8831 N   0  0  0  0  0  0  0  0  0  0  0  0
  146.2650  137.6761  152.6736 C   0  0  0  0  0  0  0  0  0  0  0  0
  145.2300  138.2347  153.0387 O   0  0  0  0  0  0  0  0  0  0  0  0
  146.2832  136.5140  152.0045 N   0  0  0  0  0  0  0  0  0  0  0  0
  145.1063  135.7410  151.6182 C   0  0  0  0  0  0  0  0  0  0  0  0
  145.4803  134.4730  150.8290 C   0  0  2  0  0  0  0  0  0  0  0  0
  144.2932  133.5534  150.5046 C   0  0  0  0  0  0  0  0  0  0  0  0
  144.8674  132.1616  150.2406 C   0  0  0  0  0  0  0  0  0  0  0  0
  145.8760  131.8958  151.3581 C   0  0  0  0  0  0  0  0  0  0  0  0
  146.6980  133.4674  151.7240 S   0  0  0  0  0  0  0  0  0  0  0  0
  149.0559  139.4734  154.2136 N   0  0  0  0  0  0  0  0  0  0  0  0
  152.3021  140.2239  156.1843 H   0  0  0  0  0  0  0  0  0  0  0  0
  151.7615  139.6855  154.5969 H   0  0  0  0  0  0  0  0  0  0  0  0
  150.9895  139.0563  156.0522 H   0  0  0  0  0  0  0  0  0  0  0  0
  150.1332  141.3646  156.5809 H   0  0  0  0  0  0  0  0  0  0  0  0
  150.8879  141.9832  155.1398 H   0  0  0  0  0  0  0  0  0  0  0  0
  147.9671  142.5904  154.8217 H   0  0  0  0  0  0  0  0  0  0  0  0
  148.2652  137.5658  152.5300 H   0  0  0  0  0  0  0  0  0  0  0  0
  147.1802  136.1310  151.7444 H   0  0  0  0  0  0  0  0  0  0  0  0
  144.5863  135.4585  152.5339 H   0  0  0  0  0  0  0  0  0  0  0  0
  144.4043  136.3526  151.0487 H   0  0  0  0  0  0  0  0  0  0  0  0
  145.9559  134.7621  149.8909 H   0  0  0  0  0  0  0  0  0  0  0  0
  143.6159  133.5032  151.3584 H   0  0  0  0  0  0  0  0  0  0  0  0
  143.7164  133.9201  149.6552 H   0  0  0  0  0  0  0  0  0  0  0  0
  144.0895  131.3983  150.2064 H   0  0  0  0  0  0  0  0  0  0  0  0
  145.3760  132.1534  149.2757 H   0  0  0  0  0  0  0  0  0  0  0  0
  145.3569  131.5661  152.2585 H   0  0  0  0  0  0  0  0  0  0  0  0
  146.5989  131.1257  151.0882 H   0  0  0  0  0  0  0  0  0  0  0  0
  1  2  1  0  0  0  0
  1 18  1  0  0  0  0
  1 19  1  0  0  0  0
  1 20  1  0  0  0  0
  2  3  1  0  0  0  0
  2 21  1  0  0  0  0
  2 22  1  0  0  0  0
  3 17  1  0  0  0  0
  3  4  2  0  0  0  0
  4  5  1  0  0  0  0
  4 23  1  0  0  0  0
  5  6  1  0  0  0  0
  6  7  1  0  0  0  0
  6 17  2  0  0  0  0
  7  8  1  0  0  0  0
  7 24  1  0  0  0  0
  8  9  2  0  0  0  0
  8 10  1  0  0  0  0
 10 11  1  0  0  0  0
 10 25  1  0  0  0  0
 11 12  1  0  0  0  0
 11 26  1  0  0  0  0
 11 27  1  0  0  0  0
 12 16  1  0  0  0  0
 12 13  1  0  0  0  0
 12 28  1  0  0  0  0
 13 14  1  0  0  0  0
 13 29  1  0  0  0  0
 13 30  1  0  0  0  0
 14 15  1  0  0  0  0
 14 31  1  0  0  0  0
 14 32  1  0  0  0  0
 15 16  1  0  0  0  0
 15 33  1  0  0  0  0
 15 34  1  0  0  0  0
M  END
> <s_m_source_file>
AV-unprocessed.smi

> <i_m_source_file_index>
915

> <i_lp_mmshare_version>
43012

> <i_f3d_flags>
0

> <s_epik_input>
W0NIM11bQ0gyXWMxW2NIXXNjKG4xKVtOSF1DKD1PKVtOSF1bQ0gyXVtDQEBIXTJbQ0gyXVtDSDJdW0NIMl1TMg==

> <s_epik_cmdline>
J2VwaWtfcHl0aG9uJywgJy1waCcsICc3LjAnLCAnLXRuJywgJzgnLCAnLW1hJywgJzIwMCcsICctbWV0YWxfYmluZGluZycsICctaW1hZScsICc8aW5maWxlLm1hZT4nLCAnLW9tYWUnLCAnPG91dGZpbGUubWFlPic=

> <r_lp_tautomer_probability>
0.999

> <r_epik_Ionization_Penalty>
0.000460048

> <r_epik_Ionization_Penalty_Charging>
0

> <r_epik_Ionization_Penalty_Neutral>
0.000460048

> <r_epik_State_Penalty>
0.000177984

> <r_epik_Charging_Adjusted_Penalty>
0.000177984

> <i_epik_Tot_Q>
0

> <i_epik_Tot_abs_Q>
0

> <r_epik_Metal_State_Penalty>
0.00612978

> <b_epik_Metal_Only>
0

> <s_lp_Force_Field>
OPLS_2005

> <r_lp_Energy>
7.49707

> <b_lp_Chiralities_Consistent>
1

> <s_lp_Variant>
AV-unprocessed.smi:915-1

> <Gold.Version>
5.8.1

> <Gold.Id.Protein>
6NUR|6NUR_protein|mol2

> <Gold.PLP.Fitness>
40.7852

> <Gold.PLP.PLP>
-32.2221

> <Gold.PLP.part.hbond>
-2.1584

> <Gold.PLP.part.metal>
0.0000

> <Gold.PLP.part.buried>
-3.1556

> <Gold.PLP.part.nonpolar>
-29.8913

> <Gold.PLP.part.repulsive>
2.8151

> <Gold.PLP.ligand.clash>
0.0000

> <Gold.PLP.ligand.torsion>
0.2098

> <Gold.PLP.Chemscore.Hbond>
1.9920

> <Gold.PLP.Chemscore.CHOScore>
1.0000

> <Gold.PLP.Chemscore.Metal>
0.0000

> <Gold.Chemscore.Hbonds>
donor molecule, donor type, donor heavy atom, donor atom, acceptor molecule, acceptor atom, score
      L1  H     7    24       P1  7948  1.00
      L1  H    10    25       P1  7948  0.99
      L1  C     4    23       P1  8028  1.00

> <Gold.PLP.Chemscore.Internal.Correction>
0.0068

> <Gold.Rescore>
     Score         DG    S(hbond)    S(metal)    S(lipo)     H(rot)  DE(clash)    DE(int)     intcor
     15.94     -17.33       1.94        0.00      75.76       1.36       1.15       0.24       ----

> <Gold.Chemscore.Fitness>
15.9375

> <Gold.Chemscore.DG>
-17.3267

> <Gold.Chemscore.ZeroCoef>
-5.4800

> <Gold.Chemscore.Hbond>
1.9357

> <Gold.Chemscore.Metal>
0.0000

> <Gold.Chemscore.Lipo>
75.7615

> <Gold.Chemscore.Internal_Hbond>
0.0000

> <Gold.Chemscore.DEClash>
1.1498

> <Gold.Chemscore.DEInternal>
0.2394

> <Gold.Chemscore.Rot>
1.3603

> <Gold.Chemscore.Internal.Correction>
   9.000000E+99

> <Gold.Chemscore.Hbonds>
donor molecule, donor type, donor heavy atom, donor atom, acceptor molecule, acceptor atom, score
      L1  H     7    24       P1  7948  0.98
      L1  H    10    25       P1  7948  0.93

> <Gold.Chemscore.Hbond.Weighted>
-6.4651

> <Gold.Chemscore.Metal.Weighted>
-0.0000

> <Gold.Chemscore.Lipo.Weighted>
-8.8641

> <Gold.Chemscore.Internal_Hbond.Weighted>
0.0000

> <Gold.Chemscore.DEClash.Weighted>
1.1498

> <Gold.Chemscore.DEInternal.Weighted>
0.2394

> <Gold.Chemscore.Rot.Weighted>
3.4824

> <Gold.Chemscore.Internal.Correction.Weighted>
   9.000000E+99

> <Gold.Protein.RotatedTorsions>
[ 6907 6896 6895 6894 ] final   27.47 input  -60.11 | X-H torsion
[ 7974 7965 7964 7962 ] final -100.77 input  175.53 | X-H torsion
[ 8008 7997 7996 7995 ] final   31.46 input   59.86 | X-H torsion
[ 10167 10162 10161 10158 ] final  -51.30 input  -65.29 | X-H torsion
[ 10718 10713 10712 10709 ] final -158.80 input   66.30 | X-H torsion
[ 10763 10752 10751 10750 ] final  -54.99 input  -60.55 | X-H torsion
[ 11005 11000 10999 10996 ] final   -9.78 input  -57.11 | X-H torsion

> <Gold.Protein.ActiveResidues>
 VAL166  LYS551  ARG553  GLY616  TRP617  ASP618  TYR619  PRO620  LYS621  CYS622 
 ASP623  PHE694  ASN695  SER759  ASP760  ASP761  ALA762  ILE779  LEU786  VAL792 
 PHE793  MET794  SER795  GLU796  ALA797  LYS798  CYS799  TRP800  GLU811  SER814 

> <Gold.Protein.RotatedAtoms>
  152.0028  134.9919  160.0565 H   0  0  0  0  0  0  0  0  0  0  0  0  # atno 6907 bound_to 6896
  152.1503  133.4513  159.4818 H   0  0  0  0  0  0  0  0  0  0  0  0  # atno 6908 bound_to 6896
  150.6875  134.2115  159.4404 H   0  0  0  0  0  0  0  0  0  0  0  0  # atno 6909 bound_to 6896
  145.2903  140.9351  143.2881 H   0  0  0  0  0  0  0  0  0  0  0  0  # atno 7974 bound_to 7965
  155.1067  140.3235  155.4532 H   0  0  0  0  0  0  0  0  0  0  0  0  # atno 8008 bound_to 7997
  156.2702  140.2051  156.6140 H   0  0  0  0  0  0  0  0  0  0  0  0  # atno 8009 bound_to 7997
  154.6787  140.0528  157.0230 H   0  0  0  0  0  0  0  0  0  0  0  0  # atno 8010 bound_to 7997
  140.6595  143.2625  151.4484 H   0  0  0  0  0  0  0  0  0  0  0  0  # atno 10167 bound_to 10162
  156.5591  130.8639  151.2804 H   0  0  0  0  0  0  0  0  0  0  0  0  # atno 10718 bound_to 10713
  154.1837  135.6439  153.5041 H   0  0  0  0  0  0  0  0  0  0  0  0  # atno 10763 bound_to 10752
  153.0052  135.5412  154.6487 H   0  0  0  0  0  0  0  0  0  0  0  0  # atno 10764 bound_to 10752
  154.5858  135.2929  155.0659 H   0  0  0  0  0  0  0  0  0  0  0  0  # atno 10765 bound_to 10752
  140.7378  133.8695  155.8943 H   0  0  0  0  0  0  0  0  0  0  0  0  # atno 11005 bound_to 11000
  144.9178  139.4448  143.6556 LP  0  0  0  0  0  0  0  0  0  0  0  0  # atno 17320 bound_to 7965
  146.3187  139.8022  142.8963 LP  0  0  0  0  0  0  0  0  0  0  0  0  # atno 17321 bound_to 7965
  139.5825  144.1677  152.1987 LP  0  0  0  0  0  0  0  0  0  0  0  0  # atno 17342 bound_to 10162
  140.1007  144.5542  150.6991 LP  0  0  0  0  0  0  0  0  0  0  0  0  # atno 17343 bound_to 10162
  157.7372  130.9792  150.2180 LP  0  0  0  0  0  0  0  0  0  0  0  0  # atno 17370 bound_to 10713
  156.2815  130.3734  149.7931 LP  0  0  0  0  0  0  0  0  0  0  0  0  # atno 17371 bound_to 10713
  140.9864  134.1337  157.4448 LP  0  0  0  0  0  0  0  0  0  0  0  0  # atno 17394 bound_to 11000
  139.8812  135.0027  156.6140 LP  0  0  0  0  0  0  0  0  0  0  0  0  # atno 17395 bound_to 11000

$$$$
