AV-unprocessed.smi:184|AV-procd|sdf|1461|dock8
  -GOLD-   2262019273D 1   1.00000     0.00000
 Structure written by MMmdl.
 54 58  0  0  0  0  0  0  0  0  1 V2000
  153.8923  141.2768  161.1329 O   0  0  0  0  0  0  0  0  0  0  0  0
  153.3404  141.6969  160.1187 C   0  0  0  0  0  0  0  0  0  0  0  0
  152.6647  140.7023  159.1571 C   0  0  0  0  0  0  0  0  0  0  0  0
  152.1182  141.3196  157.9371 N   0  0  0  0  0  0  0  0  0  0  0  0
  151.5587  140.5055  157.0046 C   0  0  0  0  0  0  0  0  0  0  0  0
  150.7895  141.0443  156.0215 N   0  0  0  0  0  0  0  0  0  0  0  0
  150.2367  140.2629  155.0897 C   0  0  0  0  0  0  0  0  0  0  0  0
  150.3173  138.9381  154.9578 N   0  0  0  0  0  0  0  0  0  0  0  0
  151.0780  138.3879  155.9462 C   0  0  0  0  0  0  0  0  0  0  0  0
  151.7278  139.0910  157.0003 C   0  0  0  0  0  0  0  0  0  0  0  0
  152.3914  138.1908  157.8263 N   0  0  0  0  0  0  0  0  0  0  0  0
  152.1609  137.0271  157.2828 C   0  0  0  0  0  0  0  0  0  0  0  0
  151.3869  137.0533  156.1447 N   0  0  0  0  0  0  0  0  0  0  0  0
  150.9750  135.9087  155.3449 C   0  0  0  0  0  0  0  0  0  0  0  0
  149.4430  135.6524  155.3463 C   0  0  0  0  0  0  0  0  0  0  0  0
  148.8273  136.7447  154.6882 O   0  0  0  0  0  0  0  0  0  0  0  0
  149.0759  134.3786  154.5590 C   0  0  0  0  0  0  0  0  0  0  0  0
  149.4172  133.1026  155.3501 C   0  0  0  0  0  0  0  0  0  0  0  0
  148.7713  133.1282  156.6184 O   0  0  0  0  0  0  0  0  0  0  0  0
  149.1888  134.2172  157.4343 C   0  0  0  0  0  0  0  0  0  0  0  0
  148.8227  135.5493  156.7565 C   0  0  0  0  0  0  0  0  0  0  0  0
  151.6060  142.6883  158.0279 C   0  0  1  0  0  0  0  0  0  0  0  0
  150.2922  142.7462  158.8456 C   0  0  0  0  0  0  0  0  0  0  0  0
  149.8143  144.1900  159.0568 C   0  0  0  0  0  0  0  0  0  0  0  0
  150.9063  145.0371  159.7262 C   0  0  0  0  0  0  0  0  0  0  0  0
  152.1967  145.0225  158.8916 C   0  0  0  0  0  0  0  0  0  0  0  0
  152.7080  143.5923  158.6298 C   0  0  1  0  0  0  0  0  0  0  0  0
  153.2967  143.0099  159.8359 N   0  0  0  0  0  0  0  0  0  0  0  0
  153.3948  139.9413  158.8784 H   0  0  0  0  0  0  0  0  0  0  0  0
  151.8701  140.2004  159.7111 H   0  0  0  0  0  0  0  0  0  0  0  0
  149.6457  140.7716  154.3424 H   0  0  0  0  0  0  0  0  0  0  0  0
  152.5534  136.1105  157.6987 H   0  0  0  0  0  0  0  0  0  0  0  0
  151.3264  136.0696  154.3244 H   0  0  0  0  0  0  0  0  0  0  0  0
  151.5142  135.0343  155.7084 H   0  0  0  0  0  0  0  0  0  0  0  0
  148.8030  136.5614  153.7614 H   0  0  0  0  0  0  0  0  0  0  0  0
  148.0049  134.3715  154.3500 H   0  0  0  0  0  0  0  0  0  0  0  0
  149.5756  134.3671  153.5896 H   0  0  0  0  0  0  0  0  0  0  0  0
  149.0745  132.2243  154.8033 H   0  0  0  0  0  0  0  0  0  0  0  0
  150.4938  132.9887  155.4794 H   0  0  0  0  0  0  0  0  0  0  0  0
  148.6890  134.1420  158.4001 H   0  0  0  0  0  0  0  0  0  0  0  0
  150.2593  134.1483  157.6281 H   0  0  0  0  0  0  0  0  0  0  0  0
  149.1158  136.3902  157.3850 H   0  0  0  0  0  0  0  0  0  0  0  0
  147.7354  135.6007  156.6805 H   0  0  0  0  0  0  0  0  0  0  0  0
  151.3832  143.0784  157.0356 H   0  0  0  0  0  0  0  0  0  0  0  0
  149.5136  142.1740  158.3397 H   0  0  0  0  0  0  0  0  0  0  0  0
  150.4273  142.2770  159.8205 H   0  0  0  0  0  0  0  0  0  0  0  0
  149.5413  144.6310  158.0974 H   0  0  0  0  0  0  0  0  0  0  0  0
  148.9119  144.1959  159.6689 H   0  0  0  0  0  0  0  0  0  0  0  0
  150.5570  146.0623  159.8505 H   0  0  0  0  0  0  0  0  0  0  0  0
  151.1071  144.6556  160.7282 H   0  0  0  0  0  0  0  0  0  0  0  0
  152.0046  145.5122  157.9359 H   0  0  0  0  0  0  0  0  0  0  0  0
  152.9682  145.6153  159.3844 H   0  0  0  0  0  0  0  0  0  0  0  0
  153.5241  143.6577  157.9083 H   0  0  0  0  0  0  0  0  0  0  0  0
  153.7307  143.6477  160.4874 H   0  0  0  0  0  0  0  0  0  0  0  0
  1  2  2  0  0  0  0
  2 28  1  0  0  0  0
  2  3  1  0  0  0  0
  3  4  1  0  0  0  0
  3 29  1  0  0  0  0
  3 30  1  0  0  0  0
  4  5  1  0  0  0  0
  4 22  1  0  0  0  0
  5 10  1  0  0  0  0
  5  6  2  0  0  0  0
  6  7  1  0  0  0  0
  7  8  2  0  0  0  0
  7 31  1  0  0  0  0
  8  9  1  0  0  0  0
  9 13  1  0  0  0  0
  9 10  2  0  0  0  0
 10 11  1  0  0  0  0
 11 12  2  0  0  0  0
 12 13  1  0  0  0  0
 12 32  1  0  0  0  0
 13 14  1  0  0  0  0
 14 15  1  0  0  0  0
 14 33  1  0  0  0  0
 14 34  1  0  0  0  0
 15 21  1  0  0  0  0
 15 16  1  0  0  0  0
 15 17  1  0  0  0  0
 16 35  1  0  0  0  0
 17 18  1  0  0  0  0
 17 36  1  0  0  0  0
 17 37  1  0  0  0  0
 18 19  1  0  0  0  0
 18 38  1  0  0  0  0
 18 39  1  0  0  0  0
 19 20  1  0  0  0  0
 20 21  1  0  0  0  0
 20 40  1  0  0  0  0
 20 41  1  0  0  0  0
 21 42  1  0  0  0  0
 21 43  1  0  0  0  0
 22 27  1  0  0  0  0
 22 23  1  0  0  0  0
 22 44  1  0  0  0  0
 23 24  1  0  0  0  0
 23 45  1  0  0  0  0
 23 46  1  0  0  0  0
 24 25  1  0  0  0  0
 24 47  1  0  0  0  0
 24 48  1  0  0  0  0
 25 26  1  0  0  0  0
 25 49  1  0  0  0  0
 25 50  1  0  0  0  0
 26 27  1  0  0  0  0
 26 51  1  0  0  0  0
 26 52  1  0  0  0  0
 27 28  1  0  0  0  0
 27 53  1  0  0  0  0
 28 54  1  0  0  0  0
M  END
> <s_m_source_file>
AV-unprocessed.smi

> <i_m_source_file_index>
184

> <i_lp_mmshare_version>
43012

> <i_f3d_flags>
0

> <s_epik_input>
W0NIMl0xW0NIMl1bQ0gyXVtDSDJdW0NASF0oW0NASF0xMilbTkhdQyg9TylbQ0gyXU4yYyhuW2NIXW4zKWMoYzM0KW5bY0hdbjRbQ0gyXUM1KFtPSF0pW0NIMl1bQ0gyXU9bQ0gyXVtDSDJdNQ==

> <s_epik_cmdline>
J2VwaWtfcHl0aG9uJywgJy1waCcsICc3LjAnLCAnLXRuJywgJzgnLCAnLW1hJywgJzIwMCcsICctbWV0YWxfYmluZGluZycsICctaW1hZScsICc8aW5maWxlLm1hZT4nLCAnLW9tYWUnLCAnPG91dGZpbGUubWFlPic=

> <r_lp_tautomer_probability>
1

> <r_epik_Ionization_Penalty>
0.000822761

> <r_epik_Ionization_Penalty_Charging>
0

> <r_epik_Ionization_Penalty_Neutral>
0.000822761

> <r_epik_State_Penalty>
0.000403048

> <r_epik_Charging_Adjusted_Penalty>
0.000403048

> <i_epik_Tot_Q>
0

> <i_epik_Tot_abs_Q>
0

> <r_epik_Metal_State_Penalty>
-0

> <b_epik_Metal_Only>
0

> <s_lp_Force_Field>
OPLS_2005

> <r_lp_Energy>
37.4229

> <b_lp_Chiralities_Consistent>
1

> <s_lp_Variant>
AV-unprocessed.smi:184-1

> <Gold.Version>
5.8.1

> <Gold.Id.Protein>
6NUR|6NUR_protein|mol2

> <Gold.PLP.Fitness>
44.0893

> <Gold.PLP.PLP>
-41.1820

> <Gold.PLP.part.hbond>
-1.0000

> <Gold.PLP.part.metal>
0.0000

> <Gold.PLP.part.buried>
-5.2592

> <Gold.PLP.part.nonpolar>
-35.0658

> <Gold.PLP.part.repulsive>
0.1730

> <Gold.PLP.ligand.clash>
0.0000

> <Gold.PLP.ligand.torsion>
0.1426

> <Gold.PLP.Chemscore.Hbond>
1.0000

> <Gold.PLP.Chemscore.CHOScore>
0.0000

> <Gold.PLP.Chemscore.Metal>
0.0000

> <Gold.Chemscore.Hbonds>
donor molecule, donor type, donor heavy atom, donor atom, acceptor molecule, acceptor atom, score
      L1  H    16    35       P1  7948  1.00

> <Gold.PLP.Chemscore.Internal.Correction>
0.1925

> <Gold.Rescore>
     Score         DG    S(hbond)    S(metal)    S(lipo)     H(rot)  DE(clash)    DE(int)     intcor
     14.29     -15.94       1.00        0.00     100.88       1.83       0.16       1.48       ----

> <Gold.Chemscore.Fitness>
14.2943

> <Gold.Chemscore.DG>
-15.9383

> <Gold.Chemscore.ZeroCoef>
-5.4800

> <Gold.Chemscore.Hbond>
0.9965

> <Gold.Chemscore.Metal>
0.0000

> <Gold.Chemscore.Lipo>
100.8813

> <Gold.Chemscore.Internal_Hbond>
0.0000

> <Gold.Chemscore.DEClash>
0.1646

> <Gold.Chemscore.DEInternal>
1.4794

> <Gold.Chemscore.Rot>
1.8255

> <Gold.Chemscore.Internal.Correction>
   9.000000E+99

> <Gold.Chemscore.Hbonds>
donor molecule, donor type, donor heavy atom, donor atom, acceptor molecule, acceptor atom, score
      L1  H    16    35       P1  7948  1.00

> <Gold.Chemscore.Hbond.Weighted>
-3.3283

> <Gold.Chemscore.Metal.Weighted>
-0.0000

> <Gold.Chemscore.Lipo.Weighted>
-11.8031

> <Gold.Chemscore.Internal_Hbond.Weighted>
0.0000

> <Gold.Chemscore.DEClash.Weighted>
0.1646

> <Gold.Chemscore.DEInternal.Weighted>
1.4794

> <Gold.Chemscore.Rot.Weighted>
4.6732

> <Gold.Chemscore.Internal.Correction.Weighted>
   9.000000E+99

> <Gold.Protein.RotatedTorsions>
[ 6907 6896 6895 6894 ] final  -42.92 input  -60.11 | X-H torsion
[ 7974 7965 7964 7962 ] final   22.52 input  175.53 | X-H torsion
[ 8008 7997 7996 7995 ] final -163.49 input   59.86 | X-H torsion
[ 10167 10162 10161 10158 ] final -158.16 input  -65.29 | X-H torsion
[ 10718 10713 10712 10709 ] final  -64.56 input   66.30 | X-H torsion
[ 10763 10752 10751 10750 ] final  -14.43 input  -60.55 | X-H torsion
[ 11005 11000 10999 10996 ] final   94.22 input  -57.11 | X-H torsion

> <Gold.Protein.ActiveResidues>
 VAL166  LYS551  ARG553  GLY616  TRP617  ASP618  TYR619  PRO620  LYS621  CYS622 
 ASP623  PHE694  ASN695  SER759  ASP760  ASP761  ALA762  ILE779  LEU786  VAL792 
 PHE793  MET794  SER795  GLU796  ALA797  LYS798  CYS799  TRP800  GLU811  SER814 

> <Gold.Protein.RotatedAtoms>
  150.9498  134.8899  159.7664 H   0  0  0  0  0  0  0  0  0  0  0  0  # atno 6907 bound_to 6896
  152.5115  134.3823  159.9365 H   0  0  0  0  0  0  0  0  0  0  0  0  # atno 6908 bound_to 6896
  151.3839  133.3771  159.2748 H   0  0  0  0  0  0  0  0  0  0  0  0  # atno 6909 bound_to 6896
  146.2025  139.7874  142.8750 H   0  0  0  0  0  0  0  0  0  0  0  0  # atno 7974 bound_to 7965
  155.8221  140.0921  157.1843 H   0  0  0  0  0  0  0  0  0  0  0  0  # atno 8008 bound_to 7997
  154.3979  140.1435  156.3572 H   0  0  0  0  0  0  0  0  0  0  0  0  # atno 8009 bound_to 7997
  155.8255  140.3444  155.5543 H   0  0  0  0  0  0  0  0  0  0  0  0  # atno 8010 bound_to 7997
  139.6714  143.9739  152.2285 H   0  0  0  0  0  0  0  0  0  0  0  0  # atno 10167 bound_to 10162
  156.0721  130.4235  150.1438 H   0  0  0  0  0  0  0  0  0  0  0  0  # atno 10718 bound_to 10713
  153.5281  135.7015  153.5697 H   0  0  0  0  0  0  0  0  0  0  0  0  # atno 10763 bound_to 10752
  153.3716  135.3943  155.1793 H   0  0  0  0  0  0  0  0  0  0  0  0  # atno 10764 bound_to 10752
  154.8687  135.3813  154.4776 H   0  0  0  0  0  0  0  0  0  0  0  0  # atno 10765 bound_to 10752
  139.8801  134.8833  156.3832 H   0  0  0  0  0  0  0  0  0  0  0  0  # atno 11005 bound_to 11000
  145.3434  141.0292  143.3379 LP  0  0  0  0  0  0  0  0  0  0  0  0  # atno 17320 bound_to 7965
  144.8716  139.5030  143.6765 LP  0  0  0  0  0  0  0  0  0  0  0  0  # atno 17321 bound_to 7965
  139.9504  144.6624  150.8177 LP  0  0  0  0  0  0  0  0  0  0  0  0  # atno 17342 bound_to 10162
  140.7619  143.3186  151.2675 LP  0  0  0  0  0  0  0  0  0  0  0  0  # atno 17343 bound_to 10162
  156.9487  130.9767  151.3502 LP  0  0  0  0  0  0  0  0  0  0  0  0  # atno 17370 bound_to 10713
  157.5798  130.8368  149.8507 LP  0  0  0  0  0  0  0  0  0  0  0  0  # atno 17371 bound_to 10713
  140.9384  133.7531  156.0114 LP  0  0  0  0  0  0  0  0  0  0  0  0  # atno 17394 bound_to 11000
  140.8248  134.3247  157.5369 LP  0  0  0  0  0  0  0  0  0  0  0  0  # atno 17395 bound_to 11000

$$$$
