#       Name:                AV-unprocessed.smi:1239
#       Creating user name   scv26
#       Creation time:       Fri Mar 27 04:27:26 2020


#       File generated by GOLD software.
#

@<TRIPOS>MOLECULE
AV-unprocessed.smi:1239
    53    54     1
SMALL
NO_CHARGES


@<TRIPOS>ATOM
      1 ****        -2.6798   2.0247  -3.2036 C.3            1 S1                 0.0000
      2 ****        -3.2830   1.1896  -2.0517 C.3            1 S1                 0.0000
      3 ****        -2.9032  -0.3027  -2.2380 C.3            1 S1                 0.0000
      4 ****        -1.4615  -0.5438  -2.1828 N.am           1 S1                 0.0000
      5 ****        -0.7534  -0.8153  -1.0773 C.2            1 S1                 0.0000
      6 ****        -1.2461  -0.8586   0.0495 O.2            1 S1                 0.0000
      7 ****         0.5465  -1.0009  -1.3644 N.am           1 S1                 0.0000
      8 ****         1.6104  -1.3306  -0.4810 C.ar           1 S1                 0.0000
      9 ****         2.9299  -1.1121  -0.9286 C.ar           1 S1                 0.0000
     10 ****         4.0184  -1.4369  -0.0933 C.ar           1 S1                 0.0000
     11 ****         3.7824  -1.9913   1.1886 C.ar           1 S1                 0.0000
     12 ****         4.8175  -2.3425   2.0818 N.pl3          1 S1                 0.0000
     13 ****         4.4901  -2.9274   3.3774 C.3            1 S1                 0.0000
     14 ****         6.2049  -2.0814   1.7220 C.3            1 S1                 0.0000
     15 ****         2.4974  -2.1957   1.5687 N.pl3          1 S1                 1.0000
     16 ****         1.4261  -1.8972   0.8027 C.ar           1 S1                 0.0000
     17 ****        -2.9195   1.6882  -0.6858 N.4            1 S1                 1.0000
     18 ****        -2.7793   3.1634  -0.5505 C.3            1 S1                 0.0000
     19 ****        -2.3499   3.5426   0.8780 C.3            1 S1                 0.0000
     20 ****        -3.2815   3.0279   1.8185 O.3            1 S1                 0.0000
     21 ****        -3.3507   1.6105   1.7647 C.3            1 S1                 0.0000
     22 ****        -3.8322   1.1769   0.3713 C.3            1 S1                 0.0000
     23 ****        -2.9113   1.5766  -4.1705 H              1 S1                 0.0000
     24 ****        -1.5942   2.0957  -3.1287 H              1 S1                 0.0000
     25 ****        -3.0861   3.0360  -3.2294 H              1 S1                 0.0000
     26 ****        -4.3667   1.2713  -2.1496 H              1 S1                 0.0000
     27 ****        -3.4201  -0.9445  -1.5246 H              1 S1                 0.0000
     28 ****        -3.2477  -0.6393  -3.2164 H              1 S1                 0.0000
     29 ****        -0.9699  -0.5244  -3.0649 H              1 S1                 0.0000
     30 ****         0.8132  -0.8555  -2.3273 H              1 S1                 0.0000
     31 ****         3.1130  -0.6923  -1.9074 H              1 S1                 0.0000
     32 ****         5.0202  -1.2568  -0.4537 H              1 S1                 0.0000
     33 ****         3.9519  -3.8668   3.2474 H              1 S1                 0.0000
     34 ****         3.8672  -2.2478   3.9595 H              1 S1                 0.0000
     35 ****         5.3890  -3.1362   3.9580 H              1 S1                 0.0000
     36 ****         6.3580  -1.0186   1.5323 H              1 S1                 0.0000
     37 ****         6.4803  -2.6395   0.8269 H              1 S1                 0.0000
     38 ****         6.8843  -2.3775   2.5213 H              1 S1                 0.0000
     39 ****         0.4725  -2.1374   1.2480 H              1 S1                 0.0000
     40 ****        -2.0228   3.5480  -1.2335 H              1 S1                 0.0000
     41 ****        -3.7245   3.6472  -0.8010 H              1 S1                 0.0000
     42 ****        -1.3495   3.1644   1.0958 H              1 S1                 0.0000
     43 ****        -2.3080   4.6271   0.9812 H              1 S1                 0.0000
     44 ****        -2.3782   1.1729   1.9969 H              1 S1                 0.0000
     45 ****        -4.0472   1.2627   2.5277 H              1 S1                 0.0000
     46 ****        -4.8420   1.5510   0.1958 H              1 S1                 0.0000
     47 ****        -3.8898   0.0902   0.3463 H              1 S1                 0.0000
     48 ****         2.3283  -2.6023   2.4890 H              1 S1                 0.0000
     49 ****        -2.0057   1.3069  -0.4858 H              1 S1                 0.0000
     50 ****        -2.2231  -0.6861   0.1750 LP             1 S1                 0.0000
     51 ****        -0.6694  -1.0662   0.8397 LP             1 S1                 0.0000
     52 ****        -4.1859   3.4047   1.6187 LP             1 S1                 0.0000
     53 ****        -3.0009   3.3044   2.7377 LP             1 S1                 0.0000
@<TRIPOS>BOND
    1    1    2 1     
    2    1   23 1     
    3    1   24 1     
    4    1   25 1     
    5    2    3 1     
    6    2   17 1     
    7    2   26 1     
    8    3    4 1     
    9    3   27 1     
   10    3   28 1     
   11    4    5 am    
   12    4   29 1     
   13    5    6 2     
   14    5    7 am    
   15    7    8 1     
   16    7   30 1     
   17    8   16 ar    
   18    8    9 ar    
   19    9   10 ar    
   20    9   31 1     
   21   10   11 ar    
   22   10   32 1     
   23   11   12 1     
   24   11   15 ar    
   25   12   13 1     
   26   12   14 1     
   27   13   33 1     
   28   13   34 1     
   29   13   35 1     
   30   14   36 1     
   31   14   37 1     
   32   14   38 1     
   33   15   16 ar    
   34   15   48 1     
   35   16   39 1     
   36   17   22 1     
   37   17   18 1     
   38   17   49 1     
   39   18   19 1     
   40   18   40 1     
   41   18   41 1     
   42   19   20 1     
   43   19   42 1     
   44   19   43 1     
   45   20   21 1     
   46   21   22 1     
   47   21   44 1     
   48   21   45 1     
   49   22   46 1     
   50   22   47 1     
   51    6   50 1     
   52    6   51 1     
   53   20   52 1     
   54   20   53 1     
@<TRIPOS>SUBSTRUCTURE
      1 S1             1
@<TRIPOS>SET
LONE_PAIRS      STATIC     ATOMS    <user>   **** ""
4 50 51 52 53
DONOR_HYDROGENS      STATIC     ATOMS    <user>   **** ""
4 29 30 48 49
ATOM$BLUE        STATIC     ATOMS    COLORGROUP SYSTEM
4 50 51 52 53
ATOM$RED        STATIC     ATOMS    COLORGROUP SYSTEM
4 29 30 48 49
