#       Name:                AV-unprocessed.smi:2344
#       Creating user name   scv26
#       Creation time:       Fri Mar 27 12:58:21 2020


#       File generated by GOLD software.
#

@<TRIPOS>MOLECULE
AV-unprocessed.smi:2344
    40    41     1
SMALL
NO_CHARGES


@<TRIPOS>ATOM
      1 ****        -5.5570   3.5339   0.3062 C.3            1 S1                 0.0000
      2 ****        -4.3470   2.6297   0.4123 C.ar           1 S1                 0.0000
      3 ****        -4.4884   1.2319   0.4990 C.ar           1 S1                 0.0000
      4 ****        -3.3297   0.4373   0.5942 C.ar           1 S1                 0.0000
      5 ****        -2.0597   1.0567   0.5995 C.ar           1 S1                 0.0000
      6 ****        -0.9575   0.1669   0.7017 N.am           1 S1                 0.0000
      7 ****         0.3538   0.4644   0.7064 C.2            1 S1                 0.0000
      8 ****         0.8294   1.5967   0.6147 O.2            1 S1                 0.0000
      9 ****         1.1012  -0.6426   0.8195 N.am           1 S1                 0.0000
     10 ****         2.5593  -0.6673   0.8238 C.3            1 S1                 0.0000
     11 ****         3.0578  -2.0123   1.2796 C.2            1 S1                 0.0000
     12 ****         3.8190  -2.6155   0.3693 C.2            1 S1                 0.0000
     13 ****         3.9750  -1.8002  -0.8883 C.3            1 S1                 0.0000
     14 ****         3.5356  -2.5570  -2.1565 C.3            1 S1                 0.0000
     15 ****         2.1880  -2.9791  -2.0745 O.3            1 S1                 0.0000
     16 ****         3.1605  -0.5131  -0.5989 C.3            1 S1                 0.0000
     17 ****        -1.9339   2.4045   0.5138 N.ar           1 S1                 0.0000
     18 ****        -3.0445   3.1653   0.4223 C.ar           1 S1                 0.0000
     19 ****         2.9502   0.0967   1.4981 H              1 S1                 0.0000
     20 ****         5.0307  -1.5427  -0.9820 H              1 S1                 0.0000
     21 ****        -6.4545   3.0313   0.6677 H              1 S1                 0.0000
     22 ****        -5.7197   3.8240  -0.7318 H              1 S1                 0.0000
     23 ****        -5.4140   4.4385   0.8979 H              1 S1                 0.0000
     24 ****        -5.4660   0.7727   0.4928 H              1 S1                 0.0000
     25 ****        -3.4202  -0.6372   0.6621 H              1 S1                 0.0000
     26 ****        -1.1952  -0.8111   0.7761 H              1 S1                 0.0000
     27 ****         0.6313  -1.5335   0.8865 H              1 S1                 0.0000
     28 ****         2.8168  -2.4155   2.2523 H              1 S1                 0.0000
     29 ****         4.2856  -3.5820   0.4904 H              1 S1                 0.0000
     30 ****         3.6530  -1.9215  -3.0346 H              1 S1                 0.0000
     31 ****         4.1666  -3.4329  -2.3105 H              1 S1                 0.0000
     32 ****         1.9647  -3.4285  -2.8754 H              1 S1                 0.0000
     33 ****         2.3862  -0.3525  -1.3508 H              1 S1                 0.0000
     34 ****         3.8112   0.3612  -0.6378 H              1 S1                 0.0000
     35 ****        -2.8871   4.2319   0.3556 H              1 S1                 0.0000
     36 ****         0.2239   2.3878   0.5279 LP             1 S1                 0.0000
     37 ****         1.8210   1.7250   0.6270 LP             1 S1                 0.0000
     38 ****         1.5923  -2.1845  -1.9564 LP             1 S1                 0.0000
     39 ****         2.0753  -3.5985  -1.2976 LP             1 S1                 0.0000
     40 ****        -1.0287   2.8294   0.5184 LP             1 S1                 0.0000
@<TRIPOS>BOND
    1    1    2 1     
    2    1   21 1     
    3    1   22 1     
    4    1   23 1     
    5    2   18 ar    
    6    2    3 ar    
    7    3    4 ar    
    8    3   24 1     
    9    4    5 ar    
   10    4   25 1     
   11    5    6 1     
   12    5   17 ar    
   13    6    7 am    
   14    6   26 1     
   15    7    8 2     
   16    7    9 am    
   17    9   10 1     
   18    9   27 1     
   19   10   19 1     
   20   10   16 1     
   21   10   11 1     
   22   11   12 2     
   23   11   28 1     
   24   12   13 1     
   25   12   29 1     
   26   13   20 1     
   27   13   14 1     
   28   13   16 1     
   29   14   15 1     
   30   14   30 1     
   31   14   31 1     
   32   15   32 1     
   33   16   33 1     
   34   16   34 1     
   35   17   18 ar    
   36   18   35 1     
   37    8   36 1     
   38    8   37 1     
   39   15   38 1     
   40   15   39 1     
   41   17   40 1     
@<TRIPOS>SUBSTRUCTURE
      1 S1             1
@<TRIPOS>SET
LONE_PAIRS      STATIC     ATOMS    <user>   **** ""
5 36 37 38 39 40
DONOR_HYDROGENS      STATIC     ATOMS    <user>   **** ""
3 26 27 32
ATOM$BLUE        STATIC     ATOMS    COLORGROUP SYSTEM
5 36 37 38 39 40
ATOM$RED        STATIC     ATOMS    COLORGROUP SYSTEM
3 26 27 32
