AV-unprocessed.smi:1040|AV-procd|sdf|4526|dock7
  -GOLD-   22720 2543D 1   1.00000     0.00000
 Structure written by MMmdl.
 55 56  0  0  0  0  0  0  0  0  2 V2000
  152.5225  137.9270  154.3659 C   0  0  0  0  0  0  0  0  0  0  0  0
  151.0729  137.9724  154.8760 C   0  0  2  0  0  0  0  0  0  0  0  0
  150.3263  136.8071  154.4065 N   0  0  0  0  0  0  0  0  0  0  0  0
  150.1875  135.6485  155.0650 C   0  0  0  0  0  0  0  0  0  0  0  0
  150.7174  135.4106  156.1503 O   0  0  0  0  0  0  0  0  0  0  0  0
  149.3842  134.8059  154.3954 N   0  0  0  0  0  0  0  0  0  0  0  0
  148.9197  133.5274  154.8121 C   0  0  0  0  0  0  0  0  0  0  0  0
  149.6578  132.6973  155.6930 C   0  0  0  0  0  0  0  0  0  0  0  0
  149.1473  131.4335  156.0512 C   0  0  0  0  0  0  0  0  0  0  0  0
  147.9134  131.0159  155.5178 C   0  0  0  0  0  0  0  0  0  0  0  0
  147.2430  131.8234  154.6693 N   0  3  0  0  0  0  0  0  0  0  0  0
  147.6914  133.0458  154.2935 C   0  0  0  0  0  0  0  0  0  0  0  0
  146.9141  133.8036  153.4029 N   0  0  0  0  0  0  0  0  0  0  0  0
  146.7696  133.1857  152.0876 C   0  0  0  0  0  0  0  0  0  0  0  0
  146.1175  134.1649  151.0959 C   0  0  0  0  0  0  0  0  0  0  0  0
  144.7847  134.6981  151.6463 C   0  0  0  0  0  0  0  0  0  0  0  0
  144.9901  135.3066  153.0434 C   0  0  0  0  0  0  0  0  0  0  0  0
  145.6707  134.2998  153.9870 C   0  0  0  0  0  0  0  0  0  0  0  0
  150.3401  139.2697  154.5161 C   0  0  0  0  0  0  0  0  0  0  0  0
  150.9266  140.1618  153.9017 O   0  0  0  0  0  0  0  0  0  0  0  0
  149.0612  139.3572  154.9237 N   0  0  0  0  0  0  0  0  0  0  0  0
  148.1160  140.4645  154.7359 C   0  0  0  0  0  0  0  0  0  0  0  0
  148.6976  141.6794  155.4800 C   0  0  0  0  0  0  0  0  0  0  0  0
  146.7400  140.1170  155.3427 C   0  0  0  0  0  0  0  0  0  0  0  0
  147.9777  140.8135  153.2394 C   0  0  0  0  0  0  0  0  0  0  0  0
  153.0909  138.7898  154.7149 H   0  0  0  0  0  0  0  0  0  0  0  0
  152.5593  137.9244  153.2758 H   0  0  0  0  0  0  0  0  0  0  0  0
  153.0382  137.0332  154.7187 H   0  0  0  0  0  0  0  0  0  0  0  0
  151.1061  137.9309  155.9669 H   0  0  0  0  0  0  0  0  0  0  0  0
  149.8521  136.9114  153.5212 H   0  0  0  0  0  0  0  0  0  0  0  0
  148.9589  135.1723  153.5561 H   0  0  0  0  0  0  0  0  0  0  0  0
  150.6138  133.0043  156.0892 H   0  0  0  0  0  0  0  0  0  0  0  0
  149.6983  130.7911  156.7227 H   0  0  0  0  0  0  0  0  0  0  0  0
  147.4492  130.0652  155.7371 H   0  0  0  0  0  0  0  0  0  0  0  0
  147.7475  132.8769  151.7154 H   0  0  0  0  0  0  0  0  0  0  0  0
  146.1605  132.2848  152.1740 H   0  0  0  0  0  0  0  0  0  0  0  0
  146.7946  134.9995  150.9086 H   0  0  0  0  0  0  0  0  0  0  0  0
  145.9580  133.6742  150.1353 H   0  0  0  0  0  0  0  0  0  0  0  0
  144.3668  135.4426  150.9680 H   0  0  0  0  0  0  0  0  0  0  0  0
  144.0595  133.8853  151.7031 H   0  0  0  0  0  0  0  0  0  0  0  0
  145.6048  136.2045  152.9637 H   0  0  0  0  0  0  0  0  0  0  0  0
  144.0331  135.6222  153.4601 H   0  0  0  0  0  0  0  0  0  0  0  0
  144.9992  133.4621  154.1803 H   0  0  0  0  0  0  0  0  0  0  0  0
  145.8780  134.7736  154.9475 H   0  0  0  0  0  0  0  0  0  0  0  0
  148.6966  138.5602  155.4255 H   0  0  0  0  0  0  0  0  0  0  0  0
  148.0480  142.5504  155.3863 H   0  0  0  0  0  0  0  0  0  0  0  0
  149.6760  141.9574  155.0854 H   0  0  0  0  0  0  0  0  0  0  0  0
  148.8183  141.4745  156.5446 H   0  0  0  0  0  0  0  0  0  0  0  0
  146.8285  139.8336  156.3921 H   0  0  0  0  0  0  0  0  0  0  0  0
  146.2555  139.2936  154.8181 H   0  0  0  0  0  0  0  0  0  0  0  0
  146.0613  140.9690  155.2901 H   0  0  0  0  0  0  0  0  0  0  0  0
  147.3483  141.6928  153.0993 H   0  0  0  0  0  0  0  0  0  0  0  0
  147.5244  140.0032  152.6685 H   0  0  0  0  0  0  0  0  0  0  0  0
  148.9479  141.0305  152.7910 H   0  0  0  0  0  0  0  0  0  0  0  0
  146.3534  131.4959  154.2923 H   0  0  0  0  0  0  0  0  0  0  0  0
  1  2  1  0  0  0  0
  1 26  1  0  0  0  0
  1 27  1  0  0  0  0
  1 28  1  0  0  0  0
  2  3  1  0  0  0  0
  2 19  1  0  0  0  0
  2 29  1  0  0  0  0
  3  4  1  0  0  0  0
  3 30  1  0  0  0  0
  4  5  2  0  0  0  0
  4  6  1  0  0  0  0
  6  7  1  0  0  0  0
  6 31  1  0  0  0  0
  7 12  1  0  0  0  0
  7  8  2  0  0  0  0
  8  9  1  0  0  0  0
  8 32  1  0  0  0  0
  9 10  2  0  0  0  0
  9 33  1  0  0  0  0
 10 11  1  0  0  0  0
 10 34  1  0  0  0  0
 11 12  2  0  0  0  0
 11 55  1  0  0  0  0
 12 13  1  0  0  0  0
 13 18  1  0  0  0  0
 13 14  1  0  0  0  0
 14 15  1  0  0  0  0
 14 35  1  0  0  0  0
 14 36  1  0  0  0  0
 15 16  1  0  0  0  0
 15 37  1  0  0  0  0
 15 38  1  0  0  0  0
 16 17  1  0  0  0  0
 16 39  1  0  0  0  0
 16 40  1  0  0  0  0
 17 18  1  0  0  0  0
 17 41  1  0  0  0  0
 17 42  1  0  0  0  0
 18 43  1  0  0  0  0
 18 44  1  0  0  0  0
 19 20  2  0  0  0  0
 19 21  1  0  0  0  0
 21 22  1  0  0  0  0
 21 45  1  0  0  0  0
 22 23  1  0  0  0  0
 22 24  1  0  0  0  0
 22 25  1  0  0  0  0
 23 46  1  0  0  0  0
 23 47  1  0  0  0  0
 23 48  1  0  0  0  0
 24 49  1  0  0  0  0
 24 50  1  0  0  0  0
 24 51  1  0  0  0  0
 25 52  1  0  0  0  0
 25 53  1  0  0  0  0
 25 54  1  0  0  0  0
M  CHG  1  11   1
M  END
> <s_m_source_file>
AV-unprocessed.smi

> <i_m_source_file_index>
1040

> <i_lp_mmshare_version>
43012

> <i_f3d_flags>
0

> <s_epik_input>
W0NIM11DKFtDSDNdKShbQ0gzXSlbTkhdQyg9TylbQ0BIXShbQ0gzXSlbTkhdQyg9TylbTkhdYzFbY0hdW2NIXVtjSF1uYzFOMltDSDJdW0NIMl1bQ0gyXVtDSDJdW0NIMl0y

> <s_epik_cmdline>
J2VwaWtfcHl0aG9uJywgJy1waCcsICc3LjAnLCAnLXRuJywgJzgnLCAnLW1hJywgJzIwMCcsICctbWV0YWxfYmluZGluZycsICctaW1hZScsICc8aW5maWxlLm1hZT4nLCAnLW9tYWUnLCAnPG91dGZpbGUubWFlPic=

> <r_lp_tautomer_probability>
0.999994

> <r_epik_Ionization_Penalty>
1.20468

> <r_epik_Ionization_Penalty_Charging>
1.20466

> <r_epik_Ionization_Penalty_Neutral>
1.88859e-05

> <r_epik_State_Penalty>
1.27057

> <r_epik_Charging_Adjusted_Penalty>
2.47523

> <i_epik_Tot_Q>
1

> <i_epik_Tot_abs_Q>
1

> <r_epik_Metal_State_Penalty>
1.34448

> <b_epik_Metal_Only>
0

> <s_lp_Force_Field>
OPLS_2005

> <r_lp_Energy>
28.5731

> <b_lp_Chiralities_Consistent>
1

> <s_lp_Variant>
AV-unprocessed.smi:1040-3

> <Gold.Version>
5.8.1

> <Gold.Id.Protein>
6NUR|6NUR_protein|mol2

> <Gold.PLP.Fitness>
44.3032

> <Gold.PLP.PLP>
-34.5811

> <Gold.PLP.part.hbond>
-5.3121

> <Gold.PLP.part.metal>
0.0000

> <Gold.PLP.part.buried>
-4.9306

> <Gold.PLP.part.nonpolar>
-25.8176

> <Gold.PLP.part.repulsive>
0.4197

> <Gold.PLP.ligand.clash>
0.0000

> <Gold.PLP.ligand.torsion>
0.6585

> <Gold.PLP.Chemscore.Hbond>
3.5830

> <Gold.PLP.Chemscore.CHOScore>
0.0000

> <Gold.PLP.Chemscore.Metal>
0.0000

> <Gold.Chemscore.Hbonds>
donor molecule, donor type, donor heavy atom, donor atom, acceptor molecule, acceptor atom, score
      L1  H     3    30       P1  7948  1.00
      L1  H     6    31       P1  7948  1.00

> <Gold.PLP.Chemscore.Internal.Correction>
0.2901

> <Gold.Rescore>
     Score         DG    S(hbond)    S(metal)    S(lipo)     H(rot)  DE(clash)    DE(int)     intcor
     14.43     -16.61       2.48        0.00      60.32       1.64       0.43       1.75       ----

> <Gold.Chemscore.Fitness>
14.4315

> <Gold.Chemscore.DG>
-16.6105

> <Gold.Chemscore.ZeroCoef>
-5.4800

> <Gold.Chemscore.Hbond>
2.4785

> <Gold.Chemscore.Metal>
0.0000

> <Gold.Chemscore.Lipo>
60.3229

> <Gold.Chemscore.Internal_Hbond>
0.0000

> <Gold.Chemscore.DEClash>
0.4260

> <Gold.Chemscore.DEInternal>
1.7530

> <Gold.Chemscore.Rot>
1.6428

> <Gold.Chemscore.Internal.Correction>
   9.000000E+99

> <Gold.Chemscore.Hbonds>
donor molecule, donor type, donor heavy atom, donor atom, acceptor molecule, acceptor atom, score
      L1  H     3    30       P1  7948  0.43
      L1  H     6    31       P1  7948  0.53
      P1  H  7989  7998       L1    20  0.02

> <Gold.Chemscore.Hbond.Weighted>
-8.2781

> <Gold.Chemscore.Metal.Weighted>
-0.0000

> <Gold.Chemscore.Lipo.Weighted>
-7.0578

> <Gold.Chemscore.Internal_Hbond.Weighted>
0.0000

> <Gold.Chemscore.DEClash.Weighted>
0.4260

> <Gold.Chemscore.DEInternal.Weighted>
1.7530

> <Gold.Chemscore.Rot.Weighted>
4.2055

> <Gold.Chemscore.Internal.Correction.Weighted>
   9.000000E+99

> <Gold.Protein.RotatedTorsions>
[ 6907 6896 6895 6894 ] final -136.72 input  -60.11 | X-H torsion
[ 7974 7965 7964 7962 ] final   32.87 input  175.53 | X-H torsion
[ 8008 7997 7996 7995 ] final  171.70 input   59.86 | X-H torsion
[ 10167 10162 10161 10158 ] final   -8.51 input  -65.29 | X-H torsion
[ 10718 10713 10712 10709 ] final    8.72 input   66.30 | X-H torsion
[ 10763 10752 10751 10750 ] final  -33.58 input  -60.55 | X-H torsion
[ 11005 11000 10999 10996 ] final -131.80 input  -57.11 | X-H torsion

> <Gold.Protein.ActiveResidues>
 VAL166  LYS551  ARG553  GLY616  TRP617  ASP618  TYR619  PRO620  LYS621  CYS622 
 ASP623  PHE694  ASN695  SER759  ASP760  ASP761  ALA762  ILE779  LEU786  VAL792 
 PHE793  MET794  SER795  GLU796  ALA797  LYS798  CYS799  TRP800  GLU811  SER814 

> <Gold.Protein.RotatedAtoms>
  151.0135  133.5943  159.2679 H   0  0  0  0  0  0  0  0  0  0  0  0  # atno 6907 bound_to 6896
  151.3085  135.0787  159.9274 H   0  0  0  0  0  0  0  0  0  0  0  0  # atno 6908 bound_to 6896
  152.5305  133.9804  159.7858 H   0  0  0  0  0  0  0  0  0  0  0  0  # atno 6909 bound_to 6896
  146.1458  139.6470  142.9132 H   0  0  0  0  0  0  0  0  0  0  0  0  # atno 7974 bound_to 7965
  156.1245  140.1505  156.9156 H   0  0  0  0  0  0  0  0  0  0  0  0  # atno 8008 bound_to 7997
  154.4861  140.0865  156.7530 H   0  0  0  0  0  0  0  0  0  0  0  0  # atno 8009 bound_to 7997
  155.4368  140.3429  155.4288 H   0  0  0  0  0  0  0  0  0  0  0  0  # atno 8010 bound_to 7997
  140.7061  143.5960  150.8845 H   0  0  0  0  0  0  0  0  0  0  0  0  # atno 10167 bound_to 10162
  156.9558  130.5914  149.5659 H   0  0  0  0  0  0  0  0  0  0  0  0  # atno 10718 bound_to 10713
  153.8326  135.6865  153.4812 H   0  0  0  0  0  0  0  0  0  0  0  0  # atno 10763 bound_to 10752
  153.1502  135.4621  154.9623 H   0  0  0  0  0  0  0  0  0  0  0  0  # atno 10764 bound_to 10752
  154.7880  135.3291  154.7787 H   0  0  0  0  0  0  0  0  0  0  0  0  # atno 10765 bound_to 10752
  140.9227  134.1423  157.4301 H   0  0  0  0  0  0  0  0  0  0  0  0  # atno 11005 bound_to 11000
  145.4940  141.0438  143.2577 LP  0  0  0  0  0  0  0  0  0  0  0  0  # atno 17320 bound_to 7965
  144.7845  139.6456  143.7140 LP  0  0  0  0  0  0  0  0  0  0  0  0  # atno 17321 bound_to 7965
  139.9685  143.6083  152.2981 LP  0  0  0  0  0  0  0  0  0  0  0  0  # atno 17342 bound_to 10162
  139.6661  144.7662  151.1870 LP  0  0  0  0  0  0  0  0  0  0  0  0  # atno 17343 bound_to 10162
  156.0343  130.5432  150.8614 LP  0  0  0  0  0  0  0  0  0  0  0  0  # atno 17370 bound_to 10713
  157.5691  131.0946  150.9445 LP  0  0  0  0  0  0  0  0  0  0  0  0  # atno 17371 bound_to 10713
  139.8779  134.9977  156.5861 LP  0  0  0  0  0  0  0  0  0  0  0  0  # atno 17394 bound_to 11000
  140.7967  133.8538  155.8691 LP  0  0  0  0  0  0  0  0  0  0  0  0  # atno 17395 bound_to 11000

$$$$
