AV-unprocessed.smi:3239|AV-procd|sdf|12379|dock2
  -GOLD-   2272018243D 1   1.00000     0.00000
 Structure written by MMmdl.
 35 35  0  0  0  0  0  0  0  0  1 V2000
  155.6539  140.8088  160.0603 C   0  0  0  0  0  0  0  0  0  0  0  0
  154.4761  141.0712  160.2480 C   0  0  0  0  0  0  0  0  0  0  0  0
  153.0573  141.4045  160.4625 C   0  0  0  0  0  0  0  0  0  0  0  0
  152.2656  141.3164  159.2406 N   0  0  0  0  0  0  0  0  0  0  0  0
  152.5080  140.4787  158.2180 C   0  0  0  0  0  0  0  0  0  0  0  0
  153.4312  139.6642  158.2100 O   0  0  0  0  0  0  0  0  0  0  0  0
  151.5275  140.5387  157.0829 C   0  0  0  0  0  0  0  0  0  0  0  0
  150.2818  141.1935  157.2091 C   0  0  0  0  0  0  0  0  0  0  0  0
  149.4164  141.2381  156.0987 C   0  0  0  0  0  0  0  0  0  0  0  0
  149.8239  140.6333  154.8917 C   0  0  0  0  0  0  0  0  0  0  0  0
  148.9530  140.6790  153.7926 N   0  0  0  0  0  0  0  0  0  0  0  0
  147.5086  140.8207  153.9501 C   0  0  2  0  0  0  0  0  0  0  0  0
  146.7559  139.9864  152.8984 C   0  0  0  0  0  0  0  0  0  0  0  0
  147.1177  142.3046  153.8737 C   0  0  0  0  0  0  0  0  0  0  0  0
  145.7223  142.4380  154.0896 O   0  0  0  0  0  0  0  0  0  0  0  0
  145.3055  143.7912  154.1364 C   0  0  0  0  0  0  0  0  0  0  0  0
  151.0192  140.0113  154.7626 N   0  0  0  0  0  0  0  0  0  0  0  0
  151.8467  139.9740  155.8287 C   0  0  0  0  0  0  0  0  0  0  0  0
  156.6834  140.5843  159.8934 H   0  0  0  0  0  0  0  0  0  0  0  0
  152.6548  140.7050  161.1952 H   0  0  0  0  0  0  0  0  0  0  0  0
  152.9948  142.4011  160.9021 H   0  0  0  0  0  0  0  0  0  0  0  0
  151.4684  141.9319  159.1707 H   0  0  0  0  0  0  0  0  0  0  0  0
  149.9854  141.6617  158.1367 H   0  0  0  0  0  0  0  0  0  0  0  0
  148.4587  141.7321  156.1758 H   0  0  0  0  0  0  0  0  0  0  0  0
  149.3218  140.5370  152.8634 H   0  0  0  0  0  0  0  0  0  0  0  0
  147.2351  140.4649  154.9441 H   0  0  0  0  0  0  0  0  0  0  0  0
  145.6767  140.0717  153.0268 H   0  0  0  0  0  0  0  0  0  0  0  0
  147.0063  138.9280  152.9721 H   0  0  0  0  0  0  0  0  0  0  0  0
  146.9969  140.3137  151.8864 H   0  0  0  0  0  0  0  0  0  0  0  0
  147.6525  142.8693  154.6393 H   0  0  0  0  0  0  0  0  0  0  0  0
  147.3955  142.7241  152.9050 H   0  0  0  0  0  0  0  0  0  0  0  0
  144.2297  143.8367  154.3058 H   0  0  0  0  0  0  0  0  0  0  0  0
  145.5202  144.3030  153.1974 H   0  0  0  0  0  0  0  0  0  0  0  0
  145.7971  144.3282  154.9487 H   0  0  0  0  0  0  0  0  0  0  0  0
  152.7897  139.4713  155.6697 H   0  0  0  0  0  0  0  0  0  0  0  0
  1  2  3  0  0  0  0
  1 19  1  0  0  0  0
  2  3  1  0  0  0  0
  3  4  1  0  0  0  0
  3 20  1  0  0  0  0
  3 21  1  0  0  0  0
  4  5  1  0  0  0  0
  4 22  1  0  0  0  0
  5  6  2  0  0  0  0
  5  7  1  0  0  0  0
  7 18  1  0  0  0  0
  7  8  2  0  0  0  0
  8  9  1  0  0  0  0
  8 23  1  0  0  0  0
  9 10  2  0  0  0  0
  9 24  1  0  0  0  0
 10 11  1  0  0  0  0
 10 17  1  0  0  0  0
 11 12  1  0  0  0  0
 11 25  1  0  0  0  0
 12 13  1  0  0  0  0
 12 14  1  0  0  0  0
 12 26  1  0  0  0  0
 13 27  1  0  0  0  0
 13 28  1  0  0  0  0
 13 29  1  0  0  0  0
 14 15  1  0  0  0  0
 14 30  1  0  0  0  0
 14 31  1  0  0  0  0
 15 16  1  0  0  0  0
 16 32  1  0  0  0  0
 16 33  1  0  0  0  0
 16 34  1  0  0  0  0
 17 18  2  0  0  0  0
 18 35  1  0  0  0  0
M  END
> <s_m_source_file>
AV-unprocessed.smi

> <i_m_source_file_index>
3239

> <i_lp_mmshare_version>
43012

> <i_f3d_flags>
0

> <s_epik_input>
W0NIXSNDW0NIMl1bTkhdQyg9TyljMVtjSF1bY0hdYyhuW2NIXTEpW05IXVtDQEhdKFtDSDNdKVtDSDJdT1tDSDNd

> <s_epik_cmdline>
J2VwaWtfcHl0aG9uJywgJy1waCcsICc3LjAnLCAnLXRuJywgJzgnLCAnLW1hJywgJzIwMCcsICctbWV0YWxfYmluZGluZycsICctaW1hZScsICc8aW5maWxlLm1hZT4nLCAnLW9tYWUnLCAnPG91dGZpbGUubWFlPic=

> <r_lp_tautomer_probability>
1

> <r_epik_Ionization_Penalty>
0.00321854

> <r_epik_Ionization_Penalty_Charging>
0

> <r_epik_Ionization_Penalty_Neutral>
0.00321854

> <r_epik_State_Penalty>
0.00226446

> <r_epik_Charging_Adjusted_Penalty>
0.00226446

> <i_epik_Tot_Q>
0

> <i_epik_Tot_abs_Q>
0

> <r_epik_Metal_State_Penalty>
-0

> <b_epik_Metal_Only>
0

> <s_lp_Force_Field>
OPLS_2005

> <r_lp_Energy>
6.08626

> <b_lp_Chiralities_Consistent>
1

> <s_lp_Variant>
AV-unprocessed.smi:3239-1

> <Gold.Version>
5.8.1

> <Gold.Id.Protein>
6NUR|6NUR_protein|mol2

> <Gold.PLP.Fitness>
40.4125

> <Gold.PLP.PLP>
-35.1189

> <Gold.PLP.part.hbond>
-3.0000

> <Gold.PLP.part.metal>
0.0000

> <Gold.PLP.part.buried>
-4.1143

> <Gold.PLP.part.nonpolar>
-28.9570

> <Gold.PLP.part.repulsive>
0.5817

> <Gold.PLP.ligand.clash>
2.2335

> <Gold.PLP.ligand.torsion>
0.7971

> <Gold.PLP.Chemscore.Hbond>
3.0000

> <Gold.PLP.Chemscore.CHOScore>
0.0000

> <Gold.PLP.Chemscore.Metal>
0.0000

> <Gold.Chemscore.Hbonds>
donor molecule, donor type, donor heavy atom, donor atom, acceptor molecule, acceptor atom, score
      L1  H    11    25       P1  7957  1.00
      P1  H  7989  7998       L1    17  1.00
      P1  H  7997  8010       L1     6  1.00

> <Gold.PLP.Chemscore.Internal.Correction>
0.1212

> <Gold.Rescore>
     Score         DG    S(hbond)    S(metal)    S(lipo)     H(rot)  DE(clash)    DE(int)     intcor
     16.47     -18.67       2.60        0.00      73.86       1.62       0.02       2.18       ----

> <Gold.Chemscore.Fitness>
16.4707

> <Gold.Chemscore.DG>
-18.6719

> <Gold.Chemscore.ZeroCoef>
-5.4800

> <Gold.Chemscore.Hbond>
2.6032

> <Gold.Chemscore.Metal>
0.0000

> <Gold.Chemscore.Lipo>
73.8615

> <Gold.Chemscore.Internal_Hbond>
0.0000

> <Gold.Chemscore.DEClash>
0.0189

> <Gold.Chemscore.DEInternal>
2.1824

> <Gold.Chemscore.Rot>
1.6190

> <Gold.Chemscore.Internal.Correction>
   9.000000E+99

> <Gold.Chemscore.Hbonds>
donor molecule, donor type, donor heavy atom, donor atom, acceptor molecule, acceptor atom, score
      L1  H    11    25       P1  7957  1.00
      P1  H  7989  7998       L1    17  0.22
      P1  H  7997  8010       L1     6  0.92

> <Gold.Chemscore.Hbond.Weighted>
-8.6948

> <Gold.Chemscore.Metal.Weighted>
-0.0000

> <Gold.Chemscore.Lipo.Weighted>
-8.6418

> <Gold.Chemscore.Internal_Hbond.Weighted>
0.0000

> <Gold.Chemscore.DEClash.Weighted>
0.0189

> <Gold.Chemscore.DEInternal.Weighted>
2.1824

> <Gold.Chemscore.Rot.Weighted>
4.1447

> <Gold.Chemscore.Internal.Correction.Weighted>
   9.000000E+99

> <Gold.Protein.RotatedTorsions>
[ 6907 6896 6895 6894 ] final -144.50 input  -60.11 | X-H torsion
[ 7974 7965 7964 7962 ] final   19.72 input  175.53 | X-H torsion
[ 8008 7997 7996 7995 ] final   21.77 input   59.86 | X-H torsion
[ 10167 10162 10161 10158 ] final  168.19 input  -65.29 | X-H torsion
[ 10718 10713 10712 10709 ] final  -19.72 input   66.30 | X-H torsion
[ 10763 10752 10751 10750 ] final  176.26 input  -60.55 | X-H torsion
[ 11005 11000 10999 10996 ] final -110.78 input  -57.11 | X-H torsion

> <Gold.Protein.ActiveResidues>
 VAL166  LYS551  ARG553  GLY616  TRP617  ASP618  TYR619  PRO620  LYS621  CYS622 
 ASP623  PHE694  ASN695  SER759  ASP760  ASP761  ALA762  ILE779  LEU786  VAL792 
 PHE793  MET794  SER795  GLU796  ALA797  LYS798  CYS799  TRP800  GLU811  SER814 

> <Gold.Protein.RotatedAtoms>
  151.1150  133.5145  159.2603 H   0  0  0  0  0  0  0  0  0  0  0  0  # atno 6907 bound_to 6896
  151.1925  135.0408  159.8848 H   0  0  0  0  0  0  0  0  0  0  0  0  # atno 6908 bound_to 6896
  152.5452  134.0988  159.8362 H   0  0  0  0  0  0  0  0  0  0  0  0  # atno 6909 bound_to 6896
  146.2139  139.8273  142.8667 H   0  0  0  0  0  0  0  0  0  0  0  0  # atno 7974 bound_to 7965
  154.9556  140.3071  155.5054 H   0  0  0  0  0  0  0  0  0  0  0  0  # atno 8008 bound_to 7997
  156.2982  140.2310  156.4576 H   0  0  0  0  0  0  0  0  0  0  0  0  # atno 8009 bound_to 7997
  154.8013  140.0434  157.1263 H   0  0  0  0  0  0  0  0  0  0  0  0  # atno 8010 bound_to 7997
  139.4962  144.3840  151.9590 H   0  0  0  0  0  0  0  0  0  0  0  0  # atno 10167 bound_to 10162
  156.5417  130.4680  149.6495 H   0  0  0  0  0  0  0  0  0  0  0  0  # atno 10718 bound_to 10713
  154.4788  135.2774  155.1587 H   0  0  0  0  0  0  0  0  0  0  0  0  # atno 10763 bound_to 10752
  154.3306  135.6191  153.5553 H   0  0  0  0  0  0  0  0  0  0  0  0  # atno 10764 bound_to 10752
  152.9872  135.5764  154.5184 H   0  0  0  0  0  0  0  0  0  0  0  0  # atno 10765 bound_to 10752
  141.0772  133.9281  157.2364 H   0  0  0  0  0  0  0  0  0  0  0  0  # atno 11005 bound_to 11000
  145.3034  141.0200  143.3596 LP  0  0  0  0  0  0  0  0  0  0  0  0  # atno 17320 bound_to 7965
  144.8989  139.4675  143.6642 LP  0  0  0  0  0  0  0  0  0  0  0  0  # atno 17321 bound_to 7965
  140.3277  144.3353  150.5994 LP  0  0  0  0  0  0  0  0  0  0  0  0  # atno 17342 bound_to 10162
  140.5670  143.2185  151.7665 LP  0  0  0  0  0  0  0  0  0  0  0  0  # atno 17343 bound_to 10162
  156.2965  130.7153  151.2015 LP  0  0  0  0  0  0  0  0  0  0  0  0  # atno 17370 bound_to 10713
  157.7404  131.0517  150.5169 LP  0  0  0  0  0  0  0  0  0  0  0  0  # atno 17371 bound_to 10713
  139.9585  135.0160  156.9195 LP  0  0  0  0  0  0  0  0  0  0  0  0  # atno 17394 bound_to 11000
  140.5547  134.0593  155.7380 LP  0  0  0  0  0  0  0  0  0  0  0  0  # atno 17395 bound_to 11000

$$$$
