#       Name:                AV-unprocessed.smi:90
#       Creating user name   scv26
#       Creation time:       Thu Mar 26 17:24:46 2020


#       File generated by GOLD software.
#

@<TRIPOS>MOLECULE
AV-unprocessed.smi:90
    71    74     1
SMALL
NO_CHARGES


@<TRIPOS>ATOM
      1 ****        -2.4499  -1.7607  -0.9954 C.3            1 S1                 0.0000
      2 ****        -1.9036  -0.4799  -0.5621 N.pl3          1 S1                 0.0000
      3 ****        -2.8408   0.5320  -0.0713 C.3            1 S1                 0.0000
      4 ****        -3.2745   0.2765   1.3865 C.3            1 S1                 0.0000
      5 ****        -4.3939   1.2180   1.9010 C.3            1 S1                 0.0000
      6 ****        -3.9759   2.7041   1.7692 C.3            1 S1                 0.0000
      7 ****        -5.0556   3.6594   2.2900 C.3            1 S1                 0.0000
      8 ****        -5.4119   3.3008   3.7327 C.3            1 S1                 0.0000
      9 ****        -5.8392   1.8306   3.8239 C.3            1 S1                 0.0000
     10 ****        -4.7778   0.9192   3.3193 N.4            1 S1                 1.0000
     11 ****        -5.1441  -0.4961   3.5727 C.3            1 S1                 0.0000
     12 ****        -0.5657  -0.3712  -0.3115 C.ar           1 S1                 0.0000
     13 ****        -0.1295   0.6505   0.4747 N.ar           1 S1                 0.0000
     14 ****         1.1669   0.7942   0.7592 C.ar           1 S1                 0.0000
     15 ****         2.1934   0.0432   0.3632 N.ar           1 S1                 0.0000
     16 ****         1.7786  -0.9763  -0.4402 C.ar           1 S1                 0.0000
     17 ****         0.4332  -1.2586  -0.8215 C.ar           1 S1                 0.0000
     18 ****         0.4157  -2.3822  -1.6422 N.2            1 S1                 0.0000
     19 ****         1.6648  -2.7445  -1.7308 C.2            1 S1                 0.0000
     20 ****         2.5562  -1.9444  -1.0542 N.pl3          1 S1                 0.0000
     21 ****         4.0016  -2.1194  -0.9861 C.3            1 S1                 0.0000
     22 ****         4.8155  -1.3772  -2.0904 C.3            1 S1                 0.0000
     23 ****         4.3085  -1.8715  -3.4792 C.3            1 S1                 0.0000
     24 ****         5.0436  -1.4067  -4.5894 O.3            1 S1                 0.0000
     25 ****         4.6321   0.1538  -1.9194 C.3            1 S1                 0.0000
     26 ****         5.7159   0.9950  -2.6159 C.3            1 S1                 0.0000
     27 ****         7.0029   0.5869  -2.1730 O.3            1 S1                 0.0000
     28 ****         7.3028  -0.7551  -2.5298 C.3            1 S1                 0.0000
     29 ****         6.3109  -1.7218  -1.8534 C.3            1 S1                 0.0000
     30 ****        -2.0542  -2.5792  -0.3932 H              1 S1                 0.0000
     31 ****        -2.2093  -1.9437  -2.0426 H              1 S1                 0.0000
     32 ****        -3.5359  -1.7766  -0.9006 H              1 S1                 0.0000
     33 ****        -2.4038   1.5234  -0.1883 H              1 S1                 0.0000
     34 ****        -3.7202   0.5222  -0.7162 H              1 S1                 0.0000
     35 ****        -3.6142  -0.7569   1.4351 H              1 S1                 0.0000
     36 ****        -2.4088   0.3455   2.0460 H              1 S1                 0.0000
     37 ****        -5.2780   1.0567   1.2816 H              1 S1                 0.0000
     38 ****        -3.0452   2.8750   2.3121 H              1 S1                 0.0000
     39 ****        -3.7767   2.9588   0.7289 H              1 S1                 0.0000
     40 ****        -4.7077   4.6911   2.2321 H              1 S1                 0.0000
     41 ****        -5.9444   3.5925   1.6612 H              1 S1                 0.0000
     42 ****        -4.5539   3.4791   4.3821 H              1 S1                 0.0000
     43 ****        -6.2138   3.9472   4.0908 H              1 S1                 0.0000
     44 ****        -6.0645   1.5939   4.8645 H              1 S1                 0.0000
     45 ****        -6.7583   1.6695   3.2580 H              1 S1                 0.0000
     46 ****        -5.9220  -0.8295   2.8846 H              1 S1                 0.0000
     47 ****        -5.5153  -0.6264   4.5899 H              1 S1                 0.0000
     48 ****        -4.2834  -1.1567   3.4767 H              1 S1                 0.0000
     49 ****         1.4176   1.6308   1.3946 H              1 S1                 0.0000
     50 ****         1.9731  -3.6062  -2.3048 H              1 S1                 0.0000
     51 ****         4.3272  -1.8034   0.0060 H              1 S1                 0.0000
     52 ****         4.2066  -3.1901  -1.0332 H              1 S1                 0.0000
     53 ****         4.3210  -2.9611  -3.5146 H              1 S1                 0.0000
     54 ****         3.2749  -1.5664  -3.6407 H              1 S1                 0.0000
     55 ****         4.6515  -1.7533  -5.3761 H              1 S1                 0.0000
     56 ****         3.6449   0.4642  -2.2634 H              1 S1                 0.0000
     57 ****         4.6733   0.4010  -0.8580 H              1 S1                 0.0000
     58 ****         5.6477   0.9339  -3.7016 H              1 S1                 0.0000
     59 ****         5.5825   2.0463  -2.3600 H              1 S1                 0.0000
     60 ****         7.3139  -0.8645  -3.6133 H              1 S1                 0.0000
     61 ****         8.3156  -0.9801  -2.1951 H              1 S1                 0.0000
     62 ****         6.5203  -1.6897  -0.7833 H              1 S1                 0.0000
     63 ****         6.5184  -2.7462  -2.1648 H              1 S1                 0.0000
     64 ****        -3.9593   1.1033   3.8820 H              1 S1                 0.0000
     65 ****        -0.7902   1.3035   0.8449 LP             1 S1                 0.0000
     66 ****         3.1454   0.2065   0.6220 LP             1 S1                 0.0000
     67 ****        -0.3782  -2.8153  -2.0690 LP             1 S1                 0.0000
     68 ****         5.9915  -1.7175  -4.5201 LP             1 S1                 0.0000
     69 ****         5.0215  -0.4073  -4.6139 LP             1 S1                 0.0000
     70 ****         7.0401   0.6695  -1.1772 LP             1 S1                 0.0000
     71 ****         7.6885   1.1883  -2.5833 LP             1 S1                 0.0000
@<TRIPOS>BOND
    1    1    2 1     
    2    1   30 1     
    3    1   31 1     
    4    1   32 1     
    5    2    3 1     
    6    2   12 1     
    7    3    4 1     
    8    3   33 1     
    9    3   34 1     
   10    4    5 1     
   11    4   35 1     
   12    4   36 1     
   13    5   10 1     
   14    5    6 1     
   15    5   37 1     
   16    6    7 1     
   17    6   38 1     
   18    6   39 1     
   19    7    8 1     
   20    7   40 1     
   21    7   41 1     
   22    8    9 1     
   23    8   42 1     
   24    8   43 1     
   25    9   10 1     
   26    9   44 1     
   27    9   45 1     
   28   10   11 1     
   29   10   64 1     
   30   11   46 1     
   31   11   47 1     
   32   11   48 1     
   33   12   17 ar    
   34   12   13 ar    
   35   13   14 ar    
   36   14   15 ar    
   37   14   49 1     
   38   15   16 ar    
   39   16   20 1     
   40   16   17 ar    
   41   17   18 1     
   42   18   19 2     
   43   19   20 1     
   44   19   50 1     
   45   20   21 1     
   46   21   22 1     
   47   21   51 1     
   48   21   52 1     
   49   22   29 1     
   50   22   23 1     
   51   22   25 1     
   52   23   24 1     
   53   23   53 1     
   54   23   54 1     
   55   24   55 1     
   56   25   26 1     
   57   25   56 1     
   58   25   57 1     
   59   26   27 1     
   60   26   58 1     
   61   26   59 1     
   62   27   28 1     
   63   28   29 1     
   64   28   60 1     
   65   28   61 1     
   66   29   62 1     
   67   29   63 1     
   68   13   65 1     
   69   15   66 1     
   70   18   67 1     
   71   24   68 1     
   72   24   69 1     
   73   27   70 1     
   74   27   71 1     
@<TRIPOS>SUBSTRUCTURE
      1 S1             1
@<TRIPOS>SET
LONE_PAIRS      STATIC     ATOMS    <user>   **** ""
7 65 66 67 68 69 70 71
DONOR_HYDROGENS      STATIC     ATOMS    <user>   **** ""
2 64 55
ATOM$BLUE        STATIC     ATOMS    COLORGROUP SYSTEM
7 65 66 67 68 69 70 71
ATOM$RED        STATIC     ATOMS    COLORGROUP SYSTEM
2 64 55
