AV-unprocessed.smi:1459|AV-procd|sdf|5924|dock2
  -GOLD-   22720 6 03D 1   1.00000     0.00000
 Structure written by MMmdl.
 34 35  0  0  0  0  0  0  0  0  1 V2000
  148.5155  130.5760  154.5296 C   0  0  0  0  0  0  0  0  0  0  0  0
  149.0433  131.9588  154.7024 C   0  0  0  0  0  0  0  0  0  0  0  0
  149.0202  133.0697  153.9070 C   0  0  0  0  0  0  0  0  0  0  0  0
  149.7070  134.0370  154.6880 C   0  0  0  0  0  0  0  0  0  0  0  0
  149.9016  135.3569  154.2062 N   0  0  0  0  0  0  0  0  0  0  0  0
  150.6767  136.3176  154.7376 C   0  0  0  0  0  0  0  0  0  0  0  0
  151.3599  136.1944  155.7544 O   0  0  0  0  0  0  0  0  0  0  0  0
  150.6198  137.4434  154.0101 N   0  0  0  0  0  0  0  0  0  0  0  0
  151.3357  138.6865  154.2948 C   0  0  2  0  0  0  0  0  0  0  0  0
  152.7589  138.3416  154.7572 C   0  0  0  0  0  0  0  0  0  0  0  0
  150.5752  139.5183  155.3486 C   0  0  2  0  0  0  0  0  0  0  0  0
  149.2994  140.1954  154.8420 C   0  0  0  0  0  0  0  0  0  0  0  0
  149.1476  141.3353  155.8222 C   0  0  0  0  0  0  0  0  0  0  0  0
  150.5977  141.7628  156.0248 C   0  0  0  0  0  0  0  0  0  0  0  0
  151.3859  140.5926  155.8210 O   0  0  0  0  0  0  0  0  0  0  0  0
  150.1128  133.5596  155.8547 N   0  0  0  0  0  0  0  0  0  0  0  0
  149.6892  132.2255  155.8700 O   0  0  0  0  0  0  0  0  0  0  0  0
  147.9504  130.4874  153.6015 H   0  0  0  0  0  0  0  0  0  0  0  0
  147.8541  130.3084  155.3537 H   0  0  0  0  0  0  0  0  0  0  0  0
  149.3304  129.8525  154.5000 H   0  0  0  0  0  0  0  0  0  0  0  0
  148.5816  133.1704  152.9254 H   0  0  0  0  0  0  0  0  0  0  0  0
  149.3969  135.5951  153.3656 H   0  0  0  0  0  0  0  0  0  0  0  0
  150.0328  137.4435  153.1889 H   0  0  0  0  0  0  0  0  0  0  0  0
  151.4224  139.2815  153.3841 H   0  0  0  0  0  0  0  0  0  0  0  0
  153.3424  139.2433  154.9456 H   0  0  0  0  0  0  0  0  0  0  0  0
  153.2884  137.7636  153.9990 H   0  0  0  0  0  0  0  0  0  0  0  0
  152.7482  137.7554  155.6766 H   0  0  0  0  0  0  0  0  0  0  0  0
  150.3238  138.8943  156.2080 H   0  0  0  0  0  0  0  0  0  0  0  0
  149.4457  140.5888  153.8348 H   0  0  0  0  0  0  0  0  0  0  0  0
  148.4378  139.5274  154.8266 H   0  0  0  0  0  0  0  0  0  0  0  0
  148.5132  142.1407  155.4514 H   0  0  0  0  0  0  0  0  0  0  0  0
  148.7269  140.9701  156.7600 H   0  0  0  0  0  0  0  0  0  0  0  0
  150.8835  142.5046  155.2784 H   0  0  0  0  0  0  0  0  0  0  0  0
  150.7694  142.1920  157.0122 H   0  0  0  0  0  0  0  0  0  0  0  0
  1  2  1  0  0  0  0
  1 18  1  0  0  0  0
  1 19  1  0  0  0  0
  1 20  1  0  0  0  0
  2 17  1  0  0  0  0
  2  3  2  0  0  0  0
  3  4  1  0  0  0  0
  3 21  1  0  0  0  0
  4  5  1  0  0  0  0
  4 16  2  0  0  0  0
  5  6  1  0  0  0  0
  5 22  1  0  0  0  0
  6  7  2  0  0  0  0
  6  8  1  0  0  0  0
  8  9  1  0  0  0  0
  8 23  1  0  0  0  0
  9 10  1  0  0  0  0
  9 11  1  0  0  0  0
  9 24  1  0  0  0  0
 10 25  1  0  0  0  0
 10 26  1  0  0  0  0
 10 27  1  0  0  0  0
 11 15  1  0  0  0  0
 11 12  1  0  0  0  0
 11 28  1  0  0  0  0
 12 13  1  0  0  0  0
 12 29  1  0  0  0  0
 12 30  1  0  0  0  0
 13 14  1  0  0  0  0
 13 31  1  0  0  0  0
 13 32  1  0  0  0  0
 14 15  1  0  0  0  0
 14 33  1  0  0  0  0
 14 34  1  0  0  0  0
 16 17  1  0  0  0  0
M  END
> <s_m_source_file>
AV-unprocessed.smi

> <i_m_source_file_index>
1459

> <i_lp_mmshare_version>
43012

> <i_f3d_flags>
0

> <s_epik_input>
W0NIM11jMVtjSF1jKG5vMSlbTkhdQyg9TylbTkhdW0NASF0oW0NIM10pW0NAQEhdMltDSDJdW0NIMl1bQ0gyXU8y

> <s_epik_cmdline>
J2VwaWtfcHl0aG9uJywgJy1waCcsICc3LjAnLCAnLXRuJywgJzgnLCAnLW1hJywgJzIwMCcsICctbWV0YWxfYmluZGluZycsICctaW1hZScsICc8aW5maWxlLm1hZT4nLCAnLW9tYWUnLCAnPG91dGZpbGUubWFlPic=

> <r_lp_tautomer_probability>
1

> <r_epik_Ionization_Penalty>
2.20869e-05

> <r_epik_Ionization_Penalty_Charging>
0

> <r_epik_Ionization_Penalty_Neutral>
2.20869e-05

> <r_epik_State_Penalty>
-0

> <r_epik_Charging_Adjusted_Penalty>
0

> <i_epik_Tot_Q>
0

> <i_epik_Tot_abs_Q>
0

> <r_epik_Metal_State_Penalty>
-0

> <b_epik_Metal_Only>
0

> <s_lp_Force_Field>
OPLS_2005

> <r_lp_Energy>
15.5661

> <b_lp_Chiralities_Consistent>
1

> <s_lp_Variant>
AV-unprocessed.smi:1459-1

> <Gold.Version>
5.8.1

> <Gold.Id.Protein>
6NUR|6NUR_protein|mol2

> <Gold.PLP.Fitness>
37.9593

> <Gold.PLP.PLP>
-30.5189

> <Gold.PLP.part.hbond>
-5.6671

> <Gold.PLP.part.metal>
0.0000

> <Gold.PLP.part.buried>
-2.6662

> <Gold.PLP.part.nonpolar>
-23.3901

> <Gold.PLP.part.repulsive>
0.2129

> <Gold.PLP.ligand.clash>
0.0030

> <Gold.PLP.ligand.torsion>
0.4816

> <Gold.PLP.Chemscore.Hbond>
2.7990

> <Gold.PLP.Chemscore.CHOScore>
0.0000

> <Gold.PLP.Chemscore.Metal>
0.0000

> <Gold.Chemscore.Hbonds>
donor molecule, donor type, donor heavy atom, donor atom, acceptor molecule, acceptor atom, score
      L1  H     5    22       P1  7948  0.95
      L1  H     8    23       P1  7948  0.86
      P1  H  7989  7998       L1    15  0.01
      P1  H 10752 10763       L1     7  0.95

> <Gold.PLP.Chemscore.Internal.Correction>
0.0096

> <Gold.Rescore>
     Score         DG    S(hbond)    S(metal)    S(lipo)     H(rot)  DE(clash)    DE(int)     intcor
     12.60     -15.81       2.14        0.00      55.24       1.28       0.06       3.15       ----

> <Gold.Chemscore.Fitness>
12.5979

> <Gold.Chemscore.DG>
-15.8115

> <Gold.Chemscore.ZeroCoef>
-5.4800

> <Gold.Chemscore.Hbond>
2.1374

> <Gold.Chemscore.Metal>
0.0000

> <Gold.Chemscore.Lipo>
55.2424

> <Gold.Chemscore.Internal_Hbond>
0.0000

> <Gold.Chemscore.DEClash>
0.0626

> <Gold.Chemscore.DEInternal>
3.1509

> <Gold.Chemscore.Rot>
1.2776

> <Gold.Chemscore.Internal.Correction>
   9.000000E+99

> <Gold.Chemscore.Hbonds>
donor molecule, donor type, donor heavy atom, donor atom, acceptor molecule, acceptor atom, score
      L1  H     5    22       P1  7948  0.21
      L1  H     8    23       P1  7948  0.20
      P1  H 10752 10763       L1     7  0.21

> <Gold.Chemscore.Hbond.Weighted>
-7.1388

> <Gold.Chemscore.Metal.Weighted>
-0.0000

> <Gold.Chemscore.Lipo.Weighted>
-6.4634

> <Gold.Chemscore.Internal_Hbond.Weighted>
0.0000

> <Gold.Chemscore.DEClash.Weighted>
0.0626

> <Gold.Chemscore.DEInternal.Weighted>
3.1509

> <Gold.Chemscore.Rot.Weighted>
3.2707

> <Gold.Chemscore.Internal.Correction.Weighted>
   9.000000E+99

> <Gold.Protein.RotatedTorsions>
[ 6907 6896 6895 6894 ] final  -18.51 input  -60.11 | X-H torsion
[ 7974 7965 7964 7962 ] final  129.34 input  175.53 | X-H torsion
[ 8008 7997 7996 7995 ] final -152.97 input   59.86 | X-H torsion
[ 10167 10162 10161 10158 ] final  -72.45 input  -65.29 | X-H torsion
[ 10718 10713 10712 10709 ] final   24.61 input   66.30 | X-H torsion
[ 10763 10752 10751 10750 ] final   80.07 input  -60.55 | X-H torsion
[ 11005 11000 10999 10996 ] final -139.06 input  -57.11 | X-H torsion

> <Gold.Protein.ActiveResidues>
 VAL166  LYS551  ARG553  GLY616  TRP617  ASP618  TYR619  PRO620  LYS621  CYS622 
 ASP623  PHE694  ASN695  SER759  ASP760  ASP761  ALA762  ILE779  LEU786  VAL792 
 PHE793  MET794  SER795  GLU796  ALA797  LYS798  CYS799  TRP800  GLU811  SER814 

> <Gold.Protein.RotatedAtoms>
  151.2771  135.0702  159.9155 H   0  0  0  0  0  0  0  0  0  0  0  0  # atno 6907 bound_to 6896
  152.5340  134.0070  159.7931 H   0  0  0  0  0  0  0  0  0  0  0  0  # atno 6908 bound_to 6896
  151.0318  133.5733  159.2691 H   0  0  0  0  0  0  0  0  0  0  0  0  # atno 6909 bound_to 6896
  145.0297  139.4057  143.5156 H   0  0  0  0  0  0  0  0  0  0  0  0  # atno 7974 bound_to 7965
  155.6634  140.0725  157.2546 H   0  0  0  0  0  0  0  0  0  0  0  0  # atno 8008 bound_to 7997
  154.4138  140.1712  156.1852 H   0  0  0  0  0  0  0  0  0  0  0  0  # atno 8009 bound_to 7997
  155.9678  140.3364  155.6551 H   0  0  0  0  0  0  0  0  0  0  0  0  # atno 8010 bound_to 7997
  140.5191  143.2334  151.7461 H   0  0  0  0  0  0  0  0  0  0  0  0  # atno 10167 bound_to 10162
  157.1821  130.6807  149.6117 H   0  0  0  0  0  0  0  0  0  0  0  0  # atno 10718 bound_to 10713
  153.1003  135.4816  154.8855 H   0  0  0  0  0  0  0  0  0  0  0  0  # atno 10763 bound_to 10752
  154.7371  135.3073  154.8794 H   0  0  0  0  0  0  0  0  0  0  0  0  # atno 10764 bound_to 10752
  153.9413  135.6834  153.4797 H   0  0  0  0  0  0  0  0  0  0  0  0  # atno 10765 bound_to 10752
  140.8556  134.2232  157.4736 H   0  0  0  0  0  0  0  0  0  0  0  0  # atno 11005 bound_to 11000
  146.3497  139.9840  142.8692 LP  0  0  0  0  0  0  0  0  0  0  0  0  # atno 17320 bound_to 7965
  145.1787  140.9756  143.4279 LP  0  0  0  0  0  0  0  0  0  0  0  0  # atno 17321 bound_to 7965
  139.4918  144.4281  151.9903 LP  0  0  0  0  0  0  0  0  0  0  0  0  # atno 17342 bound_to 10162
  140.3377  144.3241  150.5974 LP  0  0  0  0  0  0  0  0  0  0  0  0  # atno 17343 bound_to 10162
  155.9723  130.4643  150.6213 LP  0  0  0  0  0  0  0  0  0  0  0  0  # atno 17370 bound_to 10713
  157.3943  131.0800  151.1366 LP  0  0  0  0  0  0  0  0  0  0  0  0  # atno 17371 bound_to 10713
  139.8705  134.9705  156.4703 LP  0  0  0  0  0  0  0  0  0  0  0  0  # atno 17394 bound_to 11000
  140.8741  133.7967  155.9395 LP  0  0  0  0  0  0  0  0  0  0  0  0  # atno 17395 bound_to 11000

$$$$
