#       Name:                AV-unprocessed.smi:353
#       Creating user name   scv26
#       Creation time:       Thu Mar 26 22:33:36 2020


#       File generated by GOLD software.
#

@<TRIPOS>MOLECULE
AV-unprocessed.smi:353
    41    42     1
SMALL
NO_CHARGES


@<TRIPOS>ATOM
      1 ****        -5.9200   0.0737  -1.6424 C.3            1 S1                 0.0000
      2 ****        -4.5065  -0.5144  -1.6566 C.3            1 S1                 0.0000
      3 ****        -3.4970   0.5301  -1.7064 N.pl3          1 S1                 0.0000
      4 ****        -2.1162   0.3815  -1.7246 C.2            1 S1                 0.0000
      5 ****        -1.2081   1.5164  -1.7748 C.2            1 S1                 0.0000
      6 ****         0.0732   1.3848  -1.7903 N.2            1 S1                 0.0000
      7 ****         0.6293   0.1215  -1.7566 N.am           1 S1                 0.0000
      8 ****         2.0972   0.1185  -1.7446 C.3            1 S1                 0.0000
      9 ****         2.6523   0.2370  -0.3160 C.3            1 S1                 0.0000
     10 ****         2.3696  -0.9574   0.4005 O.3            1 S1                 0.0000
     11 ****         2.7130  -1.0191   1.7330 C.ar           1 S1                 0.0000
     12 ****         2.3539  -2.1908   2.4306 C.ar           1 S1                 0.0000
     13 ****         2.6611  -2.3391   3.7967 C.ar           1 S1                 0.0000
     14 ****         3.3355  -1.3111   4.4813 C.ar           1 S1                 0.0000
     15 ****         3.7119  -1.4888   6.1555 Cl             1 S1                 0.0000
     16 ****         3.7025  -0.1374   3.7965 C.ar           1 S1                 0.0000
     17 ****         3.3955   0.0102   2.4297 C.ar           1 S1                 0.0000
     18 ****        -0.0860  -1.0418  -1.7091 C.2            1 S1                 0.0000
     19 ****         0.4527  -2.1490  -1.6758 O.2            1 S1                 0.0000
     20 ****        -1.5438  -0.8518  -1.6950 C.2            1 S1                 0.0000
     21 ****        -2.5325  -2.2730  -1.6334 Cl             1 S1                 0.0000
     22 ****        -6.6678  -0.7186  -1.6058 H              1 S1                 0.0000
     23 ****        -6.1092   0.6685  -2.5364 H              1 S1                 0.0000
     24 ****        -6.0718   0.7146  -0.7734 H              1 S1                 0.0000
     25 ****        -4.3499  -1.1216  -0.7645 H              1 S1                 0.0000
     26 ****        -4.3865  -1.1692  -2.5202 H              1 S1                 0.0000
     27 ****        -3.8563   1.4738  -1.7393 H              1 S1                 0.0000
     28 ****        -1.6735   2.5015  -1.7987 H              1 S1                 0.0000
     29 ****         2.5023  -0.7685  -2.2347 H              1 S1                 0.0000
     30 ****         2.4588   0.9609  -2.3368 H              1 S1                 0.0000
     31 ****         3.7319   0.3872  -0.3596 H              1 S1                 0.0000
     32 ****         2.2124   1.1033   0.1811 H              1 S1                 0.0000
     33 ****         1.8350  -2.9838   1.9122 H              1 S1                 0.0000
     34 ****         2.3774  -3.2420   4.3173 H              1 S1                 0.0000
     35 ****         4.2211   0.6530   4.3187 H              1 S1                 0.0000
     36 ****         3.6954   0.9230   1.9382 H              1 S1                 0.0000
     37 ****         0.6615   2.1927  -1.8265 LP             1 S1                 0.0000
     38 ****         2.8506  -1.7013  -0.0635 LP             1 S1                 0.0000
     39 ****         1.3832  -1.1107   0.3420 LP             1 S1                 0.0000
     40 ****         1.4502  -2.2201  -1.6831 LP             1 S1                 0.0000
     41 ****        -0.1073  -2.9767  -1.6415 LP             1 S1                 0.0000
@<TRIPOS>BOND
    1    1    2 1     
    2    1   22 1     
    3    1   23 1     
    4    1   24 1     
    5    2    3 1     
    6    2   25 1     
    7    2   26 1     
    8    3    4 1     
    9    3   27 1     
   10    4   20 2     
   11    4    5 1     
   12    5    6 2     
   13    5   28 1     
   14    6    7 1     
   15    7    8 1     
   16    7   18 am    
   17    8    9 1     
   18    8   29 1     
   19    8   30 1     
   20    9   10 1     
   21    9   31 1     
   22    9   32 1     
   23   10   11 1     
   24   11   17 ar    
   25   11   12 ar    
   26   12   13 ar    
   27   12   33 1     
   28   13   14 ar    
   29   13   34 1     
   30   14   15 1     
   31   14   16 ar    
   32   16   17 ar    
   33   16   35 1     
   34   17   36 1     
   35   18   19 2     
   36   18   20 1     
   37   20   21 1     
   38    6   37 1     
   39   10   38 1     
   40   10   39 1     
   41   19   40 1     
   42   19   41 1     
@<TRIPOS>SUBSTRUCTURE
      1 S1             1
@<TRIPOS>SET
LONE_PAIRS      STATIC     ATOMS    <user>   **** ""
5 37 38 39 40 41
DONOR_HYDROGENS      STATIC     ATOMS    <user>   **** ""
1 27
ATOM$BLUE        STATIC     ATOMS    COLORGROUP SYSTEM
5 37 38 39 40 41
ATOM$RED        STATIC     ATOMS    COLORGROUP SYSTEM
1 27
