#       Name:                AV-unprocessed.smi:2330
#       Creating user name   scv26
#       Creation time:       Fri Mar 27 12:52:55 2020


#       File generated by GOLD software.
#

@<TRIPOS>MOLECULE
AV-unprocessed.smi:2330
    45    46     1
SMALL
NO_CHARGES


@<TRIPOS>ATOM
      1 ****        -5.1031   2.5341   0.3575 C.3            1 S1                 0.0000
      2 ****        -3.9323   1.5782   0.0869 C.3            1 S1                 0.0000
      3 ****        -2.6509   2.0372   0.8085 C.3            1 S1                 0.0000
      4 ****        -1.4750   1.0849   0.5380 C.3            1 S1                 0.0000
      5 ****        -1.2160   0.9207  -0.9737 C.3            1 S1                 0.0000
      6 ****        -0.1494  -0.0483  -1.2068 N.am           1 S1                 0.0000
      7 ****         1.1624   0.2162  -1.1331 C.2            1 S1                 0.0000
      8 ****         1.6314   1.3287  -0.8920 O.2            1 S1                 0.0000
      9 ****         1.9025  -0.8838  -1.3267 N.am           1 S1                 0.0000
     10 ****         3.3580  -0.9439  -1.2200 C.3            1 S1                 0.0000
     11 ****         3.8577  -0.8741   0.2408 C.3            1 S1                 0.0000
     12 ****         5.3814  -1.0208   0.3601 C.3            1 S1                 0.0000
     13 ****         3.1245  -1.8038   1.1605 C.2            1 S1                 0.0000
     14 ****         3.1841  -3.1366   1.0728 N.2            1 S1                 0.0000
     15 ****         2.3927  -3.7723   2.0325 C.2            1 S1                 0.0000
     16 ****         1.7209  -2.9016   2.8521 C.2            1 S1                 0.0000
     17 ****         2.0618  -1.2417   2.4482 S.3            1 S1                 0.0000
     18 ****        -2.4963   0.4660  -1.6976 C.3            1 S1                 0.0000
     19 ****        -3.6687   1.4218  -1.4230 C.3            1 S1                 0.0000
     20 ****        -4.8894   3.5379  -0.0111 H              1 S1                 0.0000
     21 ****        -5.3102   2.6086   1.4252 H              1 S1                 0.0000
     22 ****        -6.0142   2.1866  -0.1306 H              1 S1                 0.0000
     23 ****        -4.2096   0.6001   0.4833 H              1 S1                 0.0000
     24 ****        -2.3840   3.0434   0.4821 H              1 S1                 0.0000
     25 ****        -2.8289   2.0989   1.8825 H              1 S1                 0.0000
     26 ****        -0.5806   1.4624   1.0352 H              1 S1                 0.0000
     27 ****        -1.6876   0.1124   0.9847 H              1 S1                 0.0000
     28 ****        -0.9167   1.8855  -1.3882 H              1 S1                 0.0000
     29 ****        -0.4330  -0.9960  -1.4079 H              1 S1                 0.0000
     30 ****         1.4252  -1.7526  -1.5178 H              1 S1                 0.0000
     31 ****         3.6732  -1.8872  -1.6667 H              1 S1                 0.0000
     32 ****         3.8108  -0.1527  -1.8197 H              1 S1                 0.0000
     33 ****         3.6321   0.1321   0.5962 H              1 S1                 0.0000
     34 ****         5.7113  -0.8627   1.3873 H              1 S1                 0.0000
     35 ****         5.8958  -0.2929  -0.2678 H              1 S1                 0.0000
     36 ****         5.7092  -2.0144   0.0531 H              1 S1                 0.0000
     37 ****         2.3651  -4.8517   2.0601 H              1 S1                 0.0000
     38 ****         1.0494  -3.1349   3.6650 H              1 S1                 0.0000
     39 ****        -2.3170   0.4067  -2.7718 H              1 S1                 0.0000
     40 ****        -2.7685  -0.5398  -1.3737 H              1 S1                 0.0000
     41 ****        -4.5650   1.0512  -1.9215 H              1 S1                 0.0000
     42 ****        -3.4526   2.3967  -1.8624 H              1 S1                 0.0000
     43 ****         1.0212   2.1056  -0.7364 LP             1 S1                 0.0000
     44 ****         2.6225   1.4555  -0.8517 LP             1 S1                 0.0000
     45 ****         3.7343  -3.6244   0.3951 LP             1 S1                 0.0000
@<TRIPOS>BOND
    1    1    2 1     
    2    1   20 1     
    3    1   21 1     
    4    1   22 1     
    5    2   19 1     
    6    2    3 1     
    7    2   23 1     
    8    3    4 1     
    9    3   24 1     
   10    3   25 1     
   11    4    5 1     
   12    4   26 1     
   13    4   27 1     
   14    5    6 1     
   15    5   18 1     
   16    5   28 1     
   17    6    7 am    
   18    6   29 1     
   19    7    8 2     
   20    7    9 am    
   21    9   10 1     
   22    9   30 1     
   23   10   11 1     
   24   10   31 1     
   25   10   32 1     
   26   11   12 1     
   27   11   13 1     
   28   11   33 1     
   29   12   34 1     
   30   12   35 1     
   31   12   36 1     
   32   13   17 1     
   33   13   14 2     
   34   14   15 1     
   35   15   16 2     
   36   15   37 1     
   37   16   17 1     
   38   16   38 1     
   39   18   19 1     
   40   18   39 1     
   41   18   40 1     
   42   19   41 1     
   43   19   42 1     
   44    8   43 1     
   45    8   44 1     
   46   14   45 1     
@<TRIPOS>SUBSTRUCTURE
      1 S1             1
@<TRIPOS>SET
LONE_PAIRS      STATIC     ATOMS    <user>   **** ""
3 43 44 45
DONOR_HYDROGENS      STATIC     ATOMS    <user>   **** ""
2 29 30
ATOM$BLUE        STATIC     ATOMS    COLORGROUP SYSTEM
3 43 44 45
ATOM$RED        STATIC     ATOMS    COLORGROUP SYSTEM
2 29 30
