AV-unprocessed.smi:79|AV-procd|sdf|784|dock1
  -GOLD-   2262017153D 1   1.00000     0.00000
 Structure written by MMmdl.
 56 59  0  0  0  0  0  0  0  0  2 V2000
  144.3656  132.6533  149.8727 C   0  0  0  0  0  0  0  0  0  0  0  0
  145.7268  132.6084  150.5786 C   0  0  1  0  0  0  0  0  0  0  0  0
  146.4973  133.7008  150.1193 O   0  0  0  0  0  0  0  0  0  0  0  0
  145.5872  132.6945  152.1115 C   0  0  0  0  0  0  0  0  0  0  0  0
  146.8298  132.2978  152.8223 N   0  3  1  0  0  0  0  0  0  0  0  0
  147.8235  133.4003  152.8818 C   0  0  0  0  0  0  0  0  0  0  0  0
  149.1414  132.9294  153.5207 C   0  0  0  0  0  0  0  0  0  0  0  0
  148.8928  132.3131  154.8222 N   0  0  0  0  0  0  0  0  0  0  0  0
  148.9758  133.1503  155.8894 C   0  0  0  0  0  0  0  0  0  0  0  0
  149.6558  134.3230  155.7838 N   0  0  0  0  0  0  0  0  0  0  0  0
  149.7444  135.1501  156.8295 C   0  0  0  0  0  0  0  0  0  0  0  0
  149.2349  135.0037  158.0536 N   0  0  0  0  0  0  0  0  0  0  0  0
  148.5497  133.8304  158.1674 C   0  0  0  0  0  0  0  0  0  0  0  0
  148.3744  132.8550  157.1453 C   0  0  0  0  0  0  0  0  0  0  0  0
  147.6109  131.7987  157.6271 N   0  0  0  0  0  0  0  0  0  0  0  0
  147.3548  132.1278  158.8639 C   0  0  0  0  0  0  0  0  0  0  0  0
  147.8867  133.3296  159.2747 N   0  0  0  0  0  0  0  0  0  0  0  0
  147.7493  133.9403  160.5883 C   0  0  0  0  0  0  0  0  0  0  0  0
  147.0075  135.2899  160.5743 C   0  0  0  0  0  0  0  0  0  0  0  0
  145.5738  135.0557  160.0576 C   0  0  0  0  0  0  0  0  0  0  0  0
  144.8228  134.2113  160.9070 O   0  0  0  0  0  0  0  0  0  0  0  0
  147.1383  136.1151  161.8623 C   0  0  0  0  0  0  0  0  0  0  0  0
  147.5846  137.2827  161.1382 O   0  0  0  0  0  0  0  0  0  0  0  0
  147.7615  136.4747  159.9538 C   0  0  0  0  0  0  0  0  0  0  0  0
  147.8966  131.2366  154.8322 C   0  0  2  0  0  0  0  0  0  0  0  0
  148.4474  129.9572  154.1791 C   0  0  0  0  0  0  0  0  0  0  0  0
  146.5829  131.7005  154.1630 C   0  0  0  0  0  0  0  0  0  0  0  0
  143.7383  131.8159  150.1793 H   0  0  0  0  0  0  0  0  0  0  0  0
  144.4818  132.5962  148.7897 H   0  0  0  0  0  0  0  0  0  0  0  0
  143.8265  133.5731  150.1019 H   0  0  0  0  0  0  0  0  0  0  0  0
  146.2313  131.6880  150.2872 H   0  0  0  0  0  0  0  0  0  0  0  0
  146.0872  134.0582  149.3462 H   0  0  0  0  0  0  0  0  0  0  0  0
  145.3242  133.7201  152.3761 H   0  0  0  0  0  0  0  0  0  0  0  0
  144.7611  132.0713  152.4573 H   0  0  0  0  0  0  0  0  0  0  0  0
  148.0261  133.7738  151.8775 H   0  0  0  0  0  0  0  0  0  0  0  0
  147.4068  134.2314  153.4532 H   0  0  0  0  0  0  0  0  0  0  0  0
  149.6310  132.2009  152.8743 H   0  0  0  0  0  0  0  0  0  0  0  0
  149.8277  133.7722  153.5965 H   0  0  0  0  0  0  0  0  0  0  0  0
  150.3025  136.0594  156.6611 H   0  0  0  0  0  0  0  0  0  0  0  0
  146.7624  131.4990  159.5125 H   0  0  0  0  0  0  0  0  0  0  0  0
  147.2467  133.2323  161.2486 H   0  0  0  0  0  0  0  0  0  0  0  0
  148.7524  134.0612  160.9989 H   0  0  0  0  0  0  0  0  0  0  0  0
  145.0269  135.9945  159.9747 H   0  0  0  0  0  0  0  0  0  0  0  0
  145.5879  134.6073  159.0637 H   0  0  0  0  0  0  0  0  0  0  0  0
  143.9061  134.3192  160.7048 H   0  0  0  0  0  0  0  0  0  0  0  0
  146.1987  136.2801  162.3905 H   0  0  0  0  0  0  0  0  0  0  0  0
  147.9046  135.7503  162.5477 H   0  0  0  0  0  0  0  0  0  0  0  0
  148.8166  136.2806  159.7587 H   0  0  0  0  0  0  0  0  0  0  0  0
  147.2772  136.9030  159.0756 H   0  0  0  0  0  0  0  0  0  0  0  0
  147.6735  130.9690  155.8661 H   0  0  0  0  0  0  0  0  0  0  0  0
  147.7293  129.1406  154.2576 H   0  0  0  0  0  0  0  0  0  0  0  0
  149.3647  129.6328  154.6710 H   0  0  0  0  0  0  0  0  0  0  0  0
  148.6690  130.0974  153.1210 H   0  0  0  0  0  0  0  0  0  0  0  0
  146.0894  132.4435  154.7909 H   0  0  0  0  0  0  0  0  0  0  0  0
  145.8972  130.8572  154.0931 H   0  0  0  0  0  0  0  0  0  0  0  0
  147.2544  131.5748  152.2586 H   0  0  0  0  0  0  0  0  0  0  0  0
  1  2  1  0  0  0  0
  1 28  1  0  0  0  0
  1 29  1  0  0  0  0
  1 30  1  0  0  0  0
  2  3  1  0  0  0  0
  2  4  1  0  0  0  0
  2 31  1  0  0  0  0
  3 32  1  0  0  0  0
  4  5  1  0  0  0  0
  4 33  1  0  0  0  0
  4 34  1  0  0  0  0
  5 27  1  0  0  0  0
  5  6  1  0  0  0  0
  5 56  1  0  0  0  0
  6  7  1  0  0  0  0
  6 35  1  0  0  0  0
  6 36  1  0  0  0  0
  7  8  1  0  0  0  0
  7 37  1  0  0  0  0
  7 38  1  0  0  0  0
  8  9  1  0  0  0  0
  8 25  1  0  0  0  0
  9 14  1  0  0  0  0
  9 10  2  0  0  0  0
 10 11  1  0  0  0  0
 11 12  2  0  0  0  0
 11 39  1  0  0  0  0
 12 13  1  0  0  0  0
 13 17  1  0  0  0  0
 13 14  2  0  0  0  0
 14 15  1  0  0  0  0
 15 16  2  0  0  0  0
 16 17  1  0  0  0  0
 16 40  1  0  0  0  0
 17 18  1  0  0  0  0
 18 19  1  0  0  0  0
 18 41  1  0  0  0  0
 18 42  1  0  0  0  0
 19 24  1  0  0  0  0
 19 20  1  0  0  0  0
 19 22  1  0  0  0  0
 20 21  1  0  0  0  0
 20 43  1  0  0  0  0
 20 44  1  0  0  0  0
 21 45  1  0  0  0  0
 22 23  1  0  0  0  0
 22 46  1  0  0  0  0
 22 47  1  0  0  0  0
 23 24  1  0  0  0  0
 24 48  1  0  0  0  0
 24 49  1  0  0  0  0
 25 26  1  0  0  0  0
 25 27  1  0  0  0  0
 25 50  1  0  0  0  0
 26 51  1  0  0  0  0
 26 52  1  0  0  0  0
 26 53  1  0  0  0  0
 27 54  1  0  0  0  0
 27 55  1  0  0  0  0
M  CHG  1   5   1
M  END
> <s_m_source_file>
AV-unprocessed.smi

> <i_m_source_file_index>
79

> <i_lp_mmshare_version>
43012

> <i_f3d_flags>
0

> <s_epik_input>
W0NIM11bQ0BIXShbT0hdKVtDSDJdTjFbQ0gyXVtDSDJdTihbQ0BASF0oW0NIM10pW0NIMl0xKWMobltjSF1uMiljKGMyMyluW2NIXW4zW0NIMl1DNChbQ0gyXVtPSF0pW0NIMl1PW0NIMl00

> <s_epik_cmdline>
J2VwaWtfcHl0aG9uJywgJy1waCcsICc3LjAnLCAnLXRuJywgJzgnLCAnLW1hJywgJzIwMCcsICctbWV0YWxfYmluZGluZycsICctaW1hZScsICc8aW5maWxlLm1hZT4nLCAnLW9tYWUnLCAnPG91dGZpbGUubWFlPic=

> <r_lp_tautomer_probability>
1

> <r_epik_Ionization_Penalty>
0.00515943

> <r_epik_Ionization_Penalty_Charging>
0.00509693

> <r_epik_Ionization_Penalty_Neutral>
6.25007e-05

> <r_epik_State_Penalty>
-0

> <r_epik_Charging_Adjusted_Penalty>
0.00509693

> <i_epik_Tot_Q>
1

> <i_epik_Tot_abs_Q>
1

> <r_epik_Metal_State_Penalty>
-0

> <b_epik_Metal_Only>
0

> <s_lp_Force_Field>
OPLS_2005

> <r_lp_Energy>
50.645

> <b_lp_Chiralities_Consistent>
1

> <s_lp_Variant>
AV-unprocessed.smi:79-8

> <Gold.Version>
5.8.1

> <Gold.Id.Protein>
6NUR|6NUR_protein|mol2

> <Gold.PLP.Fitness>
43.7361

> <Gold.PLP.PLP>
-33.1280

> <Gold.PLP.part.hbond>
-4.3782

> <Gold.PLP.part.metal>
0.0000

> <Gold.PLP.part.buried>
-4.0933

> <Gold.PLP.part.nonpolar>
-24.8811

> <Gold.PLP.part.repulsive>
0.0262

> <Gold.PLP.ligand.clash>
0.0000

> <Gold.PLP.ligand.torsion>
0.7180

> <Gold.PLP.Chemscore.Hbond>
3.7544

> <Gold.PLP.Chemscore.CHOScore>
0.0000

> <Gold.PLP.Chemscore.Metal>
0.0000

> <Gold.Chemscore.Hbonds>
donor molecule, donor type, donor heavy atom, donor atom, acceptor molecule, acceptor atom, score
      L1  H     3    32       P1  7921  0.80
      P1  H  6896  6909       L1    12  0.59
      P1  H  6931  6943       L1    23  0.86
      P1  H  6934  6947       L1    23  0.91

> <Gold.PLP.Chemscore.Internal.Correction>
0.7808

> <Gold.Rescore>
     Score         DG    S(hbond)    S(metal)    S(lipo)     H(rot)  DE(clash)    DE(int)     intcor
     12.50     -14.91       2.93        0.00      71.20       3.39       0.05       2.37       ----

> <Gold.Chemscore.Fitness>
12.4957

> <Gold.Chemscore.DG>
-14.9103

> <Gold.Chemscore.ZeroCoef>
-5.4800

> <Gold.Chemscore.Hbond>
2.9252

> <Gold.Chemscore.Metal>
0.0000

> <Gold.Chemscore.Lipo>
71.1987

> <Gold.Chemscore.Internal_Hbond>
0.0000

> <Gold.Chemscore.DEClash>
0.0469

> <Gold.Chemscore.DEInternal>
2.3677

> <Gold.Chemscore.Rot>
3.3868

> <Gold.Chemscore.Internal.Correction>
   9.000000E+99

> <Gold.Chemscore.Hbonds>
donor molecule, donor type, donor heavy atom, donor atom, acceptor molecule, acceptor atom, score
      L1  H     3    32       P1  7921  0.11
      P1  H  6896  6909       L1    12  0.05
      P1  H  6931  6943       L1    23  0.79
      P1  H  6934  6947       L1    23  0.85

> <Gold.Chemscore.Hbond.Weighted>
-9.7702

> <Gold.Chemscore.Metal.Weighted>
-0.0000

> <Gold.Chemscore.Lipo.Weighted>
-8.3303

> <Gold.Chemscore.Internal_Hbond.Weighted>
0.0000

> <Gold.Chemscore.DEClash.Weighted>
0.0469

> <Gold.Chemscore.DEInternal.Weighted>
2.3677

> <Gold.Chemscore.Rot.Weighted>
8.6701

> <Gold.Chemscore.Internal.Correction.Weighted>
   9.000000E+99

> <Gold.Protein.RotatedTorsions>
[ 6907 6896 6895 6894 ] final   44.70 input  -60.11 | X-H torsion
[ 7974 7965 7964 7962 ] final   60.66 input  175.53 | X-H torsion
[ 8008 7997 7996 7995 ] final   94.76 input   59.86 | X-H torsion
[ 10167 10162 10161 10158 ] final   36.33 input  -65.29 | X-H torsion
[ 10718 10713 10712 10709 ] final  168.50 input   66.30 | X-H torsion
[ 10763 10752 10751 10750 ] final  174.22 input  -60.55 | X-H torsion
[ 11005 11000 10999 10996 ] final  164.75 input  -57.11 | X-H torsion

> <Gold.Protein.ActiveResidues>
 VAL166  LYS551  ARG553  GLY616  TRP617  ASP618  TYR619  PRO620  LYS621  CYS622 
 ASP623  PHE694  ASN695  SER759  ASP760  ASP761  ALA762  ILE779  LEU786  VAL792 
 PHE793  MET794  SER795  GLU796  ALA797  LYS798  CYS799  TRP800  GLU811  SER814 

> <Gold.Protein.RotatedAtoms>
  152.2357  134.8279  160.0467 H   0  0  0  0  0  0  0  0  0  0  0  0  # atno 6907 bound_to 6896
  151.9011  133.3533  159.3839 H   0  0  0  0  0  0  0  0  0  0  0  0  # atno 6908 bound_to 6896
  150.7038  134.4753  159.5488 H   0  0  0  0  0  0  0  0  0  0  0  0  # atno 6909 bound_to 6896
  145.8935  139.3528  143.0635 H   0  0  0  0  0  0  0  0  0  0  0  0  # atno 7974 bound_to 7965
  156.0615  140.3295  155.7467 H   0  0  0  0  0  0  0  0  0  0  0  0  # atno 8008 bound_to 7997
  155.5447  140.0605  157.2880 H   0  0  0  0  0  0  0  0  0  0  0  0  # atno 8009 bound_to 7997
  154.4484  140.1904  156.0615 H   0  0  0  0  0  0  0  0  0  0  0  0  # atno 8010 bound_to 7997
  140.4137  144.1556  150.6141 H   0  0  0  0  0  0  0  0  0  0  0  0  # atno 10167 bound_to 10162
  157.0363  131.0274  151.2728 H   0  0  0  0  0  0  0  0  0  0  0  0  # atno 10718 bound_to 10713
  154.4509  135.2764  155.1781 H   0  0  0  0  0  0  0  0  0  0  0  0  # atno 10763 bound_to 10752
  154.3609  135.6130  153.5693 H   0  0  0  0  0  0  0  0  0  0  0  0  # atno 10764 bound_to 10752
  152.9847  135.5834  154.4854 H   0  0  0  0  0  0  0  0  0  0  0  0  # atno 10765 bound_to 10752
  140.2491  134.7991  157.3485 H   0  0  0  0  0  0  0  0  0  0  0  0  # atno 11005 bound_to 11000
  145.8879  140.9322  143.0567 LP  0  0  0  0  0  0  0  0  0  0  0  0  # atno 17320 bound_to 7965
  144.6731  140.0866  143.7467 LP  0  0  0  0  0  0  0  0  0  0  0  0  # atno 17321 bound_to 7965
  140.4609  143.2449  151.9220 LP  0  0  0  0  0  0  0  0  0  0  0  0  # atno 17342 bound_to 10162
  139.4782  144.5468  151.8446 LP  0  0  0  0  0  0  0  0  0  0  0  0  # atno 17343 bound_to 10162
  157.5139  130.7956  149.7735 LP  0  0  0  0  0  0  0  0  0  0  0  0  # atno 17370 bound_to 10713
  156.0053  130.3859  150.2455 LP  0  0  0  0  0  0  0  0  0  0  0  0  # atno 17371 bound_to 10713
  140.1576  134.4770  155.7917 LP  0  0  0  0  0  0  0  0  0  0  0  0  # atno 17394 bound_to 11000
  141.2203  133.6888  156.7487 LP  0  0  0  0  0  0  0  0  0  0  0  0  # atno 17395 bound_to 11000

$$$$
