AV-unprocessed.smi:1486|AV-procd|sdf|6005|dock6
  -GOLD-   22720 6103D 1   1.00000     0.00000
 Structure written by MMmdl.
 39 40  0  0  0  0  0  0  0  0  1 V2000
  153.7668  133.6319  164.0332 C   0  0  0  0  0  0  0  0  0  0  0  0
  154.3858  134.3865  163.0071 O   0  0  0  0  0  0  0  0  0  0  0  0
  155.1305  135.4848  163.5094 C   0  0  0  0  0  0  0  0  0  0  0  0
  154.2081  136.7057  163.6696 C   0  0  2  0  0  0  0  0  0  0  0  0
  153.5166  137.0679  162.3484 C   0  0  0  0  0  0  0  0  0  0  0  0
  154.9849  137.8520  164.1324 N   0  0  0  0  0  0  0  0  0  0  0  0
  155.9401  138.4869  163.4339 C   0  0  0  0  0  0  0  0  0  0  0  0
  156.3457  138.1120  162.3339 O   0  0  0  0  0  0  0  0  0  0  0  0
  156.5105  139.7568  164.0666 C   0  0  0  0  0  0  0  0  0  0  0  0
  155.5182  140.8767  163.9391 C   0  0  0  0  0  0  0  0  0  0  0  0
  155.0298  141.6639  164.9534 C   0  0  0  0  0  0  0  0  0  0  0  0
  153.9214  142.8728  164.3664 S   0  0  0  0  0  0  0  0  0  0  0  0
  154.1599  142.2493  162.7310 C   0  0  0  0  0  0  0  0  0  0  0  0
  153.5479  142.7405  161.5392 N   0  0  0  0  0  0  0  0  0  0  0  0
  152.6889  143.9209  161.5475 C   0  0  0  0  0  0  0  0  0  0  0  0
  152.4083  144.2490  160.0771 C   0  0  0  0  0  0  0  0  0  0  0  0
  152.8290  143.0049  159.2976 C   0  0  0  0  0  0  0  0  0  0  0  0
  153.6335  142.2046  160.3087 C   0  0  0  0  0  0  0  0  0  0  0  0
  154.2589  141.1979  159.9792 O   0  0  0  0  0  0  0  0  0  0  0  0
  155.0079  141.2165  162.6814 N   0  0  0  0  0  0  0  0  0  0  0  0
  153.2190  132.7980  163.5944 H   0  0  0  0  0  0  0  0  0  0  0  0
  153.0575  134.2406  164.5953 H   0  0  0  0  0  0  0  0  0  0  0  0
  154.5055  133.2245  164.7242 H   0  0  0  0  0  0  0  0  0  0  0  0
  155.5866  135.2286  164.4675 H   0  0  0  0  0  0  0  0  0  0  0  0
  155.9398  135.7162  162.8150 H   0  0  0  0  0  0  0  0  0  0  0  0
  153.4279  136.4629  164.3932 H   0  0  0  0  0  0  0  0  0  0  0  0
  152.9114  136.2380  161.9829 H   0  0  0  0  0  0  0  0  0  0  0  0
  154.2431  137.3161  161.5738 H   0  0  0  0  0  0  0  0  0  0  0  0
  152.8555  137.9261  162.4731 H   0  0  0  0  0  0  0  0  0  0  0  0
  154.7263  138.2399  165.0280 H   0  0  0  0  0  0  0  0  0  0  0  0
  156.7522  139.5614  165.1122 H   0  0  0  0  0  0  0  0  0  0  0  0
  157.4486  140.0181  163.5752 H   0  0  0  0  0  0  0  0  0  0  0  0
  155.2641  141.6119  166.0065 H   0  0  0  0  0  0  0  0  0  0  0  0
  151.7630  143.6866  162.0749 H   0  0  0  0  0  0  0  0  0  0  0  0
  153.1656  144.7608  162.0547 H   0  0  0  0  0  0  0  0  0  0  0  0
  151.3607  144.5027  159.9113 H   0  0  0  0  0  0  0  0  0  0  0  0
  153.0079  145.1044  159.7621 H   0  0  0  0  0  0  0  0  0  0  0  0
  151.9632  142.4220  158.9817 H   0  0  0  0  0  0  0  0  0  0  0  0
  153.4253  143.2516  158.4185 H   0  0  0  0  0  0  0  0  0  0  0  0
  1  2  1  0  0  0  0
  1 21  1  0  0  0  0
  1 22  1  0  0  0  0
  1 23  1  0  0  0  0
  2  3  1  0  0  0  0
  3  4  1  0  0  0  0
  3 24  1  0  0  0  0
  3 25  1  0  0  0  0
  4  5  1  0  0  0  0
  4  6  1  0  0  0  0
  4 26  1  0  0  0  0
  5 27  1  0  0  0  0
  5 28  1  0  0  0  0
  5 29  1  0  0  0  0
  6  7  1  0  0  0  0
  6 30  1  0  0  0  0
  7  8  2  0  0  0  0
  7  9  1  0  0  0  0
  9 10  1  0  0  0  0
  9 31  1  0  0  0  0
  9 32  1  0  0  0  0
 10 20  1  0  0  0  0
 10 11  2  0  0  0  0
 11 12  1  0  0  0  0
 11 33  1  0  0  0  0
 12 13  1  0  0  0  0
 13 14  1  0  0  0  0
 13 20  2  0  0  0  0
 14 18  1  0  0  0  0
 14 15  1  0  0  0  0
 15 16  1  0  0  0  0
 15 34  1  0  0  0  0
 15 35  1  0  0  0  0
 16 17  1  0  0  0  0
 16 36  1  0  0  0  0
 16 37  1  0  0  0  0
 17 18  1  0  0  0  0
 17 38  1  0  0  0  0
 17 39  1  0  0  0  0
 18 19  2  0  0  0  0
M  END
> <s_m_source_file>
AV-unprocessed.smi

> <i_m_source_file_index>
1486

> <i_lp_mmshare_version>
43012

> <i_f3d_flags>
0

> <s_epik_input>
W0NIM11PW0NIMl1bQ0BIXShbQ0gzXSlbTkhdQyg9TylbQ0gyXWMxW2NIXXNjKG4xKU4yW0NIMl1bQ0gyXVtDSDJdQzI9Tw==

> <s_epik_cmdline>
J2VwaWtfcHl0aG9uJywgJy1waCcsICc3LjAnLCAnLXRuJywgJzgnLCAnLW1hJywgJzIwMCcsICctbWV0YWxfYmluZGluZycsICctaW1hZScsICc8aW5maWxlLm1hZT4nLCAnLW9tYWUnLCAnPG91dGZpbGUubWFlPic=

> <r_lp_tautomer_probability>
1

> <r_epik_Ionization_Penalty>
3.00988e-05

> <r_epik_Ionization_Penalty_Charging>
0

> <r_epik_Ionization_Penalty_Neutral>
3.00988e-05

> <r_epik_State_Penalty>
-0

> <r_epik_Charging_Adjusted_Penalty>
0

> <i_epik_Tot_Q>
0

> <i_epik_Tot_abs_Q>
0

> <r_epik_Metal_State_Penalty>
-0

> <b_epik_Metal_Only>
0

> <s_lp_Force_Field>
OPLS_2005

> <r_lp_Energy>
17.4933

> <b_lp_Chiralities_Consistent>
1

> <s_lp_Variant>
AV-unprocessed.smi:1486-1

> <Gold.Version>
5.8.1

> <Gold.Id.Protein>
6NUR|6NUR_protein|mol2

> <Gold.PLP.Fitness>
43.1905

> <Gold.PLP.PLP>
-44.0275

> <Gold.PLP.part.hbond>
-1.0000

> <Gold.PLP.part.metal>
0.0000

> <Gold.PLP.part.buried>
-1.7456

> <Gold.PLP.part.nonpolar>
-41.5705

> <Gold.PLP.part.repulsive>
0.1203

> <Gold.PLP.ligand.clash>
0.0000

> <Gold.PLP.ligand.torsion>
0.4324

> <Gold.PLP.Chemscore.Hbond>
0.0000

> <Gold.PLP.Chemscore.CHOScore>
0.0000

> <Gold.PLP.Chemscore.Metal>
0.0000

> <Gold.PLP.Chemscore.Internal.Correction>
0.0278

> <Gold.Rescore>
     Score         DG    S(hbond)    S(metal)    S(lipo)     H(rot)  DE(clash)    DE(int)     intcor
      8.09     -11.78       0.00        0.00      96.25       1.94       1.18       2.52       ----

> <Gold.Chemscore.Fitness>
8.0866

> <Gold.Chemscore.DG>
-11.7820

> <Gold.Chemscore.ZeroCoef>
-5.4800

> <Gold.Chemscore.Hbond>
0.0000

> <Gold.Chemscore.Metal>
0.0000

> <Gold.Chemscore.Lipo>
96.2519

> <Gold.Chemscore.Internal_Hbond>
0.0000

> <Gold.Chemscore.DEClash>
1.1751

> <Gold.Chemscore.DEInternal>
2.5203

> <Gold.Chemscore.Rot>
1.9373

> <Gold.Chemscore.Internal.Correction>
   9.000000E+99

> <Gold.Chemscore.Hbond.Weighted>
-0.0000

> <Gold.Chemscore.Metal.Weighted>
-0.0000

> <Gold.Chemscore.Lipo.Weighted>
-11.2615

> <Gold.Chemscore.Internal_Hbond.Weighted>
0.0000

> <Gold.Chemscore.DEClash.Weighted>
1.1751

> <Gold.Chemscore.DEInternal.Weighted>
2.5203

> <Gold.Chemscore.Rot.Weighted>
4.9594

> <Gold.Chemscore.Internal.Correction.Weighted>
   9.000000E+99

> <Gold.Protein.RotatedTorsions>
[ 6907 6896 6895 6894 ] final    1.38 input  -60.11 | X-H torsion
[ 7974 7965 7964 7962 ] final  176.75 input  175.53 | X-H torsion
[ 8008 7997 7996 7995 ] final  -15.71 input   59.86 | X-H torsion
[ 10167 10162 10161 10158 ] final  -10.06 input  -65.29 | X-H torsion
[ 10718 10713 10712 10709 ] final  110.90 input   66.30 | X-H torsion
[ 10763 10752 10751 10750 ] final   21.69 input  -60.55 | X-H torsion
[ 11005 11000 10999 10996 ] final  172.00 input  -57.11 | X-H torsion

> <Gold.Protein.ActiveResidues>
 VAL166  LYS551  ARG553  GLY616  TRP617  ASP618  TYR619  PRO620  LYS621  CYS622 
 ASP623  PHE694  ASN695  SER759  ASP760  ASP761  ALA762  ILE779  LEU786  VAL792 
 PHE793  MET794  SER795  GLU796  ALA797  LYS798  CYS799  TRP800  GLU811  SER814 

> <Gold.Protein.RotatedAtoms>
  151.5917  135.1053  160.0040 H   0  0  0  0  0  0  0  0  0  0  0  0  # atno 6907 bound_to 6896
  152.4303  133.7262  159.6572 H   0  0  0  0  0  0  0  0  0  0  0  0  # atno 6908 bound_to 6896
  150.8195  133.8207  159.3168 H   0  0  0  0  0  0  0  0  0  0  0  0  # atno 6909 bound_to 6896
  144.7179  140.0143  143.6440 H   0  0  0  0  0  0  0  0  0  0  0  0  # atno 7974 bound_to 7965
  154.5109  140.2189  155.9158 H   0  0  0  0  0  0  0  0  0  0  0  0  # atno 8008 bound_to 7997
  156.1551  140.3153  155.8678 H   0  0  0  0  0  0  0  0  0  0  0  0  # atno 8009 bound_to 7997
  155.3862  140.0475  157.3033 H   0  0  0  0  0  0  0  0  0  0  0  0  # atno 8010 bound_to 7997
  140.7104  143.5790  150.9012 H   0  0  0  0  0  0  0  0  0  0  0  0  # atno 10167 bound_to 10162
  157.6471  131.0941  150.6670 H   0  0  0  0  0  0  0  0  0  0  0  0  # atno 10718 bound_to 10713
  153.0975  135.6664  153.9735 H   0  0  0  0  0  0  0  0  0  0  0  0  # atno 10763 bound_to 10752
  153.9315  135.3003  155.3447 H   0  0  0  0  0  0  0  0  0  0  0  0  # atno 10764 bound_to 10752
  154.7395  135.5086  153.9172 H   0  0  0  0  0  0  0  0  0  0  0  0  # atno 10765 bound_to 10752
  140.3250  134.7405  157.4092 H   0  0  0  0  0  0  0  0  0  0  0  0  # atno 11005 bound_to 11000
  146.0232  139.3269  143.0800 LP  0  0  0  0  0  0  0  0  0  0  0  0  # atno 17320 bound_to 7965
  145.8542  140.9511  143.0733 LP  0  0  0  0  0  0  0  0  0  0  0  0  # atno 17321 bound_to 7965
  139.9516  143.6266  152.3027 LP  0  0  0  0  0  0  0  0  0  0  0  0  # atno 17342 bound_to 10162
  139.6786  144.7657  151.1649 LP  0  0  0  0  0  0  0  0  0  0  0  0  # atno 17343 bound_to 10162
  156.6985  130.4616  149.5579 LP  0  0  0  0  0  0  0  0  0  0  0  0  # atno 17370 bound_to 10713
  156.1811  130.6500  151.0953 LP  0  0  0  0  0  0  0  0  0  0  0  0  # atno 17371 bound_to 10713
  140.0909  134.5602  155.8445 LP  0  0  0  0  0  0  0  0  0  0  0  0  # atno 17394 bound_to 11000
  141.2077  133.6667  156.6325 LP  0  0  0  0  0  0  0  0  0  0  0  0  # atno 17395 bound_to 11000

$$$$
