AV-unprocessed.smi:1381|AV-procd|sdf|5603|dock6
  -GOLD-   22720 5213D 1   1.00000     0.00000
 Structure written by MMmdl.
 42 43  0  0  0  0  0  0  0  0  1 V2000
  146.8035  129.9793  152.6626 C   0  0  0  0  0  0  0  0  0  0  0  0
  147.6972  131.0562  153.1750 C   0  0  0  0  0  0  0  0  0  0  0  0
  147.7289  132.4089  152.9829 C   0  0  0  0  0  0  0  0  0  0  0  0
  148.8408  132.8174  153.7664 C   0  0  0  0  0  0  0  0  0  0  0  0
  149.2201  134.1820  153.8357 N   0  0  0  0  0  0  0  0  0  0  0  0
  150.0412  134.7597  154.7289 C   0  0  0  0  0  0  0  0  0  0  0  0
  150.6123  134.1754  155.6501 O   0  0  0  0  0  0  0  0  0  0  0  0
  150.1669  136.0739  154.4954 N   0  0  0  0  0  0  0  0  0  0  0  0
  150.9787  136.9951  155.2844 C   0  0  0  0  0  0  0  0  0  0  0  0
  151.5180  138.1711  154.4448 C   0  0  0  0  0  0  0  0  0  0  0  0
  150.9220  139.4723  154.7441 N   0  0  0  0  0  0  0  0  0  0  0  0
  151.4041  139.9856  156.0199 C   0  0  0  0  0  0  0  0  0  0  0  0
  150.8249  141.3759  156.3368 C   0  0  2  0  0  0  0  0  0  0  0  0
  151.2668  141.8847  157.7128 C   0  0  0  0  0  0  0  0  0  0  0  0
  149.4002  141.3070  156.3255 O   0  0  0  0  0  0  0  0  0  0  0  0
  148.8260  140.7846  155.1261 C   0  0  1  0  0  0  0  0  0  0  0  0
  148.8875  141.8022  153.9744 C   0  0  0  0  0  0  0  0  0  0  0  0
  149.4619  139.4247  154.7732 C   0  0  0  0  0  0  0  0  0  0  0  0
  149.4327  131.8061  154.3833 N   0  0  0  0  0  0  0  0  0  0  0  0
  148.7028  130.6721  154.0075 O   0  0  0  0  0  0  0  0  0  0  0  0
  146.1106  130.3700  151.9173 H   0  0  0  0  0  0  0  0  0  0  0  0
  146.2186  129.5446  153.4732 H   0  0  0  0  0  0  0  0  0  0  0  0
  147.3848  129.1825  152.1985 H   0  0  0  0  0  0  0  0  0  0  0  0
  147.0635  133.0065  152.3778 H   0  0  0  0  0  0  0  0  0  0  0  0
  148.8236  134.7830  153.1286 H   0  0  0  0  0  0  0  0  0  0  0  0
  149.6618  136.4699  153.7163 H   0  0  0  0  0  0  0  0  0  0  0  0
  150.3667  137.3828  156.1006 H   0  0  0  0  0  0  0  0  0  0  0  0
  151.7951  136.4478  155.7565 H   0  0  0  0  0  0  0  0  0  0  0  0
  152.6061  138.2269  154.5043 H   0  0  0  0  0  0  0  0  0  0  0  0
  151.2991  137.9349  153.4023 H   0  0  0  0  0  0  0  0  0  0  0  0
  151.1433  139.2901  156.8195 H   0  0  0  0  0  0  0  0  0  0  0  0
  152.4929  140.0471  156.0044 H   0  0  0  0  0  0  0  0  0  0  0  0
  151.1590  142.0904  155.5838 H   0  0  0  0  0  0  0  0  0  0  0  0
  152.3525  141.9698  157.7691 H   0  0  0  0  0  0  0  0  0  0  0  0
  150.9412  141.2116  158.5062 H   0  0  0  0  0  0  0  0  0  0  0  0
  150.8456  142.8693  157.9171 H   0  0  0  0  0  0  0  0  0  0  0  0
  147.7711  140.6138  155.3420 H   0  0  0  0  0  0  0  0  0  0  0  0
  148.3394  141.4379  153.1054 H   0  0  0  0  0  0  0  0  0  0  0  0
  149.9105  141.9987  153.6541 H   0  0  0  0  0  0  0  0  0  0  0  0
  148.4420  142.7517  154.2714 H   0  0  0  0  0  0  0  0  0  0  0  0
  149.0729  139.0927  153.8110 H   0  0  0  0  0  0  0  0  0  0  0  0
  149.1400  138.6843  155.5074 H   0  0  0  0  0  0  0  0  0  0  0  0
  1  2  1  0  0  0  0
  1 21  1  0  0  0  0
  1 22  1  0  0  0  0
  1 23  1  0  0  0  0
  2 20  1  0  0  0  0
  2  3  2  0  0  0  0
  3  4  1  0  0  0  0
  3 24  1  0  0  0  0
  4  5  1  0  0  0  0
  4 19  2  0  0  0  0
  5  6  1  0  0  0  0
  5 25  1  0  0  0  0
  6  7  2  0  0  0  0
  6  8  1  0  0  0  0
  8  9  1  0  0  0  0
  8 26  1  0  0  0  0
  9 10  1  0  0  0  0
  9 27  1  0  0  0  0
  9 28  1  0  0  0  0
 10 11  1  0  0  0  0
 10 29  1  0  0  0  0
 10 30  1  0  0  0  0
 11 18  1  0  0  0  0
 11 12  1  0  0  0  0
 12 13  1  0  0  0  0
 12 31  1  0  0  0  0
 12 32  1  0  0  0  0
 13 14  1  0  0  0  0
 13 15  1  0  0  0  0
 13 33  1  0  0  0  0
 14 34  1  0  0  0  0
 14 35  1  0  0  0  0
 14 36  1  0  0  0  0
 15 16  1  0  0  0  0
 16 17  1  0  0  0  0
 16 18  1  0  0  0  0
 16 37  1  0  0  0  0
 17 38  1  0  0  0  0
 17 39  1  0  0  0  0
 17 40  1  0  0  0  0
 18 41  1  0  0  0  0
 18 42  1  0  0  0  0
 19 20  1  0  0  0  0
M  END
> <s_m_source_file>
AV-unprocessed.smi

> <i_m_source_file_index>
1381

> <i_lp_mmshare_version>
43012

> <i_f3d_flags>
0

> <s_epik_input>
W0NIM11jMVtjSF1jKG5vMSlbTkhdQyg9TylbTkhdW0NIMl1bQ0gyXU4yW0NIMl1bQ0BASF0oW0NIM10pT1tDQEBIXShbQ0gzXSlbQ0gyXTI=

> <s_epik_cmdline>
J2VwaWtfcHl0aG9uJywgJy1waCcsICc3LjAnLCAnLXRuJywgJzgnLCAnLW1hJywgJzIwMCcsICctbWV0YWxfYmluZGluZycsICctaW1hZScsICc8aW5maWxlLm1hZT4nLCAnLW9tYWUnLCAnPG91dGZpbGUubWFlPic=

> <r_epik_Ionization_Penalty>
0.214073

> <r_epik_Ionization_Penalty_Charging>
0

> <r_epik_Ionization_Penalty_Neutral>
0.214073

> <r_epik_State_Penalty>
0.204211

> <r_epik_Charging_Adjusted_Penalty>
0.204211

> <i_epik_Tot_Q>
0

> <i_epik_Tot_abs_Q>
0

> <r_epik_Metal_State_Penalty>
0.217067

> <b_epik_Metal_Only>
0

> <s_lp_Force_Field>
OPLS_2005

> <r_lp_Energy>
25.417

> <b_lp_Chiralities_Consistent>
1

> <s_lp_Variant>
AV-unprocessed.smi:1381-2

> <Gold.Version>
5.8.1

> <Gold.Id.Protein>
6NUR|6NUR_protein|mol2

> <Gold.PLP.Fitness>
41.1311

> <Gold.PLP.PLP>
-33.7331

> <Gold.PLP.part.hbond>
-3.6868

> <Gold.PLP.part.metal>
0.0000

> <Gold.PLP.part.buried>
-1.2588

> <Gold.PLP.part.nonpolar>
-28.9706

> <Gold.PLP.part.repulsive>
0.3931

> <Gold.PLP.ligand.clash>
0.0000

> <Gold.PLP.ligand.torsion>
0.6607

> <Gold.PLP.Chemscore.Hbond>
2.9040

> <Gold.PLP.Chemscore.CHOScore>
0.0000

> <Gold.PLP.Chemscore.Metal>
0.0000

> <Gold.Chemscore.Hbonds>
donor molecule, donor type, donor heavy atom, donor atom, acceptor molecule, acceptor atom, score
      L1  H     5    25       P1  7948  0.95
      L1  H     8    26       P1  7948  0.94
      P1  H  7989  7998       L1    11  1.00

> <Gold.PLP.Chemscore.Internal.Correction>
0.0074

> <Gold.Rescore>
     Score         DG    S(hbond)    S(metal)    S(lipo)     H(rot)  DE(clash)    DE(int)     intcor
     11.26     -14.36       1.33        0.00      72.31       1.57       1.30       1.80       ----

> <Gold.Chemscore.Fitness>
11.2570

> <Gold.Chemscore.DG>
-14.3562

> <Gold.Chemscore.ZeroCoef>
-5.4800

> <Gold.Chemscore.Hbond>
1.3278

> <Gold.Chemscore.Metal>
0.0000

> <Gold.Chemscore.Lipo>
72.3063

> <Gold.Chemscore.Internal_Hbond>
0.0000

> <Gold.Chemscore.DEClash>
1.2980

> <Gold.Chemscore.DEInternal>
1.8012

> <Gold.Chemscore.Rot>
1.5697

> <Gold.Chemscore.Internal.Correction>
   9.000000E+99

> <Gold.Chemscore.Hbonds>
donor molecule, donor type, donor heavy atom, donor atom, acceptor molecule, acceptor atom, score
      L1  H     5    25       P1  7948  0.21
      L1  H     8    26       P1  7948  0.49
      P1  H  7989  7998       L1    11  0.18

> <Gold.Chemscore.Hbond.Weighted>
-4.4348

> <Gold.Chemscore.Metal.Weighted>
-0.0000

> <Gold.Chemscore.Lipo.Weighted>
-8.4598

> <Gold.Chemscore.Internal_Hbond.Weighted>
0.0000

> <Gold.Chemscore.DEClash.Weighted>
1.2980

> <Gold.Chemscore.DEInternal.Weighted>
1.8012

> <Gold.Chemscore.Rot.Weighted>
4.0185

> <Gold.Chemscore.Internal.Correction.Weighted>
   9.000000E+99

> <Gold.Protein.RotatedTorsions>
[ 6907 6896 6895 6894 ] final   22.93 input  -60.11 | X-H torsion
[ 7974 7965 7964 7962 ] final  -44.91 input  175.53 | X-H torsion
[ 8008 7997 7996 7995 ] final  -48.76 input   59.86 | X-H torsion
[ 10167 10162 10161 10158 ] final  -31.74 input  -65.29 | X-H torsion
[ 10718 10713 10712 10709 ] final  160.11 input   66.30 | X-H torsion
[ 10763 10752 10751 10750 ] final   36.55 input  -60.55 | X-H torsion
[ 11005 11000 10999 10996 ] final   24.30 input  -57.11 | X-H torsion

> <Gold.Protein.ActiveResidues>
 VAL166  LYS551  ARG553  GLY616  TRP617  ASP618  TYR619  PRO620  LYS621  CYS622 
 ASP623  PHE694  ASN695  SER759  ASP760  ASP761  ALA762  ILE779  LEU786  VAL792 
 PHE793  MET794  SER795  GLU796  ALA797  LYS798  CYS799  TRP800  GLU811  SER814 

> <Gold.Protein.RotatedAtoms>
  151.9346  135.0241  160.0531 H   0  0  0  0  0  0  0  0  0  0  0  0  # atno 6907 bound_to 6896
  152.2089  133.4891  159.5107 H   0  0  0  0  0  0  0  0  0  0  0  0  # atno 6908 bound_to 6896
  150.6971  134.1410  159.4148 H   0  0  0  0  0  0  0  0  0  0  0  0  # atno 6909 bound_to 6896
  145.9873  140.7219  142.9334 H   0  0  0  0  0  0  0  0  0  0  0  0  # atno 7974 bound_to 7965
  154.4033  140.1313  156.4392 H   0  0  0  0  0  0  0  0  0  0  0  0  # atno 8008 bound_to 7997
  155.7476  140.3488  155.5114 H   0  0  0  0  0  0  0  0  0  0  0  0  # atno 8009 bound_to 7997
  155.8980  140.1014  157.1361 H   0  0  0  0  0  0  0  0  0  0  0  0  # atno 8010 bound_to 7997
  140.7232  143.3748  151.1711 H   0  0  0  0  0  0  0  0  0  0  0  0  # atno 10167 bound_to 10162
  157.1550  131.0573  151.2261 H   0  0  0  0  0  0  0  0  0  0  0  0  # atno 10718 bound_to 10713
  153.0072  135.6302  154.2004 H   0  0  0  0  0  0  0  0  0  0  0  0  # atno 10763 bound_to 10752
  154.1747  135.2816  155.3072 H   0  0  0  0  0  0  0  0  0  0  0  0  # atno 10764 bound_to 10752
  154.5881  135.5626  153.7311 H   0  0  0  0  0  0  0  0  0  0  0  0  # atno 10765 bound_to 10752
  140.3602  134.2133  155.7673 H   0  0  0  0  0  0  0  0  0  0  0  0  # atno 11005 bound_to 11000
  144.6878  140.3010  143.7263 LP  0  0  0  0  0  0  0  0  0  0  0  0  # atno 17320 bound_to 7965
  145.7682  139.1848  143.2228 LP  0  0  0  0  0  0  0  0  0  0  0  0  # atno 17321 bound_to 7965
  139.7326  143.9049  152.3024 LP  0  0  0  0  0  0  0  0  0  0  0  0  # atno 17342 bound_to 10162
  139.8843  144.7000  150.8842 LP  0  0  0  0  0  0  0  0  0  0  0  0  # atno 17343 bound_to 10162
  157.4186  130.7425  149.6895 LP  0  0  0  0  0  0  0  0  0  0  0  0  # atno 17370 bound_to 10713
  155.9764  130.4076  150.3784 LP  0  0  0  0  0  0  0  0  0  0  0  0  # atno 17371 bound_to 10713
  141.1986  133.8031  157.0574 LP  0  0  0  0  0  0  0  0  0  0  0  0  # atno 17394 bound_to 11000
  140.0632  134.9743  157.1341 LP  0  0  0  0  0  0  0  0  0  0  0  0  # atno 17395 bound_to 11000

$$$$
