AV-unprocessed.smi:2855|AV-procd|sdf|10987|dock3
  -GOLD-   2272015443D 1   1.00000     0.00000
 Structure written by MMmdl.
 46 47  0  0  0  0  0  0  0  0  2 V2000
  152.5528  144.5329  157.9485 C   0  0  0  0  0  0  0  0  0  0  0  0
  151.5873  143.7860  158.8861 C   0  0  2  0  0  0  0  0  0  0  0  0
  152.2046  143.4966  160.2667 C   0  0  0  0  0  0  0  0  0  0  0  0
  153.2572  142.3763  160.2190 C   0  0  0  0  0  0  0  0  0  0  0  0
  152.6875  141.0720  159.6123 C   0  0  2  0  0  0  0  0  0  0  0  0
  153.6987  139.8859  159.6349 C   0  0  0  0  0  0  0  0  0  0  0  0
  152.9998  138.5156  159.6482 C   0  0  0  0  0  0  0  0  0  0  0  0
  154.7478  139.9730  160.7588 C   0  0  0  0  0  0  0  0  0  0  0  0
  152.0875  141.3595  158.2086 C   0  0  1  0  0  0  0  0  0  0  0  0
  151.4669  140.1576  157.6559 N   0  0  0  0  0  0  0  0  0  0  0  0
  151.7483  139.6063  156.4657 C   0  0  0  0  0  0  0  0  0  0  0  0
  152.5298  140.1011  155.6528 O   0  0  0  0  0  0  0  0  0  0  0  0
  151.0186  138.2982  156.1384 C   0  0  0  0  0  0  0  0  0  0  0  0
  150.3004  137.7588  157.3034 N   0  0  0  0  0  0  0  0  0  0  0  0
  148.9724  138.1734  157.5057 C   0  0  0  0  0  0  0  0  0  0  0  0
  148.2384  137.7250  158.5418 C   0  0  0  0  0  0  0  0  0  0  0  0
  148.8548  136.7837  159.4685 C   0  0  0  0  0  0  0  0  0  0  0  0
  148.2010  136.3672  160.4227 O   0  0  0  0  0  0  0  0  0  0  0  0
  150.1446  136.4075  159.2266 N   0  5  0  0  0  0  0  0  0  0  0  0
  150.8788  136.8708  158.1679 C   0  0  0  0  0  0  0  0  0  0  0  0
  152.0417  136.5175  157.9677 O   0  0  0  0  0  0  0  0  0  0  0  0
  151.0382  142.4888  158.2623 C   0  0  0  0  0  0  0  0  0  0  0  0
  153.4458  143.9494  157.7261 H   0  0  0  0  0  0  0  0  0  0  0  0
  152.8775  145.4741  158.3927 H   0  0  0  0  0  0  0  0  0  0  0  0
  152.0702  144.7690  156.9998 H   0  0  0  0  0  0  0  0  0  0  0  0
  150.7391  144.4536  159.0435 H   0  0  0  0  0  0  0  0  0  0  0  0
  152.6451  144.4046  160.6799 H   0  0  0  0  0  0  0  0  0  0  0  0
  151.4121  143.2055  160.9575 H   0  0  0  0  0  0  0  0  0  0  0  0
  154.1199  142.7145  159.6455 H   0  0  0  0  0  0  0  0  0  0  0  0
  153.6165  142.2006  161.2323 H   0  0  0  0  0  0  0  0  0  0  0  0
  151.8529  140.7719  160.2487 H   0  0  0  0  0  0  0  0  0  0  0  0
  154.2521  139.9097  158.6959 H   0  0  0  0  0  0  0  0  0  0  0  0
  152.4975  138.3231  160.5959 H   0  0  0  0  0  0  0  0  0  0  0  0
  153.7212  137.7122  159.4955 H   0  0  0  0  0  0  0  0  0  0  0  0
  152.2583  138.4417  158.8525 H   0  0  0  0  0  0  0  0  0  0  0  0
  154.2902  139.9275  161.7466 H   0  0  0  0  0  0  0  0  0  0  0  0
  155.3309  140.8914  160.6981 H   0  0  0  0  0  0  0  0  0  0  0  0
  155.4549  139.1459  160.6902 H   0  0  0  0  0  0  0  0  0  0  0  0
  152.8960  141.6866  157.5546 H   0  0  0  0  0  0  0  0  0  0  0  0
  150.8080  139.6753  158.2496 H   0  0  0  0  0  0  0  0  0  0  0  0
  150.3259  138.4470  155.3078 H   0  0  0  0  0  0  0  0  0  0  0  0
  151.7543  137.5808  155.7731 H   0  0  0  0  0  0  0  0  0  0  0  0
  148.5891  138.8660  156.7709 H   0  0  0  0  0  0  0  0  0  0  0  0
  147.2184  138.0513  158.6815 H   0  0  0  0  0  0  0  0  0  0  0  0
  150.1816  142.1527  158.8488 H   0  0  0  0  0  0  0  0  0  0  0  0
  150.6549  142.6927  157.2615 H   0  0  0  0  0  0  0  0  0  0  0  0
  1  2  1  0  0  0  0
  1 23  1  0  0  0  0
  1 24  1  0  0  0  0
  1 25  1  0  0  0  0
  2 22  1  0  0  0  0
  2  3  1  0  0  0  0
  2 26  1  0  0  0  0
  3  4  1  0  0  0  0
  3 27  1  0  0  0  0
  3 28  1  0  0  0  0
  4  5  1  0  0  0  0
  4 29  1  0  0  0  0
  4 30  1  0  0  0  0
  5  6  1  0  0  0  0
  5  9  1  0  0  0  0
  5 31  1  0  0  0  0
  6  7  1  0  0  0  0
  6  8  1  0  0  0  0
  6 32  1  0  0  0  0
  7 33  1  0  0  0  0
  7 34  1  0  0  0  0
  7 35  1  0  0  0  0
  8 36  1  0  0  0  0
  8 37  1  0  0  0  0
  8 38  1  0  0  0  0
  9 10  1  0  0  0  0
  9 22  1  0  0  0  0
  9 39  1  0  0  0  0
 10 11  1  0  0  0  0
 10 40  1  0  0  0  0
 11 12  2  0  0  0  0
 11 13  1  0  0  0  0
 13 14  1  0  0  0  0
 13 41  1  0  0  0  0
 13 42  1  0  0  0  0
 14 20  1  0  0  0  0
 14 15  1  0  0  0  0
 15 16  2  0  0  0  0
 15 43  1  0  0  0  0
 16 17  1  0  0  0  0
 16 44  1  0  0  0  0
 17 18  2  0  0  0  0
 17 19  1  0  0  0  0
 19 20  1  0  0  0  0
 20 21  2  0  0  0  0
 22 45  1  0  0  0  0
 22 46  1  0  0  0  0
M  CHG  1  19  -1
M  END
> <s_m_source_file>
AV-unprocessed.smi

> <i_m_source_file_index>
2855

> <i_lp_mmshare_version>
43012

> <i_f3d_flags>
0

> <s_epik_input>
W0NIM11bQ0BASF0xW0NIMl1bQ0gyXVtDQEBIXShbQ0hdKFtDSDNdKVtDSDNdKVtDQEhdKFtDSDJdMSlbTkhdQyg9TylbQ0gyXW4yW2NIXVtjSF1jKD1PKVtuSF1jMj1P

> <s_epik_cmdline>
J2VwaWtfcHl0aG9uJywgJy1waCcsICc3LjAnLCAnLXRuJywgJzgnLCAnLW1hJywgJzIwMCcsICctbWV0YWxfYmluZGluZycsICctaW1hZScsICc8aW5maWxlLm1hZT4nLCAnLW9tYWUnLCAnPG91dGZpbGUubWFlPic=

> <r_lp_tautomer_probability>
0.999537

> <r_epik_Ionization_Penalty>
3.12102

> <r_epik_Ionization_Penalty_Charging>
2.9581e-08

> <r_epik_Ionization_Penalty_Neutral>
3.12102

> <r_epik_State_Penalty>
3.12011

> <r_epik_Charging_Adjusted_Penalty>
3.12011

> <i_epik_Tot_Q>
-1

> <i_epik_Tot_abs_Q>
1

> <r_epik_Metal_State_Penalty>
0.463583

> <b_epik_Metal_Only>
1

> <s_lp_Force_Field>
OPLS_2005

> <r_lp_Energy>
25.3875

> <b_lp_Chiralities_Consistent>
1

> <s_lp_Variant>
AV-unprocessed.smi:2855-11

> <Gold.Version>
5.8.1

> <Gold.Id.Protein>
6NUR|6NUR_protein|mol2

> <Gold.PLP.Fitness>
45.0842

> <Gold.PLP.PLP>
-37.6283

> <Gold.PLP.part.hbond>
-3.3125

> <Gold.PLP.part.metal>
0.0000

> <Gold.PLP.part.buried>
-4.4514

> <Gold.PLP.part.nonpolar>
-30.3476

> <Gold.PLP.part.repulsive>
0.0562

> <Gold.PLP.ligand.clash>
0.0000

> <Gold.PLP.ligand.torsion>
1.1128

> <Gold.PLP.Chemscore.Hbond>
3.2020

> <Gold.PLP.Chemscore.CHOScore>
0.0000

> <Gold.PLP.Chemscore.Metal>
0.0000

> <Gold.Chemscore.Hbonds>
donor molecule, donor type, donor heavy atom, donor atom, acceptor molecule, acceptor atom, score
      P1  H  6896  6908       L1    19  2.00
      P1  H  7997  8009       L1    12  1.00

> <Gold.PLP.Chemscore.Internal.Correction>
0.0755

> <Gold.Rescore>
     Score         DG    S(hbond)    S(metal)    S(lipo)     H(rot)  DE(clash)    DE(int)     intcor
     16.73     -19.39       2.03        0.00     100.66       1.81       0.06       2.61       ----

> <Gold.Chemscore.Fitness>
16.7253

> <Gold.Chemscore.DG>
-19.3916

> <Gold.Chemscore.ZeroCoef>
-5.4800

> <Gold.Chemscore.Hbond>
2.0263

> <Gold.Chemscore.Metal>
0.0000

> <Gold.Chemscore.Lipo>
100.6611

> <Gold.Chemscore.Internal_Hbond>
0.0000

> <Gold.Chemscore.DEClash>
0.0553

> <Gold.Chemscore.DEInternal>
2.6111

> <Gold.Chemscore.Rot>
1.8100

> <Gold.Chemscore.Internal.Correction>
   9.000000E+99

> <Gold.Chemscore.Hbonds>
donor molecule, donor type, donor heavy atom, donor atom, acceptor molecule, acceptor atom, score
      P1  H  6896  6908       L1    19  0.58
      P1  H  7989  7998       L1    12  0.04
      P1  H  7997  8009       L1    12  0.97

> <Gold.Chemscore.Hbond.Weighted>
-6.7678

> <Gold.Chemscore.Metal.Weighted>
-0.0000

> <Gold.Chemscore.Lipo.Weighted>
-11.7774

> <Gold.Chemscore.Internal_Hbond.Weighted>
0.0000

> <Gold.Chemscore.DEClash.Weighted>
0.0553

> <Gold.Chemscore.DEInternal.Weighted>
2.6111

> <Gold.Chemscore.Rot.Weighted>
4.6335

> <Gold.Chemscore.Internal.Correction.Weighted>
   9.000000E+99

> <Gold.Protein.RotatedTorsions>
[ 6907 6896 6895 6894 ] final -178.19 input  -60.11 | X-H torsion
[ 7974 7965 7964 7962 ] final -133.78 input  175.53 | X-H torsion
[ 8008 7997 7996 7995 ] final -145.60 input   59.86 | X-H torsion
[ 10167 10162 10161 10158 ] final -148.41 input  -65.29 | X-H torsion
[ 10718 10713 10712 10709 ] final -151.30 input   66.30 | X-H torsion
[ 10763 10752 10751 10750 ] final  111.34 input  -60.55 | X-H torsion
[ 11005 11000 10999 10996 ] final  -87.58 input  -57.11 | X-H torsion

> <Gold.Protein.ActiveResidues>
 VAL166  LYS551  ARG553  GLY616  TRP617  ASP618  TYR619  PRO620  LYS621  CYS622 
 ASP623  PHE694  ASN695  SER759  ASP760  ASP761  ALA762  ILE779  LEU786  VAL792 
 PHE793  MET794  SER795  GLU796  ALA797  LYS798  CYS799  TRP800  GLU811  SER814 

> <Gold.Protein.RotatedAtoms>
  151.6332  133.3330  159.3113 H   0  0  0  0  0  0  0  0  0  0  0  0  # atno 6907 bound_to 6896
  150.8045  134.7165  159.6643 H   0  0  0  0  0  0  0  0  0  0  0  0  # atno 6908 bound_to 6896
  152.4140  134.6079  160.0069 H   0  0  0  0  0  0  0  0  0  0  0  0  # atno 6909 bound_to 6896
  144.9162  140.6957  143.4994 H   0  0  0  0  0  0  0  0  0  0  0  0  # atno 7974 bound_to 7965
  155.5458  140.0612  157.2860 H   0  0  0  0  0  0  0  0  0  0  0  0  # atno 8008 bound_to 7997
  154.4437  140.1911  156.0681 H   0  0  0  0  0  0  0  0  0  0  0  0  # atno 8009 bound_to 7997
  156.0551  140.3279  155.7400 H   0  0  0  0  0  0  0  0  0  0  0  0  # atno 8010 bound_to 7997
  139.7534  143.8484  152.2591 H   0  0  0  0  0  0  0  0  0  0  0  0  # atno 10167 bound_to 10162
  156.4574  130.8197  151.2428 H   0  0  0  0  0  0  0  0  0  0  0  0  # atno 10718 bound_to 10713
  153.4620  135.3720  155.2343 H   0  0  0  0  0  0  0  0  0  0  0  0  # atno 10763 bound_to 10752
  154.8757  135.3911  154.3914 H   0  0  0  0  0  0  0  0  0  0  0  0  # atno 10764 bound_to 10752
  153.4489  135.7085  153.6186 H   0  0  0  0  0  0  0  0  0  0  0  0  # atno 10765 bound_to 10752
  141.1615  133.7519  156.9327 H   0  0  0  0  0  0  0  0  0  0  0  0  # atno 11005 bound_to 11000
  145.3372  139.1742  143.4505 LP  0  0  0  0  0  0  0  0  0  0  0  0  # atno 17320 bound_to 7965
  146.3183  140.3408  142.8648 LP  0  0  0  0  0  0  0  0  0  0  0  0  # atno 17321 bound_to 7965
  139.8469  144.7183  150.9262 LP  0  0  0  0  0  0  0  0  0  0  0  0  # atno 17342 bound_to 10162
  140.7800  143.3934  151.1272 LP  0  0  0  0  0  0  0  0  0  0  0  0  # atno 17343 bound_to 10162
  157.7500  131.0118  150.3360 LP  0  0  0  0  0  0  0  0  0  0  0  0  # atno 17370 bound_to 10713
  156.3752  130.3870  149.7144 LP  0  0  0  0  0  0  0  0  0  0  0  0  # atno 17371 bound_to 10713
  140.1375  134.9315  157.2422 LP  0  0  0  0  0  0  0  0  0  0  0  0  # atno 17394 bound_to 11000
  140.2877  134.3276  155.7324 LP  0  0  0  0  0  0  0  0  0  0  0  0  # atno 17395 bound_to 11000

$$$$
