AV-unprocessed.smi:1697|AV-procd|sdf|6807|dock5
  -GOLD-   22720 7583D 1   1.00000     0.00000
 Structure written by MMmdl.
 55 57  0  0  0  0  0  0  0  0  3 V2000
  148.0644  130.6916  154.0798 C   0  0  0  0  0  0  0  0  0  0  0  0
  146.7546  131.3545  153.6473 C   0  0  0  0  0  0  0  0  0  0  0  0
  146.9793  132.0568  152.4337 O   0  0  0  0  0  0  0  0  0  0  0  0
  146.2279  133.2554  152.2965 C   0  0  2  0  0  0  0  0  0  0  0  0
  146.5290  133.9557  150.9585 C   0  0  0  0  0  0  0  0  0  0  0  0
  145.8439  135.3312  150.8849 C   0  0  0  0  0  0  0  0  0  0  0  0
  146.2464  136.1954  152.0274 N   0  3  1  0  0  0  0  0  0  0  0  0
  145.7050  137.5774  151.9465 C   0  0  0  0  0  0  0  0  0  0  0  0
  146.2042  138.4987  153.0794 C   0  0  2  0  0  0  0  0  0  0  0  0
  145.1010  139.1745  153.6533 O   0  0  0  0  0  0  0  0  0  0  0  0
  147.2064  139.5442  152.5505 C   0  0  0  0  0  0  0  0  0  0  0  0
  147.6314  140.5028  153.5793 N   0  0  0  0  0  0  0  0  0  0  0  0
  147.2343  141.7863  153.7975 C   0  0  0  0  0  0  0  0  0  0  0  0
  147.9253  142.2525  154.8744 N   0  3  0  0  0  0  0  0  0  0  0  0
  148.7772  141.2531  155.3496 C   0  0  0  0  0  0  0  0  0  0  0  0
  149.6725  141.2482  156.4127 C   0  0  0  0  0  0  0  0  0  0  0  0
  150.4020  140.0585  156.6362 C   0  0  0  0  0  0  0  0  0  0  0  0
  151.3915  140.0206  157.7884 C   0  0  0  0  0  0  0  0  0  0  0  0
  150.2179  138.9221  155.8062 C   0  0  0  0  0  0  0  0  0  0  0  0
  151.0075  137.6483  156.0562 C   0  0  0  0  0  0  0  0  0  0  0  0
  149.3013  138.9465  154.7307 C   0  0  0  0  0  0  0  0  0  0  0  0
  148.5932  140.1276  154.5231 C   0  0  0  0  0  0  0  0  0  0  0  0
  145.9346  135.5513  153.3296 C   0  0  0  0  0  0  0  0  0  0  0  0
  146.6255  134.1839  153.4524 C   0  0  0  0  0  0  0  0  0  0  0  0
  147.9322  130.1377  155.0095 H   0  0  0  0  0  0  0  0  0  0  0  0
  148.8449  131.4354  154.2425 H   0  0  0  0  0  0  0  0  0  0  0  0
  148.4197  129.9933  153.3213 H   0  0  0  0  0  0  0  0  0  0  0  0
  145.9839  130.5944  153.5194 H   0  0  0  0  0  0  0  0  0  0  0  0
  146.4161  132.0421  154.4237 H   0  0  0  0  0  0  0  0  0  0  0  0
  145.1606  133.0405  152.3755 H   0  0  0  0  0  0  0  0  0  0  0  0
  147.6070  134.0790  150.8428 H   0  0  0  0  0  0  0  0  0  0  0  0
  146.1961  133.3440  150.1203 H   0  0  0  0  0  0  0  0  0  0  0  0
  146.1072  135.8005  149.9381 H   0  0  0  0  0  0  0  0  0  0  0  0
  144.7594  135.2088  150.8840 H   0  0  0  0  0  0  0  0  0  0  0  0
  145.9570  138.0013  150.9730 H   0  0  0  0  0  0  0  0  0  0  0  0
  144.6150  137.5456  151.9884 H   0  0  0  0  0  0  0  0  0  0  0  0
  146.6920  137.9177  153.8608 H   0  0  0  0  0  0  0  0  0  0  0  0
  144.6216  139.6178  152.9702 H   0  0  0  0  0  0  0  0  0  0  0  0
  148.0948  139.0630  152.1392 H   0  0  0  0  0  0  0  0  0  0  0  0
  146.7620  140.1176  151.7355 H   0  0  0  0  0  0  0  0  0  0  0  0
  146.5023  142.3349  153.2222 H   0  0  0  0  0  0  0  0  0  0  0  0
  149.8067  142.1167  157.0410 H   0  0  0  0  0  0  0  0  0  0  0  0
  152.3958  139.8027  157.4245 H   0  0  0  0  0  0  0  0  0  0  0  0
  151.1100  139.2531  158.5097 H   0  0  0  0  0  0  0  0  0  0  0  0
  151.4283  140.9752  158.3143 H   0  0  0  0  0  0  0  0  0  0  0  0
  150.7363  136.8648  155.3482 H   0  0  0  0  0  0  0  0  0  0  0  0
  150.8173  137.2695  157.0604 H   0  0  0  0  0  0  0  0  0  0  0  0
  152.0766  137.8349  155.9524 H   0  0  0  0  0  0  0  0  0  0  0  0
  149.1623  138.0821  154.0986 H   0  0  0  0  0  0  0  0  0  0  0  0
  146.2676  136.1909  154.1479 H   0  0  0  0  0  0  0  0  0  0  0  0
  144.8541  135.4392  153.4335 H   0  0  0  0  0  0  0  0  0  0  0  0
  146.3661  133.7217  154.4056 H   0  0  0  0  0  0  0  0  0  0  0  0
  147.7079  134.3219  153.4606 H   0  0  0  0  0  0  0  0  0  0  0  0
  147.2521  136.2810  151.9946 H   0  0  0  0  0  0  0  0  0  0  0  0
  147.8223  143.1853  155.2533 H   0  0  0  0  0  0  0  0  0  0  0  0
  1  2  1  0  0  0  0
  1 25  1  0  0  0  0
  1 26  1  0  0  0  0
  1 27  1  0  0  0  0
  2  3  1  0  0  0  0
  2 28  1  0  0  0  0
  2 29  1  0  0  0  0
  3  4  1  0  0  0  0
  4 24  1  0  0  0  0
  4  5  1  0  0  0  0
  4 30  1  0  0  0  0
  5  6  1  0  0  0  0
  5 31  1  0  0  0  0
  5 32  1  0  0  0  0
  6  7  1  0  0  0  0
  6 33  1  0  0  0  0
  6 34  1  0  0  0  0
  7  8  1  0  0  0  0
  7 23  1  0  0  0  0
  7 54  1  0  0  0  0
  8  9  1  0  0  0  0
  8 35  1  0  0  0  0
  8 36  1  0  0  0  0
  9 10  1  0  0  0  0
  9 11  1  0  0  0  0
  9 37  1  0  0  0  0
 10 38  1  0  0  0  0
 11 12  1  0  0  0  0
 11 39  1  0  0  0  0
 11 40  1  0  0  0  0
 12 22  1  0  0  0  0
 12 13  1  0  0  0  0
 13 14  2  0  0  0  0
 13 41  1  0  0  0  0
 14 15  1  0  0  0  0
 14 55  1  0  0  0  0
 15 22  2  0  0  0  0
 15 16  1  0  0  0  0
 16 17  2  0  0  0  0
 16 42  1  0  0  0  0
 17 18  1  0  0  0  0
 17 19  1  0  0  0  0
 18 43  1  0  0  0  0
 18 44  1  0  0  0  0
 18 45  1  0  0  0  0
 19 20  1  0  0  0  0
 19 21  2  0  0  0  0
 20 46  1  0  0  0  0
 20 47  1  0  0  0  0
 20 48  1  0  0  0  0
 21 22  1  0  0  0  0
 21 49  1  0  0  0  0
 23 24  1  0  0  0  0
 23 50  1  0  0  0  0
 23 51  1  0  0  0  0
 24 52  1  0  0  0  0
 24 53  1  0  0  0  0
M  CHG  1   7   1
M  CHG  1  14   1
M  END
> <s_m_source_file>
AV-unprocessed.smi

> <i_m_source_file_index>
1697

> <i_lp_mmshare_version>
43012

> <i_f3d_flags>
0

> <s_epik_input>
W0NIM11bQ0gyXU9bQ0hdMVtDSDJdW0NIMl1OKFtDSDJdW0NIMl0xKVtDSDJdW0NASF0oW09IXSlbQ0gyXW4oW2NIXW4yKWMoYzIzKVtjSF1jKFtDSDNdKWMoW2NIXTMpW0NIM10=

> <s_epik_cmdline>
J2VwaWtfcHl0aG9uJywgJy1waCcsICc3LjAnLCAnLXRuJywgJzgnLCAnLW1hJywgJzIwMCcsICctbWV0YWxfYmluZGluZycsICctaW1hZScsICc8aW5maWxlLm1hZT4nLCAnLW9tYWUnLCAnPG91dGZpbGUubWFlPic=

> <r_epik_Ionization_Penalty>
1.20016

> <r_epik_Ionization_Penalty_Charging>
1.20016

> <r_epik_Ionization_Penalty_Neutral>
1.70998e-06

> <r_epik_State_Penalty>
1.27959

> <r_epik_Charging_Adjusted_Penalty>
2.47975

> <i_epik_Tot_Q>
2

> <i_epik_Tot_abs_Q>
2

> <r_epik_Metal_State_Penalty>
5.29682

> <b_epik_Metal_Only>
0

> <s_lp_Force_Field>
OPLS_2005

> <r_lp_Energy>
32.2014

> <b_lp_Chiralities_Consistent>
1

> <s_lp_Variant>
AV-unprocessed.smi:1697-5

> <Gold.Version>
5.8.1

> <Gold.Id.Protein>
6NUR|6NUR_protein|mol2

> <Gold.PLP.Fitness>
55.6727

> <Gold.PLP.PLP>
-42.8030

> <Gold.PLP.part.hbond>
-3.0000

> <Gold.PLP.part.metal>
0.0000

> <Gold.PLP.part.buried>
-0.4349

> <Gold.PLP.part.nonpolar>
-39.8042

> <Gold.PLP.part.repulsive>
1.0596

> <Gold.PLP.ligand.clash>
0.0000

> <Gold.PLP.ligand.torsion>
1.1813

> <Gold.PLP.Chemscore.Hbond>
5.0000

> <Gold.PLP.Chemscore.CHOScore>
0.0000

> <Gold.PLP.Chemscore.Metal>
0.0000

> <Gold.Chemscore.Hbonds>
donor molecule, donor type, donor heavy atom, donor atom, acceptor molecule, acceptor atom, score
      L1  H     7    54       P1  7948  2.00
      L1  H    10    38       P1 10175  0.59
      L1  H    14    55       P1  8028  1.63

> <Gold.PLP.Chemscore.Internal.Correction>
0.2324

> <Gold.Rescore>
     Score         DG    S(hbond)    S(metal)    S(lipo)     H(rot)  DE(clash)    DE(int)     intcor
     19.17     -21.62       2.94        0.00     105.32       2.35       1.21       1.24       ----

> <Gold.Chemscore.Fitness>
19.1689

> <Gold.Chemscore.DG>
-21.6187

> <Gold.Chemscore.ZeroCoef>
-5.4800

> <Gold.Chemscore.Hbond>
2.9415

> <Gold.Chemscore.Metal>
0.0000

> <Gold.Chemscore.Lipo>
105.3153

> <Gold.Chemscore.Internal_Hbond>
0.0000

> <Gold.Chemscore.DEClash>
1.2078

> <Gold.Chemscore.DEInternal>
1.2420

> <Gold.Chemscore.Rot>
2.3468

> <Gold.Chemscore.Internal.Correction>
   9.000000E+99

> <Gold.Chemscore.Hbonds>
donor molecule, donor type, donor heavy atom, donor atom, acceptor molecule, acceptor atom, score
      L1  H     7    54       P1  7948  1.00
      L1  H    10    38       P1 10175  0.57
      L1  H    14    55       P1  8028  0.49

> <Gold.Chemscore.Hbond.Weighted>
-9.8245

> <Gold.Chemscore.Metal.Weighted>
-0.0000

> <Gold.Chemscore.Lipo.Weighted>
-12.3219

> <Gold.Chemscore.Internal_Hbond.Weighted>
0.0000

> <Gold.Chemscore.DEClash.Weighted>
1.2078

> <Gold.Chemscore.DEInternal.Weighted>
1.2420

> <Gold.Chemscore.Rot.Weighted>
6.0077

> <Gold.Chemscore.Internal.Correction.Weighted>
   9.000000E+99

> <Gold.Protein.RotatedTorsions>
[ 6907 6896 6895 6894 ] final  114.08 input  -60.11 | X-H torsion
[ 7974 7965 7964 7962 ] final   15.05 input  175.53 | X-H torsion
[ 8008 7997 7996 7995 ] final   27.72 input   59.86 | X-H torsion
[ 10167 10162 10161 10158 ] final  -92.38 input  -65.29 | X-H torsion
[ 10718 10713 10712 10709 ] final  160.46 input   66.30 | X-H torsion
[ 10763 10752 10751 10750 ] final -146.87 input  -60.55 | X-H torsion
[ 11005 11000 10999 10996 ] final -149.62 input  -57.11 | X-H torsion

> <Gold.Protein.ActiveResidues>
 VAL166  LYS551  ARG553  GLY616  TRP617  ASP618  TYR619  PRO620  LYS621  CYS622 
 ASP623  PHE694  ASN695  SER759  ASP760  ASP761  ALA762  ILE779  LEU786  VAL792 
 PHE793  MET794  SER795  GLU796  ALA797  LYS798  CYS799  TRP800  GLU811  SER814 

> <Gold.Protein.RotatedAtoms>
  152.4824  133.8286  159.7091 H   0  0  0  0  0  0  0  0  0  0  0  0  # atno 6907 bound_to 6896
  150.8883  133.7268  159.2918 H   0  0  0  0  0  0  0  0  0  0  0  0  # atno 6908 bound_to 6896
  151.4749  135.1052  159.9814 H   0  0  0  0  0  0  0  0  0  0  0  0  # atno 6909 bound_to 6896
  146.2289  139.8951  142.8548 H   0  0  0  0  0  0  0  0  0  0  0  0  # atno 7974 bound_to 7965
  155.0473  140.3176  155.4704 H   0  0  0  0  0  0  0  0  0  0  0  0  # atno 8008 bound_to 7997
  156.2842  140.2152  156.5542 H   0  0  0  0  0  0  0  0  0  0  0  0  # atno 8009 bound_to 7997
  154.7239  140.0487  157.0653 H   0  0  0  0  0  0  0  0  0  0  0  0  # atno 8010 bound_to 7997
  140.3354  143.2971  151.9895 H   0  0  0  0  0  0  0  0  0  0  0  0  # atno 10167 bound_to 10162
  157.1501  131.0562  151.2284 H   0  0  0  0  0  0  0  0  0  0  0  0  # atno 10718 bound_to 10713
  154.8314  135.3375  154.6729 H   0  0  0  0  0  0  0  0  0  0  0  0  # atno 10763 bound_to 10752
  153.7349  135.6949  153.4985 H   0  0  0  0  0  0  0  0  0  0  0  0  # atno 10764 bound_to 10752
  153.2285  135.4424  155.0521 H   0  0  0  0  0  0  0  0  0  0  0  0  # atno 10765 bound_to 10752
  140.7489  134.3430  157.5130 H   0  0  0  0  0  0  0  0  0  0  0  0  # atno 11005 bound_to 11000
  145.2378  140.9998  143.3953 LP  0  0  0  0  0  0  0  0  0  0  0  0  # atno 17320 bound_to 7965
  144.9476  139.4118  143.6418 LP  0  0  0  0  0  0  0  0  0  0  0  0  # atno 17321 bound_to 7965
  139.4849  144.6201  151.7272 LP  0  0  0  0  0  0  0  0  0  0  0  0  # atno 17342 bound_to 10162
  140.5358  144.0657  150.6070 LP  0  0  0  0  0  0  0  0  0  0  0  0  # atno 17343 bound_to 10162
  157.4229  130.7447  149.6927 LP  0  0  0  0  0  0  0  0  0  0  0  0  # atno 17370 bound_to 10713
  155.9772  130.4066  150.3727 LP  0  0  0  0  0  0  0  0  0  0  0  0  # atno 17371 bound_to 10713
  139.8791  134.9129  156.3071 LP  0  0  0  0  0  0  0  0  0  0  0  0  # atno 17394 bound_to 11000
  140.9769  133.7292  156.0615 LP  0  0  0  0  0  0  0  0  0  0  0  0  # atno 17395 bound_to 11000

$$$$
