AV-unprocessed.smi:3194|AV-procd|sdf|12210|dock9
  -GOLD-   2272018 43D 1   1.00000     0.00000
 Structure written by MMmdl.
 28 28  0  0  0  0  0  0  0  0  1 V2000
  147.6242  142.0492  154.7410 C   0  0  0  0  0  0  0  0  0  0  0  0
  148.7892  141.0450  154.7889 C   0  0  2  0  0  0  0  0  0  0  0  0
  148.4023  139.6250  154.3353 C   0  0  0  0  0  0  0  0  0  0  0  0
  147.9019  139.6168  153.0134 O   0  0  0  0  0  0  0  0  0  0  0  0
  149.3947  140.9938  156.1167 N   0  0  0  0  0  0  0  0  0  0  0  0
  150.5321  140.3552  156.4393 C   0  0  0  0  0  0  0  0  0  0  0  0
  151.2075  139.7304  155.6202 O   0  0  0  0  0  0  0  0  0  0  0  0
  150.9695  140.4226  157.9103 C   0  0  0  0  0  0  0  0  0  0  0  0
  149.9473  140.0418  158.6801 F   0  0  0  0  0  0  0  0  0  0  0  0
  151.9728  139.5644  158.1122 F   0  0  0  0  0  0  0  0  0  0  0  0
  151.4065  141.8407  158.2686 C   0  0  0  0  0  0  0  0  0  0  0  0
  152.0441  142.1166  159.4997 C   0  0  0  0  0  0  0  0  0  0  0  0
  152.4145  143.4446  159.7864 C   0  0  0  0  0  0  0  0  0  0  0  0
  152.1346  144.4469  158.8386 C   0  0  0  0  0  0  0  0  0  0  0  0
  151.4922  144.0752  157.6415 C   0  0  0  0  0  0  0  0  0  0  0  0
  151.1323  142.8055  157.3574 N   0  0  0  0  0  0  0  0  0  0  0  0
  149.5515  141.3919  154.0889 H   0  0  0  0  0  0  0  0  0  0  0  0
  147.1722  142.0752  153.7492 H   0  0  0  0  0  0  0  0  0  0  0  0
  147.9653  143.0587  154.9721 H   0  0  0  0  0  0  0  0  0  0  0  0
  146.8424  141.7944  155.4574 H   0  0  0  0  0  0  0  0  0  0  0  0
  149.2773  138.9752  154.3680 H   0  0  0  0  0  0  0  0  0  0  0  0
  147.6610  139.1900  155.0070 H   0  0  0  0  0  0  0  0  0  0  0  0
  148.6046  139.8460  152.4244 H   0  0  0  0  0  0  0  0  0  0  0  0
  148.9028  141.4780  156.8543 H   0  0  0  0  0  0  0  0  0  0  0  0
  152.2424  141.3316  160.2144 H   0  0  0  0  0  0  0  0  0  0  0  0
  152.9029  143.6900  160.7178 H   0  0  0  0  0  0  0  0  0  0  0  0
  152.4043  145.4759  159.0249 H   0  0  0  0  0  0  0  0  0  0  0  0
  151.2601  144.8178  156.8923 H   0  0  0  0  0  0  0  0  0  0  0  0
  1  2  1  0  0  0  0
  1 18  1  0  0  0  0
  1 19  1  0  0  0  0
  1 20  1  0  0  0  0
  2 17  1  0  0  0  0
  2  3  1  0  0  0  0
  2  5  1  0  0  0  0
  3  4  1  0  0  0  0
  3 21  1  0  0  0  0
  3 22  1  0  0  0  0
  4 23  1  0  0  0  0
  5  6  1  0  0  0  0
  5 24  1  0  0  0  0
  6  7  2  0  0  0  0
  6  8  1  0  0  0  0
  8  9  1  0  0  0  0
  8 10  1  0  0  0  0
  8 11  1  0  0  0  0
 11 16  1  0  0  0  0
 11 12  2  0  0  0  0
 12 13  1  0  0  0  0
 12 25  1  0  0  0  0
 13 14  2  0  0  0  0
 13 26  1  0  0  0  0
 14 15  1  0  0  0  0
 14 27  1  0  0  0  0
 15 16  2  0  0  0  0
 15 28  1  0  0  0  0
M  END
> <s_m_source_file>
AV-unprocessed.smi

> <i_m_source_file_index>
3194

> <i_lp_mmshare_version>
43012

> <i_f3d_flags>
0

> <s_epik_input>
W09IXVtDSDJdW0NASF0oW0NIM10pW05IXUMoPU8pQyhGKShGKWMxW2NIXVtjSF1bY0hdW2NIXW4x

> <s_epik_cmdline>
J2VwaWtfcHl0aG9uJywgJy1waCcsICc3LjAnLCAnLXRuJywgJzgnLCAnLW1hJywgJzIwMCcsICctbWV0YWxfYmluZGluZycsICctaW1hZScsICc8aW5maWxlLm1hZT4nLCAnLW9tYWUnLCAnPG91dGZpbGUubWFlPic=

> <r_lp_tautomer_probability>
1

> <r_epik_Ionization_Penalty>
3.67967e-05

> <r_epik_Ionization_Penalty_Charging>
0

> <r_epik_Ionization_Penalty_Neutral>
3.67967e-05

> <r_epik_State_Penalty>
-0

> <r_epik_Charging_Adjusted_Penalty>
0

> <i_epik_Tot_Q>
0

> <i_epik_Tot_abs_Q>
0

> <r_epik_Metal_State_Penalty>
0.0311521

> <b_epik_Metal_Only>
0

> <s_lp_Force_Field>
OPLS_2005

> <r_lp_Energy>
12.3204

> <b_lp_Chiralities_Consistent>
1

> <s_lp_Variant>
AV-unprocessed.smi:3194-2

> <Gold.Version>
5.8.1

> <Gold.Id.Protein>
6NUR|6NUR_protein|mol2

> <Gold.PLP.Fitness>
40.7295

> <Gold.PLP.PLP>
-33.1571

> <Gold.PLP.part.hbond>
-1.6210

> <Gold.PLP.part.metal>
0.0000

> <Gold.PLP.part.buried>
-2.0039

> <Gold.PLP.part.nonpolar>
-29.6414

> <Gold.PLP.part.repulsive>
0.2156

> <Gold.PLP.ligand.clash>
0.0000

> <Gold.PLP.ligand.torsion>
0.5847

> <Gold.PLP.Chemscore.Hbond>
2.0000

> <Gold.PLP.Chemscore.CHOScore>
0.8987

> <Gold.PLP.Chemscore.Metal>
0.0000

> <Gold.Chemscore.Hbonds>
donor molecule, donor type, donor heavy atom, donor atom, acceptor molecule, acceptor atom, score
      L1  H     4    23       P1  7957  1.00
      L1  C    15    28       P1  8028  0.60

> <Gold.PLP.Chemscore.Internal.Correction>
0.0456

> <Gold.Rescore>
     Score         DG    S(hbond)    S(metal)    S(lipo)     H(rot)  DE(clash)    DE(int)     intcor
     13.04     -14.68       2.00        0.00      76.25       2.50       0.03       1.61       ----

> <Gold.Chemscore.Fitness>
13.0371

> <Gold.Chemscore.DG>
-14.6776

> <Gold.Chemscore.ZeroCoef>
-5.4800

> <Gold.Chemscore.Hbond>
1.9965

> <Gold.Chemscore.Metal>
0.0000

> <Gold.Chemscore.Lipo>
76.2524

> <Gold.Chemscore.Internal_Hbond>
0.0000

> <Gold.Chemscore.DEClash>
0.0283

> <Gold.Chemscore.DEInternal>
1.6122

> <Gold.Chemscore.Rot>
2.4970

> <Gold.Chemscore.Internal.Correction>
   9.000000E+99

> <Gold.Chemscore.Hbonds>
donor molecule, donor type, donor heavy atom, donor atom, acceptor molecule, acceptor atom, score
      L1  H     4    23       P1  7957  0.99
      P1  H  7989  7998       L1     7  0.05

> <Gold.Chemscore.Hbond.Weighted>
-6.6682

> <Gold.Chemscore.Metal.Weighted>
-0.0000

> <Gold.Chemscore.Lipo.Weighted>
-8.9215

> <Gold.Chemscore.Internal_Hbond.Weighted>
0.0000

> <Gold.Chemscore.DEClash.Weighted>
0.0283

> <Gold.Chemscore.DEInternal.Weighted>
1.6122

> <Gold.Chemscore.Rot.Weighted>
6.3922

> <Gold.Chemscore.Internal.Correction.Weighted>
   9.000000E+99

> <Gold.Protein.RotatedTorsions>
[ 6907 6896 6895 6894 ] final -162.59 input  -60.11 | X-H torsion
[ 7974 7965 7964 7962 ] final  153.14 input  175.53 | X-H torsion
[ 8008 7997 7996 7995 ] final   75.97 input   59.86 | X-H torsion
[ 10167 10162 10161 10158 ] final -145.51 input  -65.29 | X-H torsion
[ 10718 10713 10712 10709 ] final -111.42 input   66.30 | X-H torsion
[ 10763 10752 10751 10750 ] final   -4.64 input  -60.55 | X-H torsion
[ 11005 11000 10999 10996 ] final  145.08 input  -57.11 | X-H torsion

> <Gold.Protein.ActiveResidues>
 VAL166  LYS551  ARG553  GLY616  TRP617  ASP618  TYR619  PRO620  LYS621  CYS622 
 ASP623  PHE694  ASN695  SER759  ASP760  ASP761  ALA762  ILE779  LEU786  VAL792 
 PHE793  MET794  SER795  GLU796  ALA797  LYS798  CYS799  TRP800  GLU811  SER814 

> <Gold.Protein.RotatedAtoms>
  151.3826  133.3816  159.2711 H   0  0  0  0  0  0  0  0  0  0  0  0  # atno 6907 bound_to 6896
  150.9566  134.8960  159.7715 H   0  0  0  0  0  0  0  0  0  0  0  0  # atno 6908 bound_to 6896
  152.5133  134.3784  159.9395 H   0  0  0  0  0  0  0  0  0  0  0  0  # atno 6909 bound_to 6896
  144.8175  139.6760  143.6115 H   0  0  0  0  0  0  0  0  0  0  0  0  # atno 7974 bound_to 7965
  155.8206  140.3470  155.5512 H   0  0  0  0  0  0  0  0  0  0  0  0  # atno 8008 bound_to 7997
  155.8346  140.0932  157.1792 H   0  0  0  0  0  0  0  0  0  0  0  0  # atno 8009 bound_to 7997
  154.4004  140.1406  156.3642 H   0  0  0  0  0  0  0  0  0  0  0  0  # atno 8010 bound_to 7997
  139.7799  143.8115  152.2637 H   0  0  0  0  0  0  0  0  0  0  0  0  # atno 10167 bound_to 10162
  156.0646  130.5867  150.8371 H   0  0  0  0  0  0  0  0  0  0  0  0  # atno 10718 bound_to 10713
  153.3876  135.7000  153.6518 H   0  0  0  0  0  0  0  0  0  0  0  0  # atno 10763 bound_to 10752
  153.5104  135.3633  155.2584 H   0  0  0  0  0  0  0  0  0  0  0  0  # atno 10764 bound_to 10752
  154.8699  135.4133  154.3187 H   0  0  0  0  0  0  0  0  0  0  0  0  # atno 10765 bound_to 10752
  140.0683  134.9166  157.1302 H   0  0  0  0  0  0  0  0  0  0  0  0  # atno 11005 bound_to 11000
  146.2479  139.6136  142.9447 LP  0  0  0  0  0  0  0  0  0  0  0  0  # atno 17320 bound_to 7965
  145.5181  141.0433  143.2450 LP  0  0  0  0  0  0  0  0  0  0  0  0  # atno 17321 bound_to 7965
  139.8175  144.7310  150.9616 LP  0  0  0  0  0  0  0  0  0  0  0  0  # atno 17342 bound_to 10162
  140.7818  143.4191  151.0870 LP  0  0  0  0  0  0  0  0  0  0  0  0  # atno 17343 bound_to 10162
  157.5679  131.0946  150.9462 LP  0  0  0  0  0  0  0  0  0  0  0  0  # atno 17370 bound_to 10713
  156.9684  130.5482  149.5289 LP  0  0  0  0  0  0  0  0  0  0  0  0  # atno 17371 bound_to 10713
  140.3665  134.2437  155.7182 LP  0  0  0  0  0  0  0  0  0  0  0  0  # atno 17394 bound_to 11000
  141.2002  133.7994  157.0502 LP  0  0  0  0  0  0  0  0  0  0  0  0  # atno 17395 bound_to 11000

$$$$
