#       Name:                AV-unprocessed.smi:2034
#       Creating user name   scv26
#       Creation time:       Fri Mar 27 10:53:49 2020


#       File generated by GOLD software.
#

@<TRIPOS>MOLECULE
AV-unprocessed.smi:2034
    58    60     1
SMALL
NO_CHARGES


@<TRIPOS>ATOM
      1 ****        -6.4240  -2.2159   1.2333 C.3            1 S1                 0.0000
      2 ****        -5.7081  -1.5382   0.0604 C.3            1 S1                 0.0000
      3 ****        -4.1975  -1.3937   0.3163 C.3            1 S1                 0.0000
      4 ****        -3.5776  -0.6528  -0.7730 N.3            1 S1                 0.0000
      5 ****        -2.1789  -0.6097  -0.7066 C.ar           1 S1                 0.0000
      6 ****        -1.5059  -0.0360   0.3965 C.ar           1 S1                 0.0000
      7 ****        -0.0981  -0.0278   0.4034 C.ar           1 S1                 0.0000
      8 ****         0.5947  -0.6011  -0.6895 C.ar           1 S1                 0.0000
      9 ****         2.0101  -0.6457  -0.8097 N.am           1 S1                 0.0000
     10 ****         2.9390  -0.5340   0.1551 C.2            1 S1                 0.0000
     11 ****         2.7067  -0.3851   1.3545 O.2            1 S1                 0.0000
     12 ****         4.1755  -0.6223  -0.3541 N.am           1 S1                 0.0000
     13 ****         5.4098  -0.5219   0.4162 C.3            1 S1                 0.0000
     14 ****         5.8979   0.9332   0.5048 C.3            1 S1                 0.0000
     15 ****         7.2537   1.0890   1.1886 C.3            1 S1                 0.0000
     16 ****         7.2339   2.5271   1.6809 C.3            1 S1                 0.0000
     17 ****         5.7500   2.9073   1.6636 C.3            1 S1                 0.0000
     18 ****         5.0564   1.7093   1.3430 O.3            1 S1                 0.0000
     19 ****        -0.1734  -1.1305  -1.7470 C.ar           1 S1                 0.0000
     20 ****        -1.5230  -1.1406  -1.7607 N.ar           1 S1                 0.0000
     21 ****        -4.1838   0.6561  -0.9755 C.3            1 S1                 0.0000
     22 ****        -5.7065   0.5266  -1.1815 C.3            1 S1                 0.0000
     23 ****        -6.0946  -0.0155  -2.5687 C.3            1 S1                 0.0000
     24 ****        -6.2832  -0.2437  -0.1228 O.3            1 S1                 0.0000
     25 ****        -6.0246  -3.2144   1.4126 H              1 S1                 0.0000
     26 ****        -7.4910  -2.3160   1.0332 H              1 S1                 0.0000
     27 ****        -6.3099  -1.6392   2.1515 H              1 S1                 0.0000
     28 ****        -5.8729  -2.1430  -0.8318 H              1 S1                 0.0000
     29 ****        -4.0290  -0.8744   1.2607 H              1 S1                 0.0000
     30 ****        -3.7346  -2.3779   0.4008 H              1 S1                 0.0000
     31 ****        -2.0524   0.3963   1.2218 H              1 S1                 0.0000
     32 ****         0.4145   0.4269   1.2365 H              1 S1                 0.0000
     33 ****         2.3576  -0.8390  -1.7375 H              1 S1                 0.0000
     34 ****         4.2715  -0.7514  -1.3505 H              1 S1                 0.0000
     35 ****         5.2868  -0.9521   1.4118 H              1 S1                 0.0000
     36 ****         6.1618  -1.1273  -0.0899 H              1 S1                 0.0000
     37 ****         5.9316   1.3869  -0.4877 H              1 S1                 0.0000
     38 ****         7.3256   0.4125   2.0414 H              1 S1                 0.0000
     39 ****         8.0897   0.8795   0.5207 H              1 S1                 0.0000
     40 ****         7.6649   2.6077   2.6791 H              1 S1                 0.0000
     41 ****         7.8005   3.1797   1.0159 H              1 S1                 0.0000
     42 ****         5.4099   3.3076   2.6188 H              1 S1                 0.0000
     43 ****         5.5544   3.6541   0.8931 H              1 S1                 0.0000
     44 ****         0.3093  -1.5661  -2.6097 H              1 S1                 0.0000
     45 ****        -3.9869   1.2795  -0.1022 H              1 S1                 0.0000
     46 ****        -3.7256   1.1536  -1.8313 H              1 S1                 0.0000
     47 ****        -6.1383   1.5246  -1.1018 H              1 S1                 0.0000
     48 ****        -5.7614   0.6627  -3.3545 H              1 S1                 0.0000
     49 ****        -7.1764  -0.1167  -2.6577 H              1 S1                 0.0000
     50 ****        -5.6491  -0.9889  -2.7724 H              1 S1                 0.0000
     51 ****        -3.7743  -1.1816  -1.5986 LP             1 S1                 0.0000
     52 ****         1.7619  -0.3384   1.6788 LP             1 S1                 0.0000
     53 ****         3.4628  -0.3107   2.0048 LP             1 S1                 0.0000
     54 ****         4.8482   1.2024   2.1795 LP             1 S1                 0.0000
     55 ****         4.2057   1.9263   0.8642 LP             1 S1                 0.0000
     56 ****        -2.0247  -1.5315  -2.5323 LP             1 S1                 0.0000
     57 ****        -6.1739   0.2683   0.7292 LP             1 S1                 0.0000
     58 ****        -7.2568  -0.3611  -0.3186 LP             1 S1                 0.0000
@<TRIPOS>BOND
    1    1    2 1     
    2    1   25 1     
    3    1   26 1     
    4    1   27 1     
    5    2   24 1     
    6    2    3 1     
    7    2   28 1     
    8    3    4 1     
    9    3   29 1     
   10    3   30 1     
   11    4    5 1     
   12    4   21 1     
   13    5   20 ar    
   14    5    6 ar    
   15    6    7 ar    
   16    6   31 1     
   17    7    8 ar    
   18    7   32 1     
   19    8    9 1     
   20    8   19 ar    
   21    9   10 am    
   22    9   33 1     
   23   10   11 2     
   24   10   12 am    
   25   12   13 1     
   26   12   34 1     
   27   13   14 1     
   28   13   35 1     
   29   13   36 1     
   30   14   18 1     
   31   14   15 1     
   32   14   37 1     
   33   15   16 1     
   34   15   38 1     
   35   15   39 1     
   36   16   17 1     
   37   16   40 1     
   38   16   41 1     
   39   17   18 1     
   40   17   42 1     
   41   17   43 1     
   42   19   20 ar    
   43   19   44 1     
   44   21   22 1     
   45   21   45 1     
   46   21   46 1     
   47   22   23 1     
   48   22   24 1     
   49   22   47 1     
   50   23   48 1     
   51   23   49 1     
   52   23   50 1     
   53    4   51 1     
   54   11   52 1     
   55   11   53 1     
   56   18   54 1     
   57   18   55 1     
   58   20   56 1     
   59   24   57 1     
   60   24   58 1     
@<TRIPOS>SUBSTRUCTURE
      1 S1             1
@<TRIPOS>SET
LONE_PAIRS      STATIC     ATOMS    <user>   **** ""
8 51 52 53 54 55 56 57 58
DONOR_HYDROGENS      STATIC     ATOMS    <user>   **** ""
2 33 34
ATOM$BLUE        STATIC     ATOMS    COLORGROUP SYSTEM
8 51 52 53 54 55 56 57 58
ATOM$RED        STATIC     ATOMS    COLORGROUP SYSTEM
2 33 34
