AV-unprocessed.smi:258|AV-procd|sdf|1967|dock5
  -GOLD-   2262021123D 1   1.00000     0.00000
 Structure written by MMmdl.
 57 60  0  0  0  0  0  0  0  0  1 V2000
  143.1661  132.0409  148.9959 O   0  0  0  0  0  0  0  0  0  0  0  0
  144.5001  132.4920  149.0978 C   0  0  0  0  0  0  0  0  0  0  0  0
  144.8323  132.8417  150.5536 C   0  0  0  0  0  0  0  0  0  0  0  0
  144.7048  131.6720  151.3492 O   0  0  0  0  0  0  0  0  0  0  0  0
  145.9188  130.9629  151.5597 C   0  0  2  0  0  0  0  0  0  0  0  0
  145.6707  129.4448  151.6602 C   0  0  0  0  0  0  0  0  0  0  0  0
  146.9725  128.7196  152.0317 C   0  0  0  0  0  0  0  0  0  0  0  0
  147.5767  129.2909  153.3244 C   0  0  0  0  0  0  0  0  0  0  0  0
  147.7359  130.7433  153.2309 N   0  0  0  0  0  0  0  0  0  0  0  0
  148.6173  131.3025  154.1012 C   0  0  0  0  0  0  0  0  0  0  0  0
  149.4680  130.4632  154.7482 N   0  0  0  0  0  0  0  0  0  0  0  0
  150.3688  130.9398  155.6112 C   0  0  0  0  0  0  0  0  0  0  0  0
  150.5893  132.2042  155.9722 N   0  0  0  0  0  0  0  0  0  0  0  0
  149.7392  133.0563  155.3324 C   0  0  0  0  0  0  0  0  0  0  0  0
  148.7313  132.6970  154.3903 C   0  0  0  0  0  0  0  0  0  0  0  0
  148.0627  133.8431  153.9700 N   0  0  0  0  0  0  0  0  0  0  0  0
  148.6455  134.8165  154.6130 C   0  0  0  0  0  0  0  0  0  0  0  0
  149.6691  134.4341  155.4472 N   0  0  0  0  0  0  0  0  0  0  0  0
  150.4816  135.3104  156.2735 C   0  0  0  0  0  0  0  0  0  0  0  0
  149.9093  136.7449  156.3859 C   0  0  1  0  0  0  0  0  0  0  0  0
  149.0096  136.8747  157.6375 C   0  0  0  0  0  0  0  0  0  0  0  0
  149.7728  136.7170  158.8157 O   0  0  0  0  0  0  0  0  0  0  0  0
  151.0143  137.8353  156.2989 C   0  0  2  0  0  0  0  0  0  0  0  0
  150.7195  139.1448  157.0240 C   0  0  0  0  0  0  0  0  0  0  0  0
  151.5163  140.1545  156.2107 C   0  0  0  0  0  0  0  0  0  0  0  0
  151.3148  139.7072  154.8807 O   0  0  0  0  0  0  0  0  0  0  0  0
  151.3878  138.2858  154.8749 C   0  0  0  0  0  0  0  0  0  0  0  0
  146.5325  131.4904  152.8686 C   0  0  0  0  0  0  0  0  0  0  0  0
  142.5977  132.7940  148.9412 H   0  0  0  0  0  0  0  0  0  0  0  0
  145.1473  131.6841  148.7560 H   0  0  0  0  0  0  0  0  0  0  0  0
  144.6683  133.3426  148.4363 H   0  0  0  0  0  0  0  0  0  0  0  0
  145.8248  133.2869  150.6291 H   0  0  0  0  0  0  0  0  0  0  0  0
  144.1170  133.5842  150.9102 H   0  0  0  0  0  0  0  0  0  0  0  0
  146.6174  131.1702  150.7467 H   0  0  0  0  0  0  0  0  0  0  0  0
  144.9096  129.2441  152.4152 H   0  0  0  0  0  0  0  0  0  0  0  0
  145.2910  129.0470  150.7197 H   0  0  0  0  0  0  0  0  0  0  0  0
  146.7870  127.6515  152.1473 H   0  0  0  0  0  0  0  0  0  0  0  0
  147.6918  128.8235  151.2183 H   0  0  0  0  0  0  0  0  0  0  0  0
  146.9248  129.0666  154.1696 H   0  0  0  0  0  0  0  0  0  0  0  0
  148.5262  128.7928  153.5213 H   0  0  0  0  0  0  0  0  0  0  0  0
  151.0049  130.2024  156.0780 H   0  0  0  0  0  0  0  0  0  0  0  0
  148.3460  135.8477  154.4933 H   0  0  0  0  0  0  0  0  0  0  0  0
  150.5580  134.8519  157.2600 H   0  0  0  0  0  0  0  0  0  0  0  0
  151.4945  135.3376  155.8705 H   0  0  0  0  0  0  0  0  0  0  0  0
  149.2676  136.9030  155.5173 H   0  0  0  0  0  0  0  0  0  0  0  0
  148.5154  137.8454  157.6696 H   0  0  0  0  0  0  0  0  0  0  0  0
  148.2255  136.1189  157.6500 H   0  0  0  0  0  0  0  0  0  0  0  0
  150.5438  137.2597  158.7493 H   0  0  0  0  0  0  0  0  0  0  0  0
  151.9337  137.4333  156.7258 H   0  0  0  0  0  0  0  0  0  0  0  0
  149.6629  139.4043  156.9752 H   0  0  0  0  0  0  0  0  0  0  0  0
  151.0120  139.1266  158.0739 H   0  0  0  0  0  0  0  0  0  0  0  0
  151.1684  141.1782  156.3497 H   0  0  0  0  0  0  0  0  0  0  0  0
  152.5779  140.1101  156.4595 H   0  0  0  0  0  0  0  0  0  0  0  0
  152.4067  137.9788  154.6352 H   0  0  0  0  0  0  0  0  0  0  0  0
  150.7377  137.8794  154.1007 H   0  0  0  0  0  0  0  0  0  0  0  0
  146.7692  132.5485  152.7486 H   0  0  0  0  0  0  0  0  0  0  0  0
  145.8058  131.4071  153.6777 H   0  0  0  0  0  0  0  0  0  0  0  0
  1  2  1  0  0  0  0
  1 29  1  0  0  0  0
  2  3  1  0  0  0  0
  2 30  1  0  0  0  0
  2 31  1  0  0  0  0
  3  4  1  0  0  0  0
  3 32  1  0  0  0  0
  3 33  1  0  0  0  0
  4  5  1  0  0  0  0
  5 28  1  0  0  0  0
  5  6  1  0  0  0  0
  5 34  1  0  0  0  0
  6  7  1  0  0  0  0
  6 35  1  0  0  0  0
  6 36  1  0  0  0  0
  7  8  1  0  0  0  0
  7 37  1  0  0  0  0
  7 38  1  0  0  0  0
  8  9  1  0  0  0  0
  8 39  1  0  0  0  0
  8 40  1  0  0  0  0
  9 10  1  0  0  0  0
  9 28  1  0  0  0  0
 10 15  1  0  0  0  0
 10 11  2  0  0  0  0
 11 12  1  0  0  0  0
 12 13  2  0  0  0  0
 12 41  1  0  0  0  0
 13 14  1  0  0  0  0
 14 18  1  0  0  0  0
 14 15  2  0  0  0  0
 15 16  1  0  0  0  0
 16 17  2  0  0  0  0
 17 18  1  0  0  0  0
 17 42  1  0  0  0  0
 18 19  1  0  0  0  0
 19 20  1  0  0  0  0
 19 43  1  0  0  0  0
 19 44  1  0  0  0  0
 20 21  1  0  0  0  0
 20 23  1  0  0  0  0
 20 45  1  0  0  0  0
 21 22  1  0  0  0  0
 21 46  1  0  0  0  0
 21 47  1  0  0  0  0
 22 48  1  0  0  0  0
 23 27  1  0  0  0  0
 23 24  1  0  0  0  0
 23 49  1  0  0  0  0
 24 25  1  0  0  0  0
 24 50  1  0  0  0  0
 24 51  1  0  0  0  0
 25 26  1  0  0  0  0
 25 52  1  0  0  0  0
 25 53  1  0  0  0  0
 26 27  1  0  0  0  0
 27 54  1  0  0  0  0
 27 55  1  0  0  0  0
 28 56  1  0  0  0  0
 28 57  1  0  0  0  0
M  END
> <s_m_source_file>
AV-unprocessed.smi

> <i_m_source_file_index>
258

> <i_lp_mmshare_version>
43012

> <i_f3d_flags>
0

> <s_epik_input>
W09IXVtDSDJdW0NIMl1PW0NAQEhdMVtDSDJdW0NIMl1bQ0gyXU4oW0NIMl0xKWMobltjSF1uMiljKGMyMyluW2NIXW4zW0NIMl1bQ0BIXShbQ0gyXVtPSF0pW0NAQEhdNFtDSDJdW0NIMl1PW0NIMl00

> <s_epik_cmdline>
J2VwaWtfcHl0aG9uJywgJy1waCcsICc3LjAnLCAnLXRuJywgJzgnLCAnLW1hJywgJzIwMCcsICctbWV0YWxfYmluZGluZycsICctaW1hZScsICc8aW5maWxlLm1hZT4nLCAnLW9tYWUnLCAnPG91dGZpbGUubWFlPic=

> <r_lp_tautomer_probability>
1

> <r_epik_Ionization_Penalty>
0.00349036

> <r_epik_Ionization_Penalty_Charging>
0

> <r_epik_Ionization_Penalty_Neutral>
0.00349036

> <r_epik_State_Penalty>
0.00229798

> <r_epik_Charging_Adjusted_Penalty>
0.00229798

> <i_epik_Tot_Q>
0

> <i_epik_Tot_abs_Q>
0

> <r_epik_Metal_State_Penalty>
-0

> <b_epik_Metal_Only>
0

> <s_lp_Force_Field>
OPLS_2005

> <r_lp_Energy>
47.4534

> <b_lp_Chiralities_Consistent>
1

> <s_lp_Variant>
AV-unprocessed.smi:258-3

> <Gold.Version>
5.8.1

> <Gold.Id.Protein>
6NUR|6NUR_protein|mol2

> <Gold.PLP.Fitness>
57.6335

> <Gold.PLP.PLP>
-48.8819

> <Gold.PLP.part.hbond>
-4.9706

> <Gold.PLP.part.metal>
0.0000

> <Gold.PLP.part.buried>
-6.7695

> <Gold.PLP.part.nonpolar>
-36.9719

> <Gold.PLP.part.repulsive>
0.4392

> <Gold.PLP.ligand.clash>
0.0000

> <Gold.PLP.ligand.torsion>
2.2372

> <Gold.PLP.Chemscore.Hbond>
3.8608

> <Gold.PLP.Chemscore.CHOScore>
0.3004

> <Gold.PLP.Chemscore.Metal>
0.0000

> <Gold.Chemscore.Hbonds>
donor molecule, donor type, donor heavy atom, donor atom, acceptor molecule, acceptor atom, score
      L1  H     1    29       P1 10186  0.21
      P1  H  6896  6907       L1    22  0.25
      P1  H  7989  7998       L1    26  1.00
      P1  H 10785 10796       L1     1  1.00
      L1  C    17    42       P1  7948  0.21

> <Gold.PLP.Chemscore.Internal.Correction>
0.7428

> <Gold.Rescore>
     Score         DG    S(hbond)    S(metal)    S(lipo)     H(rot)  DE(clash)    DE(int)     intcor
     13.87     -17.37       3.22        0.00      95.87       3.94       0.35       3.14       ----

> <Gold.Chemscore.Fitness>
13.8734

> <Gold.Chemscore.DG>
-17.3676

> <Gold.Chemscore.ZeroCoef>
-5.4800

> <Gold.Chemscore.Hbond>
3.2174

> <Gold.Chemscore.Metal>
0.0000

> <Gold.Chemscore.Lipo>
95.8685

> <Gold.Chemscore.Internal_Hbond>
0.0000

> <Gold.Chemscore.DEClash>
0.3526

> <Gold.Chemscore.DEInternal>
3.1417

> <Gold.Chemscore.Rot>
3.9356

> <Gold.Chemscore.Internal.Correction>
   9.000000E+99

> <Gold.Chemscore.Hbonds>
donor molecule, donor type, donor heavy atom, donor atom, acceptor molecule, acceptor atom, score
      L1  H     1    29       P1 10186  0.23
      P1  H  6896  6907       L1    22  0.04
      P1  H  7989  7998       L1    26  0.97
      P1  H 10785 10796       L1     1  0.63

> <Gold.Chemscore.Hbond.Weighted>
-10.7461

> <Gold.Chemscore.Metal.Weighted>
-0.0000

> <Gold.Chemscore.Lipo.Weighted>
-11.2166

> <Gold.Chemscore.Internal_Hbond.Weighted>
0.0000

> <Gold.Chemscore.DEClash.Weighted>
0.3526

> <Gold.Chemscore.DEInternal.Weighted>
3.1417

> <Gold.Chemscore.Rot.Weighted>
10.0751

> <Gold.Chemscore.Internal.Correction.Weighted>
   9.000000E+99

> <Gold.Protein.RotatedTorsions>
[ 6907 6896 6895 6894 ] final  -49.43 input  -60.11 | X-H torsion
[ 7974 7965 7964 7962 ] final  -98.02 input  175.53 | X-H torsion
[ 8008 7997 7996 7995 ] final   92.75 input   59.86 | X-H torsion
[ 10167 10162 10161 10158 ] final   99.18 input  -65.29 | X-H torsion
[ 10718 10713 10712 10709 ] final -155.07 input   66.30 | X-H torsion
[ 10763 10752 10751 10750 ] final  -43.30 input  -60.55 | X-H torsion
[ 11005 11000 10999 10996 ] final -120.84 input  -57.11 | X-H torsion

> <Gold.Protein.ActiveResidues>
 VAL166  LYS551  ARG553  GLY616  TRP617  ASP618  TYR619  PRO620  LYS621  CYS622 
 ASP623  PHE694  ASN695  SER759  ASP760  ASP761  ALA762  ILE779  LEU786  VAL792 
 PHE793  MET794  SER795  GLU796  ALA797  LYS798  CYS799  TRP800  GLU811  SER814 

> <Gold.Protein.RotatedAtoms>
  150.8806  134.8196  159.7221 H   0  0  0  0  0  0  0  0  0  0  0  0  # atno 6907 bound_to 6896
  152.4775  134.4802  159.9673 H   0  0  0  0  0  0  0  0  0  0  0  0  # atno 6908 bound_to 6896
  151.4878  133.3493  159.2884 H   0  0  0  0  0  0  0  0  0  0  0  0  # atno 6909 bound_to 6896
  145.3261  140.9432  143.2688 H   0  0  0  0  0  0  0  0  0  0  0  0  # atno 7974 bound_to 7965
  156.0389  140.3321  155.7221 H   0  0  0  0  0  0  0  0  0  0  0  0  # atno 8008 bound_to 7997
  155.5774  140.0633  157.2809 H   0  0  0  0  0  0  0  0  0  0  0  0  # atno 8009 bound_to 7997
  154.4384  140.1850  156.0930 H   0  0  0  0  0  0  0  0  0  0  0  0  # atno 8010 bound_to 7997
  139.7641  144.6945  151.0250 H   0  0  0  0  0  0  0  0  0  0  0  0  # atno 10167 bound_to 10162
  156.5079  130.8421  151.2635 H   0  0  0  0  0  0  0  0  0  0  0  0  # atno 10718 bound_to 10713
  153.9933  135.6702  153.4755 H   0  0  0  0  0  0  0  0  0  0  0  0  # atno 10763 bound_to 10752
  153.0695  135.4982  154.8270 H   0  0  0  0  0  0  0  0  0  0  0  0  # atno 10764 bound_to 10752
  154.7096  135.3095  154.9179 H   0  0  0  0  0  0  0  0  0  0  0  0  # atno 10765 bound_to 10752
  141.0114  134.0259  157.3409 H   0  0  0  0  0  0  0  0  0  0  0  0  # atno 11005 bound_to 11000
  144.8901  139.4786  143.6682 LP  0  0  0  0  0  0  0  0  0  0  0  0  # atno 17320 bound_to 7965
  146.3064  139.7593  142.9053 LP  0  0  0  0  0  0  0  0  0  0  0  0  # atno 17321 bound_to 7965
  140.7809  143.4663  151.0207 LP  0  0  0  0  0  0  0  0  0  0  0  0  # atno 17342 bound_to 10162
  139.8349  143.7642  152.3180 LP  0  0  0  0  0  0  0  0  0  0  0  0  # atno 17343 bound_to 10162
  157.7454  130.9959  150.2762 LP  0  0  0  0  0  0  0  0  0  0  0  0  # atno 17370 bound_to 10713
  156.3269  130.3794  149.7525 LP  0  0  0  0  0  0  0  0  0  0  0  0  # atno 17371 bound_to 10713
  139.9092  135.0186  156.7618 LP  0  0  0  0  0  0  0  0  0  0  0  0  # atno 17394 bound_to 11000
  140.6727  133.9545  155.7866 LP  0  0  0  0  0  0  0  0  0  0  0  0  # atno 17395 bound_to 11000

$$$$
