AV-unprocessed.smi:772|AV-procd|sdf|3686|dock8
  -GOLD-   22720 1103D 1   1.00000     0.00000
 Structure written by MMmdl.
 46 47  0  0  0  0  0  0  0  0  1 V2000
  146.4726  137.4794  151.9069 C   0  0  0  0  0  0  0  0  0  0  0  0
  147.0484  138.6586  152.6628 C   0  0  0  0  0  0  0  0  0  0  0  0
  146.5533  139.9632  152.4552 C   0  0  0  0  0  0  0  0  0  0  0  0
  147.1273  141.0217  153.1847 C   0  0  0  0  0  0  0  0  0  0  0  0
  148.1712  140.7373  154.0892 C   0  0  0  0  0  0  0  0  0  0  0  0
  148.8410  141.8437  154.8850 C   0  0  0  0  0  0  0  0  0  0  0  0
  148.9256  141.5514  156.3945 C   0  0  0  0  0  0  0  0  0  0  0  0
  149.8751  142.4315  157.0711 N   0  0  0  0  0  0  0  0  0  0  0  0
  151.1251  142.1046  157.4444 C   0  0  0  0  0  0  0  0  0  0  0  0
  151.5884  140.9765  157.2715 O   0  0  0  0  0  0  0  0  0  0  0  0
  151.8340  143.1186  158.0028 N   0  0  0  0  0  0  0  0  0  0  0  0
  151.3955  144.5183  158.1234 C   0  0  0  0  0  0  0  0  0  0  0  0
  150.8204  144.7402  159.5304 C   0  0  0  0  0  0  0  0  0  0  0  0
  152.0935  144.4716  160.8023 S   0  0  0  0  0  0  0  0  0  0  0  0
  152.7488  142.8490  160.2710 C   0  0  2  0  0  0  0  0  0  0  0  0
  153.9497  142.3877  161.1351 C   0  0  0  0  0  0  0  0  0  0  0  0
  154.4227  140.9739  160.7563 C   0  0  0  0  0  0  0  0  0  0  0  0
  153.7070  142.4968  162.6522 C   0  0  0  0  0  0  0  0  0  0  0  0
  153.0674  142.8702  158.7591 C   0  0  0  0  0  0  0  0  0  0  0  0
  148.5914  139.3972  154.2232 C   0  0  0  0  0  0  0  0  0  0  0  0
  148.0459  138.3756  153.5291 N   0  0  0  0  0  0  0  0  0  0  0  0
  145.6849  137.7944  151.2220 H   0  0  0  0  0  0  0  0  0  0  0  0
  146.0486  136.7540  152.6017 H   0  0  0  0  0  0  0  0  0  0  0  0
  147.2512  136.9853  151.3252 H   0  0  0  0  0  0  0  0  0  0  0  0
  145.7544  140.1516  151.7532 H   0  0  0  0  0  0  0  0  0  0  0  0
  146.7768  142.0337  153.0442 H   0  0  0  0  0  0  0  0  0  0  0  0
  149.8429  142.0115  154.4876 H   0  0  0  0  0  0  0  0  0  0  0  0
  148.2921  142.7720  154.7221 H   0  0  0  0  0  0  0  0  0  0  0  0
  147.9455  141.6952  156.8493 H   0  0  0  0  0  0  0  0  0  0  0  0
  149.1827  140.5034  156.5580 H   0  0  0  0  0  0  0  0  0  0  0  0
  149.5680  143.3769  157.2468 H   0  0  0  0  0  0  0  0  0  0  0  0
  152.2403  145.1886  157.9575 H   0  0  0  0  0  0  0  0  0  0  0  0
  150.6613  144.8047  157.3702 H   0  0  0  0  0  0  0  0  0  0  0  0
  150.4372  145.7558  159.6293 H   0  0  0  0  0  0  0  0  0  0  0  0
  149.9850  144.0632  159.7128 H   0  0  0  0  0  0  0  0  0  0  0  0
  151.9445  142.1273  160.4232 H   0  0  0  0  0  0  0  0  0  0  0  0
  154.7796  143.0561  160.9014 H   0  0  0  0  0  0  0  0  0  0  0  0
  153.6707  140.2201  160.9902 H   0  0  0  0  0  0  0  0  0  0  0  0
  155.3318  140.7080  161.2963 H   0  0  0  0  0  0  0  0  0  0  0  0
  154.6444  140.9043  159.6912 H   0  0  0  0  0  0  0  0  0  0  0  0
  152.8979  141.8451  162.9815 H   0  0  0  0  0  0  0  0  0  0  0  0
  153.4587  143.5149  162.9499 H   0  0  0  0  0  0  0  0  0  0  0  0
  154.6004  142.2110  163.2078 H   0  0  0  0  0  0  0  0  0  0  0  0
  153.5395  141.9330  158.4597 H   0  0  0  0  0  0  0  0  0  0  0  0
  153.7996  143.6449  158.5291 H   0  0  0  0  0  0  0  0  0  0  0  0
  149.3914  139.1383  154.9012 H   0  0  0  0  0  0  0  0  0  0  0  0
  1  2  1  0  0  0  0
  1 22  1  0  0  0  0
  1 23  1  0  0  0  0
  1 24  1  0  0  0  0
  2 21  1  0  0  0  0
  2  3  2  0  0  0  0
  3  4  1  0  0  0  0
  3 25  1  0  0  0  0
  4  5  2  0  0  0  0
  4 26  1  0  0  0  0
  5  6  1  0  0  0  0
  5 20  1  0  0  0  0
  6  7  1  0  0  0  0
  6 27  1  0  0  0  0
  6 28  1  0  0  0  0
  7  8  1  0  0  0  0
  7 29  1  0  0  0  0
  7 30  1  0  0  0  0
  8  9  1  0  0  0  0
  8 31  1  0  0  0  0
  9 10  2  0  0  0  0
  9 11  1  0  0  0  0
 11 19  1  0  0  0  0
 11 12  1  0  0  0  0
 12 13  1  0  0  0  0
 12 32  1  0  0  0  0
 12 33  1  0  0  0  0
 13 14  1  0  0  0  0
 13 34  1  0  0  0  0
 13 35  1  0  0  0  0
 14 15  1  0  0  0  0
 15 16  1  0  0  0  0
 15 19  1  0  0  0  0
 15 36  1  0  0  0  0
 16 17  1  0  0  0  0
 16 18  1  0  0  0  0
 16 37  1  0  0  0  0
 17 38  1  0  0  0  0
 17 39  1  0  0  0  0
 17 40  1  0  0  0  0
 18 41  1  0  0  0  0
 18 42  1  0  0  0  0
 18 43  1  0  0  0  0
 19 44  1  0  0  0  0
 19 45  1  0  0  0  0
 20 21  2  0  0  0  0
 20 46  1  0  0  0  0
M  END
> <s_m_source_file>
AV-unprocessed.smi

> <i_m_source_file_index>
772

> <i_lp_mmshare_version>
43012

> <i_f3d_flags>
0

> <s_epik_input>
W0NIM11jMVtjSF1bY0hdYyhbY0hdbjEpW0NIMl1bQ0gyXVtOSF1DKD1PKU4yW0NIMl1bQ0gyXVNbQ0BIXShbQ0gyXTIpW0NIXShbQ0gzXSlbQ0gzXQ==

> <s_epik_cmdline>
J2VwaWtfcHl0aG9uJywgJy1waCcsICc3LjAnLCAnLXRuJywgJzgnLCAnLW1hJywgJzIwMCcsICctbWV0YWxfYmluZGluZycsICctaW1hZScsICc8aW5maWxlLm1hZT4nLCAnLW9tYWUnLCAnPG91dGZpbGUubWFlPic=

> <r_epik_Ionization_Penalty>
0.0566916

> <r_epik_Ionization_Penalty_Charging>
0

> <r_epik_Ionization_Penalty_Neutral>
0.0566916

> <r_epik_State_Penalty>
0.0488669

> <r_epik_Charging_Adjusted_Penalty>
0.0488669

> <i_epik_Tot_Q>
0

> <i_epik_Tot_abs_Q>
0

> <r_epik_Metal_State_Penalty>
0.0445784

> <b_epik_Metal_Only>
0

> <s_lp_Force_Field>
OPLS_2005

> <r_lp_Energy>
25.5588

> <b_lp_Chiralities_Consistent>
1

> <s_lp_Variant>
AV-unprocessed.smi:772-2

> <Gold.Version>
5.8.1

> <Gold.Id.Protein>
6NUR|6NUR_protein|mol2

> <Gold.PLP.Fitness>
49.1507

> <Gold.PLP.PLP>
-48.0001

> <Gold.PLP.part.hbond>
-1.0000

> <Gold.PLP.part.metal>
0.0000

> <Gold.PLP.part.buried>
0.4792

> <Gold.PLP.part.nonpolar>
-48.9535

> <Gold.PLP.part.repulsive>
0.5039

> <Gold.PLP.ligand.clash>
0.0000

> <Gold.PLP.ligand.torsion>
0.3805

> <Gold.PLP.Chemscore.Hbond>
0.6080

> <Gold.PLP.Chemscore.CHOScore>
0.0000

> <Gold.PLP.Chemscore.Metal>
0.0000

> <Gold.Chemscore.Hbonds>
donor molecule, donor type, donor heavy atom, donor atom, acceptor molecule, acceptor atom, score
      L1  H     8    31       P1  8028  0.30

> <Gold.PLP.Chemscore.Internal.Correction>
0.0875

> <Gold.Rescore>
     Score         DG    S(hbond)    S(metal)    S(lipo)     H(rot)  DE(clash)    DE(int)     intcor
     20.04     -21.27       0.70        0.00     144.03       1.32       0.80       0.44       ----

> <Gold.Chemscore.Fitness>
20.0358

> <Gold.Chemscore.DG>
-21.2709

> <Gold.Chemscore.ZeroCoef>
-5.4800

> <Gold.Chemscore.Hbond>
0.6966

> <Gold.Chemscore.Metal>
0.0000

> <Gold.Chemscore.Lipo>
144.0341

> <Gold.Chemscore.Internal_Hbond>
0.0000

> <Gold.Chemscore.DEClash>
0.7954

> <Gold.Chemscore.DEInternal>
0.4396

> <Gold.Chemscore.Rot>
1.3233

> <Gold.Chemscore.Internal.Correction>
   9.000000E+99

> <Gold.Chemscore.Hbonds>
donor molecule, donor type, donor heavy atom, donor atom, acceptor molecule, acceptor atom, score
      L1  H     8    31       P1  8028  0.27

> <Gold.Chemscore.Hbond.Weighted>
-2.3265

> <Gold.Chemscore.Metal.Weighted>
-0.0000

> <Gold.Chemscore.Lipo.Weighted>
-16.8520

> <Gold.Chemscore.Internal_Hbond.Weighted>
0.0000

> <Gold.Chemscore.DEClash.Weighted>
0.7954

> <Gold.Chemscore.DEInternal.Weighted>
0.4396

> <Gold.Chemscore.Rot.Weighted>
3.3876

> <Gold.Chemscore.Internal.Correction.Weighted>
   9.000000E+99

> <Gold.Protein.RotatedTorsions>
[ 6907 6896 6895 6894 ] final -148.40 input  -60.11 | X-H torsion
[ 7974 7965 7964 7962 ] final -143.33 input  175.53 | X-H torsion
[ 8008 7997 7996 7995 ] final  152.51 input   59.86 | X-H torsion
[ 10167 10162 10161 10158 ] final  131.17 input  -65.29 | X-H torsion
[ 10718 10713 10712 10709 ] final  -57.34 input   66.30 | X-H torsion
[ 10763 10752 10751 10750 ] final  -53.62 input  -60.55 | X-H torsion
[ 11005 11000 10999 10996 ] final  -11.40 input  -57.11 | X-H torsion

> <Gold.Protein.ActiveResidues>
 VAL166  LYS551  ARG553  GLY616  TRP617  ASP618  TYR619  PRO620  LYS621  CYS622 
 ASP623  PHE694  ASN695  SER759  ASP760  ASP761  ALA762  ILE779  LEU786  VAL792 
 PHE793  MET794  SER795  GLU796  ALA797  LYS798  CYS799  TRP800  GLU811  SER814 

> <Gold.Protein.RotatedAtoms>
  151.1692  133.4795  159.2593 H   0  0  0  0  0  0  0  0  0  0  0  0  # atno 6907 bound_to 6896
  151.1373  135.0161  159.8620 H   0  0  0  0  0  0  0  0  0  0  0  0  # atno 6908 bound_to 6896
  152.5461  134.1589  159.8603 H   0  0  0  0  0  0  0  0  0  0  0  0  # atno 6909 bound_to 6896
  144.8378  140.5848  143.5472 H   0  0  0  0  0  0  0  0  0  0  0  0  # atno 7974 bound_to 7965
  156.2625  140.2019  156.6344 H   0  0  0  0  0  0  0  0  0  0  0  0  # atno 8008 bound_to 7997
  154.6657  140.0555  157.0136 H   0  0  0  0  0  0  0  0  0  0  0  0  # atno 8009 bound_to 7997
  155.1210  140.3224  155.4500 H   0  0  0  0  0  0  0  0  0  0  0  0  # atno 8010 bound_to 7997
  139.5396  144.6717  151.4669 H   0  0  0  0  0  0  0  0  0  0  0  0  # atno 10167 bound_to 10162
  156.1219  130.4165  150.0427 H   0  0  0  0  0  0  0  0  0  0  0  0  # atno 10718 bound_to 10713
  154.1618  135.6473  153.4988 H   0  0  0  0  0  0  0  0  0  0  0  0  # atno 10763 bound_to 10752
  153.0108  135.5362  154.6703 H   0  0  0  0  0  0  0  0  0  0  0  0  # atno 10764 bound_to 10752
  154.6018  135.2944  155.0498 H   0  0  0  0  0  0  0  0  0  0  0  0  # atno 10765 bound_to 10752
  140.7549  133.8562  155.9076 H   0  0  0  0  0  0  0  0  0  0  0  0  # atno 11005 bound_to 11000
  145.4758  139.1499  143.3789 LP  0  0  0  0  0  0  0  0  0  0  0  0  # atno 17320 bound_to 7965
  146.2674  140.4893  142.8828 LP  0  0  0  0  0  0  0  0  0  0  0  0  # atno 17321 bound_to 7965
  140.6620  143.8478  150.6898 LP  0  0  0  0  0  0  0  0  0  0  0  0  # atno 17342 bound_to 10162
  140.1876  143.4063  152.1887 LP  0  0  0  0  0  0  0  0  0  0  0  0  # atno 17343 bound_to 10162
  156.8363  130.9410  151.3634 LP  0  0  0  0  0  0  0  0  0  0  0  0  # atno 17370 bound_to 10713
  157.6402  130.8799  149.9433 LP  0  0  0  0  0  0  0  0  0  0  0  0  # atno 17371 bound_to 10713
  140.9717  134.1523  157.4571 LP  0  0  0  0  0  0  0  0  0  0  0  0  # atno 17394 bound_to 11000
  139.8781  134.9980  156.5880 LP  0  0  0  0  0  0  0  0  0  0  0  0  # atno 17395 bound_to 11000

$$$$
