AV-unprocessed.smi:2697|AV-procd|sdf|10415|dock9
  -GOLD-   2272014453D 1   1.00000     0.00000
 Structure written by MMmdl.
 32 33  0  0  0  0  0  0  0  0  2 V2000
  151.9601  137.7839  154.2734 C   0  0  0  0  0  0  0  0  0  0  0  0
  151.0326  138.8744  154.4853 N   0  0  0  0  0  0  0  0  0  0  0  0
  149.8008  139.0774  153.9003 C   0  0  0  0  0  0  0  0  0  0  0  0
  149.3251  140.2383  154.4364 C   0  0  0  0  0  0  0  0  0  0  0  0
  147.9858  140.8538  154.1601 C   0  0  0  0  0  0  0  0  0  0  0  0
  147.5035  140.6574  152.9302 N   0  0  0  0  0  0  0  0  0  0  0  0
  147.3967  141.5240  155.0052 O   0  0  0  0  0  0  0  0  0  0  0  0
  150.3192  140.6943  155.3523 C   0  0  0  0  0  0  0  0  0  0  0  0
  150.3421  141.9135  156.2465 C   0  0  2  0  0  0  0  0  0  0  0  0
  151.6625  142.0346  157.0327 C   0  0  0  0  0  0  0  0  0  0  0  0
  151.6374  143.2813  157.9309 C   0  0  0  0  0  0  0  0  0  0  0  0
  150.3996  143.2774  158.8441 C   0  0  0  0  0  0  0  0  0  0  0  0
  149.1592  143.1587  158.0466 N   0  3  0  0  0  0  0  0  0  0  0  0
  149.1296  141.9469  157.1983 C   0  0  0  0  0  0  0  0  0  0  0  0
  151.3458  139.8504  155.3701 N   0  0  0  0  0  0  0  0  0  0  0  0
  151.6424  137.1825  153.4211 H   0  0  0  0  0  0  0  0  0  0  0  0
  151.9923  137.1518  155.1611 H   0  0  0  0  0  0  0  0  0  0  0  0
  152.9581  138.1769  154.0762 H   0  0  0  0  0  0  0  0  0  0  0  0
  149.3785  138.3909  153.1810 H   0  0  0  0  0  0  0  0  0  0  0  0
  146.6060  141.0409  152.6720 H   0  0  0  0  0  0  0  0  0  0  0  0
  148.0391  140.1230  152.2613 H   0  0  0  0  0  0  0  0  0  0  0  0
  150.2807  142.8047  155.6238 H   0  0  0  0  0  0  0  0  0  0  0  0
  151.8165  141.1488  157.6505 H   0  0  0  0  0  0  0  0  0  0  0  0
  152.5079  142.0874  156.3458 H   0  0  0  0  0  0  0  0  0  0  0  0
  152.5456  143.3251  158.5331 H   0  0  0  0  0  0  0  0  0  0  0  0
  151.6335  144.1792  157.3115 H   0  0  0  0  0  0  0  0  0  0  0  0
  150.4516  142.4494  159.5522 H   0  0  0  0  0  0  0  0  0  0  0  0
  150.3588  144.1961  159.4294 H   0  0  0  0  0  0  0  0  0  0  0  0
  148.3661  143.1401  158.6719 H   0  0  0  0  0  0  0  0  0  0  0  0
  148.2001  141.9400  156.6285 H   0  0  0  0  0  0  0  0  0  0  0  0
  149.1176  141.0650  157.8404 H   0  0  0  0  0  0  0  0  0  0  0  0
  149.0836  143.9693  157.4484 H   0  0  0  0  0  0  0  0  0  0  0  0
  1  2  1  0  0  0  0
  1 16  1  0  0  0  0
  1 17  1  0  0  0  0
  1 18  1  0  0  0  0
  2 15  1  0  0  0  0
  2  3  1  0  0  0  0
  3  4  2  0  0  0  0
  3 19  1  0  0  0  0
  4  5  1  0  0  0  0
  4  8  1  0  0  0  0
  5  6  1  0  0  0  0
  5  7  2  0  0  0  0
  6 20  1  0  0  0  0
  6 21  1  0  0  0  0
  8  9  1  0  0  0  0
  8 15  2  0  0  0  0
  9 14  1  0  0  0  0
  9 10  1  0  0  0  0
  9 22  1  0  0  0  0
 10 11  1  0  0  0  0
 10 23  1  0  0  0  0
 10 24  1  0  0  0  0
 11 12  1  0  0  0  0
 11 25  1  0  0  0  0
 11 26  1  0  0  0  0
 12 13  1  0  0  0  0
 12 27  1  0  0  0  0
 12 28  1  0  0  0  0
 13 14  1  0  0  0  0
 13 29  1  0  0  0  0
 13 32  1  0  0  0  0
 14 30  1  0  0  0  0
 14 31  1  0  0  0  0
M  CHG  1  13   1
M  END
> <s_m_source_file>
AV-unprocessed.smi

> <i_m_source_file_index>
2697

> <i_lp_mmshare_version>
43012

> <i_f3d_flags>
0

> <s_epik_input>
W0NIM11uMVtjSF1jKEMoPU8pW05IMl0pYyhuMSlbQ0BASF0yW0NIMl1bQ0gyXVtDSDJdW05IXVtDSDJdMg==

> <s_epik_cmdline>
J2VwaWtfcHl0aG9uJywgJy1waCcsICc3LjAnLCAnLXRuJywgJzgnLCAnLW1hJywgJzIwMCcsICctbWV0YWxfYmluZGluZycsICctaW1hZScsICc8aW5maWxlLm1hZT4nLCAnLW9tYWUnLCAnPG91dGZpbGUubWFlPic=

> <r_lp_tautomer_probability>
1

> <r_epik_Ionization_Penalty>
0.000158942

> <r_epik_Ionization_Penalty_Charging>
0.000157527

> <r_epik_Ionization_Penalty_Neutral>
1.41498e-06

> <r_epik_State_Penalty>
-0

> <r_epik_Charging_Adjusted_Penalty>
0.000157527

> <i_epik_Tot_Q>
1

> <i_epik_Tot_abs_Q>
1

> <r_epik_Metal_State_Penalty>
-0

> <b_epik_Metal_Only>
0

> <s_lp_Force_Field>
OPLS_2005

> <r_lp_Energy>
9.94433

> <b_lp_Chiralities_Consistent>
1

> <s_lp_Variant>
AV-unprocessed.smi:2697-1

> <Gold.Version>
5.8.1

> <Gold.Id.Protein>
6NUR|6NUR_protein|mol2

> <Gold.PLP.Fitness>
36.1375

> <Gold.PLP.PLP>
-25.5851

> <Gold.PLP.part.hbond>
-3.4456

> <Gold.PLP.part.metal>
0.0000

> <Gold.PLP.part.buried>
2.2852

> <Gold.PLP.part.nonpolar>
-23.0492

> <Gold.PLP.part.repulsive>
0.2999

> <Gold.PLP.ligand.clash>
0.0000

> <Gold.PLP.ligand.torsion>
0.3841

> <Gold.PLP.Chemscore.Hbond>
2.4760

> <Gold.PLP.Chemscore.CHOScore>
1.2863

> <Gold.PLP.Chemscore.Metal>
0.0000

> <Gold.Chemscore.Hbonds>
donor molecule, donor type, donor heavy atom, donor atom, acceptor molecule, acceptor atom, score
      L1  H     6    21       P1  7957  0.94
      L1  H    13    32       P1  8028  1.40
      L1  C     3    19       P1  7948  1.00
      L1  C     3    19       P1  7957  0.25

> <Gold.PLP.Chemscore.Internal.Correction>
0.0335

> <Gold.Rescore>
     Score         DG    S(hbond)    S(metal)    S(lipo)     H(rot)  DE(clash)    DE(int)     intcor
     12.26     -14.03       0.98        0.00      66.88       1.00       0.05       1.72       ----

> <Gold.Chemscore.Fitness>
12.2577

> <Gold.Chemscore.DG>
-14.0324

> <Gold.Chemscore.ZeroCoef>
-5.4800

> <Gold.Chemscore.Hbond>
0.9842

> <Gold.Chemscore.Metal>
0.0000

> <Gold.Chemscore.Lipo>
66.8826

> <Gold.Chemscore.Internal_Hbond>
0.0000

> <Gold.Chemscore.DEClash>
0.0515

> <Gold.Chemscore.DEInternal>
1.7232

> <Gold.Chemscore.Rot>
1.0000

> <Gold.Chemscore.Internal.Correction>
   9.000000E+99

> <Gold.Chemscore.Hbonds>
donor molecule, donor type, donor heavy atom, donor atom, acceptor molecule, acceptor atom, score
      L1  H     6    21       P1  7957  0.91
      L1  H    13    32       P1  8028  0.07

> <Gold.Chemscore.Hbond.Weighted>
-3.2871

> <Gold.Chemscore.Metal.Weighted>
-0.0000

> <Gold.Chemscore.Lipo.Weighted>
-7.8253

> <Gold.Chemscore.Internal_Hbond.Weighted>
0.0000

> <Gold.Chemscore.DEClash.Weighted>
0.0515

> <Gold.Chemscore.DEInternal.Weighted>
1.7232

> <Gold.Chemscore.Rot.Weighted>
2.5600

> <Gold.Chemscore.Internal.Correction.Weighted>
   9.000000E+99

> <Gold.Protein.RotatedTorsions>
[ 6907 6896 6895 6894 ] final   -9.83 input  -60.11 | X-H torsion
[ 7974 7965 7964 7962 ] final   71.16 input  175.53 | X-H torsion
[ 8008 7997 7996 7995 ] final   57.55 input   59.86 | X-H torsion
[ 10167 10162 10161 10158 ] final  122.85 input  -65.29 | X-H torsion
[ 10718 10713 10712 10709 ] final  -80.81 input   66.30 | X-H torsion
[ 10763 10752 10751 10750 ] final -107.93 input  -60.55 | X-H torsion
[ 11005 11000 10999 10996 ] final  136.56 input  -57.11 | X-H torsion

> <Gold.Protein.ActiveResidues>
 VAL166  LYS551  ARG553  GLY616  TRP617  ASP618  TYR619  PRO620  LYS621  CYS622 
 ASP623  PHE694  ASN695  SER759  ASP760  ASP761  ALA762  ILE779  LEU786  VAL792 
 PHE793  MET794  SER795  GLU796  ALA797  LYS798  CYS799  TRP800  GLU811  SER814 

> <Gold.Protein.RotatedAtoms>
  151.4116  135.0986  159.9586 H   0  0  0  0  0  0  0  0  0  0  0  0  # atno 6907 bound_to 6896
  152.5018  133.8792  159.7348 H   0  0  0  0  0  0  0  0  0  0  0  0  # atno 6908 bound_to 6896
  150.9288  133.6734  159.2843 H   0  0  0  0  0  0  0  0  0  0  0  0  # atno 6909 bound_to 6896
  145.7693  139.2836  143.1330 H   0  0  0  0  0  0  0  0  0  0  0  0  # atno 7974 bound_to 7965
  155.5356  140.3483  155.4435 H   0  0  0  0  0  0  0  0  0  0  0  0  # atno 8008 bound_to 7997
  156.0687  140.1358  156.9881 H   0  0  0  0  0  0  0  0  0  0  0  0  # atno 8009 bound_to 7997
  154.4517  140.0970  156.6612 H   0  0  0  0  0  0  0  0  0  0  0  0  # atno 8010 bound_to 7997
  139.5834  144.6996  151.3471 H   0  0  0  0  0  0  0  0  0  0  0  0  # atno 10167 bound_to 10162
  156.0062  130.4585  150.3857 H   0  0  0  0  0  0  0  0  0  0  0  0  # atno 10718 bound_to 10713
  154.8105  135.4656  154.0504 H   0  0  0  0  0  0  0  0  0  0  0  0  # atno 10763 bound_to 10752
  153.1939  135.6859  153.8324 H   0  0  0  0  0  0  0  0  0  0  0  0  # atno 10764 bound_to 10752
  153.7832  135.3253  155.3346 H   0  0  0  0  0  0  0  0  0  0  0  0  # atno 10765 bound_to 10752
  140.0054  134.9461  157.0163 H   0  0  0  0  0  0  0  0  0  0  0  0  # atno 11005 bound_to 11000
  146.0186  140.8369  142.9935 LP  0  0  0  0  0  0  0  0  0  0  0  0  # atno 17320 bound_to 7965
  144.6815  140.2595  143.7321 LP  0  0  0  0  0  0  0  0  0  0  0  0  # atno 17321 bound_to 7965
  140.7109  143.7392  150.7565 LP  0  0  0  0  0  0  0  0  0  0  0  0  # atno 17342 bound_to 10162
  140.0931  143.4859  152.2468 LP  0  0  0  0  0  0  0  0  0  0  0  0  # atno 17343 bound_to 10162
  157.1935  131.0421  151.2688 LP  0  0  0  0  0  0  0  0  0  0  0  0  # atno 17370 bound_to 10713
  157.4040  130.7349  149.6788 LP  0  0  0  0  0  0  0  0  0  0  0  0  # atno 17371 bound_to 10713
  140.4651  134.1444  155.7196 LP  0  0  0  0  0  0  0  0  0  0  0  0  # atno 17394 bound_to 11000
  141.1673  133.8678  157.1677 LP  0  0  0  0  0  0  0  0  0  0  0  0  # atno 17395 bound_to 11000

$$$$
