AV-unprocessed.smi:1591|AV-procd|sdf|6398|dock2
  -GOLD-   22720 7 33D 1   1.00000     0.00000
 Structure written by MMmdl.
 52 55  0  0  0  0  0  0  0  0  1 V2000
  147.9684  131.9174  157.4778 C   0  0  0  0  0  0  0  0  0  0  0  0
  147.2342  132.6394  158.6181 C   0  0  0  0  0  0  0  0  0  0  0  0
  147.9393  133.9297  159.1071 C   0  0  1  0  0  0  0  0  0  0  0  0
  147.9940  134.8959  158.0101 N   0  0  0  0  0  0  0  0  0  0  0  0
  149.0884  135.3710  157.3920 C   0  0  0  0  0  0  0  0  0  0  0  0
  150.2260  134.9692  157.6321 O   0  0  0  0  0  0  0  0  0  0  0  0
  148.8820  136.4863  156.3524 C   0  0  0  0  0  0  0  0  0  0  0  0
  150.1001  137.2608  156.0562 N   0  0  0  0  0  0  0  0  0  0  0  0
  150.6198  137.2829  154.7696 C   0  0  0  0  0  0  0  0  0  0  0  0
  151.7027  138.0149  154.4154 C   0  0  0  0  0  0  0  0  0  0  0  0
  152.3918  138.8398  155.4022 C   0  0  0  0  0  0  0  0  0  0  0  0
  153.3757  139.5409  155.1779 O   0  0  0  0  0  0  0  0  0  0  0  0
  151.8417  138.7881  156.6857 N   0  0  0  0  0  0  0  0  0  0  0  0
  150.7283  138.0340  157.0581 C   0  0  0  0  0  0  0  0  0  0  0  0
  150.3202  138.0677  158.2181 O   0  0  0  0  0  0  0  0  0  0  0  0
  147.3021  134.6064  160.3669 C   0  0  0  0  0  0  0  0  0  0  0  0
  148.0749  135.9196  160.6973 C   0  0  0  0  0  0  0  0  0  0  0  0
  147.4824  136.6186  161.9373 C   0  0  1  0  0  0  0  0  0  0  0  0
  146.0039  136.9681  161.6721 C   0  0  0  0  0  0  0  0  0  0  0  0
  145.2204  135.6703  161.3894 C   0  0  2  0  0  0  0  0  0  0  0  0
  145.3221  134.7272  162.6060 C   0  0  0  0  0  0  0  0  0  0  0  0
  146.8049  134.3872  162.8623 C   0  0  2  0  0  0  0  0  0  0  0  0
  147.5897  135.6808  163.1549 C   0  0  0  0  0  0  0  0  0  0  0  0
  147.3947  133.6868  161.6187 C   0  0  0  0  0  0  0  0  0  0  0  0
  145.8045  134.9739  160.1420 C   0  0  0  0  0  0  0  0  0  0  0  0
  152.2855  139.3432  157.4029 H   0  0  0  0  0  0  0  0  0  0  0  0
  147.4718  130.9783  157.2334 H   0  0  0  0  0  0  0  0  0  0  0  0
  148.9964  131.6858  157.7571 H   0  0  0  0  0  0  0  0  0  0  0  0
  147.9937  132.5178  156.5683 H   0  0  0  0  0  0  0  0  0  0  0  0
  146.2180  132.8613  158.2929 H   0  0  0  0  0  0  0  0  0  0  0  0
  147.1453  131.9299  159.4392 H   0  0  0  0  0  0  0  0  0  0  0  0
  148.9564  133.6435  159.3808 H   0  0  0  0  0  0  0  0  0  0  0  0
  147.1082  135.2921  157.7310 H   0  0  0  0  0  0  0  0  0  0  0  0
  148.4770  136.0490  155.4378 H   0  0  0  0  0  0  0  0  0  0  0  0
  148.0991  137.1496  156.7227 H   0  0  0  0  0  0  0  0  0  0  0  0
  150.1350  136.6945  154.0035 H   0  0  0  0  0  0  0  0  0  0  0  0
  152.0581  137.9939  153.3953 H   0  0  0  0  0  0  0  0  0  0  0  0
  149.1304  135.7023  160.8662 H   0  0  0  0  0  0  0  0  0  0  0  0
  148.0428  136.6156  159.8598 H   0  0  0  0  0  0  0  0  0  0  0  0
  148.0397  137.5343  162.1367 H   0  0  0  0  0  0  0  0  0  0  0  0
  145.5782  137.4878  162.5313 H   0  0  0  0  0  0  0  0  0  0  0  0
  145.9219  137.6512  160.8254 H   0  0  0  0  0  0  0  0  0  0  0  0
  144.1731  135.9143  161.2083 H   0  0  0  0  0  0  0  0  0  0  0  0
  144.8840  135.1980  163.4871 H   0  0  0  0  0  0  0  0  0  0  0  0
  144.7502  133.8161  162.4264 H   0  0  0  0  0  0  0  0  0  0  0  0
  146.8787  133.7193  163.7210 H   0  0  0  0  0  0  0  0  0  0  0  0
  148.6349  135.4506  163.3651 H   0  0  0  0  0  0  0  0  0  0  0  0
  147.1950  136.1705  164.0461 H   0  0  0  0  0  0  0  0  0  0  0  0
  146.8462  132.7588  161.4620 H   0  0  0  0  0  0  0  0  0  0  0  0
  148.4316  133.4040  161.8055 H   0  0  0  0  0  0  0  0  0  0  0  0
  145.6876  135.6320  159.2804 H   0  0  0  0  0  0  0  0  0  0  0  0
  145.2183  134.0811  159.9244 H   0  0  0  0  0  0  0  0  0  0  0  0
  1  2  1  0  0  0  0
  1 27  1  0  0  0  0
  1 28  1  0  0  0  0
  1 29  1  0  0  0  0
  2  3  1  0  0  0  0
  2 30  1  0  0  0  0
  2 31  1  0  0  0  0
  3  4  1  0  0  0  0
  3 16  1  0  0  0  0
  3 32  1  0  0  0  0
  4  5  1  0  0  0  0
  4 33  1  0  0  0  0
  5  6  2  0  0  0  0
  5  7  1  0  0  0  0
  7  8  1  0  0  0  0
  7 34  1  0  0  0  0
  7 35  1  0  0  0  0
  8 14  1  0  0  0  0
  8  9  1  0  0  0  0
  9 10  2  0  0  0  0
  9 36  1  0  0  0  0
 10 11  1  0  0  0  0
 10 37  1  0  0  0  0
 11 12  2  0  0  0  0
 11 13  1  0  0  0  0
 13 26  1  0  0  0  0
 13 14  1  0  0  0  0
 14 15  2  0  0  0  0
 16 24  1  0  0  0  0
 16 25  1  0  0  0  0
 16 17  1  0  0  0  0
 17 18  1  0  0  0  0
 17 38  1  0  0  0  0
 17 39  1  0  0  0  0
 18 23  1  0  0  0  0
 18 19  1  0  0  0  0
 18 40  1  0  0  0  0
 19 20  1  0  0  0  0
 19 41  1  0  0  0  0
 19 42  1  0  0  0  0
 20 21  1  0  0  0  0
 20 25  1  0  0  0  0
 20 43  1  0  0  0  0
 21 22  1  0  0  0  0
 21 44  1  0  0  0  0
 21 45  1  0  0  0  0
 22 23  1  0  0  0  0
 22 24  1  0  0  0  0
 22 46  1  0  0  0  0
 23 47  1  0  0  0  0
 23 48  1  0  0  0  0
 24 49  1  0  0  0  0
 24 50  1  0  0  0  0
 25 51  1  0  0  0  0
 25 52  1  0  0  0  0
M  END
> <s_m_source_file>
AV-unprocessed.smi

> <i_m_source_file_index>
1591

> <i_lp_mmshare_version>
43012

> <i_f3d_flags>
0

> <s_epik_input>
W0NIMl0xW0NASF0oW0NIMl0yKVtDSDJdW0NASF0oW0NIMl0zKVtDSDJdW0NAQEhdMVtDSDJdQzIzW0NASF0oW0NIMl1bQ0gzXSlbTkhdQyg9TylbQ0gyXW40W2NIXVtjSF1jKD1PKVtuSF1jND1P

> <s_epik_cmdline>
J2VwaWtfcHl0aG9uJywgJy1waCcsICc3LjAnLCAnLXRuJywgJzgnLCAnLW1hJywgJzIwMCcsICctbWV0YWxfYmluZGluZycsICctaW1hZScsICc8aW5maWxlLm1hZT4nLCAnLW9tYWUnLCAnPG91dGZpbGUubWFlPic=

> <r_lp_tautomer_probability>
0.999537

> <r_epik_Ionization_Penalty>
0.00297067

> <r_epik_Ionization_Penalty_Charging>
0.00297065

> <r_epik_Ionization_Penalty_Neutral>
1.95363e-08

> <r_epik_State_Penalty>
0.00208437

> <r_epik_Charging_Adjusted_Penalty>
0.00505502

> <i_epik_Tot_Q>
0

> <i_epik_Tot_abs_Q>
0

> <r_epik_Metal_State_Penalty>
0.36072

> <b_epik_Metal_Only>
0

> <s_lp_Force_Field>
OPLS_2005

> <r_lp_Energy>
36.0514

> <b_lp_Chiralities_Consistent>
1

> <s_lp_Variant>
AV-unprocessed.smi:1591-2

> <Gold.Version>
5.8.1

> <Gold.Id.Protein>
6NUR|6NUR_protein|mol2

> <Gold.PLP.Fitness>
44.8602

> <Gold.PLP.PLP>
-36.3477

> <Gold.PLP.part.hbond>
-3.0000

> <Gold.PLP.part.metal>
0.0000

> <Gold.PLP.part.buried>
-2.2710

> <Gold.PLP.part.nonpolar>
-31.5752

> <Gold.PLP.part.repulsive>
0.1559

> <Gold.PLP.ligand.clash>
0.0000

> <Gold.PLP.ligand.torsion>
0.3404

> <Gold.PLP.Chemscore.Hbond>
2.0240

> <Gold.PLP.Chemscore.CHOScore>
1.0000

> <Gold.PLP.Chemscore.Metal>
0.0000

> <Gold.Chemscore.Hbonds>
donor molecule, donor type, donor heavy atom, donor atom, acceptor molecule, acceptor atom, score
      P1  H  6896  6909       L1     6  0.70
      P1  H  7997  8008       L1    12  0.91
      L1  C     9    36       P1  7948  0.99
      L1  C     9    36       P1  7949  0.05

> <Gold.PLP.Chemscore.Internal.Correction>
0.1213

> <Gold.Rescore>
     Score         DG    S(hbond)    S(metal)    S(lipo)     H(rot)  DE(clash)    DE(int)     intcor
     16.82     -17.57       1.86        0.00      94.90       2.04       0.39       0.36       ----

> <Gold.Chemscore.Fitness>
16.8174

> <Gold.Chemscore.DG>
-17.5678

> <Gold.Chemscore.ZeroCoef>
-5.4800

> <Gold.Chemscore.Hbond>
1.8592

> <Gold.Chemscore.Metal>
0.0000

> <Gold.Chemscore.Lipo>
94.8957

> <Gold.Chemscore.Internal_Hbond>
0.0000

> <Gold.Chemscore.DEClash>
0.3899

> <Gold.Chemscore.DEInternal>
0.3605

> <Gold.Chemscore.Rot>
2.0409

> <Gold.Chemscore.Internal.Correction>
   9.000000E+99

> <Gold.Chemscore.Hbonds>
donor molecule, donor type, donor heavy atom, donor atom, acceptor molecule, acceptor atom, score
      P1  H  6896  6909       L1     6  0.68
      P1  H  7997  8008       L1    12  0.87

> <Gold.Chemscore.Hbond.Weighted>
-6.2096

> <Gold.Chemscore.Metal.Weighted>
-0.0000

> <Gold.Chemscore.Lipo.Weighted>
-11.1028

> <Gold.Chemscore.Internal_Hbond.Weighted>
0.0000

> <Gold.Chemscore.DEClash.Weighted>
0.3899

> <Gold.Chemscore.DEInternal.Weighted>
0.3605

> <Gold.Chemscore.Rot.Weighted>
5.2246

> <Gold.Chemscore.Internal.Correction.Weighted>
   9.000000E+99

> <Gold.Protein.RotatedTorsions>
[ 6907 6896 6895 6894 ] final   32.95 input  -60.11 | X-H torsion
[ 7974 7965 7964 7962 ] final  148.27 input  175.53 | X-H torsion
[ 8008 7997 7996 7995 ] final  -31.48 input   59.86 | X-H torsion
[ 10167 10162 10161 10158 ] final   98.92 input  -65.29 | X-H torsion
[ 10718 10713 10712 10709 ] final  140.28 input   66.30 | X-H torsion
[ 10763 10752 10751 10750 ] final   36.85 input  -60.55 | X-H torsion
[ 11005 11000 10999 10996 ] final  -21.01 input  -57.11 | X-H torsion

> <Gold.Protein.ActiveResidues>
 VAL166  LYS551  ARG553  GLY616  TRP617  ASP618  TYR619  PRO620  LYS621  CYS622 
 ASP623  PHE694  ASN695  SER759  ASP760  ASP761  ALA762  ILE779  LEU786  VAL792 
 PHE793  MET794  SER795  GLU796  ALA797  LYS798  CYS799  TRP800  GLU811  SER814 

> <Gold.Protein.RotatedAtoms>
  152.0817  134.9467  160.0573 H   0  0  0  0  0  0  0  0  0  0  0  0  # atno 6907 bound_to 6896
  152.0753  133.4121  159.4485 H   0  0  0  0  0  0  0  0  0  0  0  0  # atno 6908 bound_to 6896
  150.6836  134.2965  159.4732 H   0  0  0  0  0  0  0  0  0  0  0  0  # atno 6909 bound_to 6896
  144.8527  139.6133  143.5966 H   0  0  0  0  0  0  0  0  0  0  0  0  # atno 7974 bound_to 7965
  154.4212  140.1763  156.1573 H   0  0  0  0  0  0  0  0  0  0  0  0  # atno 8008 bound_to 7997
  155.9866  140.3372  155.6689 H   0  0  0  0  0  0  0  0  0  0  0  0  # atno 8009 bound_to 7997
  155.6428  140.0682  157.2603 H   0  0  0  0  0  0  0  0  0  0  0  0  # atno 8010 bound_to 7997
  139.7665  144.6937  151.0217 H   0  0  0  0  0  0  0  0  0  0  0  0  # atno 10167 bound_to 10162
  157.4050  131.1021  151.0513 H   0  0  0  0  0  0  0  0  0  0  0  0  # atno 10718 bound_to 10713
  153.0060  135.6294  154.2051 H   0  0  0  0  0  0  0  0  0  0  0  0  # atno 10763 bound_to 10752
  154.1795  135.2814  155.3058 H   0  0  0  0  0  0  0  0  0  0  0  0  # atno 10764 bound_to 10752
  154.5846  135.5637  153.7278 H   0  0  0  0  0  0  0  0  0  0  0  0  # atno 10765 bound_to 10752
  140.8520  133.7850  155.9977 H   0  0  0  0  0  0  0  0  0  0  0  0  # atno 11005 bound_to 11000
  146.2798  139.6846  142.9237 LP  0  0  0  0  0  0  0  0  0  0  0  0  # atno 17320 bound_to 7965
  145.4468  141.0426  143.2827 LP  0  0  0  0  0  0  0  0  0  0  0  0  # atno 17321 bound_to 7965
  140.7811  143.4637  151.0242 LP  0  0  0  0  0  0  0  0  0  0  0  0  # atno 17342 bound_to 10162
  139.8322  143.7676  152.3180 LP  0  0  0  0  0  0  0  0  0  0  0  0  # atno 17343 bound_to 10162
  157.1498  130.6179  149.5579 LP  0  0  0  0  0  0  0  0  0  0  0  0  # atno 17370 bound_to 10713
  155.9834  130.4853  150.6930 LP  0  0  0  0  0  0  0  0  0  0  0  0  # atno 17371 bound_to 10713
  140.8779  134.2647  157.5158 LP  0  0  0  0  0  0  0  0  0  0  0  0  # atno 17394 bound_to 11000
  139.8704  134.9600  156.4351 LP  0  0  0  0  0  0  0  0  0  0  0  0  # atno 17395 bound_to 11000

$$$$
