AV-unprocessed.smi:1734|AV-procd|sdf|6982|dock5
  -GOLD-   22720 8193D 1   1.00000     0.00000
 Structure written by MMmdl.
 50 52  0  0  0  0  0  0  0  0  1 V2000
  147.1193  132.1653  152.6413 C   0  0  0  0  0  0  0  0  0  0  0  0
  146.0517  132.7007  151.7008 C   0  0  0  0  0  0  0  0  0  0  0  0
  145.2930  131.7941  150.9303 C   0  0  0  0  0  0  0  0  0  0  0  0
  144.3062  132.2908  150.0618 C   0  0  0  0  0  0  0  0  0  0  0  0
  144.1177  133.6821  150.0010 C   0  0  0  0  0  0  0  0  0  0  0  0
  144.8387  134.5556  150.7329 N   0  0  0  0  0  0  0  0  0  0  0  0
  145.7963  134.0927  151.5753 C   0  0  0  0  0  0  0  0  0  0  0  0
  146.6038  134.9566  152.3674 N   0  0  0  0  0  0  0  0  0  0  0  0
  146.4030  135.3611  153.6339 C   0  0  0  0  0  0  0  0  0  0  0  0
  145.4954  134.9769  154.3721 O   0  0  0  0  0  0  0  0  0  0  0  0
  147.3265  136.2590  154.0058 N   0  0  0  0  0  0  0  0  0  0  0  0
  147.3666  136.9308  155.2997 C   0  0  0  0  0  0  0  0  0  0  0  0
  148.7387  137.5973  155.6186 C   0  0  2  0  0  0  0  0  0  0  0  0
  149.2294  137.2883  157.0639 C   0  0  1  0  0  0  0  0  0  0  0  0
  148.2465  137.6041  158.1842 C   0  0  0  0  0  0  0  0  0  0  0  0
  148.6762  136.6833  159.3276 C   0  0  0  0  0  0  0  0  0  0  0  0
  149.5276  135.7008  158.7503 O   0  0  0  0  0  0  0  0  0  0  0  0
  149.4593  135.7991  157.3367 C   0  0  0  0  0  0  0  0  0  0  0  0
  148.7662  139.0424  155.3310 N   0  0  0  0  0  0  0  0  0  0  0  0
  148.1873  139.4264  154.0445 C   0  0  0  0  0  0  0  0  0  0  0  0
  148.1437  140.9554  153.8803 C   0  0  0  0  0  0  0  0  0  0  0  0
  149.4512  141.4953  154.0490 O   0  0  0  0  0  0  0  0  0  0  0  0
  150.0193  141.1813  155.3171 C   0  0  0  0  0  0  0  0  0  0  0  0
  150.0832  139.6541  155.4891 C   0  0  0  0  0  0  0  0  0  0  0  0
  147.1573  131.0758  152.6203 H   0  0  0  0  0  0  0  0  0  0  0  0
  146.9131  132.4723  153.6670 H   0  0  0  0  0  0  0  0  0  0  0  0
  148.1024  132.5412  152.3568 H   0  0  0  0  0  0  0  0  0  0  0  0
  145.4633  130.7297  151.0009 H   0  0  0  0  0  0  0  0  0  0  0  0
  143.7092  131.6228  149.4587 H   0  0  0  0  0  0  0  0  0  0  0  0
  143.3696  134.1059  149.3475 H   0  0  0  0  0  0  0  0  0  0  0  0
  147.4125  135.3384  151.9001 H   0  0  0  0  0  0  0  0  0  0  0  0
  148.0396  136.5150  153.3388 H   0  0  0  0  0  0  0  0  0  0  0  0
  146.5525  137.6548  155.3182 H   0  0  0  0  0  0  0  0  0  0  0  0
  147.1251  136.1905  156.0627 H   0  0  0  0  0  0  0  0  0  0  0  0
  149.4768  137.1453  154.9549 H   0  0  0  0  0  0  0  0  0  0  0  0
  150.1586  137.8230  157.2647 H   0  0  0  0  0  0  0  0  0  0  0  0
  148.2616  138.6524  158.4825 H   0  0  0  0  0  0  0  0  0  0  0  0
  147.2296  137.3541  157.8780 H   0  0  0  0  0  0  0  0  0  0  0  0
  149.2318  137.2298  160.0900 H   0  0  0  0  0  0  0  0  0  0  0  0
  147.8154  136.2149  159.8060 H   0  0  0  0  0  0  0  0  0  0  0  0
  148.6189  135.2029  156.9770 H   0  0  0  0  0  0  0  0  0  0  0  0
  150.3706  135.4177  156.8753 H   0  0  0  0  0  0  0  0  0  0  0  0
  148.7723  139.0008  153.2287 H   0  0  0  0  0  0  0  0  0  0  0  0
  147.1765  139.0317  153.9473 H   0  0  0  0  0  0  0  0  0  0  0  0
  147.7733  141.2200  152.8900 H   0  0  0  0  0  0  0  0  0  0  0  0
  147.4628  141.4013  154.6071 H   0  0  0  0  0  0  0  0  0  0  0  0
  151.0190  141.6119  155.3768 H   0  0  0  0  0  0  0  0  0  0  0  0
  149.4262  141.6361  156.1120 H   0  0  0  0  0  0  0  0  0  0  0  0
  150.4880  139.4175  156.4736 H   0  0  0  0  0  0  0  0  0  0  0  0
  150.7829  139.2527  154.7569 H   0  0  0  0  0  0  0  0  0  0  0  0
  1  2  1  0  0  0  0
  1 25  1  0  0  0  0
  1 26  1  0  0  0  0
  1 27  1  0  0  0  0
  2  7  1  0  0  0  0
  2  3  2  0  0  0  0
  3  4  1  0  0  0  0
  3 28  1  0  0  0  0
  4  5  2  0  0  0  0
  4 29  1  0  0  0  0
  5  6  1  0  0  0  0
  5 30  1  0  0  0  0
  6  7  2  0  0  0  0
  7  8  1  0  0  0  0
  8  9  1  0  0  0  0
  8 31  1  0  0  0  0
  9 10  2  0  0  0  0
  9 11  1  0  0  0  0
 11 12  1  0  0  0  0
 11 32  1  0  0  0  0
 12 13  1  0  0  0  0
 12 33  1  0  0  0  0
 12 34  1  0  0  0  0
 13 14  1  0  0  0  0
 13 19  1  0  0  0  0
 13 35  1  0  0  0  0
 14 18  1  0  0  0  0
 14 15  1  0  0  0  0
 14 36  1  0  0  0  0
 15 16  1  0  0  0  0
 15 37  1  0  0  0  0
 15 38  1  0  0  0  0
 16 17  1  0  0  0  0
 16 39  1  0  0  0  0
 16 40  1  0  0  0  0
 17 18  1  0  0  0  0
 18 41  1  0  0  0  0
 18 42  1  0  0  0  0
 19 24  1  0  0  0  0
 19 20  1  0  0  0  0
 20 21  1  0  0  0  0
 20 43  1  0  0  0  0
 20 44  1  0  0  0  0
 21 22  1  0  0  0  0
 21 45  1  0  0  0  0
 21 46  1  0  0  0  0
 22 23  1  0  0  0  0
 23 24  1  0  0  0  0
 23 47  1  0  0  0  0
 23 48  1  0  0  0  0
 24 49  1  0  0  0  0
 24 50  1  0  0  0  0
M  END
> <s_m_source_file>
AV-unprocessed.smi

> <i_m_source_file_index>
1734

> <i_lp_mmshare_version>
43012

> <i_f3d_flags>
0

> <s_epik_input>
W0NIM11jMVtjSF1bY0hdW2NIXW5jMVtOSF1DKD1PKVtOSF1bQ0gyXVtDQEhdKFtDQEBIXTJbQ0gyXVtDSDJdT1tDSDJdMilOM1tDSDJdW0NIMl1PW0NIMl1bQ0gyXTM=

> <s_epik_cmdline>
J2VwaWtfcHl0aG9uJywgJy1waCcsICc3LjAnLCAnLXRuJywgJzgnLCAnLW1hJywgJzIwMCcsICctbWV0YWxfYmluZGluZycsICctaW1hZScsICc8aW5maWxlLm1hZT4nLCAnLW9tYWUnLCAnPG91dGZpbGUubWFlPic=

> <r_epik_Ionization_Penalty>
0.125073

> <r_epik_Ionization_Penalty_Charging>
0

> <r_epik_Ionization_Penalty_Neutral>
0.125073

> <r_epik_State_Penalty>
0.114484

> <r_epik_Charging_Adjusted_Penalty>
0.114484

> <i_epik_Tot_Q>
0

> <i_epik_Tot_abs_Q>
0

> <r_epik_Metal_State_Penalty>
0.114483

> <b_epik_Metal_Only>
0

> <s_lp_Force_Field>
OPLS_2005

> <r_lp_Energy>
51.317

> <b_lp_Chiralities_Consistent>
1

> <s_lp_Variant>
AV-unprocessed.smi:1734-3

> <Gold.Version>
5.8.1

> <Gold.Id.Protein>
6NUR|6NUR_protein|mol2

> <Gold.PLP.Fitness>
44.4706

> <Gold.PLP.PLP>
-33.3527

> <Gold.PLP.part.hbond>
-5.0000

> <Gold.PLP.part.metal>
0.0000

> <Gold.PLP.part.buried>
-3.8631

> <Gold.PLP.part.nonpolar>
-24.6020

> <Gold.PLP.part.repulsive>
0.5011

> <Gold.PLP.ligand.clash>
0.0000

> <Gold.PLP.ligand.torsion>
1.6165

> <Gold.PLP.Chemscore.Hbond>
3.6560

> <Gold.PLP.Chemscore.CHOScore>
1.0000

> <Gold.PLP.Chemscore.Metal>
0.0000

> <Gold.Chemscore.Hbonds>
donor molecule, donor type, donor heavy atom, donor atom, acceptor molecule, acceptor atom, score
      L1  H     8    31       P1  7948  1.00
      L1  H    11    32       P1  7948  1.00
      P1  H  6896  6908       L1    17  1.00
      P1  H  8011  8017       L1    22  0.67
      L1  C     5    30       P1 10186  1.00

> <Gold.PLP.Chemscore.Internal.Correction>
0.3829

> <Gold.Rescore>
     Score         DG    S(hbond)    S(metal)    S(lipo)     H(rot)  DE(clash)    DE(int)     intcor
     20.49     -22.22       3.57        0.00      77.07       1.65       0.11       1.61       ----

> <Gold.Chemscore.Fitness>
20.4930

> <Gold.Chemscore.DG>
-22.2180

> <Gold.Chemscore.ZeroCoef>
-5.4800

> <Gold.Chemscore.Hbond>
3.5746

> <Gold.Chemscore.Metal>
0.0000

> <Gold.Chemscore.Lipo>
77.0750

> <Gold.Chemscore.Internal_Hbond>
0.0000

> <Gold.Chemscore.DEClash>
0.1124

> <Gold.Chemscore.DEInternal>
1.6126

> <Gold.Chemscore.Rot>
1.6480

> <Gold.Chemscore.Internal.Correction>
   9.000000E+99

> <Gold.Chemscore.Hbonds>
donor molecule, donor type, donor heavy atom, donor atom, acceptor molecule, acceptor atom, score
      L1  H     8    31       P1  7948  0.97
      L1  H    11    32       P1  7948  0.96
      P1  H  6896  6908       L1    17  0.99
      P1  H  8011  8017       L1    22  0.29

> <Gold.Chemscore.Hbond.Weighted>
-11.9390

> <Gold.Chemscore.Metal.Weighted>
-0.0000

> <Gold.Chemscore.Lipo.Weighted>
-9.0178

> <Gold.Chemscore.Internal_Hbond.Weighted>
0.0000

> <Gold.Chemscore.DEClash.Weighted>
0.1124

> <Gold.Chemscore.DEInternal.Weighted>
1.6126

> <Gold.Chemscore.Rot.Weighted>
4.2188

> <Gold.Chemscore.Internal.Correction.Weighted>
   9.000000E+99

> <Gold.Protein.RotatedTorsions>
[ 6907 6896 6895 6894 ] final -170.85 input  -60.11 | X-H torsion
[ 7974 7965 7964 7962 ] final  -50.15 input  175.53 | X-H torsion
[ 8008 7997 7996 7995 ] final  167.33 input   59.86 | X-H torsion
[ 10167 10162 10161 10158 ] final   81.01 input  -65.29 | X-H torsion
[ 10718 10713 10712 10709 ] final -178.69 input   66.30 | X-H torsion
[ 10763 10752 10751 10750 ] final  -64.63 input  -60.55 | X-H torsion
[ 11005 11000 10999 10996 ] final  166.43 input  -57.11 | X-H torsion

> <Gold.Protein.ActiveResidues>
 VAL166  LYS551  ARG553  GLY616  TRP617  ASP618  TYR619  PRO620  LYS621  CYS622 
 ASP623  PHE694  ASN695  SER759  ASP760  ASP761  ALA762  ILE779  LEU786  VAL792 
 PHE793  MET794  SER795  GLU796  ALA797  LYS798  CYS799  TRP800  GLU811  SER814 

> <Gold.Protein.RotatedAtoms>
  151.5143  133.3478  159.2890 H   0  0  0  0  0  0  0  0  0  0  0  0  # atno 6907 bound_to 6896
  150.8692  134.8064  159.7153 H   0  0  0  0  0  0  0  0  0  0  0  0  # atno 6908 bound_to 6896
  152.4686  134.5025  159.9781 H   0  0  0  0  0  0  0  0  0  0  0  0  # atno 6909 bound_to 6896
  145.9329  140.7733  142.9590 H   0  0  0  0  0  0  0  0  0  0  0  0  # atno 7974 bound_to 7965
  156.1643  140.1619  156.8559 H   0  0  0  0  0  0  0  0  0  0  0  0  # atno 8008 bound_to 7997
  154.5191  140.0782  156.8173 H   0  0  0  0  0  0  0  0  0  0  0  0  # atno 8009 bound_to 7997
  155.3644  140.3397  155.4244 H   0  0  0  0  0  0  0  0  0  0  0  0  # atno 8010 bound_to 7997
  139.9437  144.6072  150.8227 H   0  0  0  0  0  0  0  0  0  0  0  0  # atno 10167 bound_to 10162
  156.8481  130.9709  151.3094 H   0  0  0  0  0  0  0  0  0  0  0  0  # atno 10718 bound_to 10713
  154.3329  135.6173  153.5560 H   0  0  0  0  0  0  0  0  0  0  0  0  # atno 10763 bound_to 10752
  152.9810  135.5751  154.4941 H   0  0  0  0  0  0  0  0  0  0  0  0  # atno 10764 bound_to 10752
  154.4631  135.2856  155.1675 H   0  0  0  0  0  0  0  0  0  0  0  0  # atno 10765 bound_to 10752
  140.2664  134.7862  157.3636 H   0  0  0  0  0  0  0  0  0  0  0  0  # atno 11005 bound_to 11000
  144.6767  140.2157  143.7372 LP  0  0  0  0  0  0  0  0  0  0  0  0  # atno 17320 bound_to 7965
  145.8402  139.2126  143.1832 LP  0  0  0  0  0  0  0  0  0  0  0  0  # atno 17321 bound_to 7965
  140.7603  143.3149  151.2758 LP  0  0  0  0  0  0  0  0  0  0  0  0  # atno 17342 bound_to 10162
  139.6683  144.0065  152.2737 LP  0  0  0  0  0  0  0  0  0  0  0  0  # atno 17343 bound_to 10162
  157.6319  130.8736  149.9289 LP  0  0  0  0  0  0  0  0  0  0  0  0  # atno 17370 bound_to 10713
  156.0843  130.3669  150.0518 LP  0  0  0  0  0  0  0  0  0  0  0  0  # atno 17371 bound_to 10713
  140.1415  134.4965  155.8028 LP  0  0  0  0  0  0  0  0  0  0  0  0  # atno 17394 bound_to 11000
  141.2183  133.6827  156.7219 LP  0  0  0  0  0  0  0  0  0  0  0  0  # atno 17395 bound_to 11000

$$$$
