AV-unprocessed.smi:3136|AV-procd|sdf|11951|dock5
  -GOLD-   2272017343D 1   1.00000     0.00000
 Structure written by MMmdl.
 40 40  0  0  0  0  0  0  0  0  2 V2000
  146.2062  133.6751  150.9761 C   0  0  0  0  0  0  0  0  0  0  0  0
  145.3526  134.9443  150.8526 C   0  0  0  0  0  0  0  0  0  0  0  0
  145.8229  135.9975  151.7453 N   0  0  0  0  0  0  0  0  0  0  0  0
  145.0419  136.7216  152.5622 C   0  0  0  0  0  0  0  0  0  0  0  0
  143.8216  136.5763  152.6334 O   0  0  0  0  0  0  0  0  0  0  0  0
  145.7466  137.7700  153.4281 C   0  0  0  0  0  0  0  0  0  0  0  0
  146.5192  138.8040  152.5916 C   0  0  0  0  0  0  0  0  0  0  0  0
  147.9738  138.6961  152.8244 N   0  3  0  0  0  0  0  0  0  0  0  0
  148.4166  139.0941  154.1799 C   0  0  1  0  0  0  0  0  0  0  0  0
  149.5761  138.1781  154.6121 C   0  0  0  0  0  0  0  0  0  0  0  0
  148.7836  140.6023  154.2072 C   0  0  1  0  0  0  0  0  0  0  0  0
  147.5468  141.5164  154.1141 C   0  0  0  0  0  0  0  0  0  0  0  0
  149.5764  140.9544  155.3787 N   0  0  0  0  0  0  0  0  0  0  0  0
  149.2267  141.7742  156.4324 C   0  0  0  0  0  0  0  0  0  0  0  0
  150.2849  141.8053  157.2947 C   0  0  0  0  0  0  0  0  0  0  0  0
  151.2487  140.9601  156.6782 C   0  0  0  0  0  0  0  0  0  0  0  0
  150.8223  140.4516  155.5336 N   0  0  0  0  0  0  0  0  0  0  0  0
  145.8675  132.9120  150.2753 H   0  0  0  0  0  0  0  0  0  0  0  0
  146.1474  133.2512  151.9791 H   0  0  0  0  0  0  0  0  0  0  0  0
  147.2548  133.8819  150.7598 H   0  0  0  0  0  0  0  0  0  0  0  0
  145.3998  135.3201  149.8303 H   0  0  0  0  0  0  0  0  0  0  0  0
  144.3040  134.7184  151.0519 H   0  0  0  0  0  0  0  0  0  0  0  0
  146.8151  136.1854  151.7420 H   0  0  0  0  0  0  0  0  0  0  0  0
  145.0104  138.2789  154.0529 H   0  0  0  0  0  0  0  0  0  0  0  0
  146.4281  137.2517  154.1038 H   0  0  0  0  0  0  0  0  0  0  0  0
  146.3210  138.6583  151.5285 H   0  0  0  0  0  0  0  0  0  0  0  0
  146.1924  139.8133  152.8471 H   0  0  0  0  0  0  0  0  0  0  0  0
  148.2489  137.7365  152.6712 H   0  0  0  0  0  0  0  0  0  0  0  0
  147.6000  138.9282  154.8851 H   0  0  0  0  0  0  0  0  0  0  0  0
  149.8680  138.3530  155.6478 H   0  0  0  0  0  0  0  0  0  0  0  0
  150.4569  138.3316  153.9873 H   0  0  0  0  0  0  0  0  0  0  0  0
  149.2933  137.1277  154.5355 H   0  0  0  0  0  0  0  0  0  0  0  0
  149.4095  140.8094  153.3375 H   0  0  0  0  0  0  0  0  0  0  0  0
  147.0112  141.3724  153.1759 H   0  0  0  0  0  0  0  0  0  0  0  0
  147.8336  142.5675  154.1629 H   0  0  0  0  0  0  0  0  0  0  0  0
  146.8458  141.3263  154.9278 H   0  0  0  0  0  0  0  0  0  0  0  0
  148.2649  142.2633  156.4811 H   0  0  0  0  0  0  0  0  0  0  0  0
  150.3591  142.3484  158.2252 H   0  0  0  0  0  0  0  0  0  0  0  0
  152.2385  140.7027  157.0259 H   0  0  0  0  0  0  0  0  0  0  0  0
  148.4511  139.2777  152.1505 H   0  0  0  0  0  0  0  0  0  0  0  0
  1  2  1  0  0  0  0
  1 18  1  0  0  0  0
  1 19  1  0  0  0  0
  1 20  1  0  0  0  0
  2  3  1  0  0  0  0
  2 21  1  0  0  0  0
  2 22  1  0  0  0  0
  3  4  1  0  0  0  0
  3 23  1  0  0  0  0
  4  5  2  0  0  0  0
  4  6  1  0  0  0  0
  6  7  1  0  0  0  0
  6 24  1  0  0  0  0
  6 25  1  0  0  0  0
  7  8  1  0  0  0  0
  7 26  1  0  0  0  0
  7 27  1  0  0  0  0
  8  9  1  0  0  0  0
  8 28  1  0  0  0  0
  8 40  1  0  0  0  0
  9 10  1  0  0  0  0
  9 11  1  0  0  0  0
  9 29  1  0  0  0  0
 10 30  1  0  0  0  0
 10 31  1  0  0  0  0
 10 32  1  0  0  0  0
 11 12  1  0  0  0  0
 11 13  1  0  0  0  0
 11 33  1  0  0  0  0
 12 34  1  0  0  0  0
 12 35  1  0  0  0  0
 12 36  1  0  0  0  0
 13 17  1  0  0  0  0
 13 14  1  0  0  0  0
 14 15  2  0  0  0  0
 14 37  1  0  0  0  0
 15 16  1  0  0  0  0
 15 38  1  0  0  0  0
 16 17  2  0  0  0  0
 16 39  1  0  0  0  0
M  CHG  1   8   1
M  END
> <s_m_source_file>
AV-unprocessed.smi

> <i_m_source_file_index>
3136

> <i_lp_mmshare_version>
43012

> <i_f3d_flags>
0

> <s_epik_input>
W0NIM11bQ0gyXVtOSF1DKD1PKVtDSDJdW0NIMl1bTkhdW0NASF0oW0NIM10pW0NASF0oW0NIM10pbjFbY0hdW2NIXVtjSF1uMQ==

> <s_epik_cmdline>
J2VwaWtfcHl0aG9uJywgJy1waCcsICc3LjAnLCAnLXRuJywgJzgnLCAnLW1hJywgJzIwMCcsICctbWV0YWxfYmluZGluZycsICctaW1hZScsICc8aW5maWxlLm1hZT4nLCAnLW9tYWUnLCAnPG91dGZpbGUubWFlPic=

> <r_lp_tautomer_probability>
1

> <r_epik_Ionization_Penalty>
0.00463447

> <r_epik_Ionization_Penalty_Charging>
0.00462393

> <r_epik_Ionization_Penalty_Neutral>
1.05394e-05

> <r_epik_State_Penalty>
-0

> <r_epik_Charging_Adjusted_Penalty>
0.00462393

> <i_epik_Tot_Q>
1

> <i_epik_Tot_abs_Q>
1

> <r_epik_Metal_State_Penalty>
-0

> <b_epik_Metal_Only>
0

> <s_lp_Force_Field>
OPLS_2005

> <r_lp_Energy>
12.3637

> <b_lp_Chiralities_Consistent>
1

> <s_lp_Variant>
AV-unprocessed.smi:3136-4

> <Gold.Version>
5.8.1

> <Gold.Id.Protein>
6NUR|6NUR_protein|mol2

> <Gold.PLP.Fitness>
45.4422

> <Gold.PLP.PLP>
-32.3494

> <Gold.PLP.part.hbond>
-3.9013

> <Gold.PLP.part.metal>
0.0000

> <Gold.PLP.part.buried>
-2.6524

> <Gold.PLP.part.nonpolar>
-25.1788

> <Gold.PLP.part.repulsive>
0.2894

> <Gold.PLP.ligand.clash>
0.0000

> <Gold.PLP.ligand.torsion>
1.2861

> <Gold.PLP.Chemscore.Hbond>
4.8870

> <Gold.PLP.Chemscore.CHOScore>
0.2875

> <Gold.PLP.Chemscore.Metal>
0.0000

> <Gold.Chemscore.Hbonds>
donor molecule, donor type, donor heavy atom, donor atom, acceptor molecule, acceptor atom, score
      L1  H     3    23       P1  7948  0.80
      L1  H     8    28       P1  7948  2.00
      L1  H     8    40       P1  7957  1.00
      P1  H  7989  7998       L1    17  0.48
      L1  C    14    37       P1  8028  0.31

> <Gold.PLP.Chemscore.Internal.Correction>
0.1415

> <Gold.Rescore>
     Score         DG    S(hbond)    S(metal)    S(lipo)     H(rot)  DE(clash)    DE(int)     intcor
     16.74     -19.40       3.56        0.00      67.97       2.32       0.07       2.59       ----

> <Gold.Chemscore.Fitness>
16.7397

> <Gold.Chemscore.DG>
-19.4046

> <Gold.Chemscore.ZeroCoef>
-5.4800

> <Gold.Chemscore.Hbond>
3.5632

> <Gold.Chemscore.Metal>
0.0000

> <Gold.Chemscore.Lipo>
67.9655

> <Gold.Chemscore.Internal_Hbond>
0.0000

> <Gold.Chemscore.DEClash>
0.0702

> <Gold.Chemscore.DEInternal>
2.5946

> <Gold.Chemscore.Rot>
2.3159

> <Gold.Chemscore.Internal.Correction>
   9.000000E+99

> <Gold.Chemscore.Hbonds>
donor molecule, donor type, donor heavy atom, donor atom, acceptor molecule, acceptor atom, score
      L1  H     3    23       P1  7948  0.79
      L1  H     8    28       P1  7948  0.99
      L1  H     8    40       P1  7957  1.00
      P1  H  7989  7998       L1    17  0.10

> <Gold.Chemscore.Hbond.Weighted>
-11.9012

> <Gold.Chemscore.Metal.Weighted>
-0.0000

> <Gold.Chemscore.Lipo.Weighted>
-7.9520

> <Gold.Chemscore.Internal_Hbond.Weighted>
0.0000

> <Gold.Chemscore.DEClash.Weighted>
0.0702

> <Gold.Chemscore.DEInternal.Weighted>
2.5946

> <Gold.Chemscore.Rot.Weighted>
5.9286

> <Gold.Chemscore.Internal.Correction.Weighted>
   9.000000E+99

> <Gold.Protein.RotatedTorsions>
[ 6907 6896 6895 6894 ] final -104.33 input  -60.11 | X-H torsion
[ 7974 7965 7964 7962 ] final   53.21 input  175.53 | X-H torsion
[ 8008 7997 7996 7995 ] final  147.37 input   59.86 | X-H torsion
[ 10167 10162 10161 10158 ] final -167.00 input  -65.29 | X-H torsion
[ 10718 10713 10712 10709 ] final -128.13 input   66.30 | X-H torsion
[ 10763 10752 10751 10750 ] final -164.54 input  -60.55 | X-H torsion
[ 11005 11000 10999 10996 ] final  -57.06 input  -57.11 | X-H torsion

> <Gold.Protein.ActiveResidues>
 VAL166  LYS551  ARG553  GLY616  TRP617  ASP618  TYR619  PRO620  LYS621  CYS622 
 ASP623  PHE694  ASN695  SER759  ASP760  ASP761  ALA762  ILE779  LEU786  VAL792 
 PHE793  MET794  SER795  GLU796  ALA797  LYS798  CYS799  TRP800  GLU811  SER814 

> <Gold.Protein.RotatedAtoms>
  150.7282  134.0293  159.3727 H   0  0  0  0  0  0  0  0  0  0  0  0  # atno 6907 bound_to 6896
  151.8262  135.0634  160.0440 H   0  0  0  0  0  0  0  0  0  0  0  0  # atno 6908 bound_to 6896
  152.2967  133.5578  159.5628 H   0  0  0  0  0  0  0  0  0  0  0  0  # atno 6909 bound_to 6896
  145.9735  139.4172  143.0176 H   0  0  0  0  0  0  0  0  0  0  0  0  # atno 7974 bound_to 7965
  156.2827  140.2157  156.5526 H   0  0  0  0  0  0  0  0  0  0  0  0  # atno 8008 bound_to 7997
  154.7278  140.0498  157.0721 H   0  0  0  0  0  0  0  0  0  0  0  0  # atno 8009 bound_to 7997
  155.0393  140.3144  155.4733 H   0  0  0  0  0  0  0  0  0  0  0  0  # atno 8010 bound_to 7997
  139.6078  144.0877  152.1811 H   0  0  0  0  0  0  0  0  0  0  0  0  # atno 10167 bound_to 10162
  156.1921  130.6802  151.0437 H   0  0  0  0  0  0  0  0  0  0  0  0  # atno 10718 bound_to 10713
  154.7018  135.2989  154.9329 H   0  0  0  0  0  0  0  0  0  0  0  0  # atno 10763 bound_to 10752
  154.0259  135.6676  153.4780 H   0  0  0  0  0  0  0  0  0  0  0  0  # atno 10764 bound_to 10752
  153.0687  135.5073  154.8166 H   0  0  0  0  0  0  0  0  0  0  0  0  # atno 10765 bound_to 10752
  141.1148  133.6610  156.4713 H   0  0  0  0  0  0  0  0  0  0  0  0  # atno 11005 bound_to 11000
  145.7872  140.9830  143.1068 LP  0  0  0  0  0  0  0  0  0  0  0  0  # atno 17320 bound_to 7965
  144.6843  139.9638  143.7481 LP  0  0  0  0  0  0  0  0  0  0  0  0  # atno 17321 bound_to 7965
  140.0488  144.5949  150.7352 LP  0  0  0  0  0  0  0  0  0  0  0  0  # atno 17342 bound_to 10162
  140.7297  143.2675  151.3995 LP  0  0  0  0  0  0  0  0  0  0  0  0  # atno 17343 bound_to 10162
  157.6935  131.0802  150.7036 LP  0  0  0  0  0  0  0  0  0  0  0  0  # atno 17370 bound_to 10713
  156.7093  130.4647  149.5551 LP  0  0  0  0  0  0  0  0  0  0  0  0  # atno 17371 bound_to 10713
  140.4676  134.6783  157.5114 LP  0  0  0  0  0  0  0  0  0  0  0  0  # atno 17394 bound_to 11000
  140.0063  134.6758  155.9449 LP  0  0  0  0  0  0  0  0  0  0  0  0  # atno 17395 bound_to 11000

$$$$
