#       Name:                AV-unprocessed.smi:2810
#       Creating user name   scv26
#       Creation time:       Fri Mar 27 15:26:52 2020


#       File generated by GOLD software.
#

@<TRIPOS>MOLECULE
AV-unprocessed.smi:2810
    46    47     1
SMALL
NO_CHARGES


@<TRIPOS>ATOM
      1 ****        -0.6455  -3.9038  -0.1284 C.3            1 S1                 0.0000
      2 ****        -0.0690  -2.5145   0.0424 C.ar           1 S1                 0.0000
      3 ****        -0.8814  -1.3649  -0.0388 C.ar           1 S1                 0.0000
      4 ****        -0.2324  -0.1167   0.1247 C.ar           1 S1                 0.0000
      5 ****        -0.9128   1.1167   0.0707 N.3            1 S1                 0.0000
      6 ****        -1.0803   1.6981   1.4009 C.3            1 S1                 0.0000
      7 ****        -1.6101   3.1359   1.3028 C.3            1 S1                 0.0000
      8 ****        -2.8159   3.1394   0.5506 O.3            1 S1                 0.0000
      9 ****        -2.5992   2.6958  -0.7835 C.3            1 S1                 0.0000
     10 ****        -2.0960   1.2331  -0.7946 C.3            1 S1                 0.0000
     11 ****        -1.8717   0.8152  -2.2597 C.2            1 S1                 0.0000
     12 ****        -2.8707   0.1680  -2.8646 N.am           1 S1                 0.0000
     13 ****        -0.8205   1.0817  -2.8396 O.2            1 S1                 0.0000
     14 ****         1.0975  -0.0571   0.3643 N.ar           1 S1                 0.0000
     15 ****         1.7727  -1.2099   0.4218 C.ar           1 S1                 0.0000
     16 ****         3.2706  -1.1197   0.6818 C.3            1 S1                 0.0000
     17 ****         3.5790  -0.5269   2.0654 C.3            1 S1                 0.0000
     18 ****         4.0092  -0.4015  -0.4581 C.3            1 S1                 0.0000
     19 ****         1.2588  -2.4344   0.2722 N.ar           1 S1                 0.0000
     20 ****        -1.7353  -3.8782  -0.1454 H              1 S1                 0.0000
     21 ****        -0.3335  -4.5510   0.6917 H              1 S1                 0.0000
     22 ****        -0.2992  -4.3421  -1.0647 H              1 S1                 0.0000
     23 ****        -1.9427  -1.4477  -0.2173 H              1 S1                 0.0000
     24 ****        -1.7763   1.0841   1.9750 H              1 S1                 0.0000
     25 ****        -0.1360   1.7033   1.9474 H              1 S1                 0.0000
     26 ****        -1.8114   3.5314   2.2985 H              1 S1                 0.0000
     27 ****        -0.8726   3.7945   0.8409 H              1 S1                 0.0000
     28 ****        -3.5419   2.7783  -1.3262 H              1 S1                 0.0000
     29 ****        -1.8917   3.3632  -1.2802 H              1 S1                 0.0000
     30 ****        -2.8839   0.6098  -0.3683 H              1 S1                 0.0000
     31 ****        -2.7738  -0.1254  -3.8257 H              1 S1                 0.0000
     32 ****        -3.7221  -0.0236  -2.3569 H              1 S1                 0.0000
     33 ****         3.6559  -2.1408   0.6966 H              1 S1                 0.0000
     34 ****         3.0984  -1.1059   2.8544 H              1 S1                 0.0000
     35 ****         3.2277   0.5023   2.1459 H              1 S1                 0.0000
     36 ****         4.6513  -0.5270   2.2614 H              1 S1                 0.0000
     37 ****         3.8271  -0.8942  -1.4138 H              1 S1                 0.0000
     38 ****         5.0860  -0.3988  -0.2876 H              1 S1                 0.0000
     39 ****         3.6863   0.6359  -0.5510 H              1 S1                 0.0000
     40 ****        -0.2817   1.6919  -0.4498 LP             1 S1                 0.0000
     41 ****        -3.1823   4.0696   0.5283 LP             1 S1                 0.0000
     42 ****        -3.4760   2.5317   0.9920 LP             1 S1                 0.0000
     43 ****        -0.0962   1.5767  -2.3596 LP             1 S1                 0.0000
     44 ****        -0.6900   0.8035  -3.7912 LP             1 S1                 0.0000
     45 ****         1.5603   0.8198   0.4941 LP             1 S1                 0.0000
     46 ****         1.8309  -3.2527   0.3278 LP             1 S1                 0.0000
@<TRIPOS>BOND
    1    1    2 1     
    2    1   20 1     
    3    1   21 1     
    4    1   22 1     
    5    2   19 ar    
    6    2    3 ar    
    7    3    4 ar    
    8    3   23 1     
    9    4    5 1     
   10    4   14 ar    
   11    5   10 1     
   12    5    6 1     
   13    6    7 1     
   14    6   24 1     
   15    6   25 1     
   16    7    8 1     
   17    7   26 1     
   18    7   27 1     
   19    8    9 1     
   20    9   10 1     
   21    9   28 1     
   22    9   29 1     
   23   10   11 1     
   24   10   30 1     
   25   11   12 am    
   26   11   13 2     
   27   12   31 1     
   28   12   32 1     
   29   14   15 ar    
   30   15   16 1     
   31   15   19 ar    
   32   16   17 1     
   33   16   18 1     
   34   16   33 1     
   35   17   34 1     
   36   17   35 1     
   37   17   36 1     
   38   18   37 1     
   39   18   38 1     
   40   18   39 1     
   41    5   40 1     
   42    8   41 1     
   43    8   42 1     
   44   13   43 1     
   45   13   44 1     
   46   14   45 1     
   47   19   46 1     
@<TRIPOS>SUBSTRUCTURE
      1 S1             1
@<TRIPOS>SET
LONE_PAIRS      STATIC     ATOMS    <user>   **** ""
7 40 41 42 43 44 45 46
DONOR_HYDROGENS      STATIC     ATOMS    <user>   **** ""
2 31 32
ATOM$BLUE        STATIC     ATOMS    COLORGROUP SYSTEM
7 40 41 42 43 44 45 46
ATOM$RED        STATIC     ATOMS    COLORGROUP SYSTEM
2 31 32
