AV-unprocessed.smi:2825|AV-procd|sdf|10888|dock10
  -GOLD-   2272015333D 1   1.00000     0.00000
 Structure written by MMmdl.
 48 49  0  0  0  0  0  0  0  0  1 V2000
  149.4831  133.4006  154.1011 C   0  0  0  0  0  0  0  0  0  0  0  0
  150.3366  134.5262  154.6941 C   0  0  0  0  0  0  0  0  0  0  0  0
  149.5501  135.4152  155.6681 C   0  0  0  0  0  0  0  0  0  0  0  0
  150.5315  136.8897  156.1999 S   0  0  0  0  0  0  0  0  0  0  0  0
  150.6185  136.8654  157.6681 O   0  0  0  0  0  0  0  0  0  0  0  0
  151.7580  136.9782  155.3919 O   0  0  0  0  0  0  0  0  0  0  0  0
  149.5155  138.2317  155.7726 N   0  0  0  0  0  0  0  0  0  0  0  0
  148.1754  138.3293  156.3645 C   0  0  0  0  0  0  0  0  0  0  0  0
  149.7772  139.0219  154.5526 C   0  0  0  0  0  0  0  0  0  0  0  0
  149.6024  140.5453  154.7374 C   0  0  2  0  0  0  0  0  0  0  0  0
  149.2232  141.0705  153.4802 O   0  0  0  0  0  0  0  0  0  0  0  0
  150.8819  141.2708  155.2115 C   0  0  0  0  0  0  0  0  0  0  0  0
  151.2604  140.9216  156.5704 N   0  0  0  0  0  0  0  0  0  0  0  0
  151.4819  139.6868  157.0622 C   0  0  0  0  0  0  0  0  0  0  0  0
  151.8326  139.5940  158.3414 N   0  0  0  0  0  0  0  0  0  0  0  0
  151.8265  140.9227  158.7290 C   0  0  0  0  0  0  0  0  0  0  0  0
  152.1128  141.5139  159.9789 C   0  0  0  0  0  0  0  0  0  0  0  0
  152.0393  142.9144  160.1527 C   0  0  0  0  0  0  0  0  0  0  0  0
  152.3590  143.5079  161.5134 C   0  0  0  0  0  0  0  0  0  0  0  0
  151.6700  143.7459  159.0654 C   0  0  0  0  0  0  0  0  0  0  0  0
  151.5841  145.2534  159.2261 C   0  0  0  0  0  0  0  0  0  0  0  0
  151.3785  143.1712  157.8110 C   0  0  0  0  0  0  0  0  0  0  0  0
  151.4642  141.7777  157.6473 C   0  0  0  0  0  0  0  0  0  0  0  0
  150.0779  132.7706  153.4395 H   0  0  0  0  0  0  0  0  0  0  0  0
  148.6545  133.8007  153.5182 H   0  0  0  0  0  0  0  0  0  0  0  0
  149.0688  132.7642  154.8835 H   0  0  0  0  0  0  0  0  0  0  0  0
  151.1927  134.0918  155.2115 H   0  0  0  0  0  0  0  0  0  0  0  0
  150.7406  135.1321  153.8826 H   0  0  0  0  0  0  0  0  0  0  0  0
  148.6209  135.7583  155.2193 H   0  0  0  0  0  0  0  0  0  0  0  0
  149.2809  134.8553  156.5639 H   0  0  0  0  0  0  0  0  0  0  0  0
  147.5739  137.4631  156.0906 H   0  0  0  0  0  0  0  0  0  0  0  0
  147.6605  139.2333  156.0385 H   0  0  0  0  0  0  0  0  0  0  0  0
  148.2510  138.3587  157.4515 H   0  0  0  0  0  0  0  0  0  0  0  0
  150.7765  138.7980  154.1770 H   0  0  0  0  0  0  0  0  0  0  0  0
  149.0957  138.6705  153.7769 H   0  0  0  0  0  0  0  0  0  0  0  0
  148.7797  140.7498  155.4202 H   0  0  0  0  0  0  0  0  0  0  0  0
  149.2265  140.3671  152.8489 H   0  0  0  0  0  0  0  0  0  0  0  0
  151.7228  141.0311  154.5636 H   0  0  0  0  0  0  0  0  0  0  0  0
  150.7486  142.3523  155.1586 H   0  0  0  0  0  0  0  0  0  0  0  0
  151.3893  138.8067  156.4425 H   0  0  0  0  0  0  0  0  0  0  0  0
  152.3906  140.8792  160.8077 H   0  0  0  0  0  0  0  0  0  0  0  0
  151.5052  144.0662  161.8974 H   0  0  0  0  0  0  0  0  0  0  0  0
  153.2121  144.1832  161.4447 H   0  0  0  0  0  0  0  0  0  0  0  0
  152.6041  142.7320  162.2390 H   0  0  0  0  0  0  0  0  0  0  0  0
  151.3080  145.7384  158.2892 H   0  0  0  0  0  0  0  0  0  0  0  0
  152.5460  145.6595  159.5402 H   0  0  0  0  0  0  0  0  0  0  0  0
  150.8349  145.5163  159.9731 H   0  0  0  0  0  0  0  0  0  0  0  0
  151.0907  143.7948  156.9790 H   0  0  0  0  0  0  0  0  0  0  0  0
  1  2  1  0  0  0  0
  1 24  1  0  0  0  0
  1 25  1  0  0  0  0
  1 26  1  0  0  0  0
  2  3  1  0  0  0  0
  2 27  1  0  0  0  0
  2 28  1  0  0  0  0
  3  4  1  0  0  0  0
  3 29  1  0  0  0  0
  3 30  1  0  0  0  0
  4  5  2  0  0  0  0
  4  6  2  0  0  0  0
  4  7  1  0  0  0  0
  7  8  1  0  0  0  0
  7  9  1  0  0  0  0
  8 31  1  0  0  0  0
  8 32  1  0  0  0  0
  8 33  1  0  0  0  0
  9 10  1  0  0  0  0
  9 34  1  0  0  0  0
  9 35  1  0  0  0  0
 10 11  1  0  0  0  0
 10 12  1  0  0  0  0
 10 36  1  0  0  0  0
 11 37  1  0  0  0  0
 12 13  1  0  0  0  0
 12 38  1  0  0  0  0
 12 39  1  0  0  0  0
 13 23  1  0  0  0  0
 13 14  1  0  0  0  0
 14 15  2  0  0  0  0
 14 40  1  0  0  0  0
 15 16  1  0  0  0  0
 16 23  2  0  0  0  0
 16 17  1  0  0  0  0
 17 18  2  0  0  0  0
 17 41  1  0  0  0  0
 18 19  1  0  0  0  0
 18 20  1  0  0  0  0
 19 42  1  0  0  0  0
 19 43  1  0  0  0  0
 19 44  1  0  0  0  0
 20 21  1  0  0  0  0
 20 22  2  0  0  0  0
 21 45  1  0  0  0  0
 21 46  1  0  0  0  0
 21 47  1  0  0  0  0
 22 23  1  0  0  0  0
 22 48  1  0  0  0  0
M  END
> <s_m_source_file>
AV-unprocessed.smi

> <i_m_source_file_index>
2825

> <i_lp_mmshare_version>
43012

> <i_f3d_flags>
0

> <s_epik_input>
W0NIM11bQ0gyXVtDSDJdUyg9TykoPU8pTihbQ0gzXSlbQ0gyXVtDQEhdKFtPSF0pW0NIMl1uKFtjSF1uMSljKGMxMilbY0hdYyhbQ0gzXSljKFtjSF0yKVtDSDNd

> <s_epik_cmdline>
J2VwaWtfcHl0aG9uJywgJy1waCcsICc3LjAnLCAnLXRuJywgJzgnLCAnLW1hJywgJzIwMCcsICctbWV0YWxfYmluZGluZycsICctaW1hZScsICc8aW5maWxlLm1hZT4nLCAnLW9tYWUnLCAnPG91dGZpbGUubWFlPic=

> <r_epik_Ionization_Penalty>
0.104931

> <r_epik_Ionization_Penalty_Charging>
0

> <r_epik_Ionization_Penalty_Neutral>
0.104931

> <r_epik_State_Penalty>
0.0948201

> <r_epik_Charging_Adjusted_Penalty>
0.0948201

> <i_epik_Tot_Q>
0

> <i_epik_Tot_abs_Q>
0

> <r_epik_Metal_State_Penalty>
0.00010282

> <b_epik_Metal_Only>
0

> <s_lp_Force_Field>
OPLS_2005

> <r_lp_Energy>
0.666552

> <b_lp_Chiralities_Consistent>
1

> <s_lp_Variant>
AV-unprocessed.smi:2825-1

> <Gold.Version>
5.8.1

> <Gold.Id.Protein>
6NUR|6NUR_protein|mol2

> <Gold.PLP.Fitness>
50.8972

> <Gold.PLP.PLP>
-43.6777

> <Gold.PLP.part.hbond>
-4.0000

> <Gold.PLP.part.metal>
0.0000

> <Gold.PLP.part.buried>
-3.3370

> <Gold.PLP.part.nonpolar>
-35.7167

> <Gold.PLP.part.repulsive>
0.0824

> <Gold.PLP.ligand.clash>
0.0000

> <Gold.PLP.ligand.torsion>
1.6286

> <Gold.PLP.Chemscore.Hbond>
2.6660

> <Gold.PLP.Chemscore.CHOScore>
0.0000

> <Gold.PLP.Chemscore.Metal>
0.0000

> <Gold.Chemscore.Hbonds>
donor molecule, donor type, donor heavy atom, donor atom, acceptor molecule, acceptor atom, score
      L1  H    11    37       P1  7957  0.82
      P1  H  8011  8017       L1    11  0.85
      P1  H 10752 10763       L1     6  1.00

> <Gold.PLP.Chemscore.Internal.Correction>
2.4788

> <Gold.Rescore>
     Score         DG    S(hbond)    S(metal)    S(lipo)     H(rot)  DE(clash)    DE(int)     intcor
     14.26     -19.63       2.08        0.00     114.86       2.43       2.21       3.17       ----

> <Gold.Chemscore.Fitness>
14.2573

> <Gold.Chemscore.DG>
-19.6311

> <Gold.Chemscore.ZeroCoef>
-5.4800

> <Gold.Chemscore.Hbond>
2.0781

> <Gold.Chemscore.Metal>
0.0000

> <Gold.Chemscore.Lipo>
114.8635

> <Gold.Chemscore.Internal_Hbond>
0.0000

> <Gold.Chemscore.DEClash>
2.2075

> <Gold.Chemscore.DEInternal>
3.1662

> <Gold.Chemscore.Rot>
2.4332

> <Gold.Chemscore.Internal.Correction>
   9.000000E+99

> <Gold.Chemscore.Hbonds>
donor molecule, donor type, donor heavy atom, donor atom, acceptor molecule, acceptor atom, score
      L1  H    11    37       P1  7957  0.81
      P1  H  8011  8017       L1    11  0.14
      P1  H 10752 10763       L1     6  0.94

> <Gold.Chemscore.Hbond.Weighted>
-6.9410

> <Gold.Chemscore.Metal.Weighted>
-0.0000

> <Gold.Chemscore.Lipo.Weighted>
-13.4390

> <Gold.Chemscore.Internal_Hbond.Weighted>
0.0000

> <Gold.Chemscore.DEClash.Weighted>
2.2075

> <Gold.Chemscore.DEInternal.Weighted>
3.1662

> <Gold.Chemscore.Rot.Weighted>
6.2289

> <Gold.Chemscore.Internal.Correction.Weighted>
   9.000000E+99

> <Gold.Protein.RotatedTorsions>
[ 6907 6896 6895 6894 ] final  -55.92 input  -60.11 | X-H torsion
[ 7974 7965 7964 7962 ] final  -22.09 input  175.53 | X-H torsion
[ 8008 7997 7996 7995 ] final  -91.24 input   59.86 | X-H torsion
[ 10167 10162 10161 10158 ] final  -88.65 input  -65.29 | X-H torsion
[ 10718 10713 10712 10709 ] final  136.77 input   66.30 | X-H torsion
[ 10763 10752 10751 10750 ] final   75.93 input  -60.55 | X-H torsion
[ 11005 11000 10999 10996 ] final -144.47 input  -57.11 | X-H torsion

> <Gold.Protein.ActiveResidues>
 VAL166  LYS551  ARG553  GLY616  TRP617  ASP618  TYR619  PRO620  LYS621  CYS622 
 ASP623  PHE694  ASN695  SER759  ASP760  ASP761  ALA762  ILE779  LEU786  VAL792 
 PHE793  MET794  SER795  GLU796  ALA797  LYS798  CYS799  TRP800  GLU811  SER814 

> <Gold.Protein.RotatedAtoms>
  150.8211  134.7418  159.6772 H   0  0  0  0  0  0  0  0  0  0  0  0  # atno 6907 bound_to 6896
  152.4326  134.5745  159.9940 H   0  0  0  0  0  0  0  0  0  0  0  0  # atno 6908 bound_to 6896
  151.5929  133.3327  159.3067 H   0  0  0  0  0  0  0  0  0  0  0  0  # atno 6909 bound_to 6896
  146.1695  140.4431  142.8538 H   0  0  0  0  0  0  0  0  0  0  0  0  # atno 7974 bound_to 7965
  154.7084  140.0521  157.0526 H   0  0  0  0  0  0  0  0  0  0  0  0  # atno 8008 bound_to 7997
  155.0589  140.3187  155.4648 H   0  0  0  0  0  0  0  0  0  0  0  0  # atno 8009 bound_to 7997
  156.2782  140.2102  156.5715 H   0  0  0  0  0  0  0  0  0  0  0  0  # atno 8010 bound_to 7997
  140.3726  143.2787  151.9482 H   0  0  0  0  0  0  0  0  0  0  0  0  # atno 10167 bound_to 10162
  157.4432  131.1059  151.0119 H   0  0  0  0  0  0  0  0  0  0  0  0  # atno 10718 bound_to 10713
  153.0689  135.4970  154.8262 H   0  0  0  0  0  0  0  0  0  0  0  0  # atno 10763 bound_to 10752
  154.6995  135.2999  154.9365 H   0  0  0  0  0  0  0  0  0  0  0  0  # atno 10764 bound_to 10752
  154.0093  135.6756  153.4817 H   0  0  0  0  0  0  0  0  0  0  0  0  # atno 10765 bound_to 10752
  140.8021  134.2844  157.4974 H   0  0  0  0  0  0  0  0  0  0  0  0  # atno 11005 bound_to 11000
  144.8142  140.6439  143.6395 LP  0  0  0  0  0  0  0  0  0  0  0  0  # atno 17320 bound_to 7965
  145.4377  139.1540  143.3987 LP  0  0  0  0  0  0  0  0  0  0  0  0  # atno 17321 bound_to 7965
  139.4802  144.5893  151.7800 LP  0  0  0  0  0  0  0  0  0  0  0  0  # atno 17342 bound_to 10162
  140.5018  144.1157  150.5973 LP  0  0  0  0  0  0  0  0  0  0  0  0  # atno 17343 bound_to 10162
  157.0975  130.5968  149.5453 LP  0  0  0  0  0  0  0  0  0  0  0  0  # atno 17370 bound_to 10713
  155.9957  130.5024  150.7468 LP  0  0  0  0  0  0  0  0  0  0  0  0  # atno 17371 bound_to 10713
  139.8721  134.9435  156.3856 LP  0  0  0  0  0  0  0  0  0  0  0  0  # atno 17394 bound_to 11000
  140.9284  133.7596  155.9993 LP  0  0  0  0  0  0  0  0  0  0  0  0  # atno 17395 bound_to 11000

$$$$
