AV-unprocessed.smi:1199|AV-procd|sdf|5018|dock7
  -GOLD-   22720 4 33D 1   1.00000     0.00000
 Structure written by MMmdl.
 41 42  0  0  0  0  0  0  0  0  1 V2000
  147.6477  139.0574  153.5558 C   0  0  0  0  0  0  0  0  0  0  0  0
  147.7579  140.2846  154.4702 C   0  0  2  0  0  0  0  0  0  0  0  0
  147.4058  141.5860  153.7149 C   0  0  0  0  0  0  0  0  0  0  0  0
  146.5700  142.5342  154.4541 N   0  0  0  0  0  0  0  0  0  0  0  0
  145.6094  141.8801  155.3383 C   0  0  0  0  0  0  0  0  0  0  0  0
  144.7708  142.9070  156.1180 C   0  0  0  0  0  0  0  0  0  0  0  0
  144.1059  143.7723  155.2029 O   0  0  0  0  0  0  0  0  0  0  0  0
  145.0072  144.4564  154.3380 C   0  0  0  0  0  0  0  0  0  0  0  0
  145.8537  143.4342  153.5588 C   0  0  0  0  0  0  0  0  0  0  0  0
  149.1182  140.3744  154.9982 N   0  0  0  0  0  0  0  0  0  0  0  0
  149.5268  141.2071  155.9684 C   0  0  0  0  0  0  0  0  0  0  0  0
  148.7632  141.9076  156.6336 O   0  0  0  0  0  0  0  0  0  0  0  0
  151.0381  141.2677  156.2188 C   0  0  0  0  0  0  0  0  0  0  0  0
  151.3543  141.9763  157.4670 N   0  0  0  0  0  0  0  0  0  0  0  0
  150.6920  143.1848  157.6188 N   0  0  0  0  0  0  0  0  0  0  0  0
  150.9160  143.9159  158.6578 C   0  0  0  0  0  0  0  0  0  0  0  0
  150.2425  145.1076  158.7659 O   0  0  0  0  0  0  0  0  0  0  0  0
  151.8492  143.4980  159.6809 C   0  0  0  0  0  0  0  0  0  0  0  0
  152.4830  142.3145  159.5291 C   0  0  0  0  0  0  0  0  0  0  0  0
  152.2486  141.4579  158.3656 C   0  0  0  0  0  0  0  0  0  0  0  0
  152.8054  140.3716  158.2059 O   0  0  0  0  0  0  0  0  0  0  0  0
  149.7421  145.1854  157.9681 H   0  0  0  0  0  0  0  0  0  0  0  0
  146.6391  138.9589  153.1539 H   0  0  0  0  0  0  0  0  0  0  0  0
  147.8760  138.1406  154.1005 H   0  0  0  0  0  0  0  0  0  0  0  0
  148.3362  139.1246  152.7126 H   0  0  0  0  0  0  0  0  0  0  0  0
  147.0443  140.1387  155.2819 H   0  0  0  0  0  0  0  0  0  0  0  0
  148.3438  142.0791  153.4556 H   0  0  0  0  0  0  0  0  0  0  0  0
  146.9285  141.3406  152.7652 H   0  0  0  0  0  0  0  0  0  0  0  0
  144.9476  141.2372  154.7561 H   0  0  0  0  0  0  0  0  0  0  0  0
  146.1218  141.2352  156.0501 H   0  0  0  0  0  0  0  0  0  0  0  0
  144.0287  142.4011  156.7355 H   0  0  0  0  0  0  0  0  0  0  0  0
  145.4033  143.4907  156.7892 H   0  0  0  0  0  0  0  0  0  0  0  0
  144.4373  145.0810  153.6500 H   0  0  0  0  0  0  0  0  0  0  0  0
  145.6455  145.1217  154.9215 H   0  0  0  0  0  0  0  0  0  0  0  0
  146.5623  143.9663  152.9231 H   0  0  0  0  0  0  0  0  0  0  0  0
  145.2077  142.8584  152.8941 H   0  0  0  0  0  0  0  0  0  0  0  0
  149.8232  139.8332  154.5191 H   0  0  0  0  0  0  0  0  0  0  0  0
  151.4187  140.2454  156.2498 H   0  0  0  0  0  0  0  0  0  0  0  0
  151.5456  141.7471  155.3793 H   0  0  0  0  0  0  0  0  0  0  0  0
  152.0281  144.1244  160.5424 H   0  0  0  0  0  0  0  0  0  0  0  0
  153.1834  141.9906  160.2850 H   0  0  0  0  0  0  0  0  0  0  0  0
  1  2  1  0  0  0  0
  1 23  1  0  0  0  0
  1 24  1  0  0  0  0
  1 25  1  0  0  0  0
  2  3  1  0  0  0  0
  2 10  1  0  0  0  0
  2 26  1  0  0  0  0
  3  4  1  0  0  0  0
  3 27  1  0  0  0  0
  3 28  1  0  0  0  0
  4  9  1  0  0  0  0
  4  5  1  0  0  0  0
  5  6  1  0  0  0  0
  5 29  1  0  0  0  0
  5 30  1  0  0  0  0
  6  7  1  0  0  0  0
  6 31  1  0  0  0  0
  6 32  1  0  0  0  0
  7  8  1  0  0  0  0
  8  9  1  0  0  0  0
  8 33  1  0  0  0  0
  8 34  1  0  0  0  0
  9 35  1  0  0  0  0
  9 36  1  0  0  0  0
 10 11  1  0  0  0  0
 10 37  1  0  0  0  0
 11 12  2  0  0  0  0
 11 13  1  0  0  0  0
 13 38  1  0  0  0  0
 13 39  1  0  0  0  0
 13 14  1  0  0  0  0
 14 15  1  0  0  0  0
 14 20  1  0  0  0  0
 15 16  2  0  0  0  0
 16 17  1  0  0  0  0
 16 18  1  0  0  0  0
 17 22  1  0  0  0  0
 18 40  1  0  0  0  0
 18 19  2  0  0  0  0
 19 41  1  0  0  0  0
 19 20  1  0  0  0  0
 20 21  2  0  0  0  0
M  END
> <s_m_source_file>
AV-unprocessed.smi

> <i_m_source_file_index>
1199

> <i_lp_mmshare_version>
43012

> <i_f3d_flags>
0

> <s_epik_input>
W0NIMl0xW0NIMl1PW0NIMl1bQ0gyXU4xW0NIMl1bQ0BASF0oW0NIM10pW05IXUMoPU8pW0NIMl1uMltuSF1jKD1PKVtjSF1bY0hdYzI9Tw==

> <s_epik_cmdline>
J2VwaWtfcHl0aG9uJywgJy1waCcsICc3LjAnLCAnLXRuJywgJzgnLCAnLW1hJywgJzIwMCcsICctbWV0YWxfYmluZGluZycsICctaW1hZScsICc8aW5maWxlLm1hZT4nLCAnLW9tYWUnLCAnPG91dGZpbGUubWFlPic=

> <r_epik_Ionization_Penalty>
2.36432

> <r_epik_Ionization_Penalty_Charging>
3.67277e-08

> <r_epik_Ionization_Penalty_Neutral>
2.36432

> <r_epik_State_Penalty>
1.96081

> <r_epik_Charging_Adjusted_Penalty>
1.96081

> <i_epik_Tot_Q>
0

> <i_epik_Tot_abs_Q>
0

> <r_epik_Metal_State_Penalty>
1.96081

> <b_epik_Metal_Only>
0

> <s_lp_Force_Field>
OPLS_2005

> <r_lp_Energy>
35.6953

> <b_lp_Chiralities_Consistent>
1

> <s_lp_Variant>
AV-unprocessed.smi:1199-5

> <Gold.Version>
5.8.1

> <Gold.Id.Protein>
6NUR|6NUR_protein|mol2

> <Gold.PLP.Fitness>
36.1714

> <Gold.PLP.PLP>
-33.4038

> <Gold.PLP.part.hbond>
-2.0000

> <Gold.PLP.part.metal>
0.0000

> <Gold.PLP.part.buried>
-6.3371

> <Gold.PLP.part.nonpolar>
-26.1915

> <Gold.PLP.part.repulsive>
1.2828

> <Gold.PLP.ligand.clash>
0.0000

> <Gold.PLP.ligand.torsion>
1.2094

> <Gold.PLP.Chemscore.Hbond>
1.7170

> <Gold.PLP.Chemscore.CHOScore>
0.0000

> <Gold.PLP.Chemscore.Metal>
0.0000

> <Gold.Chemscore.Hbonds>
donor molecule, donor type, donor heavy atom, donor atom, acceptor molecule, acceptor atom, score
      L1  H    17    22       P1  8029  0.55
      P1  H  7997  8010       L1    21  0.63

> <Gold.PLP.Chemscore.Internal.Correction>
0.0352

> <Gold.Rescore>
     Score         DG    S(hbond)    S(metal)    S(lipo)     H(rot)  DE(clash)    DE(int)     intcor
      6.13      -9.41       1.21        0.00      63.56       2.94       0.19       3.08       ----

> <Gold.Chemscore.Fitness>
6.1306

> <Gold.Chemscore.DG>
-9.4087

> <Gold.Chemscore.ZeroCoef>
-5.4800

> <Gold.Chemscore.Hbond>
1.2060

> <Gold.Chemscore.Metal>
0.0000

> <Gold.Chemscore.Lipo>
63.5607

> <Gold.Chemscore.Internal_Hbond>
0.0000

> <Gold.Chemscore.DEClash>
0.1942

> <Gold.Chemscore.DEInternal>
3.0839

> <Gold.Chemscore.Rot>
2.9437

> <Gold.Chemscore.Internal.Correction>
   9.000000E+99

> <Gold.Chemscore.Hbonds>
donor molecule, donor type, donor heavy atom, donor atom, acceptor molecule, acceptor atom, score
      L1  H    17    22       P1  8029  0.08
      P1  H  7997  8010       L1    21  0.60

> <Gold.Chemscore.Hbond.Weighted>
-4.0280

> <Gold.Chemscore.Metal.Weighted>
-0.0000

> <Gold.Chemscore.Lipo.Weighted>
-7.4366

> <Gold.Chemscore.Internal_Hbond.Weighted>
0.0000

> <Gold.Chemscore.DEClash.Weighted>
0.1942

> <Gold.Chemscore.DEInternal.Weighted>
3.0839

> <Gold.Chemscore.Rot.Weighted>
7.5359

> <Gold.Chemscore.Internal.Correction.Weighted>
   9.000000E+99

> <Gold.Protein.RotatedTorsions>
[ 6907 6896 6895 6894 ] final  114.85 input  -60.11 | X-H torsion
[ 7974 7965 7964 7962 ] final    6.33 input  175.53 | X-H torsion
[ 8008 7997 7996 7995 ] final   40.05 input   59.86 | X-H torsion
[ 10167 10162 10161 10158 ] final -108.64 input  -65.29 | X-H torsion
[ 10718 10713 10712 10709 ] final   18.35 input   66.30 | X-H torsion
[ 10763 10752 10751 10750 ] final -138.18 input  -60.55 | X-H torsion
[ 11005 11000 10999 10996 ] final  -84.10 input  -57.11 | X-H torsion

> <Gold.Protein.ActiveResidues>
 VAL166  LYS551  ARG553  GLY616  TRP617  ASP618  TYR619  PRO620  LYS621  CYS622 
 ASP623  PHE694  ASN695  SER759  ASP760  ASP761  ALA762  ILE779  LEU786  VAL792 
 PHE793  MET794  SER795  GLU796  ALA797  LYS798  CYS799  TRP800  GLU811  SER814 

> <Gold.Protein.RotatedAtoms>
  152.4778  133.8179  159.7037 H   0  0  0  0  0  0  0  0  0  0  0  0  # atno 6907 bound_to 6896
  150.8806  133.7368  159.2940 H   0  0  0  0  0  0  0  0  0  0  0  0  # atno 6908 bound_to 6896
  151.4873  135.1059  159.9846 H   0  0  0  0  0  0  0  0  0  0  0  0  # atno 6909 bound_to 6896
  146.2435  140.0250  142.8394 H   0  0  0  0  0  0  0  0  0  0  0  0  # atno 7974 bound_to 7965
  155.2467  140.3349  155.4286 H   0  0  0  0  0  0  0  0  0  0  0  0  # atno 8008 bound_to 7997
  156.2233  140.1818  156.7469 H   0  0  0  0  0  0  0  0  0  0  0  0  # atno 8009 bound_to 7997
  154.5859  140.0646  156.9155 H   0  0  0  0  0  0  0  0  0  0  0  0  # atno 8010 bound_to 7997
  140.1640  143.4097  152.1404 H   0  0  0  0  0  0  0  0  0  0  0  0  # atno 10167 bound_to 10162
  157.0951  130.6444  149.5858 H   0  0  0  0  0  0  0  0  0  0  0  0  # atno 10718 bound_to 10713
  154.8643  135.3620  154.5342 H   0  0  0  0  0  0  0  0  0  0  0  0  # atno 10763 bound_to 10752
  153.5967  135.7014  153.5406 H   0  0  0  0  0  0  0  0  0  0  0  0  # atno 10764 bound_to 10752
  153.3326  135.4120  155.1469 H   0  0  0  0  0  0  0  0  0  0  0  0  # atno 10765 bound_to 10752
  141.1653  133.7328  156.8818 H   0  0  0  0  0  0  0  0  0  0  0  0  # atno 11005 bound_to 11000
  145.1206  140.9460  143.4602 LP  0  0  0  0  0  0  0  0  0  0  0  0  # atno 17320 bound_to 7965
  145.0485  139.3201  143.5941 LP  0  0  0  0  0  0  0  0  0  0  0  0  # atno 17321 bound_to 7965
  139.5368  144.7217  151.4866 LP  0  0  0  0  0  0  0  0  0  0  0  0  # atno 17342 bound_to 10162
  140.6625  143.8468  150.6904 LP  0  0  0  0  0  0  0  0  0  0  0  0  # atno 17343 bound_to 10162
  155.9888  130.4933  150.7186 LP  0  0  0  0  0  0  0  0  0  0  0  0  # atno 17370 bound_to 10713
  157.4688  131.0891  151.0665 LP  0  0  0  0  0  0  0  0  0  0  0  0  # atno 17371 bound_to 10713
  140.1709  134.9100  157.2832 LP  0  0  0  0  0  0  0  0  0  0  0  0  # atno 17394 bound_to 11000
  140.2503  134.3691  155.7445 LP  0  0  0  0  0  0  0  0  0  0  0  0  # atno 17395 bound_to 11000

$$$$
