AV-unprocessed.smi:2346|AV-procd|sdf|9368|dock1
  -GOLD-   2272012593D 1   1.00000     0.00000
 Structure written by MMmdl.
 45 47  0  0  0  0  0  0  0  0  2 V2000
  154.9249  134.6043  159.9194 C   0  0  0  0  0  0  0  0  0  0  0  0
  154.0916  135.7278  159.6745 O   0  0  0  0  0  0  0  0  0  0  0  0
  154.2041  136.8219  160.5078 C   0  0  0  0  0  0  0  0  0  0  0  0
  154.5829  136.7341  161.8716 C   0  0  0  0  0  0  0  0  0  0  0  0
  154.6743  137.8938  162.6657 C   0  0  0  0  0  0  0  0  0  0  0  0
  155.0633  137.7917  164.0624 C   0  0  0  0  0  0  0  0  0  0  0  0
  155.3726  137.7103  165.1742 N   0  0  0  0  0  0  0  0  0  0  0  0
  154.3879  139.1512  162.1034 C   0  0  0  0  0  0  0  0  0  0  0  0
  154.0133  139.2487  160.7513 C   0  0  0  0  0  0  0  0  0  0  0  0
  153.9187  138.0869  159.9440 C   0  0  0  0  0  0  0  0  0  0  0  0
  153.5564  138.1082  158.6128 O   0  0  0  0  0  0  0  0  0  0  0  0
  153.2641  139.3597  158.0093 C   0  0  0  0  0  0  0  0  0  0  0  0
  151.7619  139.6276  158.1563 C   0  0  0  0  0  0  0  0  0  0  0  0
  151.3992  140.9793  157.7069 N   0  0  0  0  0  0  0  0  0  0  0  0
  150.6698  141.3931  156.6287 C   0  0  0  0  0  0  0  0  0  0  0  0
  150.0060  140.5369  155.5940 C   0  0  1  0  0  0  0  0  0  0  0  0
  149.1856  141.3946  154.6217 C   0  0  0  0  0  0  0  0  0  0  0  0
  150.9419  139.7850  154.8501 O   0  0  0  0  0  0  0  0  0  0  0  0
  150.6226  142.7553  156.6763 N   0  3  0  0  0  0  0  0  0  0  0  0
  151.3229  143.2171  157.7902 C   0  0  0  0  0  0  0  0  0  0  0  0
  151.5492  144.5101  158.2517 C   0  0  0  0  0  0  0  0  0  0  0  0
  152.3032  144.6355  159.4369 C   0  0  0  0  0  0  0  0  0  0  0  0
  152.7983  143.5028  160.1150 C   0  0  0  0  0  0  0  0  0  0  0  0
  152.5630  142.1967  159.6363 C   0  0  0  0  0  0  0  0  0  0  0  0
  151.8195  142.0813  158.4616 C   0  0  0  0  0  0  0  0  0  0  0  0
  154.6965  133.8234  159.1945 H   0  0  0  0  0  0  0  0  0  0  0  0
  154.7533  134.1894  160.9136 H   0  0  0  0  0  0  0  0  0  0  0  0
  155.9801  134.8577  159.8093 H   0  0  0  0  0  0  0  0  0  0  0  0
  154.8083  135.7816  162.3279 H   0  0  0  0  0  0  0  0  0  0  0  0
  154.4535  140.0473  162.7040 H   0  0  0  0  0  0  0  0  0  0  0  0
  153.8030  140.2310  160.3570 H   0  0  0  0  0  0  0  0  0  0  0  0
  153.8288  140.1536  158.4996 H   0  0  0  0  0  0  0  0  0  0  0  0
  153.5383  139.3442  156.9533 H   0  0  0  0  0  0  0  0  0  0  0  0
  151.1772  138.8958  157.5986 H   0  0  0  0  0  0  0  0  0  0  0  0
  151.4597  139.5231  159.1979 H   0  0  0  0  0  0  0  0  0  0  0  0
  149.3419  139.8268  156.0851 H   0  0  0  0  0  0  0  0  0  0  0  0
  148.4215  141.9654  155.1496 H   0  0  0  0  0  0  0  0  0  0  0  0
  148.6786  140.7742  153.8821 H   0  0  0  0  0  0  0  0  0  0  0  0
  149.8172  142.1034  154.0847 H   0  0  0  0  0  0  0  0  0  0  0  0
  150.5294  138.9806  154.5741 H   0  0  0  0  0  0  0  0  0  0  0  0
  151.1685  145.3788  157.7347 H   0  0  0  0  0  0  0  0  0  0  0  0
  152.5039  145.6197  159.8345 H   0  0  0  0  0  0  0  0  0  0  0  0
  153.3706  143.6381  161.0214 H   0  0  0  0  0  0  0  0  0  0  0  0
  152.9452  141.3370  160.1664 H   0  0  0  0  0  0  0  0  0  0  0  0
  150.1396  143.3230  155.9917 H   0  0  0  0  0  0  0  0  0  0  0  0
  1  2  1  0  0  0  0
  1 26  1  0  0  0  0
  1 27  1  0  0  0  0
  1 28  1  0  0  0  0
  2  3  1  0  0  0  0
  3 10  1  0  0  0  0
  3  4  2  0  0  0  0
  4  5  1  0  0  0  0
  4 29  1  0  0  0  0
  5  6  1  0  0  0  0
  5  8  2  0  0  0  0
  6  7  3  0  0  0  0
  8  9  1  0  0  0  0
  8 30  1  0  0  0  0
  9 10  2  0  0  0  0
  9 31  1  0  0  0  0
 10 11  1  0  0  0  0
 11 12  1  0  0  0  0
 12 13  1  0  0  0  0
 12 32  1  0  0  0  0
 12 33  1  0  0  0  0
 13 14  1  0  0  0  0
 13 34  1  0  0  0  0
 13 35  1  0  0  0  0
 14 25  1  0  0  0  0
 14 15  1  0  0  0  0
 15 16  1  0  0  0  0
 15 19  2  0  0  0  0
 16 17  1  0  0  0  0
 16 18  1  0  0  0  0
 16 36  1  0  0  0  0
 17 37  1  0  0  0  0
 17 38  1  0  0  0  0
 17 39  1  0  0  0  0
 18 40  1  0  0  0  0
 19 20  1  0  0  0  0
 19 45  1  0  0  0  0
 20 25  2  0  0  0  0
 20 21  1  0  0  0  0
 21 22  2  0  0  0  0
 21 41  1  0  0  0  0
 22 23  1  0  0  0  0
 22 42  1  0  0  0  0
 23 24  2  0  0  0  0
 23 43  1  0  0  0  0
 24 25  1  0  0  0  0
 24 44  1  0  0  0  0
M  CHG  1  19   1
M  END
> <s_m_source_file>
AV-unprocessed.smi

> <i_m_source_file_index>
2346

> <i_lp_mmshare_version>
43012

> <i_f3d_flags>
0

> <s_epik_input>
W0NIM11PYzFbY0hdYyhDI04pW2NIXVtjSF1jMU9bQ0gyXVtDSDJdbihjKG4yKVtDQEhdKFtDSDNdKVtPSF0pYyhjMjMpW2NIXVtjSF1bY0hdW2NIXTM=

> <s_epik_cmdline>
J2VwaWtfcHl0aG9uJywgJy1waCcsICc3LjAnLCAnLXRuJywgJzgnLCAnLW1hJywgJzIwMCcsICctbWV0YWxfYmluZGluZycsICctaW1hZScsICc8aW5maWxlLm1hZT4nLCAnLW9tYWUnLCAnPG91dGZpbGUubWFlPic=

> <r_epik_Ionization_Penalty>
1.58928

> <r_epik_Ionization_Penalty_Charging>
1.58925

> <r_epik_Ionization_Penalty_Neutral>
2.92192e-05

> <r_epik_State_Penalty>
1.68649

> <r_epik_Charging_Adjusted_Penalty>
3.27574

> <i_epik_Tot_Q>
1

> <i_epik_Tot_abs_Q>
1

> <r_epik_Metal_State_Penalty>
5.74385

> <b_epik_Metal_Only>
0

> <s_lp_Force_Field>
OPLS_2005

> <r_lp_Energy>
24.4742

> <b_lp_Chiralities_Consistent>
1

> <s_lp_Variant>
AV-unprocessed.smi:2346-4

> <Gold.Version>
5.8.1

> <Gold.Id.Protein>
6NUR|6NUR_protein|mol2

> <Gold.PLP.Fitness>
57.4014

> <Gold.PLP.PLP>
-47.0194

> <Gold.PLP.part.hbond>
-3.0000

> <Gold.PLP.part.metal>
0.0000

> <Gold.PLP.part.buried>
-3.8979

> <Gold.PLP.part.nonpolar>
-41.4383

> <Gold.PLP.part.repulsive>
0.1447

> <Gold.PLP.ligand.clash>
0.0000

> <Gold.PLP.ligand.torsion>
0.6906

> <Gold.PLP.Chemscore.Hbond>
3.8700

> <Gold.PLP.Chemscore.CHOScore>
0.0000

> <Gold.PLP.Chemscore.Metal>
0.0000

> <Gold.Chemscore.Hbonds>
donor molecule, donor type, donor heavy atom, donor atom, acceptor molecule, acceptor atom, score
      L1  H    19    45       P1  8028  1.92
      P1  H  6896  6907       L1     2  0.94
      P1  H  7989  7998       L1    18  1.00

> <Gold.PLP.Chemscore.Internal.Correction>
0.1532

> <Gold.Rescore>
     Score         DG    S(hbond)    S(metal)    S(lipo)     H(rot)  DE(clash)    DE(int)     intcor
     19.46     -21.41       2.07        0.00     134.88       2.65       1.30       0.66       ----

> <Gold.Chemscore.Fitness>
19.4559

> <Gold.Chemscore.DG>
-21.4082

> <Gold.Chemscore.ZeroCoef>
-5.4800

> <Gold.Chemscore.Hbond>
2.0729

> <Gold.Chemscore.Metal>
0.0000

> <Gold.Chemscore.Lipo>
134.8757

> <Gold.Chemscore.Internal_Hbond>
0.0000

> <Gold.Chemscore.DEClash>
1.2956

> <Gold.Chemscore.DEInternal>
0.6568

> <Gold.Chemscore.Rot>
2.6467

> <Gold.Chemscore.Internal.Correction>
   9.000000E+99

> <Gold.Chemscore.Hbonds>
donor molecule, donor type, donor heavy atom, donor atom, acceptor molecule, acceptor atom, score
      L1  H    19    45       P1  8028  0.92
      P1  H  6896  6907       L1     2  0.12
      P1  H  7989  7998       L1    18  0.65

> <Gold.Chemscore.Hbond.Weighted>
-6.9234

> <Gold.Chemscore.Metal.Weighted>
-0.0000

> <Gold.Chemscore.Lipo.Weighted>
-15.7805

> <Gold.Chemscore.Internal_Hbond.Weighted>
0.0000

> <Gold.Chemscore.DEClash.Weighted>
1.2956

> <Gold.Chemscore.DEInternal.Weighted>
0.6568

> <Gold.Chemscore.Rot.Weighted>
6.7756

> <Gold.Chemscore.Internal.Correction.Weighted>
   9.000000E+99

> <Gold.Protein.RotatedTorsions>
[ 6907 6896 6895 6894 ] final   43.46 input  -60.11 | X-H torsion
[ 7974 7965 7964 7962 ] final  163.12 input  175.53 | X-H torsion
[ 8008 7997 7996 7995 ] final  155.01 input   59.86 | X-H torsion
[ 10167 10162 10161 10158 ] final -114.87 input  -65.29 | X-H torsion
[ 10718 10713 10712 10709 ] final -158.91 input   66.30 | X-H torsion
[ 10763 10752 10751 10750 ] final   94.17 input  -60.55 | X-H torsion
[ 11005 11000 10999 10996 ] final    7.20 input  -57.11 | X-H torsion

> <Gold.Protein.ActiveResidues>
 VAL166  LYS551  ARG553  GLY616  TRP617  ASP618  TYR619  PRO620  LYS621  CYS622 
 ASP623  PHE694  ASN695  SER759  ASP760  ASP761  ALA762  ILE779  LEU786  VAL792 
 PHE793  MET794  SER795  GLU796  ALA797  LYS798  CYS799  TRP800  GLU811  SER814 

> <Gold.Protein.RotatedAtoms>
  152.2206  134.8417  160.0486 H   0  0  0  0  0  0  0  0  0  0  0  0  # atno 6907 bound_to 6896
  151.9202  133.3578  159.3902 H   0  0  0  0  0  0  0  0  0  0  0  0  # atno 6908 bound_to 6896
  150.6999  134.4568  159.5406 H   0  0  0  0  0  0  0  0  0  0  0  0  # atno 6909 bound_to 6896
  144.7604  139.8138  143.6334 H   0  0  0  0  0  0  0  0  0  0  0  0  # atno 7974 bound_to 7965
  156.2501  140.1951  156.6736 H   0  0  0  0  0  0  0  0  0  0  0  0  # atno 8008 bound_to 7997
  154.6374  140.0588  156.9831 H   0  0  0  0  0  0  0  0  0  0  0  0  # atno 8009 bound_to 7997
  155.1615  140.3260  155.4413 H   0  0  0  0  0  0  0  0  0  0  0  0  # atno 8010 bound_to 7997
  140.0963  143.4653  152.1839 H   0  0  0  0  0  0  0  0  0  0  0  0  # atno 10167 bound_to 10162
  156.5608  130.8646  151.2809 H   0  0  0  0  0  0  0  0  0  0  0  0  # atno 10718 bound_to 10713
  153.2386  135.4299  155.0674 H   0  0  0  0  0  0  0  0  0  0  0  0  # atno 10763 bound_to 10752
  154.8330  135.3397  154.6682 H   0  0  0  0  0  0  0  0  0  0  0  0  # atno 10764 bound_to 10752
  153.7106  135.7023  153.5095 H   0  0  0  0  0  0  0  0  0  0  0  0  # atno 10765 bound_to 10752
  140.5510  134.0283  155.7937 H   0  0  0  0  0  0  0  0  0  0  0  0  # atno 11005 bound_to 11000
  146.1661  139.4793  142.9957 LP  0  0  0  0  0  0  0  0  0  0  0  0  # atno 17320 bound_to 7965
  145.6638  141.0234  143.1695 LP  0  0  0  0  0  0  0  0  0  0  0  0  # atno 17321 bound_to 7965
  139.5696  144.7455  151.3927 LP  0  0  0  0  0  0  0  0  0  0  0  0  # atno 17342 bound_to 10162
  140.7002  143.7651  150.7390 LP  0  0  0  0  0  0  0  0  0  0  0  0  # atno 17343 bound_to 10162
  157.7369  130.9786  150.2161 LP  0  0  0  0  0  0  0  0  0  0  0  0  # atno 17370 bound_to 10713
  156.2801  130.3732  149.7944 LP  0  0  0  0  0  0  0  0  0  0  0  0  # atno 17371 bound_to 10713
  141.1172  133.9521  157.2800 LP  0  0  0  0  0  0  0  0  0  0  0  0  # atno 17394 bound_to 11000
  139.9455  135.0184  156.8840 LP  0  0  0  0  0  0  0  0  0  0  0  0  # atno 17395 bound_to 11000

$$$$
