AV-unprocessed.smi:3019|AV-procd|sdf|11491|dock3
  -GOLD-   2272016433D 1   1.00000     0.00000
 Structure written by MMmdl.
 30 31  0  0  0  0  0  0  0  0  1 V2000
  151.9179  144.0107  161.1351 C   0  0  0  0  0  0  0  0  0  0  0  0
  152.2083  142.6362  160.5148 C   0  0  0  0  0  0  0  0  0  0  0  0
  153.6950  142.2549  160.5718 C   0  0  0  0  0  0  0  0  0  0  0  0
  151.6633  142.5306  159.1236 C   0  0  0  0  0  0  0  0  0  0  0  0
  150.8648  143.4717  158.6209 N   0  0  0  0  0  0  0  0  0  0  0  0
  150.6132  142.9957  157.3835 N   0  0  0  0  0  0  0  0  0  0  0  0
  151.2545  141.8374  157.2147 C   0  0  0  0  0  0  0  0  0  0  0  0
  151.1608  141.0546  155.9433 C   0  0  2  0  0  0  0  0  0  0  0  0
  149.8098  141.2562  155.2294 C   0  0  0  0  0  0  0  0  0  0  0  0
  149.7311  140.4037  154.0441 N   0  0  0  0  0  0  0  0  0  0  0  0
  149.9709  139.0021  154.3852 C   0  0  0  0  0  0  0  0  0  0  0  0
  151.3124  138.8527  155.1250 C   0  0  0  0  0  0  0  0  0  0  0  0
  151.3130  139.6792  156.2839 O   0  0  0  0  0  0  0  0  0  0  0  0
  151.9446  141.4800  158.2936 N   0  0  0  0  0  0  0  0  0  0  0  0
  150.0252  143.4751  156.7167 H   0  0  0  0  0  0  0  0  0  0  0  0
  150.8479  144.2199  161.1399 H   0  0  0  0  0  0  0  0  0  0  0  0
  152.4108  144.8091  160.5798 H   0  0  0  0  0  0  0  0  0  0  0  0
  152.2687  144.0582  162.1663 H   0  0  0  0  0  0  0  0  0  0  0  0
  151.6788  141.9040  161.1269 H   0  0  0  0  0  0  0  0  0  0  0  0
  153.8555  141.2472  160.1869 H   0  0  0  0  0  0  0  0  0  0  0  0
  154.0684  142.2815  161.5957 H   0  0  0  0  0  0  0  0  0  0  0  0
  154.3031  142.9386  159.9788 H   0  0  0  0  0  0  0  0  0  0  0  0
  151.9807  141.3586  155.2892 H   0  0  0  0  0  0  0  0  0  0  0  0
  148.9927  141.0155  155.9109 H   0  0  0  0  0  0  0  0  0  0  0  0
  149.6857  142.3020  154.9477 H   0  0  0  0  0  0  0  0  0  0  0  0
  148.8141  140.4971  153.6188 H   0  0  0  0  0  0  0  0  0  0  0  0
  149.1628  138.6302  155.0164 H   0  0  0  0  0  0  0  0  0  0  0  0
  149.9708  138.3911  153.4825 H   0  0  0  0  0  0  0  0  0  0  0  0
  151.4580  137.8165  155.4304 H   0  0  0  0  0  0  0  0  0  0  0  0
  152.1490  139.1135  154.4750 H   0  0  0  0  0  0  0  0  0  0  0  0
  1  2  1  0  0  0  0
  1 16  1  0  0  0  0
  1 17  1  0  0  0  0
  1 18  1  0  0  0  0
  2  3  1  0  0  0  0
  2  4  1  0  0  0  0
  2 19  1  0  0  0  0
  3 20  1  0  0  0  0
  3 21  1  0  0  0  0
  3 22  1  0  0  0  0
  4 14  1  0  0  0  0
  4  5  2  0  0  0  0
  5  6  1  0  0  0  0
  6 15  1  0  0  0  0
  6  7  1  0  0  0  0
  7  8  1  0  0  0  0
  7 14  2  0  0  0  0
  8 13  1  0  0  0  0
  8  9  1  0  0  0  0
  8 23  1  0  0  0  0
  9 10  1  0  0  0  0
  9 24  1  0  0  0  0
  9 25  1  0  0  0  0
 10 11  1  0  0  0  0
 10 26  1  0  0  0  0
 11 12  1  0  0  0  0
 11 27  1  0  0  0  0
 11 28  1  0  0  0  0
 12 13  1  0  0  0  0
 12 29  1  0  0  0  0
 12 30  1  0  0  0  0
M  END
> <s_m_source_file>
AV-unprocessed.smi

> <i_m_source_file_index>
3019

> <i_lp_mmshare_version>
43012

> <i_f3d_flags>
0

> <s_epik_input>
W0NIM11bQ0hdKFtDSDNdKWMxbltuSF1jKG4xKVtDQEBIXTJbQ0gyXVtOSF1bQ0gyXVtDSDJdTzI=

> <s_epik_cmdline>
J2VwaWtfcHl0aG9uJywgJy1waCcsICc3LjAnLCAnLXRuJywgJzgnLCAnLW1hJywgJzIwMCcsICctbWV0YWxfYmluZGluZycsICctaW1hZScsICc8aW5maWxlLm1hZT4nLCAnLW9tYWUnLCAnPG91dGZpbGUubWFlPic=

> <r_epik_Ionization_Penalty>
0.981987

> <r_epik_Ionization_Penalty_Charging>
0

> <r_epik_Ionization_Penalty_Neutral>
0.981987

> <r_epik_State_Penalty>
2.09479

> <r_epik_Charging_Adjusted_Penalty>
2.09479

> <i_epik_Tot_Q>
0

> <i_epik_Tot_abs_Q>
0

> <r_epik_Metal_State_Penalty>
2.40362

> <b_epik_Metal_Only>
0

> <s_lp_Force_Field>
OPLS_2005

> <r_lp_Energy>
8.95245

> <b_lp_Chiralities_Consistent>
1

> <s_lp_Variant>
AV-unprocessed.smi:3019-7

> <Gold.Version>
5.8.1

> <Gold.Id.Protein>
6NUR|6NUR_protein|mol2

> <Gold.PLP.Fitness>
33.5198

> <Gold.PLP.PLP>
-31.1849

> <Gold.PLP.part.hbond>
-3.0000

> <Gold.PLP.part.metal>
0.0000

> <Gold.PLP.part.buried>
-5.1747

> <Gold.PLP.part.nonpolar>
-23.2497

> <Gold.PLP.part.repulsive>
0.1197

> <Gold.PLP.ligand.clash>
0.0000

> <Gold.PLP.ligand.torsion>
1.0438

> <Gold.PLP.Chemscore.Hbond>
1.4545

> <Gold.PLP.Chemscore.CHOScore>
0.0000

> <Gold.PLP.Chemscore.Metal>
0.0000

> <Gold.Chemscore.Hbonds>
donor molecule, donor type, donor heavy atom, donor atom, acceptor molecule, acceptor atom, score
      L1  H     6    15       P1  8028  1.00
      P1  H  7989  7998       L1    10  0.39

> <Gold.PLP.Chemscore.Internal.Correction>
0.0592

> <Gold.Rescore>
     Score         DG    S(hbond)    S(metal)    S(lipo)     H(rot)  DE(clash)    DE(int)     intcor
     12.37     -13.31       1.00        0.00      65.81       1.26       0.12       0.81       ----

> <Gold.Chemscore.Fitness>
12.3740

> <Gold.Chemscore.DG>
-13.3076

> <Gold.Chemscore.ZeroCoef>
-5.4800

> <Gold.Chemscore.Hbond>
1.0038

> <Gold.Chemscore.Metal>
0.0000

> <Gold.Chemscore.Lipo>
65.8124

> <Gold.Chemscore.Internal_Hbond>
0.0000

> <Gold.Chemscore.DEClash>
0.1237

> <Gold.Chemscore.DEInternal>
0.8098

> <Gold.Chemscore.Rot>
1.2598

> <Gold.Chemscore.Internal.Correction>
   9.000000E+99

> <Gold.Chemscore.Hbonds>
donor molecule, donor type, donor heavy atom, donor atom, acceptor molecule, acceptor atom, score
      L1  H     6    15       P1  8028  0.97
      P1  H  7989  7998       L1    10  0.01

> <Gold.Chemscore.Hbond.Weighted>
-3.3527

> <Gold.Chemscore.Metal.Weighted>
-0.0000

> <Gold.Chemscore.Lipo.Weighted>
-7.7000

> <Gold.Chemscore.Internal_Hbond.Weighted>
0.0000

> <Gold.Chemscore.DEClash.Weighted>
0.1237

> <Gold.Chemscore.DEInternal.Weighted>
0.8098

> <Gold.Chemscore.Rot.Weighted>
3.2251

> <Gold.Chemscore.Internal.Correction.Weighted>
   9.000000E+99

> <Gold.Protein.RotatedTorsions>
[ 6907 6896 6895 6894 ] final -138.14 input  -60.11 | X-H torsion
[ 7974 7965 7964 7962 ] final -128.85 input  175.53 | X-H torsion
[ 8008 7997 7996 7995 ] final  -85.84 input   59.86 | X-H torsion
[ 10167 10162 10161 10158 ] final   33.62 input  -65.29 | X-H torsion
[ 10718 10713 10712 10709 ] final   87.98 input   66.30 | X-H torsion
[ 10763 10752 10751 10750 ] final -175.46 input  -60.55 | X-H torsion
[ 11005 11000 10999 10996 ] final   31.48 input  -57.11 | X-H torsion

> <Gold.Protein.ActiveResidues>
 VAL166  LYS551  ARG553  GLY616  TRP617  ASP618  TYR619  PRO620  LYS621  CYS622 
 ASP623  PHE694  ASN695  SER759  ASP760  ASP761  ALA762  ILE779  LEU786  VAL792 
 PHE793  MET794  SER795  GLU796  ALA797  LYS798  CYS799  TRP800  GLU811  SER814 

> <Gold.Protein.RotatedAtoms>
  151.0313  133.5787  159.2660 H   0  0  0  0  0  0  0  0  0  0  0  0  # atno 6907 bound_to 6896
  151.2868  135.0729  159.9199 H   0  0  0  0  0  0  0  0  0  0  0  0  # atno 6908 bound_to 6896
  152.5345  134.0018  159.7952 H   0  0  0  0  0  0  0  0  0  0  0  0  # atno 6909 bound_to 6896
  144.9630  140.7466  143.4717 H   0  0  0  0  0  0  0  0  0  0  0  0  # atno 7974 bound_to 7965
  154.6452  140.0586  156.9892 H   0  0  0  0  0  0  0  0  0  0  0  0  # atno 8008 bound_to 7997
  155.1455  140.3269  155.4424 H   0  0  0  0  0  0  0  0  0  0  0  0  # atno 8009 bound_to 7997
  156.2550  140.1956  156.6569 H   0  0  0  0  0  0  0  0  0  0  0  0  # atno 8010 bound_to 7997
  140.4391  144.1214  150.6171 H   0  0  0  0  0  0  0  0  0  0  0  0  # atno 10167 bound_to 10162
  157.6945  131.0277  150.3205 H   0  0  0  0  0  0  0  0  0  0  0  0  # atno 10718 bound_to 10713
  154.5842  135.2839  155.0702 H   0  0  0  0  0  0  0  0  0  0  0  0  # atno 10763 bound_to 10752
  154.2027  135.6421  153.5095 H   0  0  0  0  0  0  0  0  0  0  0  0  # atno 10764 bound_to 10752
  153.0098  135.5473  154.6506 H   0  0  0  0  0  0  0  0  0  0  0  0  # atno 10765 bound_to 10752
  140.2834  134.2947  155.7794 H   0  0  0  0  0  0  0  0  0  0  0  0  # atno 11005 bound_to 11000
  145.2672  139.1969  143.4861 LP  0  0  0  0  0  0  0  0  0  0  0  0  # atno 17320 bound_to 7965
  146.3359  140.2612  142.8602 LP  0  0  0  0  0  0  0  0  0  0  0  0  # atno 17321 bound_to 7965
  140.4339  143.2556  151.9560 LP  0  0  0  0  0  0  0  0  0  0  0  0  # atno 17342 bound_to 10162
  139.4788  144.5718  151.8076 LP  0  0  0  0  0  0  0  0  0  0  0  0  # atno 17343 bound_to 10162
  156.3693  130.3861  149.7188 LP  0  0  0  0  0  0  0  0  0  0  0  0  # atno 17370 bound_to 10713
  156.4608  130.7951  151.2971 LP  0  0  0  0  0  0  0  0  0  0  0  0  # atno 17371 bound_to 10713
  141.2159  133.7539  156.9515 LP  0  0  0  0  0  0  0  0  0  0  0  0  # atno 17394 bound_to 11000
  140.1262  134.9385  157.2273 LP  0  0  0  0  0  0  0  0  0  0  0  0  # atno 17395 bound_to 11000

$$$$
