AV-unprocessed.smi:1509|AV-procd|sdf|6090|dock3
  -GOLD-   22720 6213D 1   1.00000     0.00000
 Structure written by MMmdl.
 42 43  0  0  0  0  0  0  0  0  2 V2000
  145.7177  132.5586  149.9661 C   0  0  0  0  0  0  0  0  0  0  0  0
  146.3414  133.5647  150.9438 C   0  0  2  0  0  0  0  0  0  0  0  0
  146.3659  133.0120  152.3786 C   0  0  0  0  0  0  0  0  0  0  0  0
  146.9699  134.0471  153.3355 C   0  0  0  0  0  0  0  0  0  0  0  0
  146.2227  135.3865  153.2393 C   0  0  0  0  0  0  0  0  0  0  0  0
  146.2168  135.8995  151.8447 N   0  3  2  0  0  0  0  0  0  0  0  0
  145.6155  137.2542  151.7500 C   0  0  0  0  0  0  0  0  0  0  0  0
  146.6600  138.3759  151.8844 C   0  0  0  0  0  0  0  0  0  0  0  0
  146.6978  138.9668  153.3038 C   0  0  0  0  0  0  0  0  0  0  0  0
  147.8575  139.8285  153.5022 N   0  0  0  0  0  0  0  0  0  0  0  0
  148.2686  140.3036  154.6884 C   0  0  0  0  0  0  0  0  0  0  0  0
  147.6858  140.0730  155.7476 O   0  0  0  0  0  0  0  0  0  0  0  0
  149.5322  141.1650  154.6823 C   0  0  0  0  0  0  0  0  0  0  0  0
  150.5578  140.5881  155.5312 N   0  0  0  0  0  0  0  0  0  0  0  0
  150.6037  140.4079  156.8529 C   0  0  0  0  0  0  0  0  0  0  0  0
  151.7397  139.8418  157.2305 N   0  0  0  0  0  0  0  0  0  0  0  0
  152.4192  139.6731  156.0356 N   0  0  0  0  0  0  0  0  0  0  0  0
  151.7226  140.1136  155.0238 N   0  0  0  0  0  0  0  0  0  0  0  0
  145.6057  134.9196  150.9058 C   0  0  0  0  0  0  0  0  0  0  0  0
  144.6793  132.3467  150.2227 H   0  0  0  0  0  0  0  0  0  0  0  0
  146.2620  131.6139  149.9746 H   0  0  0  0  0  0  0  0  0  0  0  0
  145.7370  132.9391  148.9443 H   0  0  0  0  0  0  0  0  0  0  0  0
  147.3725  133.7321  150.6283 H   0  0  0  0  0  0  0  0  0  0  0  0
  145.3536  132.7617  152.6999 H   0  0  0  0  0  0  0  0  0  0  0  0
  146.9436  132.0880  152.4193 H   0  0  0  0  0  0  0  0  0  0  0  0
  146.9341  133.6727  154.3589 H   0  0  0  0  0  0  0  0  0  0  0  0
  148.0239  134.1963  153.0974 H   0  0  0  0  0  0  0  0  0  0  0  0
  145.1960  135.2722  153.5912 H   0  0  0  0  0  0  0  0  0  0  0  0
  146.7056  136.1098  153.8974 H   0  0  0  0  0  0  0  0  0  0  0  0
  145.0607  137.3499  150.8153 H   0  0  0  0  0  0  0  0  0  0  0  0
  144.8874  137.3792  152.5528 H   0  0  0  0  0  0  0  0  0  0  0  0
  147.6464  137.9865  151.6283 H   0  0  0  0  0  0  0  0  0  0  0  0
  146.4489  139.1735  151.1729 H   0  0  0  0  0  0  0  0  0  0  0  0
  145.7827  139.5242  153.5109 H   0  0  0  0  0  0  0  0  0  0  0  0
  146.7447  138.1640  154.0400 H   0  0  0  0  0  0  0  0  0  0  0  0
  148.3959  140.0674  152.6817 H   0  0  0  0  0  0  0  0  0  0  0  0
  149.9302  141.2640  153.6713 H   0  0  0  0  0  0  0  0  0  0  0  0
  149.2921  142.1697  155.0334 H   0  0  0  0  0  0  0  0  0  0  0  0
  149.8133  140.6915  157.5323 H   0  0  0  0  0  0  0  0  0  0  0  0
  145.6357  135.3072  149.8882 H   0  0  0  0  0  0  0  0  0  0  0  0
  144.5525  134.7839  151.1585 H   0  0  0  0  0  0  0  0  0  0  0  0
  147.1864  135.9968  151.5788 H   0  0  0  0  0  0  0  0  0  0  0  0
  1  2  1  0  0  0  0
  1 20  1  0  0  0  0
  1 21  1  0  0  0  0
  1 22  1  0  0  0  0
  2 19  1  0  0  0  0
  2  3  1  0  0  0  0
  2 23  1  0  0  0  0
  3  4  1  0  0  0  0
  3 24  1  0  0  0  0
  3 25  1  0  0  0  0
  4  5  1  0  0  0  0
  4 26  1  0  0  0  0
  4 27  1  0  0  0  0
  5  6  1  0  0  0  0
  5 28  1  0  0  0  0
  5 29  1  0  0  0  0
  6  7  1  0  0  0  0
  6 19  1  0  0  0  0
  6 42  1  0  0  0  0
  7  8  1  0  0  0  0
  7 30  1  0  0  0  0
  7 31  1  0  0  0  0
  8  9  1  0  0  0  0
  8 32  1  0  0  0  0
  8 33  1  0  0  0  0
  9 10  1  0  0  0  0
  9 34  1  0  0  0  0
  9 35  1  0  0  0  0
 10 11  1  0  0  0  0
 10 36  1  0  0  0  0
 11 12  2  0  0  0  0
 11 13  1  0  0  0  0
 13 14  1  0  0  0  0
 13 37  1  0  0  0  0
 13 38  1  0  0  0  0
 14 18  1  0  0  0  0
 14 15  1  0  0  0  0
 15 16  2  0  0  0  0
 15 39  1  0  0  0  0
 16 17  1  0  0  0  0
 17 18  2  0  0  0  0
 19 40  1  0  0  0  0
 19 41  1  0  0  0  0
M  CHG  1   6   1
M  END
> <s_m_source_file>
AV-unprocessed.smi

> <i_m_source_file_index>
1509

> <i_lp_mmshare_version>
43012

> <i_f3d_flags>
0

> <s_epik_input>
W0NIM11bQ0BASF0xW0NIMl1bQ0gyXVtDSDJdTihbQ0gyXTEpW0NIMl1bQ0gyXVtDSDJdW05IXUMoPU8pW0NIMl1uMltjSF1ubm4y

> <s_epik_cmdline>
J2VwaWtfcHl0aG9uJywgJy1waCcsICc3LjAnLCAnLXRuJywgJzgnLCAnLW1hJywgJzIwMCcsICctbWV0YWxfYmluZGluZycsICctaW1hZScsICc8aW5maWxlLm1hZT4nLCAnLW9tYWUnLCAnPG91dGZpbGUubWFlPic=

> <r_lp_tautomer_probability>
1

> <r_epik_Ionization_Penalty>
0.00044216

> <r_epik_Ionization_Penalty_Charging>
0.000440775

> <r_epik_Ionization_Penalty_Neutral>
1.38512e-06

> <r_epik_State_Penalty>
0.000271914

> <r_epik_Charging_Adjusted_Penalty>
0.000712689

> <i_epik_Tot_Q>
1

> <i_epik_Tot_abs_Q>
1

> <r_epik_Metal_State_Penalty>
-0

> <b_epik_Metal_Only>
0

> <s_lp_Force_Field>
OPLS_2005

> <r_lp_Energy>
19.8667

> <b_lp_Chiralities_Consistent>
1

> <s_lp_Variant>
AV-unprocessed.smi:1509-1

> <Gold.Version>
5.8.1

> <Gold.Id.Protein>
6NUR|6NUR_protein|mol2

> <Gold.PLP.Fitness>
44.5424

> <Gold.PLP.PLP>
-31.3141

> <Gold.PLP.part.hbond>
-4.0000

> <Gold.PLP.part.metal>
0.0000

> <Gold.PLP.part.buried>
0.8634

> <Gold.PLP.part.nonpolar>
-27.6784

> <Gold.PLP.part.repulsive>
0.1581

> <Gold.PLP.ligand.clash>
0.0000

> <Gold.PLP.ligand.torsion>
0.8754

> <Gold.PLP.Chemscore.Hbond>
4.9760

> <Gold.PLP.Chemscore.CHOScore>
0.0000

> <Gold.PLP.Chemscore.Metal>
0.0000

> <Gold.Chemscore.Hbonds>
donor molecule, donor type, donor heavy atom, donor atom, acceptor molecule, acceptor atom, score
      L1  H     6    42       P1  7948  2.00
      L1  H    10    36       P1  7957  1.00
      P1  H  7989  7998       L1    18  0.91
      P1  H  7997  8008       L1    17  1.00

> <Gold.PLP.Chemscore.Internal.Correction>
0.0511

> <Gold.Rescore>
     Score         DG    S(hbond)    S(metal)    S(lipo)     H(rot)  DE(clash)    DE(int)     intcor
     14.94     -16.63       3.35        0.00      64.62       2.97       0.89       0.80       ----

> <Gold.Chemscore.Fitness>
14.9351

> <Gold.Chemscore.DG>
-16.6343

> <Gold.Chemscore.ZeroCoef>
-5.4800

> <Gold.Chemscore.Hbond>
3.3509

> <Gold.Chemscore.Metal>
0.0000

> <Gold.Chemscore.Lipo>
64.6190

> <Gold.Chemscore.Internal_Hbond>
0.0000

> <Gold.Chemscore.DEClash>
0.8949

> <Gold.Chemscore.DEInternal>
0.8043

> <Gold.Chemscore.Rot>
2.9680

> <Gold.Chemscore.Internal.Correction>
   9.000000E+99

> <Gold.Chemscore.Hbonds>
donor molecule, donor type, donor heavy atom, donor atom, acceptor molecule, acceptor atom, score
      L1  H     6    42       P1  7948  0.99
      L1  H    10    36       P1  7957  0.99
      P1  H  7989  7998       L1    18  0.20
      P1  H  7997  8008       L1    17  0.63

> <Gold.Chemscore.Hbond.Weighted>
-11.1919

> <Gold.Chemscore.Metal.Weighted>
-0.0000

> <Gold.Chemscore.Lipo.Weighted>
-7.5604

> <Gold.Chemscore.Internal_Hbond.Weighted>
0.0000

> <Gold.Chemscore.DEClash.Weighted>
0.8949

> <Gold.Chemscore.DEInternal.Weighted>
0.8043

> <Gold.Chemscore.Rot.Weighted>
7.5980

> <Gold.Chemscore.Internal.Correction.Weighted>
   9.000000E+99

> <Gold.Protein.RotatedTorsions>
[ 6907 6896 6895 6894 ] final -131.75 input  -60.11 | X-H torsion
[ 7974 7965 7964 7962 ] final  105.08 input  175.53 | X-H torsion
[ 8008 7997 7996 7995 ] final  -43.74 input   59.86 | X-H torsion
[ 10167 10162 10161 10158 ] final   50.12 input  -65.29 | X-H torsion
[ 10718 10713 10712 10709 ] final  155.19 input   66.30 | X-H torsion
[ 10763 10752 10751 10750 ] final -155.68 input  -60.55 | X-H torsion
[ 11005 11000 10999 10996 ] final -177.25 input  -57.11 | X-H torsion

> <Gold.Protein.ActiveResidues>
 VAL166  LYS551  ARG553  GLY616  TRP617  ASP618  TYR619  PRO620  LYS621  CYS622 
 ASP623  PHE694  ASN695  SER759  ASP760  ASP761  ALA762  ILE779  LEU786  VAL792 
 PHE793  MET794  SER795  GLU796  ALA797  LYS798  CYS799  TRP800  GLU811  SER814 

> <Gold.Protein.RotatedAtoms>
  150.9545  133.6513  159.2765 H   0  0  0  0  0  0  0  0  0  0  0  0  # atno 6907 bound_to 6896
  151.3857  135.0946  159.9520 H   0  0  0  0  0  0  0  0  0  0  0  0  # atno 6908 bound_to 6896
  152.5123  133.9070  159.7524 H   0  0  0  0  0  0  0  0  0  0  0  0  # atno 6909 bound_to 6896
  145.3244  139.2504  143.3694 H   0  0  0  0  0  0  0  0  0  0  0  0  # atno 7974 bound_to 7965
  154.3997  140.1440  156.3569 H   0  0  0  0  0  0  0  0  0  0  0  0  # atno 8008 bound_to 7997
  155.8217  140.3469  155.5497 H   0  0  0  0  0  0  0  0  0  0  0  0  # atno 8009 bound_to 7997
  155.8281  140.0908  157.1799 H   0  0  0  0  0  0  0  0  0  0  0  0  # atno 8010 bound_to 7997
  140.2757  144.3214  150.6278 H   0  0  0  0  0  0  0  0  0  0  0  0  # atno 10167 bound_to 10162
  157.2217  131.0720  151.1908 H   0  0  0  0  0  0  0  0  0  0  0  0  # atno 10718 bound_to 10713
  154.7769  135.3162  154.8073 H   0  0  0  0  0  0  0  0  0  0  0  0  # atno 10763 bound_to 10752
  153.8794  135.6836  153.4772 H   0  0  0  0  0  0  0  0  0  0  0  0  # atno 10764 bound_to 10752
  153.1395  135.4745  154.9410 H   0  0  0  0  0  0  0  0  0  0  0  0  # atno 10765 bound_to 10752
  140.4430  134.6414  157.4766 H   0  0  0  0  0  0  0  0  0  0  0  0  # atno 11005 bound_to 11000
  146.3070  140.3808  142.8684 LP  0  0  0  0  0  0  0  0  0  0  0  0  # atno 17320 bound_to 7965
  144.8914  140.7528  143.5924 LP  0  0  0  0  0  0  0  0  0  0  0  0  # atno 17321 bound_to 7965
  140.5853  143.2170  151.7353 LP  0  0  0  0  0  0  0  0  0  0  0  0  # atno 17342 bound_to 10162
  139.4976  144.4020  152.0171 LP  0  0  0  0  0  0  0  0  0  0  0  0  # atno 17343 bound_to 10162
  157.3569  130.7111  149.6477 LP  0  0  0  0  0  0  0  0  0  0  0  0  # atno 17370 bound_to 10713
  155.9682  130.4236  150.4572 LP  0  0  0  0  0  0  0  0  0  0  0  0  # atno 17371 bound_to 10713
  140.0057  134.6767  155.9459 LP  0  0  0  0  0  0  0  0  0  0  0  0  # atno 17394 bound_to 11000
  141.1697  133.6537  156.4608 LP  0  0  0  0  0  0  0  0  0  0  0  0  # atno 17395 bound_to 11000

$$$$
