AV-unprocessed.smi:52|AV-procd|sdf|507|dock2
  -GOLD-   2262016383D 1   1.00000     0.00000
 Structure written by MMmdl.
 27 28  0  0  0  0  0  0  0  0  3 V2000
  151.9642  135.7302  156.5814 O   0  0  0  0  0  0  0  0  0  0  0  0
  151.5864  136.7497  157.1996 C   0  0  0  0  0  0  0  0  0  0  0  0
  151.3554  136.7303  158.4286 O   0  5  0  0  0  0  0  0  0  0  0  0
  151.4027  138.0196  156.4510 C   0  0  0  0  0  0  0  0  0  0  0  0
  151.2890  138.1631  155.0911 C   0  0  0  0  0  0  0  0  0  0  0  0
  151.1208  139.4878  154.7908 O   0  0  0  0  0  0  0  0  0  0  0  0
  151.1430  140.1099  156.0005 C   0  0  0  0  0  0  0  0  0  0  0  0
  150.9578  141.5903  156.0569 C   0  0  0  0  0  0  0  0  0  0  0  0
  149.5358  141.7951  155.6896 N   0  3  2  0  0  0  0  0  0  0  0  0
  148.5755  141.0675  156.5541 C   0  0  0  0  0  0  0  0  0  0  0  0
  147.5707  140.3767  155.6237 C   0  0  0  0  0  0  0  0  0  0  0  0
  147.7075  141.1334  154.3066 C   0  0  2  0  0  0  0  0  0  0  0  0
  147.3222  140.3440  153.2011 O   0  0  0  0  0  0  0  0  0  0  0  0
  149.1917  141.4885  154.2813 C   0  0  0  0  0  0  0  0  0  0  0  0
  151.3105  139.2804  157.0272 N   0  0  0  0  0  0  0  0  0  0  0  0
  147.1066  142.0436  154.3363 H   0  0  0  0  0  0  0  0  0  0  0  0
  151.3025  137.4703  154.2626 H   0  0  0  0  0  0  0  0  0  0  0  0
  151.1876  141.9785  157.0501 H   0  0  0  0  0  0  0  0  0  0  0  0
  151.6220  142.0621  155.3318 H   0  0  0  0  0  0  0  0  0  0  0  0
  149.0668  140.3387  157.2007 H   0  0  0  0  0  0  0  0  0  0  0  0
  148.0739  141.7926  157.1957 H   0  0  0  0  0  0  0  0  0  0  0  0
  147.8643  139.3340  155.4890 H   0  0  0  0  0  0  0  0  0  0  0  0
  146.5528  140.3876  156.0149 H   0  0  0  0  0  0  0  0  0  0  0  0
  147.9844  140.4167  152.5301 H   0  0  0  0  0  0  0  0  0  0  0  0
  149.4090  142.3252  153.6164 H   0  0  0  0  0  0  0  0  0  0  0  0
  149.7742  140.6292  153.9427 H   0  0  0  0  0  0  0  0  0  0  0  0
  149.3380  142.7764  155.8247 H   0  0  0  0  0  0  0  0  0  0  0  0
  1  2  2  0  0  0  0
  2  3  1  0  0  0  0
  2  4  1  0  0  0  0
  4 15  1  0  0  0  0
  4  5  2  0  0  0  0
  5  6  1  0  0  0  0
  5 17  1  0  0  0  0
  6  7  1  0  0  0  0
  7  8  1  0  0  0  0
  7 15  2  0  0  0  0
  8  9  1  0  0  0  0
  8 18  1  0  0  0  0
  8 19  1  0  0  0  0
  9 14  1  0  0  0  0
  9 10  1  0  0  0  0
  9 27  1  0  0  0  0
 10 11  1  0  0  0  0
 10 20  1  0  0  0  0
 10 21  1  0  0  0  0
 11 12  1  0  0  0  0
 11 22  1  0  0  0  0
 11 23  1  0  0  0  0
 12 16  1  0  0  0  0
 12 13  1  0  0  0  0
 12 14  1  0  0  0  0
 13 24  1  0  0  0  0
 14 25  1  0  0  0  0
 14 26  1  0  0  0  0
M  CHG  1   3  -1
M  CHG  1   9   1
M  END
> <s_m_source_file>
AV-unprocessed.smi

> <i_m_source_file_index>
52

> <i_lp_mmshare_version>
43012

> <i_f3d_flags>
0

> <s_epik_input>
Tz1DKFtPSF0pYzFbY0hdb2MobjEpW0NIMl1OMltDSDJdW0NIMl1bQ0BIXShbT0hdKVtDSDJdMg==

> <s_epik_cmdline>
J2VwaWtfcHl0aG9uJywgJy1waCcsICc3LjAnLCAnLXRuJywgJzgnLCAnLW1hJywgJzIwMCcsICctbWV0YWxfYmluZGluZycsICctaW1hZScsICc8aW5maWxlLm1hZT4nLCAnLW9tYWUnLCAnPG91dGZpbGUubWFlPic=

> <r_epik_Ionization_Penalty>
0.0376014

> <r_epik_Ionization_Penalty_Charging>
0.0376013

> <r_epik_Ionization_Penalty_Neutral>
1.78687e-08

> <r_epik_State_Penalty>
0.0314164

> <r_epik_Charging_Adjusted_Penalty>
0.0690177

> <i_epik_Tot_Q>
0

> <i_epik_Tot_abs_Q>
2

> <r_epik_Metal_State_Penalty>
0.0314164

> <b_epik_Metal_Only>
0

> <s_lp_Force_Field>
OPLS_2005

> <r_lp_Energy>
21.1951

> <b_lp_Chiralities_Consistent>
1

> <s_lp_Variant>
AV-unprocessed.smi:52-1

> <Gold.Version>
5.8.1

> <Gold.Id.Protein>
6NUR|6NUR_protein|mol2

> <Gold.PLP.Fitness>
41.2190

> <Gold.PLP.PLP>
-19.8852

> <Gold.PLP.part.hbond>
-5.0000

> <Gold.PLP.part.metal>
0.0000

> <Gold.PLP.part.buried>
-2.9331

> <Gold.PLP.part.nonpolar>
-13.2174

> <Gold.PLP.part.repulsive>
0.1794

> <Gold.PLP.ligand.clash>
0.0000

> <Gold.PLP.ligand.torsion>
0.2504

> <Gold.PLP.Chemscore.Hbond>
7.2730

> <Gold.PLP.Chemscore.CHOScore>
0.0000

> <Gold.PLP.Chemscore.Metal>
0.0000

> <Gold.Chemscore.Hbonds>
donor molecule, donor type, donor heavy atom, donor atom, acceptor molecule, acceptor atom, score
      L1  H     9    27       P1  8028  2.00
      L1  H    13    24       P1  7957  0.71
      P1  H  6896  6909       L1     3  0.98
      P1  H  7989  7998       L1     6  1.00
      P1  H 10752 10763       L1     1  2.00

> <Gold.PLP.Chemscore.Internal.Correction>
0.0158

> <Gold.Rescore>
     Score         DG    S(hbond)    S(metal)    S(lipo)     H(rot)  DE(clash)    DE(int)     intcor
     18.03     -19.70       4.41        0.00      39.23       1.99       0.06       1.61       ----

> <Gold.Chemscore.Fitness>
18.0343

> <Gold.Chemscore.DG>
-19.7003

> <Gold.Chemscore.ZeroCoef>
-5.4800

> <Gold.Chemscore.Hbond>
4.4100

> <Gold.Chemscore.Metal>
0.0000

> <Gold.Chemscore.Lipo>
39.2320

> <Gold.Chemscore.Internal_Hbond>
0.0000

> <Gold.Chemscore.DEClash>
0.0589

> <Gold.Chemscore.DEInternal>
1.6071

> <Gold.Chemscore.Rot>
1.9919

> <Gold.Chemscore.Internal.Correction>
   9.000000E+99

> <Gold.Chemscore.Hbonds>
donor molecule, donor type, donor heavy atom, donor atom, acceptor molecule, acceptor atom, score
      L1  H     9    27       P1  8028  0.96
      L1  H    13    24       P1  7957  0.71
      P1  H  6896  6909       L1     3  0.49
      P1  H  7989  7998       L1     6  0.49
      P1  H 10752 10763       L1     1  0.96

> <Gold.Chemscore.Hbond.Weighted>
-14.7293

> <Gold.Chemscore.Metal.Weighted>
-0.0000

> <Gold.Chemscore.Lipo.Weighted>
-4.5901

> <Gold.Chemscore.Internal_Hbond.Weighted>
0.0000

> <Gold.Chemscore.DEClash.Weighted>
0.0589

> <Gold.Chemscore.DEInternal.Weighted>
1.6071

> <Gold.Chemscore.Rot.Weighted>
5.0991

> <Gold.Chemscore.Internal.Correction.Weighted>
   9.000000E+99

> <Gold.Protein.RotatedTorsions>
[ 6907 6896 6895 6894 ] final   97.75 input  -60.11 | X-H torsion
[ 7974 7965 7964 7962 ] final  -86.80 input  175.53 | X-H torsion
[ 8008 7997 7996 7995 ] final  -56.10 input   59.86 | X-H torsion
[ 10167 10162 10161 10158 ] final   25.49 input  -65.29 | X-H torsion
[ 10718 10713 10712 10709 ] final -101.56 input   66.30 | X-H torsion
[ 10763 10752 10751 10750 ] final   80.22 input  -60.55 | X-H torsion
[ 11005 11000 10999 10996 ] final  178.24 input  -57.11 | X-H torsion

> <Gold.Protein.ActiveResidues>
 VAL166  LYS551  ARG553  GLY616  TRP617  ASP618  TYR619  PRO620  LYS621  CYS622 
 ASP623  PHE694  ASN695  SER759  ASP760  ASP761  ALA762  ILE779  LEU786  VAL792 
 PHE793  MET794  SER795  GLU796  ALA797  LYS798  CYS799  TRP800  GLU811  SER814 

> <Gold.Protein.RotatedAtoms>
  152.5419  134.0686  159.8183 H   0  0  0  0  0  0  0  0  0  0  0  0  # atno 6907 bound_to 6896
  151.0803  133.5388  159.2628 H   0  0  0  0  0  0  0  0  0  0  0  0  # atno 6908 bound_to 6896
  151.2217  135.0529  159.9006 H   0  0  0  0  0  0  0  0  0  0  0  0  # atno 6909 bound_to 6896
  145.4750  140.9558  143.1896 H   0  0  0  0  0  0  0  0  0  0  0  0  # atno 7974 bound_to 7965
  154.4218  140.1137  156.5584 H   0  0  0  0  0  0  0  0  0  0  0  0  # atno 8008 bound_to 7997
  155.6337  140.3496  155.4672 H   0  0  0  0  0  0  0  0  0  0  0  0  # atno 8009 bound_to 7997
  155.9927  140.1183  157.0612 H   0  0  0  0  0  0  0  0  0  0  0  0  # atno 8010 bound_to 7997
  140.5102  144.0173  150.6369 H   0  0  0  0  0  0  0  0  0  0  0  0  # atno 10167 bound_to 10162
  156.0199  130.5379  150.6981 H   0  0  0  0  0  0  0  0  0  0  0  0  # atno 10718 bound_to 10713
  153.1015  135.4811  154.8876 H   0  0  0  0  0  0  0  0  0  0  0  0  # atno 10763 bound_to 10752
  154.7384  135.3076  154.8773 H   0  0  0  0  0  0  0  0  0  0  0  0  # atno 10764 bound_to 10752
  153.9388  135.6836  153.4798 H   0  0  0  0  0  0  0  0  0  0  0  0  # atno 10765 bound_to 10752
  140.3930  134.6845  157.4518 H   0  0  0  0  0  0  0  0  0  0  0  0  # atno 11005 bound_to 11000
  144.7922  139.6305  143.7108 LP  0  0  0  0  0  0  0  0  0  0  0  0  # atno 17320 bound_to 7965
  146.2374  139.5933  142.9514 LP  0  0  0  0  0  0  0  0  0  0  0  0  # atno 17321 bound_to 7965
  140.3493  143.2972  152.0504 LP  0  0  0  0  0  0  0  0  0  0  0  0  # atno 17342 bound_to 10162
  139.4894  144.6385  151.6926 LP  0  0  0  0  0  0  0  0  0  0  0  0  # atno 17343 bound_to 10162
  157.4647  131.0887  151.0707 LP  0  0  0  0  0  0  0  0  0  0  0  0  # atno 17370 bound_to 10713
  157.1185  130.6052  149.5499 LP  0  0  0  0  0  0  0  0  0  0  0  0  # atno 17371 bound_to 10713
  140.0393  134.6291  155.9002 LP  0  0  0  0  0  0  0  0  0  0  0  0  # atno 17394 bound_to 11000
  141.1884  133.6562  156.5323 LP  0  0  0  0  0  0  0  0  0  0  0  0  # atno 17395 bound_to 11000

$$$$
