AV-unprocessed.smi:35|AV-procd|sdf|271|dock3
  -GOLD-   2262016 43D 1   1.00000     0.00000
 Structure written by MMmdl.
 28 29  0  0  0  0  0  0  0  0  2 V2000
  151.5729  137.1514  159.8700 O   0  0  0  0  0  0  0  0  0  0  0  0
  151.0828  138.0478  159.1856 C   0  0  0  0  0  0  0  0  0  0  0  0
  151.7408  139.2101  158.9065 N   0  5  0  0  0  0  0  0  0  0  0  0
  151.1940  140.2005  158.1420 C   0  0  0  0  0  0  0  0  0  0  0  0
  151.7843  141.2468  157.8723 O   0  0  0  0  0  0  0  0  0  0  0  0
  149.8855  140.0218  157.6137 N   0  0  0  0  0  0  0  0  0  0  0  0
  149.2825  141.1296  156.7675 C   0  0  2  0  0  0  0  0  0  0  0  0
  147.9647  140.8040  156.4315 O   0  0  0  0  0  0  0  0  0  0  0  0
  147.8893  140.4184  155.0628 C   0  0  1  0  0  0  0  0  0  0  0  0
  146.4565  140.5615  154.5214 C   0  0  0  0  0  0  0  0  0  0  0  0
  146.4276  140.2693  153.1404 O   0  0  0  0  0  0  0  0  0  0  0  0
  148.9386  141.3182  154.3994 C   0  0  1  0  0  0  0  0  0  0  0  0
  148.4216  142.6139  154.1545 O   0  0  0  0  0  0  0  0  0  0  0  0
  150.0478  141.3744  155.4420 C   0  0  2  0  0  0  0  0  0  0  0  0
  151.0217  140.3881  155.1464 O   0  0  0  0  0  0  0  0  0  0  0  0
  149.1917  138.8536  157.8850 C   0  0  0  0  0  0  0  0  0  0  0  0
  149.7392  137.8790  158.6390 C   0  0  0  0  0  0  0  0  0  0  0  0
  148.6342  136.2624  158.9431 Br  0  0  0  0  0  0  0  0  0  0  0  0
  149.2503  142.0057  157.4171 H   0  0  0  0  0  0  0  0  0  0  0  0
  148.2242  139.3845  154.9626 H   0  0  0  0  0  0  0  0  0  0  0  0
  145.7613  139.9159  155.0593 H   0  0  0  0  0  0  0  0  0  0  0  0
  146.1100  141.5880  154.6445 H   0  0  0  0  0  0  0  0  0  0  0  0
  145.5393  140.0582  152.8971 H   0  0  0  0  0  0  0  0  0  0  0  0
  149.2771  140.9084  153.4465 H   0  0  0  0  0  0  0  0  0  0  0  0
  148.7028  143.1835  154.8541 H   0  0  0  0  0  0  0  0  0  0  0  0
  150.5414  142.3465  155.4768 H   0  0  0  0  0  0  0  0  0  0  0  0
  151.5462  140.2512  155.9213 H   0  0  0  0  0  0  0  0  0  0  0  0
  148.1963  138.7038  157.4967 H   0  0  0  0  0  0  0  0  0  0  0  0
  1  2  2  0  0  0  0
  2 17  1  0  0  0  0
  2  3  1  0  0  0  0
  3  4  1  0  0  0  0
  4  5  2  0  0  0  0
  4  6  1  0  0  0  0
  6  7  1  0  0  0  0
  6 16  1  0  0  0  0
  7 14  1  0  0  0  0
  7  8  1  0  0  0  0
  7 19  1  0  0  0  0
  8  9  1  0  0  0  0
  9 10  1  0  0  0  0
  9 12  1  0  0  0  0
  9 20  1  0  0  0  0
 10 11  1  0  0  0  0
 10 21  1  0  0  0  0
 10 22  1  0  0  0  0
 11 23  1  0  0  0  0
 12 13  1  0  0  0  0
 12 14  1  0  0  0  0
 12 24  1  0  0  0  0
 13 25  1  0  0  0  0
 14 15  1  0  0  0  0
 14 26  1  0  0  0  0
 15 27  1  0  0  0  0
 16 17  2  0  0  0  0
 16 28  1  0  0  0  0
 17 18  1  0  0  0  0
M  CHG  1   3  -1
M  END
> <s_m_source_file>
AV-unprocessed.smi

> <i_m_source_file_index>
35

> <i_lp_mmshare_version>
43012

> <i_f3d_flags>
0

> <s_epik_input>
Tz1jMVtuSF1jKD1PKW4oW2NIXWMxQnIpW0NAQEhdMk9bQ0BASF0oW0NIMl1bT0hdKVtDQEBIXShbT0hdKVtDQEhdMltPSF0=

> <s_epik_cmdline>
J2VwaWtfcHl0aG9uJywgJy1waCcsICc3LjAnLCAnLXRuJywgJzgnLCAnLW1hJywgJzIwMCcsICctbWV0YWxfYmluZGluZycsICctaW1hZScsICc8aW5maWxlLm1hZT4nLCAnLW9tYWUnLCAnPG91dGZpbGUubWFlPic=

> <r_epik_Ionization_Penalty>
1.06112

> <r_epik_Ionization_Penalty_Charging>
2.1796e-09

> <r_epik_Ionization_Penalty_Neutral>
1.06112

> <r_epik_State_Penalty>
1.11484

> <r_epik_Charging_Adjusted_Penalty>
1.11484

> <i_epik_Tot_Q>
-1

> <i_epik_Tot_abs_Q>
1

> <r_epik_Metal_State_Penalty>
0.0032876

> <b_epik_Metal_Only>
0

> <s_epik_Chemistry_Notes>
This compound contains an acetal/aminal-like group ( X-CH(R)-Y where X, Y are N, S, or O) that may be acid/base labile, releasing an aldehyde.

> <s_lp_Force_Field>
OPLS_2005

> <r_lp_Energy>
42.0802

> <b_lp_Chiralities_Consistent>
1

> <s_lp_Variant>
AV-unprocessed.smi:35-25

> <Gold.Version>
5.8.1

> <Gold.Id.Protein>
6NUR|6NUR_protein|mol2

> <Gold.PLP.Fitness>
37.1060

> <Gold.PLP.PLP>
-25.1218

> <Gold.PLP.part.hbond>
-5.5101

> <Gold.PLP.part.metal>
0.0000

> <Gold.PLP.part.buried>
-4.8303

> <Gold.PLP.part.nonpolar>
-14.3419

> <Gold.PLP.part.repulsive>
0.0462

> <Gold.PLP.ligand.clash>
0.0000

> <Gold.PLP.ligand.torsion>
0.0442

> <Gold.PLP.Chemscore.Hbond>
4.0017

> <Gold.PLP.Chemscore.CHOScore>
0.0000

> <Gold.PLP.Chemscore.Metal>
0.0000

> <Gold.Chemscore.Hbonds>
donor molecule, donor type, donor heavy atom, donor atom, acceptor molecule, acceptor atom, score
      L1  H    11    23       P1 10175  1.00
      L1  H    13    25       P1  8028  1.00
      P1  H  6896  6907       L1     1  1.00
      P1  H  7989  7998       L1    15  1.00

> <Gold.PLP.Chemscore.Internal.Correction>
0.0675

> <Gold.Rescore>
     Score         DG    S(hbond)    S(metal)    S(lipo)     H(rot)  DE(clash)    DE(int)     intcor
     10.16     -12.19       3.69        0.00      31.49       3.63       0.00       2.03       ----

> <Gold.Chemscore.Fitness>
10.1574

> <Gold.Chemscore.DG>
-12.1915

> <Gold.Chemscore.ZeroCoef>
-5.4800

> <Gold.Chemscore.Hbond>
3.6854

> <Gold.Chemscore.Metal>
0.0000

> <Gold.Chemscore.Lipo>
31.4948

> <Gold.Chemscore.Internal_Hbond>
0.0000

> <Gold.Chemscore.DEClash>
0.0015

> <Gold.Chemscore.DEInternal>
2.0327

> <Gold.Chemscore.Rot>
3.6261

> <Gold.Chemscore.Internal.Correction>
   9.000000E+99

> <Gold.Chemscore.Hbonds>
donor molecule, donor type, donor heavy atom, donor atom, acceptor molecule, acceptor atom, score
      L1  H    11    23       P1 10175  0.95
      L1  H    13    25       P1  8028  0.97
      P1  H  6896  6907       L1     1  0.97
      P1  H  7989  7998       L1    15  0.38

> <Gold.Chemscore.Hbond.Weighted>
-12.3094

> <Gold.Chemscore.Metal.Weighted>
-0.0000

> <Gold.Chemscore.Lipo.Weighted>
-3.6849

> <Gold.Chemscore.Internal_Hbond.Weighted>
0.0000

> <Gold.Chemscore.DEClash.Weighted>
0.0015

> <Gold.Chemscore.DEInternal.Weighted>
2.0327

> <Gold.Chemscore.Rot.Weighted>
9.2828

> <Gold.Chemscore.Internal.Correction.Weighted>
   9.000000E+99

> <Gold.Protein.RotatedTorsions>
[ 6907 6896 6895 6894 ] final    4.90 input  -60.11 | X-H torsion
[ 7974 7965 7964 7962 ] final  -93.10 input  175.53 | X-H torsion
[ 8008 7997 7996 7995 ] final  -85.80 input   59.86 | X-H torsion
[ 10167 10162 10161 10158 ] final   29.38 input  -65.29 | X-H torsion
[ 10718 10713 10712 10709 ] final  131.22 input   66.30 | X-H torsion
[ 10763 10752 10751 10750 ] final    5.31 input  -60.55 | X-H torsion
[ 11005 11000 10999 10996 ] final  167.99 input  -57.11 | X-H torsion

> <Gold.Protein.ActiveResidues>
 VAL166  LYS551  ARG553  GLY616  TRP617  ASP618  TYR619  PRO620  LYS621  CYS622 
 ASP623  PHE694  ASN695  SER759  ASP760  ASP761  ALA762  ILE779  LEU786  VAL792 
 PHE793  MET794  SER795  GLU796  ALA797  LYS798  CYS799  TRP800  GLU811  SER814 

> <Gold.Protein.RotatedAtoms>
  151.6488  135.1004  160.0156 H   0  0  0  0  0  0  0  0  0  0  0  0  # atno 6907 bound_to 6896
  152.4012  133.6817  159.6327 H   0  0  0  0  0  0  0  0  0  0  0  0  # atno 6908 bound_to 6896
  150.7912  133.8704  159.3298 H   0  0  0  0  0  0  0  0  0  0  0  0  # atno 6909 bound_to 6896
  145.3911  140.9528  143.2340 H   0  0  0  0  0  0  0  0  0  0  0  0  # atno 7974 bound_to 7965
  154.6447  140.0587  156.9887 H   0  0  0  0  0  0  0  0  0  0  0  0  # atno 8008 bound_to 7997
  155.1462  140.3270  155.4422 H   0  0  0  0  0  0  0  0  0  0  0  0  # atno 8009 bound_to 7997
  156.2548  140.1955  156.6576 H   0  0  0  0  0  0  0  0  0  0  0  0  # atno 8010 bound_to 7997
  140.4771  144.0673  150.6254 H   0  0  0  0  0  0  0  0  0  0  0  0  # atno 10167 bound_to 10162
  157.4988  131.1093  150.9455 H   0  0  0  0  0  0  0  0  0  0  0  0  # atno 10718 bound_to 10713
  153.2609  135.6923  153.7579 H   0  0  0  0  0  0  0  0  0  0  0  0  # atno 10763 bound_to 10752
  153.6639  135.3356  155.3135 H   0  0  0  0  0  0  0  0  0  0  0  0  # atno 10764 bound_to 10752
  154.8430  135.4483  154.1599 H   0  0  0  0  0  0  0  0  0  0  0  0  # atno 10765 bound_to 10752
  140.2825  134.7739  157.3770 H   0  0  0  0  0  0  0  0  0  0  0  0  # atno 11005 bound_to 11000
  144.8440  139.5427  143.6887 LP  0  0  0  0  0  0  0  0  0  0  0  0  # atno 17320 bound_to 7965
  146.2797  139.6845  142.9238 LP  0  0  0  0  0  0  0  0  0  0  0  0  # atno 17321 bound_to 7965
  140.3905  143.2755  152.0066 LP  0  0  0  0  0  0  0  0  0  0  0  0  # atno 17342 bound_to 10162
  139.4827  144.6081  151.7483 LP  0  0  0  0  0  0  0  0  0  0  0  0  # atno 17343 bound_to 10162
  157.0133  130.5645  149.5323 LP  0  0  0  0  0  0  0  0  0  0  0  0  # atno 17370 bound_to 10713
  156.0217  130.5311  150.8293 LP  0  0  0  0  0  0  0  0  0  0  0  0  # atno 17371 bound_to 10713
  140.1270  134.5145  155.8136 LP  0  0  0  0  0  0  0  0  0  0  0  0  # atno 17394 bound_to 11000
  141.2160  133.6776  156.6970 LP  0  0  0  0  0  0  0  0  0  0  0  0  # atno 17395 bound_to 11000

$$$$
