AV-unprocessed.smi:301|AV-procd|sdf|2270|dock4
  -GOLD-   2262022163D 1   1.00000     0.00000
 Structure written by MMmdl.
 32 33  0  0  0  0  0  0  0  0  1 V2000
  146.0124  142.6065  158.2035 C   0  0  0  0  0  0  0  0  0  0  0  0
  146.2756  142.4991  156.7405 C   0  0  0  0  0  0  0  0  0  0  0  0
  147.4129  142.0235  156.2276 N   0  0  0  0  0  0  0  0  0  0  0  0
  147.4208  142.0337  154.8283 C   0  0  0  0  0  0  0  0  0  0  0  0
  148.6243  141.5343  154.0818 C   0  0  0  0  0  0  0  0  0  0  0  0
  149.7769  141.2383  155.0459 C   0  0  0  0  0  0  0  0  0  0  0  0
  150.4721  140.2333  154.8930 O   0  0  0  0  0  0  0  0  0  0  0  0
  149.9752  142.1259  156.0328 N   0  0  0  0  0  0  0  0  0  0  0  0
  151.0268  142.0387  157.0396 C   0  0  0  0  0  0  0  0  0  0  0  0
  150.9897  143.2369  158.0028 C   0  0  2  0  0  0  0  0  0  0  0  0
  152.0008  144.3284  157.6681 C   0  0  0  0  0  0  0  0  0  0  0  0
  152.0963  145.0700  158.9842 C   0  0  0  0  0  0  0  0  0  0  0  0
  151.9005  143.9601  160.0197 C   0  0  0  0  0  0  0  0  0  0  0  0
  151.3637  142.8416  159.3165 O   0  0  0  0  0  0  0  0  0  0  0  0
  146.2554  142.5181  154.2864 C   0  0  0  0  0  0  0  0  0  0  0  0
  145.1139  142.9918  155.5145 S   0  0  0  0  0  0  0  0  0  0  0  0
  146.7768  142.0754  158.7718 H   0  0  0  0  0  0  0  0  0  0  0  0
  145.0396  142.1754  158.4405 H   0  0  0  0  0  0  0  0  0  0  0  0
  146.0157  143.6538  158.5056 H   0  0  0  0  0  0  0  0  0  0  0  0
  148.3901  140.6213  153.5332 H   0  0  0  0  0  0  0  0  0  0  0  0
  148.9368  142.2676  153.3367 H   0  0  0  0  0  0  0  0  0  0  0  0
  149.3640  142.9283  156.0812 H   0  0  0  0  0  0  0  0  0  0  0  0
  150.8988  141.1079  157.5929 H   0  0  0  0  0  0  0  0  0  0  0  0
  152.0005  141.9767  156.5508 H   0  0  0  0  0  0  0  0  0  0  0  0
  149.9898  143.6732  158.0408 H   0  0  0  0  0  0  0  0  0  0  0  0
  152.9676  143.8913  157.4136 H   0  0  0  0  0  0  0  0  0  0  0  0
  151.6829  144.9645  156.8416 H   0  0  0  0  0  0  0  0  0  0  0  0
  153.0400  145.6029  159.1048 H   0  0  0  0  0  0  0  0  0  0  0  0
  151.2855  145.7960  159.0591 H   0  0  0  0  0  0  0  0  0  0  0  0
  152.8481  143.6708  160.4748 H   0  0  0  0  0  0  0  0  0  0  0  0
  151.2252  144.2748  160.8160 H   0  0  0  0  0  0  0  0  0  0  0  0
  146.0023  142.6288  153.2424 H   0  0  0  0  0  0  0  0  0  0  0  0
  1  2  1  0  0  0  0
  1 17  1  0  0  0  0
  1 18  1  0  0  0  0
  1 19  1  0  0  0  0
  2 16  1  0  0  0  0
  2  3  2  0  0  0  0
  3  4  1  0  0  0  0
  4  5  1  0  0  0  0
  4 15  2  0  0  0  0
  5  6  1  0  0  0  0
  5 20  1  0  0  0  0
  5 21  1  0  0  0  0
  6  7  2  0  0  0  0
  6  8  1  0  0  0  0
  8  9  1  0  0  0  0
  8 22  1  0  0  0  0
  9 10  1  0  0  0  0
  9 23  1  0  0  0  0
  9 24  1  0  0  0  0
 10 14  1  0  0  0  0
 10 11  1  0  0  0  0
 10 25  1  0  0  0  0
 11 12  1  0  0  0  0
 11 26  1  0  0  0  0
 11 27  1  0  0  0  0
 12 13  1  0  0  0  0
 12 28  1  0  0  0  0
 12 29  1  0  0  0  0
 13 14  1  0  0  0  0
 13 30  1  0  0  0  0
 13 31  1  0  0  0  0
 15 16  1  0  0  0  0
 15 32  1  0  0  0  0
M  END
> <s_m_source_file>
AV-unprocessed.smi

> <i_m_source_file_index>
301

> <i_lp_mmshare_version>
43012

> <i_f3d_flags>
0

> <s_epik_input>
W0NIM11jMW5jKFtjSF1zMSlbQ0gyXUMoPU8pW05IXVtDSDJdW0NAQEhdMltDSDJdW0NIMl1bQ0gyXU8y

> <s_epik_cmdline>
J2VwaWtfcHl0aG9uJywgJy1waCcsICc3LjAnLCAnLXRuJywgJzgnLCAnLW1hJywgJzIwMCcsICctbWV0YWxfYmluZGluZycsICctaW1hZScsICc8aW5maWxlLm1hZT4nLCAnLW9tYWUnLCAnPG91dGZpbGUubWFlPic=

> <r_lp_tautomer_probability>
1

> <r_epik_Ionization_Penalty>
6.06873e-05

> <r_epik_Ionization_Penalty_Charging>
0

> <r_epik_Ionization_Penalty_Neutral>
6.06873e-05

> <r_epik_State_Penalty>
-0

> <r_epik_Charging_Adjusted_Penalty>
0

> <i_epik_Tot_Q>
0

> <i_epik_Tot_abs_Q>
0

> <r_epik_Metal_State_Penalty>
-0

> <b_epik_Metal_Only>
0

> <s_lp_Force_Field>
OPLS_2005

> <r_lp_Energy>
15.97

> <b_lp_Chiralities_Consistent>
1

> <s_lp_Variant>
AV-unprocessed.smi:301-1

> <Gold.Version>
5.8.1

> <Gold.Id.Protein>
6NUR|6NUR_protein|mol2

> <Gold.PLP.Fitness>
41.2807

> <Gold.PLP.PLP>
-36.8971

> <Gold.PLP.part.hbond>
-2.0000

> <Gold.PLP.part.metal>
0.0000

> <Gold.PLP.part.buried>
-3.5031

> <Gold.PLP.part.nonpolar>
-31.1404

> <Gold.PLP.part.repulsive>
0.3438

> <Gold.PLP.ligand.clash>
0.0000

> <Gold.PLP.ligand.torsion>
0.8146

> <Gold.PLP.Chemscore.Hbond>
2.0000

> <Gold.PLP.Chemscore.CHOScore>
0.0000

> <Gold.PLP.Chemscore.Metal>
0.0000

> <Gold.Chemscore.Hbonds>
donor molecule, donor type, donor heavy atom, donor atom, acceptor molecule, acceptor atom, score
      L1  H     8    22       P1  8028  1.00
      P1  H  7989  7998       L1     7  0.95

> <Gold.PLP.Chemscore.Internal.Correction>
0.0128

> <Gold.Rescore>
     Score         DG    S(hbond)    S(metal)    S(lipo)     H(rot)  DE(clash)    DE(int)     intcor
     15.81     -16.59       1.64        0.00      81.33       1.51       0.04       0.74       ----

> <Gold.Chemscore.Fitness>
15.8119

> <Gold.Chemscore.DG>
-16.5940

> <Gold.Chemscore.ZeroCoef>
-5.4800

> <Gold.Chemscore.Hbond>
1.6362

> <Gold.Chemscore.Metal>
0.0000

> <Gold.Chemscore.Lipo>
81.3347

> <Gold.Chemscore.Internal_Hbond>
0.0000

> <Gold.Chemscore.DEClash>
0.0449

> <Gold.Chemscore.DEInternal>
0.7372

> <Gold.Chemscore.Rot>
1.5106

> <Gold.Chemscore.Internal.Correction>
   9.000000E+99

> <Gold.Chemscore.Hbonds>
donor molecule, donor type, donor heavy atom, donor atom, acceptor molecule, acceptor atom, score
      L1  H     8    22       P1  8028  0.97
      P1  H  7989  7998       L1     7  0.21

> <Gold.Chemscore.Hbond.Weighted>
-5.4649

> <Gold.Chemscore.Metal.Weighted>
-0.0000

> <Gold.Chemscore.Lipo.Weighted>
-9.5162

> <Gold.Chemscore.Internal_Hbond.Weighted>
0.0000

> <Gold.Chemscore.DEClash.Weighted>
0.0449

> <Gold.Chemscore.DEInternal.Weighted>
0.7372

> <Gold.Chemscore.Rot.Weighted>
3.8670

> <Gold.Chemscore.Internal.Correction.Weighted>
   9.000000E+99

> <Gold.Protein.RotatedTorsions>
[ 6907 6896 6895 6894 ] final  145.79 input  -60.11 | X-H torsion
[ 7974 7965 7964 7962 ] final   55.31 input  175.53 | X-H torsion
[ 8008 7997 7996 7995 ] final  -10.23 input   59.86 | X-H torsion
[ 10167 10162 10161 10158 ] final  149.49 input  -65.29 | X-H torsion
[ 10718 10713 10712 10709 ] final  -79.00 input   66.30 | X-H torsion
[ 10763 10752 10751 10750 ] final   77.49 input  -60.55 | X-H torsion
[ 11005 11000 10999 10996 ] final   79.03 input  -57.11 | X-H torsion

> <Gold.Protein.ActiveResidues>
 VAL166  LYS551  ARG553  GLY616  TRP617  ASP618  TYR619  PRO620  LYS621  CYS622 
 ASP623  PHE694  ASN695  SER759  ASP760  ASP761  ALA762  ILE779  LEU786  VAL792 
 PHE793  MET794  SER795  GLU796  ALA797  LYS798  CYS799  TRP800  GLU811  SER814 

> <Gold.Protein.RotatedAtoms>
  152.1763  133.4677  159.4934 H   0  0  0  0  0  0  0  0  0  0  0  0  # atno 6907 bound_to 6896
  150.6927  134.1889  159.4286 H   0  0  0  0  0  0  0  0  0  0  0  0  # atno 6908 bound_to 6896
  151.9799  135.0034  160.0607 H   0  0  0  0  0  0  0  0  0  0  0  0  # atno 6909 bound_to 6896
  145.9518  139.3979  143.0301 H   0  0  0  0  0  0  0  0  0  0  0  0  # atno 7974 bound_to 7965
  154.5574  140.2334  155.8389 H   0  0  0  0  0  0  0  0  0  0  0  0  # atno 8008 bound_to 7997
  156.2000  140.3055  155.9466 H   0  0  0  0  0  0  0  0  0  0  0  0  # atno 8009 bound_to 7997
  155.2954  140.0428  157.3016 H   0  0  0  0  0  0  0  0  0  0  0  0  # atno 8010 bound_to 7997
  139.4861  144.5597  151.7253 H   0  0  0  0  0  0  0  0  0  0  0  0  # atno 10167 bound_to 10162
  156.0103  130.4533  150.3582 H   0  0  0  0  0  0  0  0  0  0  0  0  # atno 10718 bound_to 10713
  153.0803  135.4912  154.8488 H   0  0  0  0  0  0  0  0  0  0  0  0  # atno 10763 bound_to 10752
  154.7141  135.3026  154.9153 H   0  0  0  0  0  0  0  0  0  0  0  0  # atno 10764 bound_to 10752
  153.9837  135.6786  153.4804 H   0  0  0  0  0  0  0  0  0  0  0  0  # atno 10765 bound_to 10752
  139.9189  134.7811  156.1726 H   0  0  0  0  0  0  0  0  0  0  0  0  # atno 11005 bound_to 11000
  145.8161  140.9702  143.0923 LP  0  0  0  0  0  0  0  0  0  0  0  0  # atno 17320 bound_to 7965
  144.6797  139.9982  143.7484 LP  0  0  0  0  0  0  0  0  0  0  0  0  # atno 17321 bound_to 7965
  140.5165  144.0945  150.6010 LP  0  0  0  0  0  0  0  0  0  0  0  0  # atno 17342 bound_to 10162
  140.3889  143.2763  152.0084 LP  0  0  0  0  0  0  0  0  0  0  0  0  # atno 17343 bound_to 10162
  157.1672  131.0359  151.2813 LP  0  0  0  0  0  0  0  0  0  0  0  0  # atno 17370 bound_to 10713
  157.4261  130.7464  149.6952 LP  0  0  0  0  0  0  0  0  0  0  0  0  # atno 17371 bound_to 10713
  141.0691  133.6805  156.2104 LP  0  0  0  0  0  0  0  0  0  0  0  0  # atno 17394 bound_to 11000
  140.6537  134.5041  157.5579 LP  0  0  0  0  0  0  0  0  0  0  0  0  # atno 17395 bound_to 11000

$$$$
