AV-unprocessed.smi:1466|AV-procd|sdf|5953|dock1
  -GOLD-   22720 6 33D 1   1.00000     0.00000
 Structure written by MMmdl.
 49 50  0  0  0  0  0  0  0  0  2 V2000
  143.8149  132.6710  148.8967 C   0  0  0  0  0  0  0  0  0  0  0  0
  144.3491  132.7110  150.2515 N   0  0  0  0  0  0  0  0  0  0  0  0
  144.6300  131.4726  150.9692 C   0  0  0  0  0  0  0  0  0  0  0  0
  144.6032  133.9542  150.8701 C   0  0  0  0  0  0  0  0  0  0  0  0
  145.6916  134.1743  151.7495 C   0  0  0  0  0  0  0  0  0  0  0  0
  145.8812  135.4444  152.3324 C   0  0  0  0  0  0  0  0  0  0  0  0
  144.9725  136.4905  152.0401 C   0  0  0  0  0  0  0  0  0  0  0  0
  145.0804  137.8076  152.5627 N   0  0  0  0  0  0  0  0  0  0  0  0
  146.0102  138.2995  153.3996 C   0  0  0  0  0  0  0  0  0  0  0  0
  146.9485  137.6595  153.8739 O   0  0  0  0  0  0  0  0  0  0  0  0
  145.7791  139.5898  153.6801 N   0  0  0  0  0  0  0  0  0  0  0  0
  146.5918  140.4066  154.5738 C   0  0  0  0  0  0  0  0  0  0  0  0
  148.0559  140.4731  154.1009 C   0  0  0  0  0  0  0  0  0  0  0  0
  148.9403  140.9700  155.1613 N   0  0  0  0  0  0  0  0  0  0  0  0
  148.3229  141.8689  156.1489 C   0  0  0  0  0  0  0  0  0  0  0  0
  148.1536  141.2340  157.5484 C   0  0  0  0  0  0  0  0  0  0  0  0
  149.2043  140.1793  157.9488 C   0  0  0  0  0  0  0  0  0  0  0  0
  150.6732  140.6250  157.7883 C   0  0  0  0  0  0  0  0  0  0  0  0
  151.0901  141.1492  156.3931 C   0  0  0  0  0  0  0  0  0  0  0  0
  150.2447  140.6072  155.2288 C   0  0  0  0  0  0  0  0  0  0  0  0
  150.7785  139.8664  154.4026 O   0  0  0  0  0  0  0  0  0  0  0  0
  143.9161  136.2242  151.1463 C   0  0  0  0  0  0  0  0  0  0  0  0
  143.7717  134.9929  150.6109 N   0  3  0  0  0  0  0  0  0  0  0  0
  144.4766  133.1958  148.2069 H   0  0  0  0  0  0  0  0  0  0  0  0
  142.8302  133.1380  148.8600 H   0  0  0  0  0  0  0  0  0  0  0  0
  143.7110  131.6457  148.5417 H   0  0  0  0  0  0  0  0  0  0  0  0
  145.6941  131.3939  151.1938 H   0  0  0  0  0  0  0  0  0  0  0  0
  144.3471  130.5998  150.3804 H   0  0  0  0  0  0  0  0  0  0  0  0
  144.0729  131.4364  151.9061 H   0  0  0  0  0  0  0  0  0  0  0  0
  146.3931  133.3886  151.9858 H   0  0  0  0  0  0  0  0  0  0  0  0
  146.7298  135.5914  152.9824 H   0  0  0  0  0  0  0  0  0  0  0  0
  144.3253  138.4333  152.3229 H   0  0  0  0  0  0  0  0  0  0  0  0
  144.9835  140.0391  153.2506 H   0  0  0  0  0  0  0  0  0  0  0  0
  146.1622  141.4065  154.6567 H   0  0  0  0  0  0  0  0  0  0  0  0
  146.5441  139.9666  155.5702 H   0  0  0  0  0  0  0  0  0  0  0  0
  148.3838  139.4880  153.7662 H   0  0  0  0  0  0  0  0  0  0  0  0
  148.1405  141.1138  153.2211 H   0  0  0  0  0  0  0  0  0  0  0  0
  148.9205  142.7773  156.2275 H   0  0  0  0  0  0  0  0  0  0  0  0
  147.3533  142.2243  155.7978 H   0  0  0  0  0  0  0  0  0  0  0  0
  148.1314  142.0291  158.2945 H   0  0  0  0  0  0  0  0  0  0  0  0
  147.1732  140.7590  157.5966 H   0  0  0  0  0  0  0  0  0  0  0  0
  149.0353  139.8931  158.9873 H   0  0  0  0  0  0  0  0  0  0  0  0
  149.0367  139.2667  157.3751 H   0  0  0  0  0  0  0  0  0  0  0  0
  150.8904  141.3965  158.5275 H   0  0  0  0  0  0  0  0  0  0  0  0
  151.3143  139.7827  158.0507 H   0  0  0  0  0  0  0  0  0  0  0  0
  151.0550  142.2380  156.3763 H   0  0  0  0  0  0  0  0  0  0  0  0
  152.1381  140.9030  156.2177 H   0  0  0  0  0  0  0  0  0  0  0  0
  143.1775  136.9543  150.8476 H   0  0  0  0  0  0  0  0  0  0  0  0
  142.9902  134.8361  149.9743 H   0  0  0  0  0  0  0  0  0  0  0  0
  1  2  1  0  0  0  0
  1 24  1  0  0  0  0
  1 25  1  0  0  0  0
  1 26  1  0  0  0  0
  2  3  1  0  0  0  0
  2  4  1  0  0  0  0
  3 27  1  0  0  0  0
  3 28  1  0  0  0  0
  3 29  1  0  0  0  0
  4 23  1  0  0  0  0
  4  5  2  0  0  0  0
  5  6  1  0  0  0  0
  5 30  1  0  0  0  0
  6  7  2  0  0  0  0
  6 31  1  0  0  0  0
  7  8  1  0  0  0  0
  7 22  1  0  0  0  0
  8  9  1  0  0  0  0
  8 32  1  0  0  0  0
  9 10  2  0  0  0  0
  9 11  1  0  0  0  0
 11 12  1  0  0  0  0
 11 33  1  0  0  0  0
 12 13  1  0  0  0  0
 12 34  1  0  0  0  0
 12 35  1  0  0  0  0
 13 14  1  0  0  0  0
 13 36  1  0  0  0  0
 13 37  1  0  0  0  0
 14 20  1  0  0  0  0
 14 15  1  0  0  0  0
 15 16  1  0  0  0  0
 15 38  1  0  0  0  0
 15 39  1  0  0  0  0
 16 17  1  0  0  0  0
 16 40  1  0  0  0  0
 16 41  1  0  0  0  0
 17 18  1  0  0  0  0
 17 42  1  0  0  0  0
 17 43  1  0  0  0  0
 18 19  1  0  0  0  0
 18 44  1  0  0  0  0
 18 45  1  0  0  0  0
 19 20  1  0  0  0  0
 19 46  1  0  0  0  0
 19 47  1  0  0  0  0
 20 21  2  0  0  0  0
 22 23  2  0  0  0  0
 22 48  1  0  0  0  0
 23 49  1  0  0  0  0
M  CHG  1  23   1
M  END
> <s_m_source_file>
AV-unprocessed.smi

> <i_m_source_file_index>
1466

> <i_lp_mmshare_version>
43012

> <i_f3d_flags>
0

> <s_epik_input>
W0NIM11OKFtDSDNdKWMxW2NIXVtjSF1jKFtjSF1uMSlbTkhdQyg9TylbTkhdW0NIMl1bQ0gyXU4yW0NIMl1bQ0gyXVtDSDJdW0NIMl1bQ0gyXUMyPU8=

> <s_epik_cmdline>
J2VwaWtfcHl0aG9uJywgJy1waCcsICc3LjAnLCAnLXRuJywgJzgnLCAnLW1hJywgJzIwMCcsICctbWV0YWxfYmluZGluZycsICctaW1hZScsICc8aW5maWxlLm1hZT4nLCAnLW9tYWUnLCAnPG91dGZpbGUubWFlPic=

> <r_lp_tautomer_probability>
0.999994

> <r_epik_Ionization_Penalty>
0.269687

> <r_epik_Ionization_Penalty_Charging>
0.269668

> <r_epik_Ionization_Penalty_Neutral>
1.89217e-05

> <r_epik_State_Penalty>
0.261755

> <r_epik_Charging_Adjusted_Penalty>
0.531423

> <i_epik_Tot_Q>
1

> <i_epik_Tot_abs_Q>
1

> <r_epik_Metal_State_Penalty>
0.546954

> <b_epik_Metal_Only>
0

> <s_lp_Force_Field>
OPLS_2005

> <r_lp_Energy>
31.5815

> <b_lp_Chiralities_Consistent>
1

> <s_lp_Variant>
AV-unprocessed.smi:1466-1

> <Gold.Version>
5.8.1

> <Gold.Id.Protein>
6NUR|6NUR_protein|mol2

> <Gold.PLP.Fitness>
47.8668

> <Gold.PLP.PLP>
-35.8544

> <Gold.PLP.part.hbond>
-4.7437

> <Gold.PLP.part.metal>
0.0000

> <Gold.PLP.part.buried>
-1.0071

> <Gold.PLP.part.nonpolar>
-30.9387

> <Gold.PLP.part.repulsive>
0.4920

> <Gold.PLP.ligand.clash>
0.0000

> <Gold.PLP.ligand.torsion>
0.9305

> <Gold.PLP.Chemscore.Hbond>
4.5873

> <Gold.PLP.Chemscore.CHOScore>
0.0000

> <Gold.PLP.Chemscore.Metal>
0.0000

> <Gold.Chemscore.Hbonds>
donor molecule, donor type, donor heavy atom, donor atom, acceptor molecule, acceptor atom, score
      L1  H     8    32       P1 10175  0.69
      L1  H    11    33       P1 10175  1.00
      L1  H    23    49       P1 10186  1.89
      P1  H  7989  7998       L1    21  1.00

> <Gold.PLP.Chemscore.Internal.Correction>
0.1115

> <Gold.Rescore>
     Score         DG    S(hbond)    S(metal)    S(lipo)     H(rot)  DE(clash)    DE(int)     intcor
     15.29     -19.97       3.06        0.00      69.48       1.50       1.68       3.01       ----

> <Gold.Chemscore.Fitness>
15.2889

> <Gold.Chemscore.DG>
-19.9712

> <Gold.Chemscore.ZeroCoef>
-5.4800

> <Gold.Chemscore.Hbond>
3.0580

> <Gold.Chemscore.Metal>
0.0000

> <Gold.Chemscore.Lipo>
69.4842

> <Gold.Chemscore.Internal_Hbond>
0.0000

> <Gold.Chemscore.DEClash>
1.6753

> <Gold.Chemscore.DEInternal>
3.0071

> <Gold.Chemscore.Rot>
1.5047

> <Gold.Chemscore.Internal.Correction>
   9.000000E+99

> <Gold.Chemscore.Hbonds>
donor molecule, donor type, donor heavy atom, donor atom, acceptor molecule, acceptor atom, score
      L1  H     8    32       P1 10175  0.66
      L1  H    11    33       P1 10175  0.97
      L1  H    23    49       P1 10186  0.53
      P1  H  7989  7998       L1    21  0.44

> <Gold.Chemscore.Hbond.Weighted>
-10.2137

> <Gold.Chemscore.Metal.Weighted>
-0.0000

> <Gold.Chemscore.Lipo.Weighted>
-8.1297

> <Gold.Chemscore.Internal_Hbond.Weighted>
0.0000

> <Gold.Chemscore.DEClash.Weighted>
1.6753

> <Gold.Chemscore.DEInternal.Weighted>
3.0071

> <Gold.Chemscore.Rot.Weighted>
3.8522

> <Gold.Chemscore.Internal.Correction.Weighted>
   9.000000E+99

> <Gold.Protein.RotatedTorsions>
[ 6907 6896 6895 6894 ] final   53.14 input  -60.11 | X-H torsion
[ 7974 7965 7964 7962 ] final -140.32 input  175.53 | X-H torsion
[ 8008 7997 7996 7995 ] final -138.10 input   59.86 | X-H torsion
[ 10167 10162 10161 10158 ] final -111.63 input  -65.29 | X-H torsion
[ 10718 10713 10712 10709 ] final -161.73 input   66.30 | X-H torsion
[ 10763 10752 10751 10750 ] final   32.32 input  -60.55 | X-H torsion
[ 11005 11000 10999 10996 ] final  -81.42 input  -57.11 | X-H torsion

> <Gold.Protein.ActiveResidues>
 VAL166  LYS551  ARG553  GLY616  TRP617  ASP618  TYR619  PRO620  LYS621  CYS622 
 ASP623  PHE694  ASN695  SER759  ASP760  ASP761  ALA762  ILE779  LEU786  VAL792 
 PHE793  MET794  SER795  GLU796  ALA797  LYS798  CYS799  TRP800  GLU811  SER814 

> <Gold.Protein.RotatedAtoms>
  152.3306  134.7265  160.0290 H   0  0  0  0  0  0  0  0  0  0  0  0  # atno 6907 bound_to 6896
  151.7683  133.3334  159.3445 H   0  0  0  0  0  0  0  0  0  0  0  0  # atno 6908 bound_to 6896
  150.7420  134.5974  159.6063 H   0  0  0  0  0  0  0  0  0  0  0  0  # atno 6909 bound_to 6896
  144.8606  140.6213  143.5331 H   0  0  0  0  0  0  0  0  0  0  0  0  # atno 7974 bound_to 7965
  155.4227  140.0519  157.3024 H   0  0  0  0  0  0  0  0  0  0  0  0  # atno 8008 bound_to 7997
  154.4895  140.2114  155.9538 H   0  0  0  0  0  0  0  0  0  0  0  0  # atno 8009 bound_to 7997
  156.1322  140.3169  155.8372 H   0  0  0  0  0  0  0  0  0  0  0  0  # atno 8010 bound_to 7997
  140.1315  143.4356  152.1624 H   0  0  0  0  0  0  0  0  0  0  0  0  # atno 10167 bound_to 10162
  156.6004  130.8808  151.2912 H   0  0  0  0  0  0  0  0  0  0  0  0  # atno 10718 bound_to 10713
  153.0269  135.6416  154.1337 H   0  0  0  0  0  0  0  0  0  0  0  0  # atno 10763 bound_to 10752
  154.1064  135.2856  155.3242 H   0  0  0  0  0  0  0  0  0  0  0  0  # atno 10764 bound_to 10752
  154.6362  135.5475  153.7800 H   0  0  0  0  0  0  0  0  0  0  0  0  # atno 10765 bound_to 10752
  141.1666  133.7196  156.8420 H   0  0  0  0  0  0  0  0  0  0  0  0  # atno 11005 bound_to 11000
  145.4319  139.1548  143.4017 LP  0  0  0  0  0  0  0  0  0  0  0  0  # atno 17320 bound_to 7965
  146.2857  140.4436  142.8759 LP  0  0  0  0  0  0  0  0  0  0  0  0  # atno 17321 bound_to 7965
  139.5517  144.7343  151.4415 LP  0  0  0  0  0  0  0  0  0  0  0  0  # atno 17342 bound_to 10162
  140.6814  143.8073  150.7127 LP  0  0  0  0  0  0  0  0  0  0  0  0  # atno 17343 bound_to 10162
  157.7281  130.9652  150.1727 LP  0  0  0  0  0  0  0  0  0  0  0  0  # atno 17370 bound_to 10713
  156.2474  130.3697  149.8270 LP  0  0  0  0  0  0  0  0  0  0  0  0  # atno 17371 bound_to 10713
  140.1976  134.8920  157.3133 LP  0  0  0  0  0  0  0  0  0  0  0  0  # atno 17394 bound_to 11000
  140.2222  134.4010  155.7560 LP  0  0  0  0  0  0  0  0  0  0  0  0  # atno 17395 bound_to 11000

$$$$
