AV-unprocessed.smi:1222|AV-procd|sdf|5123|dock7
  -GOLD-   22720 4183D 1   1.00000     0.00000
 Structure written by MMmdl.
 36 38  0  0  0  0  0  0  0  0  3 V2000
  148.7167  138.2961  158.9313 O   0  0  0  0  0  0  0  0  0  0  0  0
  149.5282  137.3721  159.0209 C   0  0  0  0  0  0  0  0  0  0  0  0
  149.2622  136.1048  159.4093 N   0  5  0  0  0  0  0  0  0  0  0  0
  148.3012  135.8683  160.3173 C   0  0  0  0  0  0  0  0  0  0  0  0
  147.8378  136.8078  161.1496 N   0  0  0  0  0  0  0  0  0  0  0  0
  146.8371  136.3455  162.0061 C   0  0  0  0  0  0  0  0  0  0  0  0
  146.5257  135.0253  161.8163 C   0  0  0  0  0  0  0  0  0  0  0  0
  147.4850  134.3193  160.5470 S   0  0  0  0  0  0  0  0  0  0  0  0
  150.8165  137.5812  158.7144 N   0  0  0  0  0  0  0  0  0  0  0  0
  151.3968  138.8424  158.2636 C   0  0  2  0  0  0  0  0  0  0  0  0
  151.5621  139.8222  159.4410 C   0  0  0  0  0  0  0  0  0  0  0  0
  152.0656  141.1913  158.9569 C   0  0  0  0  0  0  0  0  0  0  0  0
  151.1607  141.7560  157.9254 N   0  3  1  0  0  0  0  0  0  0  0  0
  151.5546  143.1246  157.5263 C   0  0  0  0  0  0  0  0  0  0  0  0
  152.1993  143.9207  158.6371 C   0  0  0  0  0  0  0  0  0  0  0  0
  150.7723  144.2107  158.2276 C   0  0  0  0  0  0  0  0  0  0  0  0
  151.0258  140.8499  156.7582 C   0  0  0  0  0  0  0  0  0  0  0  0
  150.4957  139.4726  157.1889 C   0  0  0  0  0  0  0  0  0  0  0  0
  146.4011  137.0266  162.7220 H   0  0  0  0  0  0  0  0  0  0  0  0
  145.7952  134.4284  162.3409 H   0  0  0  0  0  0  0  0  0  0  0  0
  151.4430  136.7950  158.8056 H   0  0  0  0  0  0  0  0  0  0  0  0
  152.3748  138.6476  157.8191 H   0  0  0  0  0  0  0  0  0  0  0  0
  150.6081  139.9480  159.9558 H   0  0  0  0  0  0  0  0  0  0  0  0
  152.2579  139.4169  160.1764 H   0  0  0  0  0  0  0  0  0  0  0  0
  152.1281  141.8753  159.8038 H   0  0  0  0  0  0  0  0  0  0  0  0
  153.0732  141.0983  158.5488 H   0  0  0  0  0  0  0  0  0  0  0  0
  151.8774  143.2537  156.4946 H   0  0  0  0  0  0  0  0  0  0  0  0
  152.3567  143.4328  159.5975 H   0  0  0  0  0  0  0  0  0  0  0  0
  152.9563  144.6507  158.3573 H   0  0  0  0  0  0  0  0  0  0  0  0
  150.5891  145.1326  157.6791 H   0  0  0  0  0  0  0  0  0  0  0  0
  149.9826  143.9150  158.9161 H   0  0  0  0  0  0  0  0  0  0  0  0
  150.3438  141.2898  156.0299 H   0  0  0  0  0  0  0  0  0  0  0  0
  151.9927  140.7432  156.2634 H   0  0  0  0  0  0  0  0  0  0  0  0
  150.4310  138.8141  156.3217 H   0  0  0  0  0  0  0  0  0  0  0  0
  149.4796  139.5800  157.5722 H   0  0  0  0  0  0  0  0  0  0  0  0
  150.2459  141.8270  158.3479 H   0  0  0  0  0  0  0  0  0  0  0  0
  1  2  2  0  0  0  0
  2  3  1  0  0  0  0
  2  9  1  0  0  0  0
  3  4  1  0  0  0  0
  4  8  1  0  0  0  0
  4  5  2  0  0  0  0
  5  6  1  0  0  0  0
  6  7  2  0  0  0  0
  6 19  1  0  0  0  0
  7  8  1  0  0  0  0
  7 20  1  0  0  0  0
  9 10  1  0  0  0  0
  9 21  1  0  0  0  0
 10 18  1  0  0  0  0
 10 11  1  0  0  0  0
 10 22  1  0  0  0  0
 11 12  1  0  0  0  0
 11 23  1  0  0  0  0
 11 24  1  0  0  0  0
 12 13  1  0  0  0  0
 12 25  1  0  0  0  0
 12 26  1  0  0  0  0
 13 14  1  0  0  0  0
 13 17  1  0  0  0  0
 13 36  1  0  0  0  0
 14 16  1  0  0  0  0
 14 15  1  0  0  0  0
 14 27  1  0  0  0  0
 15 16  1  0  0  0  0
 15 28  1  0  0  0  0
 15 29  1  0  0  0  0
 16 30  1  0  0  0  0
 16 31  1  0  0  0  0
 17 18  1  0  0  0  0
 17 32  1  0  0  0  0
 17 33  1  0  0  0  0
 18 34  1  0  0  0  0
 18 35  1  0  0  0  0
M  CHG  1   3  -1
M  CHG  1  13   1
M  END
> <s_m_source_file>
AV-unprocessed.smi

> <i_m_source_file_index>
1222

> <i_lp_mmshare_version>
43012

> <i_f3d_flags>
0

> <s_epik_input>
czFbY0hdW2NIXW5jMVtOSF1DKD1PKVtOSF1bQ0hdMltDSDJdW0NIMl1OKFtDSDJdW0NIMl0yKVtDSF0zW0NIMl1bQ0gyXTM=

> <s_epik_cmdline>
J2VwaWtfcHl0aG9uJywgJy1waCcsICc3LjAnLCAnLXRuJywgJzgnLCAnLW1hJywgJzIwMCcsICctbWV0YWxfYmluZGluZycsICctaW1hZScsICc8aW5maWxlLm1hZT4nLCAnLW9tYWUnLCAnPG91dGZpbGUubWFlPic=

> <r_lp_tautomer_probability>
0.999

> <r_epik_Ionization_Penalty>
6.4609

> <r_epik_Ionization_Penalty_Charging>
5.58663

> <r_epik_Ionization_Penalty_Neutral>
0.874262

> <r_epik_State_Penalty>
5.57752

> <r_epik_Charging_Adjusted_Penalty>
11.1642

> <i_epik_Tot_Q>
0

> <i_epik_Tot_abs_Q>
2

> <r_epik_Metal_State_Penalty>
1.58738

> <b_epik_Metal_Only>
1

> <s_lp_Force_Field>
OPLS_2005

> <r_lp_Energy>
15.8934

> <b_lp_Chiralities_Consistent>
1

> <s_lp_Variant>
AV-unprocessed.smi:1222-4

> <Gold.Version>
5.8.1

> <Gold.Id.Protein>
6NUR|6NUR_protein|mol2

> <Gold.PLP.Fitness>
40.7282

> <Gold.PLP.PLP>
-33.1955

> <Gold.PLP.part.hbond>
-4.1636

> <Gold.PLP.part.metal>
0.0000

> <Gold.PLP.part.buried>
-4.2095

> <Gold.PLP.part.nonpolar>
-26.3404

> <Gold.PLP.part.repulsive>
0.1785

> <Gold.PLP.ligand.clash>
0.0000

> <Gold.PLP.ligand.torsion>
1.3663

> <Gold.PLP.Chemscore.Hbond>
3.0000

> <Gold.PLP.Chemscore.CHOScore>
0.0000

> <Gold.PLP.Chemscore.Metal>
0.0000

> <Gold.Chemscore.Hbonds>
donor molecule, donor type, donor heavy atom, donor atom, acceptor molecule, acceptor atom, score
      P1  H  6896  6907       L1     3  1.98
      P1  H  6931  6943       L1     5  1.00
      P1  H  6934  6947       L1     5  0.25

> <Gold.PLP.Chemscore.Internal.Correction>
1.2653

> <Gold.Rescore>
     Score         DG    S(hbond)    S(metal)    S(lipo)     H(rot)  DE(clash)    DE(int)     intcor
     13.67     -17.92       1.77        0.00      83.00       1.25       0.15       4.11       ----

> <Gold.Chemscore.Fitness>
13.6652

> <Gold.Chemscore.DG>
-17.9246

> <Gold.Chemscore.ZeroCoef>
-5.4800

> <Gold.Chemscore.Hbond>
1.7741

> <Gold.Chemscore.Metal>
0.0000

> <Gold.Chemscore.Lipo>
83.0030

> <Gold.Chemscore.Internal_Hbond>
0.0000

> <Gold.Chemscore.DEClash>
0.1461

> <Gold.Chemscore.DEInternal>
4.1132

> <Gold.Chemscore.Rot>
1.2470

> <Gold.Chemscore.Internal.Correction>
   9.000000E+99

> <Gold.Chemscore.Hbonds>
donor molecule, donor type, donor heavy atom, donor atom, acceptor molecule, acceptor atom, score
      P1  H  6896  6907       L1     3  0.64
      P1  H  6931  6943       L1     5  0.85
      P1  H  6934  6947       L1     5  0.06

> <Gold.Chemscore.Hbond.Weighted>
-5.9256

> <Gold.Chemscore.Metal.Weighted>
-0.0000

> <Gold.Chemscore.Lipo.Weighted>
-9.7114

> <Gold.Chemscore.Internal_Hbond.Weighted>
0.0000

> <Gold.Chemscore.DEClash.Weighted>
0.1461

> <Gold.Chemscore.DEInternal.Weighted>
4.1132

> <Gold.Chemscore.Rot.Weighted>
3.1924

> <Gold.Chemscore.Internal.Correction.Weighted>
   9.000000E+99

> <Gold.Protein.RotatedTorsions>
[ 6907 6896 6895 6894 ] final  -62.88 input  -60.11 | X-H torsion
[ 7974 7965 7964 7962 ] final  114.22 input  175.53 | X-H torsion
[ 8008 7997 7996 7995 ] final   65.05 input   59.86 | X-H torsion
[ 10167 10162 10161 10158 ] final  147.32 input  -65.29 | X-H torsion
[ 10718 10713 10712 10709 ] final  160.64 input   66.30 | X-H torsion
[ 10763 10752 10751 10750 ] final  164.58 input  -60.55 | X-H torsion
[ 11005 11000 10999 10996 ] final   20.21 input  -57.11 | X-H torsion

> <Gold.Protein.ActiveResidues>
 VAL166  LYS551  ARG553  GLY616  TRP617  ASP618  TYR619  PRO620  LYS621  CYS622 
 ASP623  PHE694  ASN695  SER759  ASP760  ASP761  ALA762  ILE779  LEU786  VAL792 
 PHE793  MET794  SER795  GLU796  ALA797  LYS798  CYS799  TRP800  GLU811  SER814 

> <Gold.Protein.RotatedAtoms>
  150.7686  134.6510  159.6287 H   0  0  0  0  0  0  0  0  0  0  0  0  # atno 6907 bound_to 6896
  152.3728  134.6705  160.0179 H   0  0  0  0  0  0  0  0  0  0  0  0  # atno 6908 bound_to 6896
  151.7059  133.3275  159.3314 H   0  0  0  0  0  0  0  0  0  0  0  0  # atno 6909 bound_to 6896
  145.2071  139.2924  143.4288 H   0  0  0  0  0  0  0  0  0  0  0  0  # atno 7974 bound_to 7965
  155.6556  140.3497  155.4764 H   0  0  0  0  0  0  0  0  0  0  0  0  # atno 8008 bound_to 7997
  155.9811  140.1175  157.0748 H   0  0  0  0  0  0  0  0  0  0  0  0  # atno 8009 bound_to 7997
  154.4192  140.1138  156.5423 H   0  0  0  0  0  0  0  0  0  0  0  0  # atno 8010 bound_to 7997
  139.4892  144.5764  151.6956 H   0  0  0  0  0  0  0  0  0  0  0  0  # atno 10167 bound_to 10162
  157.1475  131.0556  151.2296 H   0  0  0  0  0  0  0  0  0  0  0  0  # atno 10718 bound_to 10713
  154.3111  135.2757  155.2566 H   0  0  0  0  0  0  0  0  0  0  0  0  # atno 10763 bound_to 10752
  154.4960  135.5821  153.6499 H   0  0  0  0  0  0  0  0  0  0  0  0  # atno 10764 bound_to 10752
  152.9888  135.6146  154.3288 H   0  0  0  0  0  0  0  0  0  0  0  0  # atno 10765 bound_to 10752
  140.4051  134.1677  155.7665 H   0  0  0  0  0  0  0  0  0  0  0  0  # atno 11005 bound_to 11000
  146.3405  140.2334  142.8594 LP  0  0  0  0  0  0  0  0  0  0  0  0  # atno 17320 bound_to 7965
  144.9892  140.8531  143.5350 LP  0  0  0  0  0  0  0  0  0  0  0  0  # atno 17321 bound_to 7965
  140.5361  144.0653  150.6071 LP  0  0  0  0  0  0  0  0  0  0  0  0  # atno 17342 bound_to 10162
  140.3659  143.2881  152.0332 LP  0  0  0  0  0  0  0  0  0  0  0  0  # atno 17343 bound_to 10162
  157.4251  130.7459  149.6944 LP  0  0  0  0  0  0  0  0  0  0  0  0  # atno 17370 bound_to 10713
  155.9776  130.4060  150.3698 LP  0  0  0  0  0  0  0  0  0  0  0  0  # atno 17371 bound_to 10713
  141.1842  133.8348  157.1148 LP  0  0  0  0  0  0  0  0  0  0  0  0  # atno 17394 bound_to 11000
  140.0308  134.9902  157.0776 LP  0  0  0  0  0  0  0  0  0  0  0  0  # atno 17395 bound_to 11000

$$$$
