AV-unprocessed.smi:2564|AV-procd|sdf|10066|dock1
  -GOLD-   2272014103D 1   1.00000     0.00000
 Structure written by MMmdl.
 28 29  0  0  0  0  0  0  0  0  1 V2000
  151.9084  145.2880  160.2379 C   0  0  0  0  0  0  0  0  0  0  0  0
  152.2498  144.2201  161.0873 C   0  0  0  0  0  0  0  0  0  0  0  0
  151.9900  142.9304  160.7757 N   0  0  0  0  0  0  0  0  0  0  0  0
  151.3836  142.6295  159.6217 N   0  0  0  0  0  0  0  0  0  0  0  0
  151.0211  143.6097  158.7554 C   0  0  0  0  0  0  0  0  0  0  0  0
  150.3850  143.2657  157.5539 N   0  0  0  0  0  0  0  0  0  0  0  0
  149.8721  141.9198  157.3251 C   0  0  0  0  0  0  0  0  0  0  0  0
  150.5974  141.2002  156.1752 C   0  0  2  0  0  0  0  0  0  0  0  0
  149.6567  140.9621  154.9770 C   0  0  0  0  0  0  0  0  0  0  0  0
  150.3415  140.2060  153.9293 N   0  0  0  0  0  0  0  0  0  0  0  0
  150.8871  138.9538  154.4486 C   0  0  0  0  0  0  0  0  0  0  0  0
  151.7879  139.2288  155.6649 C   0  0  0  0  0  0  0  0  0  0  0  0
  151.0448  139.9335  156.6533 O   0  0  0  0  0  0  0  0  0  0  0  0
  151.2711  144.9697  159.0262 C   0  0  0  0  0  0  0  0  0  0  0  0
  152.1269  146.3108  160.5067 H   0  0  0  0  0  0  0  0  0  0  0  0
  152.7396  144.4018  162.0325 H   0  0  0  0  0  0  0  0  0  0  0  0
  150.0685  144.0034  156.9413 H   0  0  0  0  0  0  0  0  0  0  0  0
  149.9843  141.3480  158.2466 H   0  0  0  0  0  0  0  0  0  0  0  0
  148.8006  141.9668  157.1274 H   0  0  0  0  0  0  0  0  0  0  0  0
  151.4524  141.7959  155.8498 H   0  0  0  0  0  0  0  0  0  0  0  0
  148.7701  140.4187  155.3062 H   0  0  0  0  0  0  0  0  0  0  0  0
  149.3091  141.9157  154.5790 H   0  0  0  0  0  0  0  0  0  0  0  0
  149.6931  140.0072  153.1742 H   0  0  0  0  0  0  0  0  0  0  0  0
  150.0742  138.2871  154.7390 H   0  0  0  0  0  0  0  0  0  0  0  0
  151.4522  138.4398  153.6709 H   0  0  0  0  0  0  0  0  0  0  0  0
  152.1385  138.2887  156.0910 H   0  0  0  0  0  0  0  0  0  0  0  0
  152.6734  139.7984  155.3776 H   0  0  0  0  0  0  0  0  0  0  0  0
  150.9825  145.7448  158.3314 H   0  0  0  0  0  0  0  0  0  0  0  0
  1 14  1  0  0  0  0
  1  2  2  0  0  0  0
  1 15  1  0  0  0  0
  2  3  1  0  0  0  0
  2 16  1  0  0  0  0
  3  4  2  0  0  0  0
  4  5  1  0  0  0  0
  5  6  1  0  0  0  0
  5 14  2  0  0  0  0
  6  7  1  0  0  0  0
  6 17  1  0  0  0  0
  7  8  1  0  0  0  0
  7 18  1  0  0  0  0
  7 19  1  0  0  0  0
  8 13  1  0  0  0  0
  8  9  1  0  0  0  0
  8 20  1  0  0  0  0
  9 10  1  0  0  0  0
  9 21  1  0  0  0  0
  9 22  1  0  0  0  0
 10 11  1  0  0  0  0
 10 23  1  0  0  0  0
 11 12  1  0  0  0  0
 11 24  1  0  0  0  0
 11 25  1  0  0  0  0
 12 13  1  0  0  0  0
 12 26  1  0  0  0  0
 12 27  1  0  0  0  0
 14 28  1  0  0  0  0
M  END
> <s_m_source_file>
AV-unprocessed.smi

> <i_m_source_file_index>
2564

> <i_lp_mmshare_version>
43012

> <i_f3d_flags>
0

> <s_epik_input>
W2NIXTFbY0hdW2NIXW5uYzFbTkhdW0NIMl1bQ0BASF0yW0NIMl1bTkhdW0NIMl1bQ0gyXU8y

> <s_epik_cmdline>
J2VwaWtfcHl0aG9uJywgJy1waCcsICc3LjAnLCAnLXRuJywgJzgnLCAnLW1hJywgJzIwMCcsICctbWV0YWxfYmluZGluZycsICctaW1hZScsICc8aW5maWxlLm1hZT4nLCAnLW9tYWUnLCAnPG91dGZpbGUubWFlPic=

> <r_lp_tautomer_probability>
0.999978

> <r_epik_Ionization_Penalty>
2.48194

> <r_epik_Ionization_Penalty_Charging>
0

> <r_epik_Ionization_Penalty_Neutral>
2.48194

> <r_epik_State_Penalty>
2.63388

> <r_epik_Charging_Adjusted_Penalty>
2.63388

> <i_epik_Tot_Q>
0

> <i_epik_Tot_abs_Q>
0

> <r_epik_Metal_State_Penalty>
2.61931

> <b_epik_Metal_Only>
0

> <s_lp_Force_Field>
OPLS_2005

> <r_lp_Energy>
19.9467

> <b_lp_Chiralities_Consistent>
1

> <s_lp_Variant>
AV-unprocessed.smi:2564-5

> <Gold.Version>
5.8.1

> <Gold.Id.Protein>
6NUR|6NUR_protein|mol2

> <Gold.PLP.Fitness>
40.4340

> <Gold.PLP.PLP>
-33.6276

> <Gold.PLP.part.hbond>
-3.9531

> <Gold.PLP.part.metal>
0.0000

> <Gold.PLP.part.buried>
-5.1010

> <Gold.PLP.part.nonpolar>
-24.3784

> <Gold.PLP.part.repulsive>
0.0897

> <Gold.PLP.ligand.clash>
0.0000

> <Gold.PLP.ligand.torsion>
0.7646

> <Gold.PLP.Chemscore.Hbond>
2.7760

> <Gold.PLP.Chemscore.CHOScore>
0.0000

> <Gold.PLP.Chemscore.Metal>
0.0000

> <Gold.Chemscore.Hbonds>
donor molecule, donor type, donor heavy atom, donor atom, acceptor molecule, acceptor atom, score
      L1  H     6    17       P1  8028  1.00
      L1  H    10    23       P1  7957  0.80
      P1  H  7989  7998       L1    10  0.86

> <Gold.PLP.Chemscore.Internal.Correction>
0.0076

> <Gold.Rescore>
     Score         DG    S(hbond)    S(metal)    S(lipo)     H(rot)  DE(clash)    DE(int)     intcor
     16.48     -17.27       2.08        0.00      69.75       1.30       0.02       0.77       ----

> <Gold.Chemscore.Fitness>
16.4793

> <Gold.Chemscore.DG>
-17.2702

> <Gold.Chemscore.ZeroCoef>
-5.4800

> <Gold.Chemscore.Hbond>
2.0834

> <Gold.Chemscore.Metal>
0.0000

> <Gold.Chemscore.Lipo>
69.7537

> <Gold.Chemscore.Internal_Hbond>
0.0000

> <Gold.Chemscore.DEClash>
0.0208

> <Gold.Chemscore.DEInternal>
0.7700

> <Gold.Chemscore.Rot>
1.3006

> <Gold.Chemscore.Internal.Correction>
   9.000000E+99

> <Gold.Chemscore.Hbonds>
donor molecule, donor type, donor heavy atom, donor atom, acceptor molecule, acceptor atom, score
      L1  H     6    17       P1  8028  0.93
      L1  H    10    23       P1  7957  0.76
      P1  H  7989  7998       L1    10  0.15

> <Gold.Chemscore.Hbond.Weighted>
-6.9586

> <Gold.Chemscore.Metal.Weighted>
-0.0000

> <Gold.Chemscore.Lipo.Weighted>
-8.1612

> <Gold.Chemscore.Internal_Hbond.Weighted>
0.0000

> <Gold.Chemscore.DEClash.Weighted>
0.0208

> <Gold.Chemscore.DEInternal.Weighted>
0.7700

> <Gold.Chemscore.Rot.Weighted>
3.3296

> <Gold.Chemscore.Internal.Correction.Weighted>
   9.000000E+99

> <Gold.Protein.RotatedTorsions>
[ 6907 6896 6895 6894 ] final -123.50 input  -60.11 | X-H torsion
[ 7974 7965 7964 7962 ] final -126.42 input  175.53 | X-H torsion
[ 8008 7997 7996 7995 ] final   60.96 input   59.86 | X-H torsion
[ 10167 10162 10161 10158 ] final   24.88 input  -65.29 | X-H torsion
[ 10718 10713 10712 10709 ] final   29.42 input   66.30 | X-H torsion
[ 10763 10752 10751 10750 ] final -164.97 input  -60.55 | X-H torsion
[ 11005 11000 10999 10996 ] final  -78.53 input  -57.11 | X-H torsion

> <Gold.Protein.ActiveResidues>
 VAL166  LYS551  ARG553  GLY616  TRP617  ASP618  TYR619  PRO620  LYS621  CYS622 
 ASP623  PHE694  ASN695  SER759  ASP760  ASP761  ALA762  ILE779  LEU786  VAL792 
 PHE793  MET794  SER795  GLU796  ALA797  LYS798  CYS799  TRP800  GLU811  SER814 

> <Gold.Protein.RotatedAtoms>
  150.8677  133.7551  159.2971 H   0  0  0  0  0  0  0  0  0  0  0  0  # atno 6907 bound_to 6896
  151.5173  135.1065  159.9879 H   0  0  0  0  0  0  0  0  0  0  0  0  # atno 6908 bound_to 6896
  152.4672  133.7905  159.6955 H   0  0  0  0  0  0  0  0  0  0  0  0  # atno 6909 bound_to 6896
  144.9874  140.7699  143.4575 H   0  0  0  0  0  0  0  0  0  0  0  0  # atno 7974 bound_to 7965
  155.5908  140.3493  155.4566 H   0  0  0  0  0  0  0  0  0  0  0  0  # atno 8008 bound_to 7997
  156.0303  140.1273  157.0290 H   0  0  0  0  0  0  0  0  0  0  0  0  # atno 8009 bound_to 7997
  154.4349  140.1044  156.6076 H   0  0  0  0  0  0  0  0  0  0  0  0  # atno 8010 bound_to 7997
  140.5152  144.0094  150.6391 H   0  0  0  0  0  0  0  0  0  0  0  0  # atno 10167 bound_to 10162
  157.2463  130.7093  149.6383 H   0  0  0  0  0  0  0  0  0  0  0  0  # atno 10718 bound_to 10713
  154.6978  135.2982  154.9386 H   0  0  0  0  0  0  0  0  0  0  0  0  # atno 10763 bound_to 10752
  154.0328  135.6668  153.4786 H   0  0  0  0  0  0  0  0  0  0  0  0  # atno 10764 bound_to 10752
  153.0658  135.5089  154.8105 H   0  0  0  0  0  0  0  0  0  0  0  0  # atno 10765 bound_to 10752
  141.1665  133.7067  156.7985 H   0  0  0  0  0  0  0  0  0  0  0  0  # atno 11005 bound_to 11000
  145.2334  139.2105  143.5031 LP  0  0  0  0  0  0  0  0  0  0  0  0  # atno 17320 bound_to 7965
  146.3423  140.2215  142.8591 LP  0  0  0  0  0  0  0  0  0  0  0  0  # atno 17321 bound_to 7965
  140.3428  143.3009  152.0570 LP  0  0  0  0  0  0  0  0  0  0  0  0  # atno 17342 bound_to 10162
  139.4907  144.6430  151.6837 LP  0  0  0  0  0  0  0  0  0  0  0  0  # atno 17343 bound_to 10162
  155.9668  130.4442  150.5451 LP  0  0  0  0  0  0  0  0  0  0  0  0  # atno 17370 bound_to 10713
  157.3325  131.0702  151.1850 LP  0  0  0  0  0  0  0  0  0  0  0  0  # atno 17371 bound_to 10713
  140.2273  134.8712  157.3440 LP  0  0  0  0  0  0  0  0  0  0  0  0  # atno 17394 bound_to 11000
  140.1926  134.4352  155.7707 LP  0  0  0  0  0  0  0  0  0  0  0  0  # atno 17395 bound_to 11000

$$$$
