AV-unprocessed.smi:3032|AV-procd|sdf|11558|dock8
  -GOLD-   2272016523D 1   1.00000     0.00000
 Structure written by MMmdl.
 37 38  0  0  0  0  0  0  0  0  1 V2000
  153.3642  141.8556  160.5265 C   0  0  0  0  0  0  0  0  0  0  0  0
  152.3241  142.5856  159.6649 C   0  0  1  0  0  0  0  0  0  0  0  0
  152.8048  143.9965  159.2743 C   0  0  0  0  0  0  0  0  0  0  0  0
  151.7702  144.7246  158.4012 C   0  0  0  0  0  0  0  0  0  0  0  0
  151.4172  143.9022  157.1519 C   0  0  0  0  0  0  0  0  0  0  0  0
  150.9166  142.4947  157.5366 C   0  0  1  0  0  0  0  0  0  0  0  0
  150.5851  141.6618  156.2921 C   0  0  0  0  0  0  0  0  0  0  0  0
  151.2092  140.6272  156.0550 O   0  0  0  0  0  0  0  0  0  0  0  0
  149.5803  142.1104  155.5221 N   0  0  0  0  0  0  0  0  0  0  0  0
  149.0290  141.4164  154.3602 C   0  0  0  0  0  0  0  0  0  0  0  0
  147.6472  140.7992  154.6530 C   0  0  0  0  0  0  0  0  0  0  0  0
  147.1291  139.9190  153.5587 C   0  0  0  0  0  0  0  0  0  0  0  0
  146.9034  138.6157  153.7382 N   0  0  0  0  0  0  0  0  0  0  0  0
  146.4844  138.0713  152.5770 N   0  0  0  0  0  0  0  0  0  0  0  0
  146.4855  139.1233  151.7604 C   0  0  0  0  0  0  0  0  0  0  0  0
  146.8758  140.3104  152.3146 N   0  0  0  0  0  0  0  0  0  0  0  0
  151.9671  141.7715  158.4063 C   0  0  0  0  0  0  0  0  0  0  0  0
  147.0264  138.0806  154.5860 H   0  0  0  0  0  0  0  0  0  0  0  0
  154.3017  141.7204  159.9862 H   0  0  0  0  0  0  0  0  0  0  0  0
  153.0060  140.8694  160.8232 H   0  0  0  0  0  0  0  0  0  0  0  0
  153.5818  142.4145  161.4368 H   0  0  0  0  0  0  0  0  0  0  0  0
  151.4188  142.6925  160.2640 H   0  0  0  0  0  0  0  0  0  0  0  0
  153.0038  144.5850  160.1707 H   0  0  0  0  0  0  0  0  0  0  0  0
  153.7501  143.9278  158.7346 H   0  0  0  0  0  0  0  0  0  0  0  0
  150.8669  144.9111  158.9830 H   0  0  0  0  0  0  0  0  0  0  0  0
  152.1555  145.7011  158.1063 H   0  0  0  0  0  0  0  0  0  0  0  0
  150.6561  144.4274  156.5732 H   0  0  0  0  0  0  0  0  0  0  0  0
  152.2972  143.8288  156.5106 H   0  0  0  0  0  0  0  0  0  0  0  0
  150.0053  142.6087  158.1268 H   0  0  0  0  0  0  0  0  0  0  0  0
  149.1333  142.9756  155.7888 H   0  0  0  0  0  0  0  0  0  0  0  0
  148.9432  142.1332  153.5433 H   0  0  0  0  0  0  0  0  0  0  0  0
  149.7147  140.6421  154.0120 H   0  0  0  0  0  0  0  0  0  0  0  0
  147.6935  140.2190  155.5757 H   0  0  0  0  0  0  0  0  0  0  0  0
  146.9218  141.5938  154.8299 H   0  0  0  0  0  0  0  0  0  0  0  0
  146.1936  139.0332  150.7245 H   0  0  0  0  0  0  0  0  0  0  0  0
  152.8725  141.5883  157.8247 H   0  0  0  0  0  0  0  0  0  0  0  0
  151.5898  140.7910  158.7008 H   0  0  0  0  0  0  0  0  0  0  0  0
  1  2  1  0  0  0  0
  1 19  1  0  0  0  0
  1 20  1  0  0  0  0
  1 21  1  0  0  0  0
  2 17  1  0  0  0  0
  2  3  1  0  0  0  0
  2 22  1  0  0  0  0
  3  4  1  0  0  0  0
  3 23  1  0  0  0  0
  3 24  1  0  0  0  0
  4  5  1  0  0  0  0
  4 25  1  0  0  0  0
  4 26  1  0  0  0  0
  5  6  1  0  0  0  0
  5 27  1  0  0  0  0
  5 28  1  0  0  0  0
  6  7  1  0  0  0  0
  6 17  1  0  0  0  0
  6 29  1  0  0  0  0
  7  8  2  0  0  0  0
  7  9  1  0  0  0  0
  9 10  1  0  0  0  0
  9 30  1  0  0  0  0
 10 11  1  0  0  0  0
 10 31  1  0  0  0  0
 10 32  1  0  0  0  0
 11 33  1  0  0  0  0
 11 34  1  0  0  0  0
 11 12  1  0  0  0  0
 12 16  2  0  0  0  0
 12 13  1  0  0  0  0
 13 18  1  0  0  0  0
 13 14  1  0  0  0  0
 14 15  2  0  0  0  0
 15 16  1  0  0  0  0
 15 35  1  0  0  0  0
 17 36  1  0  0  0  0
 17 37  1  0  0  0  0
M  END
> <s_m_source_file>
AV-unprocessed.smi

> <i_m_source_file_index>
3032

> <i_lp_mmshare_version>
43012

> <i_f3d_flags>
0

> <s_epik_input>
W0NIM11bQ0BASF0xW0NIMl1bQ0gyXVtDSDJdW0NASF0oW0NIMl0xKUMoPU8pW05IXVtDSDJdW0NIMl1jMm5uW2NIXVtuSF0y

> <s_epik_cmdline>
J2VwaWtfcHl0aG9uJywgJy1waCcsICc3LjAnLCAnLXRuJywgJzgnLCAnLW1hJywgJzIwMCcsICctbWV0YWxfYmluZGluZycsICctaW1hZScsICc8aW5maWxlLm1hZT4nLCAnLW9tYWUnLCAnPG91dGZpbGUubWFlPic=

> <r_lp_tautomer_probability>
0.948284

> <r_epik_Ionization_Penalty>
0.000474052

> <r_epik_Ionization_Penalty_Charging>
0

> <r_epik_Ionization_Penalty_Neutral>
0.000474052

> <r_epik_State_Penalty>
0.271807

> <r_epik_Charging_Adjusted_Penalty>
0.271807

> <i_epik_Tot_Q>
0

> <i_epik_Tot_abs_Q>
0

> <r_epik_Metal_State_Penalty>
0.397201

> <b_epik_Metal_Only>
0

> <s_lp_Force_Field>
OPLS_2005

> <r_lp_Energy>
10.7407

> <b_lp_Chiralities_Consistent>
1

> <s_lp_Variant>
AV-unprocessed.smi:3032-2

> <Gold.Version>
5.8.1

> <Gold.Id.Protein>
6NUR|6NUR_protein|mol2

> <Gold.PLP.Fitness>
42.4430

> <Gold.PLP.PLP>
-36.7981

> <Gold.PLP.part.hbond>
-1.0000

> <Gold.PLP.part.metal>
0.0000

> <Gold.PLP.part.buried>
-2.9958

> <Gold.PLP.part.nonpolar>
-36.0350

> <Gold.PLP.part.repulsive>
2.0274

> <Gold.PLP.ligand.clash>
0.0000

> <Gold.PLP.ligand.torsion>
0.1531

> <Gold.PLP.Chemscore.Hbond>
1.0000

> <Gold.PLP.Chemscore.CHOScore>
0.9779

> <Gold.PLP.Chemscore.Metal>
0.0000

> <Gold.Chemscore.Hbonds>
donor molecule, donor type, donor heavy atom, donor atom, acceptor molecule, acceptor atom, score
      L1  H     9    30       P1  8028  1.00
      L1  C    15    35       P1 10171  0.96

> <Gold.PLP.Chemscore.Internal.Correction>
0.0172

> <Gold.Rescore>
     Score         DG    S(hbond)    S(metal)    S(lipo)     H(rot)  DE(clash)    DE(int)     intcor
     13.35     -13.95       0.96        0.00      94.16       2.25       0.41       0.19       ----

> <Gold.Chemscore.Fitness>
13.3487

> <Gold.Chemscore.DG>
-13.9498

> <Gold.Chemscore.ZeroCoef>
-5.4800

> <Gold.Chemscore.Hbond>
0.9620

> <Gold.Chemscore.Metal>
0.0000

> <Gold.Chemscore.Lipo>
94.1617

> <Gold.Chemscore.Internal_Hbond>
0.0000

> <Gold.Chemscore.DEClash>
0.4081

> <Gold.Chemscore.DEInternal>
0.1930

> <Gold.Chemscore.Rot>
2.2501

> <Gold.Chemscore.Internal.Correction>
   9.000000E+99

> <Gold.Chemscore.Hbonds>
donor molecule, donor type, donor heavy atom, donor atom, acceptor molecule, acceptor atom, score
      L1  H     9    30       P1  8028  0.97

> <Gold.Chemscore.Hbond.Weighted>
-3.2132

> <Gold.Chemscore.Metal.Weighted>
-0.0000

> <Gold.Chemscore.Lipo.Weighted>
-11.0169

> <Gold.Chemscore.Internal_Hbond.Weighted>
0.0000

> <Gold.Chemscore.DEClash.Weighted>
0.4081

> <Gold.Chemscore.DEInternal.Weighted>
0.1930

> <Gold.Chemscore.Rot.Weighted>
5.7603

> <Gold.Chemscore.Internal.Correction.Weighted>
   9.000000E+99

> <Gold.Protein.RotatedTorsions>
[ 6907 6896 6895 6894 ] final   68.66 input  -60.11 | X-H torsion
[ 7974 7965 7964 7962 ] final  -77.63 input  175.53 | X-H torsion
[ 8008 7997 7996 7995 ] final -179.70 input   59.86 | X-H torsion
[ 10167 10162 10161 10158 ] final  148.44 input  -65.29 | X-H torsion
[ 10718 10713 10712 10709 ] final  -35.49 input   66.30 | X-H torsion
[ 10763 10752 10751 10750 ] final -100.06 input  -60.55 | X-H torsion
[ 11005 11000 10999 10996 ] final -103.04 input  -57.11 | X-H torsion

> <Gold.Protein.ActiveResidues>
 VAL166  LYS551  ARG553  GLY616  TRP617  ASP618  TYR619  PRO620  LYS621  CYS622 
 ASP623  PHE694  ASN695  SER759  ASP760  ASP761  ALA762  ILE779  LEU786  VAL792 
 PHE793  MET794  SER795  GLU796  ALA797  LYS798  CYS799  TRP800  GLU811  SER814 

> <Gold.Protein.RotatedAtoms>
  152.4635  134.5129  159.9759 H   0  0  0  0  0  0  0  0  0  0  0  0  # atno 6907 bound_to 6896
  151.5172  133.3467  159.2903 H   0  0  0  0  0  0  0  0  0  0  0  0  # atno 6908 bound_to 6896
  150.8609  134.7989  159.7144 H   0  0  0  0  0  0  0  0  0  0  0  0  # atno 6909 bound_to 6896
  145.5972  140.9417  143.1260 H   0  0  0  0  0  0  0  0  0  0  0  0  # atno 7974 bound_to 7965
  156.0335  140.1287  157.0233 H   0  0  0  0  0  0  0  0  0  0  0  0  # atno 8008 bound_to 7997
  154.4360  140.1044  156.6204 H   0  0  0  0  0  0  0  0  0  0  0  0  # atno 8009 bound_to 7997
  155.5772  140.3467  155.4533 H   0  0  0  0  0  0  0  0  0  0  0  0  # atno 8010 bound_to 7997
  139.4875  144.5679  151.7110 H   0  0  0  0  0  0  0  0  0  0  0  0  # atno 10167 bound_to 10162
  156.3380  130.4289  149.7813 H   0  0  0  0  0  0  0  0  0  0  0  0  # atno 10718 bound_to 10713
  154.7549  135.4949  153.9356 H   0  0  0  0  0  0  0  0  0  0  0  0  # atno 10763 bound_to 10752
  153.1184  135.6726  153.9385 H   0  0  0  0  0  0  0  0  0  0  0  0  # atno 10764 bound_to 10752
  153.9124  135.3097  155.3427 H   0  0  0  0  0  0  0  0  0  0  0  0  # atno 10765 bound_to 10752
  141.1163  133.8608  157.1436 H   0  0  0  0  0  0  0  0  0  0  0  0  # atno 11005 bound_to 11000
  144.7325  139.7681  143.7341 LP  0  0  0  0  0  0  0  0  0  0  0  0  # atno 17320 bound_to 7965
  146.1603  139.4715  142.9992 LP  0  0  0  0  0  0  0  0  0  0  0  0  # atno 17321 bound_to 7965
  140.5261  144.0804  150.6038 LP  0  0  0  0  0  0  0  0  0  0  0  0  # atno 17342 bound_to 10162
  140.3778  143.2819  152.0205 LP  0  0  0  0  0  0  0  0  0  0  0  0  # atno 17343 bound_to 10162
  156.5060  130.8150  151.3151 LP  0  0  0  0  0  0  0  0  0  0  0  0  # atno 17370 bound_to 10713
  157.7442  130.9929  150.2654 LP  0  0  0  0  0  0  0  0  0  0  0  0  # atno 17371 bound_to 10713
  140.0087  134.9997  157.0349 LP  0  0  0  0  0  0  0  0  0  0  0  0  # atno 17394 bound_to 11000
  140.4636  134.1458  155.7194 LP  0  0  0  0  0  0  0  0  0  0  0  0  # atno 17395 bound_to 11000

$$$$
