AV-unprocessed.smi:2427|AV-procd|sdf|9579|dock7
  -GOLD-   2272013213D 1   1.00000     0.00000
 Structure written by MMmdl.
 35 36  0  0  0  0  0  0  0  0  3 V2000
  150.6517  141.2532  158.0543 O   0  0  0  0  0  0  0  0  0  0  0  0
  150.8869  142.2536  157.3747 C   0  0  0  0  0  0  0  0  0  0  0  0
  151.6761  143.4377  157.9523 C   0  0  0  0  0  0  0  0  0  0  0  0
  152.1692  143.2048  159.3203 N   0  0  0  0  0  0  0  0  0  0  0  0
  153.0528  142.1229  159.5042 C   0  0  0  0  0  0  0  0  0  0  0  0
  153.5622  141.8117  160.7121 C   0  0  0  0  0  0  0  0  0  0  0  0
  154.4640  140.6939  160.8831 N   0  3  0  0  0  0  0  0  0  0  0  0
  154.7450  140.0092  159.9046 O   0  0  0  0  0  0  0  0  0  0  0  0
  154.9207  140.4623  161.9988 O   0  5  0  0  0  0  0  0  0  0  0  0
  153.1715  142.6344  161.8405 C   0  0  0  0  0  0  0  0  0  0  0  0
  152.3228  143.6676  161.6721 C   0  0  0  0  0  0  0  0  0  0  0  0
  151.7672  144.0022  160.3569 C   0  0  0  0  0  0  0  0  0  0  0  0
  150.9879  144.9420  160.1974 O   0  0  0  0  0  0  0  0  0  0  0  0
  150.4926  142.3822  156.0991 N   0  0  0  0  0  0  0  0  0  0  0  0
  149.7428  141.3834  155.3463 C   0  0  0  0  0  0  0  0  0  0  0  0
  150.2788  139.9630  155.5929 C   0  0  1  0  0  0  0  0  0  0  0  0
  149.6881  138.9081  154.6583 C   0  0  0  0  0  0  0  0  0  0  0  0
  150.7746  137.8450  154.5775 C   0  0  0  0  0  0  0  0  0  0  0  0
  151.9965  138.5068  155.2203 C   0  0  0  0  0  0  0  0  0  0  0  0
  151.6650  139.8852  155.3005 O   0  0  0  0  0  0  0  0  0  0  0  0
  152.5092  143.6528  157.2815 H   0  0  0  0  0  0  0  0  0  0  0  0
  151.0496  144.3311  157.9211 H   0  0  0  0  0  0  0  0  0  0  0  0
  153.2755  141.5686  158.6036 H   0  0  0  0  0  0  0  0  0  0  0  0
  153.5550  142.4270  162.8287 H   0  0  0  0  0  0  0  0  0  0  0  0
  152.0435  144.2658  162.5271 H   0  0  0  0  0  0  0  0  0  0  0  0
  150.7343  143.2322  155.6104 H   0  0  0  0  0  0  0  0  0  0  0  0
  148.6859  141.4395  155.6123 H   0  0  0  0  0  0  0  0  0  0  0  0
  149.8090  141.6317  154.2866 H   0  0  0  0  0  0  0  0  0  0  0  0
  150.1171  139.6622  156.6299 H   0  0  0  0  0  0  0  0  0  0  0  0
  148.7373  138.5164  155.0209 H   0  0  0  0  0  0  0  0  0  0  0  0
  149.5197  139.3306  153.6667 H   0  0  0  0  0  0  0  0  0  0  0  0
  150.4960  136.9380  155.1151 H   0  0  0  0  0  0  0  0  0  0  0  0
  150.9686  137.5735  153.5393 H   0  0  0  0  0  0  0  0  0  0  0  0
  152.1576  138.1184  156.2272 H   0  0  0  0  0  0  0  0  0  0  0  0
  152.9100  138.3518  154.6457 H   0  0  0  0  0  0  0  0  0  0  0  0
  1  2  2  0  0  0  0
  2  3  1  0  0  0  0
  2 14  1  0  0  0  0
  3  4  1  0  0  0  0
  3 21  1  0  0  0  0
  3 22  1  0  0  0  0
  4 12  1  0  0  0  0
  4  5  1  0  0  0  0
  5  6  2  0  0  0  0
  5 23  1  0  0  0  0
  6  7  1  0  0  0  0
  6 10  1  0  0  0  0
  7  8  2  0  0  0  0
  7  9  1  0  0  0  0
 10 11  2  0  0  0  0
 10 24  1  0  0  0  0
 11 12  1  0  0  0  0
 11 25  1  0  0  0  0
 12 13  2  0  0  0  0
 14 15  1  0  0  0  0
 14 26  1  0  0  0  0
 15 16  1  0  0  0  0
 15 27  1  0  0  0  0
 15 28  1  0  0  0  0
 16 20  1  0  0  0  0
 16 17  1  0  0  0  0
 16 29  1  0  0  0  0
 17 18  1  0  0  0  0
 17 30  1  0  0  0  0
 17 31  1  0  0  0  0
 18 19  1  0  0  0  0
 18 32  1  0  0  0  0
 18 33  1  0  0  0  0
 19 20  1  0  0  0  0
 19 34  1  0  0  0  0
 19 35  1  0  0  0  0
M  CHG  1   7   1
M  CHG  1   9  -1
M  END
> <s_m_source_file>
AV-unprocessed.smi

> <i_m_source_file_index>
2427

> <i_lp_mmshare_version>
43012

> <i_f3d_flags>
0

> <s_epik_input>
TzFbQ0gyXVtDSDJdW0NIMl1bQ0BIXTFbQ0gyXVtOSF1DKD1PKVtDSDJdbjJbY0hdYyhbTitdKD1PKVtPLV0pW2NIXVtjSF1jMj1P

> <s_epik_cmdline>
J2VwaWtfcHl0aG9uJywgJy1waCcsICc3LjAnLCAnLXRuJywgJzgnLCAnLW1hJywgJzIwMCcsICctbWV0YWxfYmluZGluZycsICctaW1hZScsICc8aW5maWxlLm1hZT4nLCAnLW9tYWUnLCAnPG91dGZpbGUubWFlPic=

> <r_lp_tautomer_probability>
1

> <r_epik_Ionization_Penalty>
2.69366e-08

> <r_epik_Ionization_Penalty_Charging>
7.76344e-11

> <r_epik_Ionization_Penalty_Neutral>
2.6859e-08

> <r_epik_State_Penalty>
-0

> <r_epik_Charging_Adjusted_Penalty>
7.76344e-11

> <i_epik_Tot_Q>
0

> <i_epik_Tot_abs_Q>
2

> <r_epik_Metal_State_Penalty>
-0

> <b_epik_Metal_Only>
0

> <s_lp_Force_Field>
OPLS_2005

> <r_lp_Energy>
28.9532

> <b_lp_Chiralities_Consistent>
1

> <s_lp_Variant>
AV-unprocessed.smi:2427-2

> <Gold.Version>
5.8.1

> <Gold.Id.Protein>
6NUR|6NUR_protein|mol2

> <Gold.PLP.Fitness>
56.5251

> <Gold.PLP.PLP>
-50.2157

> <Gold.PLP.part.hbond>
-4.0000

> <Gold.PLP.part.metal>
0.0000

> <Gold.PLP.part.buried>
-6.5739

> <Gold.PLP.part.nonpolar>
-40.5546

> <Gold.PLP.part.repulsive>
0.3522

> <Gold.PLP.ligand.clash>
0.0000

> <Gold.PLP.ligand.torsion>
0.1611

> <Gold.PLP.Chemscore.Hbond>
2.1976

> <Gold.PLP.Chemscore.CHOScore>
0.0000

> <Gold.PLP.Chemscore.Metal>
0.0000

> <Gold.Chemscore.Hbonds>
donor molecule, donor type, donor heavy atom, donor atom, acceptor molecule, acceptor atom, score
      L1  H    14    26       P1  8028  0.04
      P1  H  7989  7998       L1    20  0.91

> <Gold.PLP.Chemscore.Internal.Correction>
0.0388

> <Gold.Rescore>
     Score         DG    S(hbond)    S(metal)    S(lipo)     H(rot)  DE(clash)    DE(int)     intcor
     11.57     -17.14       1.86        0.00      88.17       1.90       0.03       5.54       ----

> <Gold.Chemscore.Fitness>
11.5720

> <Gold.Chemscore.DG>
-17.1371

> <Gold.Chemscore.ZeroCoef>
-5.4800

> <Gold.Chemscore.Hbond>
1.8611

> <Gold.Chemscore.Metal>
0.0000

> <Gold.Chemscore.Lipo>
88.1738

> <Gold.Chemscore.Internal_Hbond>
0.0000

> <Gold.Chemscore.DEClash>
0.0275

> <Gold.Chemscore.DEInternal>
5.5376

> <Gold.Chemscore.Rot>
1.9044

> <Gold.Chemscore.Internal.Correction>
   9.000000E+99

> <Gold.Chemscore.Hbonds>
donor molecule, donor type, donor heavy atom, donor atom, acceptor molecule, acceptor atom, score
      L1  H    14    26       P1  8028  0.04
      P1  H  7989  7998       L1    20  0.17

> <Gold.Chemscore.Hbond.Weighted>
-6.2161

> <Gold.Chemscore.Metal.Weighted>
-0.0000

> <Gold.Chemscore.Lipo.Weighted>
-10.3163

> <Gold.Chemscore.Internal_Hbond.Weighted>
0.0000

> <Gold.Chemscore.DEClash.Weighted>
0.0275

> <Gold.Chemscore.DEInternal.Weighted>
5.5376

> <Gold.Chemscore.Rot.Weighted>
4.8753

> <Gold.Chemscore.Internal.Correction.Weighted>
   9.000000E+99

> <Gold.Protein.RotatedTorsions>
[ 6907 6896 6895 6894 ] final -165.23 input  -60.11 | X-H torsion
[ 7974 7965 7964 7962 ] final   89.66 input  175.53 | X-H torsion
[ 8008 7997 7996 7995 ] final  108.20 input   59.86 | X-H torsion
[ 10167 10162 10161 10158 ] final  -37.44 input  -65.29 | X-H torsion
[ 10718 10713 10712 10709 ] final  -97.29 input   66.30 | X-H torsion
[ 10763 10752 10751 10750 ] final  -42.17 input  -60.55 | X-H torsion
[ 11005 11000 10999 10996 ] final  123.03 input  -57.11 | X-H torsion

> <Gold.Protein.ActiveResidues>
 VAL166  LYS551  ARG553  GLY616  TRP617  ASP618  TYR619  PRO620  LYS621  CYS622 
 ASP623  PHE694  ASN695  SER759  ASP760  ASP761  ALA762  ILE779  LEU786  VAL792 
 PHE793  MET794  SER795  GLU796  ALA797  LYS798  CYS799  TRP800  GLU811  SER814 

> <Gold.Protein.RotatedAtoms>
  151.4243  133.3689  159.2760 H   0  0  0  0  0  0  0  0  0  0  0  0  # atno 6907 bound_to 6896
  150.9270  134.8688  159.7537 H   0  0  0  0  0  0  0  0  0  0  0  0  # atno 6908 bound_to 6896
  152.5010  134.4185  159.9525 H   0  0  0  0  0  0  0  0  0  0  0  0  # atno 6909 bound_to 6896
  145.5294  139.2282  143.2627 H   0  0  0  0  0  0  0  0  0  0  0  0  # atno 7974 bound_to 7965
  156.1884  140.3081  155.9284 H   0  0  0  0  0  0  0  0  0  0  0  0  # atno 8008 bound_to 7997
  155.3229  140.0456  157.3057 H   0  0  0  0  0  0  0  0  0  0  0  0  # atno 8009 bound_to 7997
  154.5423  140.2265  155.8630 H   0  0  0  0  0  0  0  0  0  0  0  0  # atno 8010 bound_to 7997
  140.7118  143.3342  151.2501 H   0  0  0  0  0  0  0  0  0  0  0  0  # atno 10167 bound_to 10162
  156.0080  130.5188  150.6352 H   0  0  0  0  0  0  0  0  0  0  0  0  # atno 10718 bound_to 10713
  153.9747  135.6724  153.4748 H   0  0  0  0  0  0  0  0  0  0  0  0  # atno 10763 bound_to 10752
  153.0776  135.4940  154.8434 H   0  0  0  0  0  0  0  0  0  0  0  0  # atno 10764 bound_to 10752
  154.7199  135.3115  154.9025 H   0  0  0  0  0  0  0  0  0  0  0  0  # atno 10765 bound_to 10752
  139.9294  134.9641  156.8198 H   0  0  0  0  0  0  0  0  0  0  0  0  # atno 11005 bound_to 11000
  146.2054  140.6110  142.9083 LP  0  0  0  0  0  0  0  0  0  0  0  0  # atno 17320 bound_to 7965
  144.7634  140.5474  143.6720 LP  0  0  0  0  0  0  0  0  0  0  0  0  # atno 17321 bound_to 7965
  139.6832  143.9819  152.2820 LP  0  0  0  0  0  0  0  0  0  0  0  0  # atno 17342 bound_to 10162
  139.9455  144.6654  150.8223 LP  0  0  0  0  0  0  0  0  0  0  0  0  # atno 17343 bound_to 10162
  157.4143  131.0828  151.1191 LP  0  0  0  0  0  0  0  0  0  0  0  0  # atno 17370 bound_to 10713
  157.1813  130.6311  149.5673 LP  0  0  0  0  0  0  0  0  0  0  0  0  # atno 17371 bound_to 10713
  140.6244  133.9964  155.7633 LP  0  0  0  0  0  0  0  0  0  0  0  0  # atno 17394 bound_to 11000
  141.0873  133.9970  157.3292 LP  0  0  0  0  0  0  0  0  0  0  0  0  # atno 17395 bound_to 11000

$$$$
