#       Name:                AV-unprocessed.smi:129
#       Creating user name   scv26
#       Creation time:       Thu Mar 26 18:29:23 2020


#       File generated by GOLD software.
#

@<TRIPOS>MOLECULE
AV-unprocessed.smi:129
    70    73     1
SMALL
NO_CHARGES


@<TRIPOS>ATOM
      1 ****        -6.1422  -2.7678  -0.6892 C.3            1 S1                 0.0000
      2 ****        -5.8261  -1.4112  -0.4127 O.3            1 S1                 0.0000
      3 ****        -6.8644  -0.5135  -0.2604 C.ar           1 S1                 0.0000
      4 ****        -8.2319  -0.8751  -0.3692 C.ar           1 S1                 0.0000
      5 ****        -9.2437   0.0874  -0.1980 C.ar           1 S1                 0.0000
      6 ****        -8.9054   1.4200   0.0914 C.ar           1 S1                 0.0000
      7 ****        -7.5541   1.7929   0.2023 C.ar           1 S1                 0.0000
      8 ****        -6.5285   0.8349   0.0121 C.ar           1 S1                 0.0000
      9 ****        -5.1476   1.1578   0.1303 N.am           1 S1                 0.0000
     10 ****        -4.5345   2.3324  -0.1115 C.2            1 S1                 0.0000
     11 ****        -5.1086   3.3733  -0.4318 O.2            1 S1                 0.0000
     12 ****        -3.0448   2.3233   0.0868 C.ar           1 S1                 0.0000
     13 ****        -2.3874   3.4911   0.5314 C.ar           1 S1                 0.0000
     14 ****        -0.9890   3.5072   0.6918 C.ar           1 S1                 0.0000
     15 ****        -0.2216   2.3586   0.4123 C.ar           1 S1                 0.0000
     16 ****         1.1867   2.4658   0.5722 N.am           1 S1                 0.0000
     17 ****         2.0958   1.4895   0.7466 C.2            1 S1                 0.0000
     18 ****         1.8254   0.2916   0.8417 O.2            1 S1                 0.0000
     19 ****         3.5510   1.9735   0.8544 C.3            1 S1                 0.0000
     20 ****         4.5298   0.8795   1.0385 N.am           1 S1                 0.0000
     21 ****         4.8654   0.4817   2.3565 C.2            1 S1                 0.0000
     22 ****         4.3628   1.0320   3.3373 O.2            1 S1                 0.0000
     23 ****         5.8275  -0.6094   2.4589 C.2            1 S1                 0.0000
     24 ****         6.2170  -1.0410   3.6705 F              1 S1                 0.0000
     25 ****         6.3366  -1.1940   1.3550 C.2            1 S1                 0.0000
     26 ****         5.9844  -0.8090   0.0735 N.am           1 S1                 0.0000
     27 ****         6.5581  -1.4813  -1.1564 C.3            1 S1                 0.0000
     28 ****         5.4996  -2.3766  -1.8289 C.3            1 S1                 0.0000
     29 ****         6.2170  -3.7057  -1.9599 C.3            1 S1                 0.0000
     30 ****         7.1796  -3.6629  -0.7830 C.3            1 S1                 0.0000
     31 ****         7.6233  -2.3125  -0.7917 O.3            1 S1                 0.0000
     32 ****         5.0696   0.2508  -0.1088 C.2            1 S1                 0.0000
     33 ****         4.7457   0.6119  -1.2425 O.2            1 S1                 0.0000
     34 ****        -0.8742   1.1925  -0.0546 C.ar           1 S1                 0.0000
     35 ****        -2.2737   1.1768  -0.2142 C.ar           1 S1                 0.0000
     36 ****        -5.2192  -3.3405  -0.7775 H              1 S1                 0.0000
     37 ****        -6.6829  -2.8673  -1.6312 H              1 S1                 0.0000
     38 ****        -6.7297  -3.2129   0.1149 H              1 S1                 0.0000
     39 ****        -8.5340  -1.8890  -0.5827 H              1 S1                 0.0000
     40 ****       -10.2816  -0.1995  -0.2816 H              1 S1                 0.0000
     41 ****        -9.6823   2.1565   0.2346 H              1 S1                 0.0000
     42 ****        -7.3275   2.8187   0.4487 H              1 S1                 0.0000
     43 ****        -4.5383   0.3766   0.3255 H              1 S1                 0.0000
     44 ****        -2.9517   4.3857   0.7528 H              1 S1                 0.0000
     45 ****        -0.5064   4.4118   1.0324 H              1 S1                 0.0000
     46 ****         1.5445   3.4092   0.6095 H              1 S1                 0.0000
     47 ****         3.7875   2.5582  -0.0361 H              1 S1                 0.0000
     48 ****         3.6149   2.6974   1.6683 H              1 S1                 0.0000
     49 ****         7.0466  -1.9932   1.5019 H              1 S1                 0.0000
     50 ****         6.9280  -0.6727  -1.7893 H              1 S1                 0.0000
     51 ****         4.6243  -2.4778  -1.1850 H              1 S1                 0.0000
     52 ****         5.1882  -1.9608  -2.7875 H              1 S1                 0.0000
     53 ****         5.5415  -4.5608  -1.9284 H              1 S1                 0.0000
     54 ****         6.7744  -3.7418  -2.8967 H              1 S1                 0.0000
     55 ****         6.6613  -3.8850   0.1507 H              1 S1                 0.0000
     56 ****         8.0107  -4.3600  -0.8903 H              1 S1                 0.0000
     57 ****        -0.3221   0.3035  -0.3171 H              1 S1                 0.0000
     58 ****        -2.7440   0.2770  -0.5840 H              1 S1                 0.0000
     59 ****        -5.2573  -1.0806  -1.1659 LP             1 S1                 0.0000
     60 ****        -5.2967  -1.3978   0.4355 LP             1 S1                 0.0000
     61 ****        -6.1037   3.3858  -0.5295 LP             1 S1                 0.0000
     62 ****        -4.5798   4.2064  -0.5944 LP             1 S1                 0.0000
     63 ****         0.8740  -0.0118   0.7900 LP             1 S1                 0.0000
     64 ****         2.5573  -0.3775   0.9705 LP             1 S1                 0.0000
     65 ****         3.7047   1.7743   3.2115 LP             1 S1                 0.0000
     66 ****         4.6129   0.7365   4.2592 LP             1 S1                 0.0000
     67 ****         7.9471  -2.0608   0.1203 LP             1 S1                 0.0000
     68 ****         8.3688  -2.2094  -1.4503 LP             1 S1                 0.0000
     69 ****         4.0923   1.3596  -1.3616 LP             1 S1                 0.0000
     70 ****         5.1364   0.1572  -2.0429 LP             1 S1                 0.0000
@<TRIPOS>BOND
    1    1    2 1     
    2    1   36 1     
    3    1   37 1     
    4    1   38 1     
    5    2    3 1     
    6    3    8 ar    
    7    3    4 ar    
    8    4    5 ar    
    9    4   39 1     
   10    5    6 ar    
   11    5   40 1     
   12    6    7 ar    
   13    6   41 1     
   14    7    8 ar    
   15    7   42 1     
   16    8    9 1     
   17    9   10 am    
   18    9   43 1     
   19   10   11 2     
   20   10   12 1     
   21   12   35 ar    
   22   12   13 ar    
   23   13   14 ar    
   24   13   44 1     
   25   14   15 ar    
   26   14   45 1     
   27   15   16 1     
   28   15   34 ar    
   29   16   17 am    
   30   16   46 1     
   31   17   18 2     
   32   17   19 1     
   33   19   20 1     
   34   19   47 1     
   35   19   48 1     
   36   20   32 am    
   37   20   21 am    
   38   21   22 2     
   39   21   23 1     
   40   23   24 1     
   41   23   25 2     
   42   25   26 1     
   43   25   49 1     
   44   26   27 1     
   45   26   32 am    
   46   27   31 1     
   47   27   28 1     
   48   27   50 1     
   49   28   29 1     
   50   28   51 1     
   51   28   52 1     
   52   29   30 1     
   53   29   53 1     
   54   29   54 1     
   55   30   31 1     
   56   30   55 1     
   57   30   56 1     
   58   32   33 2     
   59   34   35 ar    
   60   34   57 1     
   61   35   58 1     
   62    2   59 1     
   63    2   60 1     
   64   11   61 1     
   65   11   62 1     
   66   18   63 1     
   67   18   64 1     
   68   22   65 1     
   69   22   66 1     
   70   31   67 1     
   71   31   68 1     
   72   33   69 1     
   73   33   70 1     
@<TRIPOS>SUBSTRUCTURE
      1 S1             1
@<TRIPOS>SET
LONE_PAIRS      STATIC     ATOMS    <user>   **** ""
12 59 60 61 62 63 64 65 66 67 68 69 70
DONOR_HYDROGENS      STATIC     ATOMS    <user>   **** ""
2 43 46
ATOM$BLUE        STATIC     ATOMS    COLORGROUP SYSTEM
12 59 60 61 62 63 64 65 66 67 68 69 70
ATOM$RED        STATIC     ATOMS    COLORGROUP SYSTEM
2 43 46
