AV-unprocessed.smi:1631|AV-procd|sdf|6527|dock5
  -GOLD-   22720 7203D 1   1.00000     0.00000
 Structure written by MMmdl.
 38 39  0  0  0  0  0  0  0  0  1 V2000
  147.9255  132.8696  153.3131 C   0  0  0  0  0  0  0  0  0  0  0  0
  148.6721  133.6840  154.3348 C   0  0  0  0  0  0  0  0  0  0  0  0
  148.3367  134.9271  154.4425 N   0  0  0  0  0  0  0  0  0  0  0  0
  148.9458  135.7606  155.3602 N   0  0  0  0  0  0  0  0  0  0  0  0
  148.4015  137.1251  155.3904 C   0  0  0  0  0  0  0  0  0  0  0  0
  149.4745  138.2037  155.1013 C   0  0  1  0  0  0  0  0  0  0  0  0
  150.2677  137.7507  154.0238 O   0  0  0  0  0  0  0  0  0  0  0  0
  148.8809  139.5870  154.8204 C   0  0  0  0  0  0  0  0  0  0  0  0
  147.7717  139.6630  153.9461 C   0  0  0  0  0  0  0  0  0  0  0  0
  147.1537  140.8931  153.6635 C   0  0  0  0  0  0  0  0  0  0  0  0
  147.6448  142.0699  154.2503 C   0  0  0  0  0  0  0  0  0  0  0  0
  148.7565  142.0134  155.1095 C   0  0  0  0  0  0  0  0  0  0  0  0
  149.3924  140.7832  155.4024 C   0  0  0  0  0  0  0  0  0  0  0  0
  150.6133  140.7847  156.3237 C   0  0  0  0  0  0  0  0  0  0  0  0
  150.9248  142.0150  156.7330 F   0  0  0  0  0  0  0  0  0  0  0  0
  150.3768  140.0501  157.4088 F   0  0  0  0  0  0  0  0  0  0  0  0
  151.6741  140.2965  155.6802 F   0  0  0  0  0  0  0  0  0  0  0  0
  149.9604  135.3892  156.1914 C   0  0  0  0  0  0  0  0  0  0  0  0
  150.4913  136.1726  156.9802 O   0  0  0  0  0  0  0  0  0  0  0  0
  150.3366  133.9795  156.0643 C   0  0  0  0  0  0  0  0  0  0  0  0
  151.3820  133.5430  156.9325 C   0  0  0  0  0  0  0  0  0  0  0  0
  152.2219  133.2011  157.6522 N   0  0  0  0  0  0  0  0  0  0  0  0
  149.7272  133.1443  155.1860 C   0  0  0  0  0  0  0  0  0  0  0  0
  150.0773  131.6722  155.0189 C   0  0  0  0  0  0  0  0  0  0  0  0
  148.6142  132.4090  152.6046 H   0  0  0  0  0  0  0  0  0  0  0  0
  147.2245  133.4793  152.7408 H   0  0  0  0  0  0  0  0  0  0  0  0
  147.3535  132.0766  153.7952 H   0  0  0  0  0  0  0  0  0  0  0  0
  147.5823  137.2149  154.6743 H   0  0  0  0  0  0  0  0  0  0  0  0
  147.9405  137.3091  156.3626 H   0  0  0  0  0  0  0  0  0  0  0  0
  150.1398  138.2377  155.9595 H   0  0  0  0  0  0  0  0  0  0  0  0
  149.6941  137.4432  153.3384 H   0  0  0  0  0  0  0  0  0  0  0  0
  147.3802  138.7655  153.4903 H   0  0  0  0  0  0  0  0  0  0  0  0
  146.3035  140.9323  152.9984 H   0  0  0  0  0  0  0  0  0  0  0  0
  147.1735  143.0180  154.0370 H   0  0  0  0  0  0  0  0  0  0  0  0
  149.1164  142.9360  155.5389 H   0  0  0  0  0  0  0  0  0  0  0  0
  150.8145  131.3381  155.7483 H   0  0  0  0  0  0  0  0  0  0  0  0
  150.4888  131.4895  154.0259 H   0  0  0  0  0  0  0  0  0  0  0  0
  149.1920  131.0482  155.1445 H   0  0  0  0  0  0  0  0  0  0  0  0
  1  2  1  0  0  0  0
  1 25  1  0  0  0  0
  1 26  1  0  0  0  0
  1 27  1  0  0  0  0
  2 23  1  0  0  0  0
  2  3  2  0  0  0  0
  3  4  1  0  0  0  0
  4  5  1  0  0  0  0
  4 18  1  0  0  0  0
  5  6  1  0  0  0  0
  5 28  1  0  0  0  0
  5 29  1  0  0  0  0
  6  7  1  0  0  0  0
  6  8  1  0  0  0  0
  6 30  1  0  0  0  0
  7 31  1  0  0  0  0
  8 13  1  0  0  0  0
  8  9  2  0  0  0  0
  9 10  1  0  0  0  0
  9 32  1  0  0  0  0
 10 11  2  0  0  0  0
 10 33  1  0  0  0  0
 11 12  1  0  0  0  0
 11 34  1  0  0  0  0
 12 13  2  0  0  0  0
 12 35  1  0  0  0  0
 13 14  1  0  0  0  0
 14 15  1  0  0  0  0
 14 16  1  0  0  0  0
 14 17  1  0  0  0  0
 18 19  2  0  0  0  0
 18 20  1  0  0  0  0
 20 21  1  0  0  0  0
 20 23  2  0  0  0  0
 21 22  3  0  0  0  0
 23 24  1  0  0  0  0
 24 36  1  0  0  0  0
 24 37  1  0  0  0  0
 24 38  1  0  0  0  0
M  END
> <s_m_source_file>
AV-unprocessed.smi

> <i_m_source_file_index>
1631

> <i_lp_mmshare_version>
43012

> <i_f3d_flags>
0

> <s_epik_input>
TiNDYyhjMVtDSDNdKWMoPU8pbihuYzFbQ0gzXSlbQ0gyXVtDQEhdKFtPSF0pYzJbY0hdW2NIXVtjSF1bY0hdYzJDKEYpKEYpRg==

> <s_epik_cmdline>
J2VwaWtfcHl0aG9uJywgJy1waCcsICc3LjAnLCAnLXRuJywgJzgnLCAnLW1hJywgJzIwMCcsICctbWV0YWxfYmluZGluZycsICctaW1hZScsICc8aW5maWxlLm1hZT4nLCAnLW9tYWUnLCAnPG91dGZpbGUubWFlPic=

> <r_lp_tautomer_probability>
1

> <r_epik_Ionization_Penalty>
7.1854e-08

> <r_epik_Ionization_Penalty_Charging>
1.40848e-10

> <r_epik_Ionization_Penalty_Neutral>
7.17131e-08

> <r_epik_State_Penalty>
-0

> <r_epik_Charging_Adjusted_Penalty>
1.40848e-10

> <i_epik_Tot_Q>
0

> <i_epik_Tot_abs_Q>
0

> <r_epik_Metal_State_Penalty>
-0

> <b_epik_Metal_Only>
0

> <s_lp_Force_Field>
OPLS_2005

> <r_lp_Energy>
27.8833

> <b_lp_Chiralities_Consistent>
1

> <s_lp_Variant>
AV-unprocessed.smi:1631-2

> <Gold.Version>
5.8.1

> <Gold.Id.Protein>
6NUR|6NUR_protein|mol2

> <Gold.PLP.Fitness>
45.2017

> <Gold.PLP.PLP>
-40.3923

> <Gold.PLP.part.hbond>
-3.0000

> <Gold.PLP.part.metal>
0.0000

> <Gold.PLP.part.buried>
-1.5037

> <Gold.PLP.part.nonpolar>
-37.5684

> <Gold.PLP.part.repulsive>
2.2391

> <Gold.PLP.ligand.clash>
1.4872

> <Gold.PLP.ligand.torsion>
0.5185

> <Gold.PLP.Chemscore.Hbond>
1.9440

> <Gold.PLP.Chemscore.CHOScore>
0.0000

> <Gold.PLP.Chemscore.Metal>
0.0000

> <Gold.Chemscore.Hbonds>
donor molecule, donor type, donor heavy atom, donor atom, acceptor molecule, acceptor atom, score
      L1  H     7    31       P1  7948  1.00
      P1  H  6896  6909       L1    22  0.69

> <Gold.PLP.Chemscore.Internal.Correction>
1.5017

> <Gold.Rescore>
     Score         DG    S(hbond)    S(metal)    S(lipo)     H(rot)  DE(clash)    DE(int)     intcor
      8.85     -11.16       0.74        0.00      73.54       2.11       0.15       2.15       ----

> <Gold.Chemscore.Fitness>
8.8526

> <Gold.Chemscore.DG>
-11.1574

> <Gold.Chemscore.ZeroCoef>
-5.4800

> <Gold.Chemscore.Hbond>
0.7428

> <Gold.Chemscore.Metal>
0.0000

> <Gold.Chemscore.Lipo>
73.5399

> <Gold.Chemscore.Internal_Hbond>
0.0000

> <Gold.Chemscore.DEClash>
0.1510

> <Gold.Chemscore.DEInternal>
2.1538

> <Gold.Chemscore.Rot>
2.1124

> <Gold.Chemscore.Internal.Correction>
   9.000000E+99

> <Gold.Chemscore.Hbonds>
donor molecule, donor type, donor heavy atom, donor atom, acceptor molecule, acceptor atom, score
      L1  H     7    31       P1  7948  0.70
      P1  H  6896  6909       L1    22  0.51

> <Gold.Chemscore.Hbond.Weighted>
-2.4810

> <Gold.Chemscore.Metal.Weighted>
-0.0000

> <Gold.Chemscore.Lipo.Weighted>
-8.6042

> <Gold.Chemscore.Internal_Hbond.Weighted>
0.0000

> <Gold.Chemscore.DEClash.Weighted>
0.1510

> <Gold.Chemscore.DEInternal.Weighted>
2.1538

> <Gold.Chemscore.Rot.Weighted>
5.4078

> <Gold.Chemscore.Internal.Correction.Weighted>
   9.000000E+99

> <Gold.Protein.RotatedTorsions>
[ 6907 6896 6895 6894 ] final  -61.19 input  -60.11 | X-H torsion
[ 7974 7965 7964 7962 ] final  148.04 input  175.53 | X-H torsion
[ 8008 7997 7996 7995 ] final  177.99 input   59.86 | X-H torsion
[ 10167 10162 10161 10158 ] final  173.97 input  -65.29 | X-H torsion
[ 10718 10713 10712 10709 ] final  174.09 input   66.30 | X-H torsion
[ 10763 10752 10751 10750 ] final   54.13 input  -60.55 | X-H torsion
[ 11005 11000 10999 10996 ] final -109.33 input  -57.11 | X-H torsion

> <Gold.Protein.ActiveResidues>
 VAL166  LYS551  ARG553  GLY616  TRP617  ASP618  TYR619  PRO620  LYS621  CYS622 
 ASP623  PHE694  ASN695  SER759  ASP760  ASP761  ALA762  ILE779  LEU786  VAL792 
 PHE793  MET794  SER795  GLU796  ALA797  LYS798  CYS799  TRP800  GLU811  SER814 

> <Gold.Protein.RotatedAtoms>
  150.7802  134.6738  159.6405 H   0  0  0  0  0  0  0  0  0  0  0  0  # atno 6907 bound_to 6896
  152.3885  134.6476  160.0125 H   0  0  0  0  0  0  0  0  0  0  0  0  # atno 6908 bound_to 6896
  151.6784  133.3276  159.3250 H   0  0  0  0  0  0  0  0  0  0  0  0  # atno 6909 bound_to 6896
  144.8545  139.6104  143.5959 H   0  0  0  0  0  0  0  0  0  0  0  0  # atno 7974 bound_to 7965
  156.0596  140.1344  156.9957 H   0  0  0  0  0  0  0  0  0  0  0  0  # atno 8008 bound_to 7997
  154.4475  140.0994  156.6567 H   0  0  0  0  0  0  0  0  0  0  0  0  # atno 8009 bound_to 7997
  155.5399  140.3460  155.4446 H   0  0  0  0  0  0  0  0  0  0  0  0  # atno 8010 bound_to 7997
  139.5126  144.3200  152.0211 H   0  0  0  0  0  0  0  0  0  0  0  0  # atno 10167 bound_to 10162
  156.9547  131.0042  151.2941 H   0  0  0  0  0  0  0  0  0  0  0  0  # atno 10718 bound_to 10713
  152.9801  135.5755  154.4853 H   0  0  0  0  0  0  0  0  0  0  0  0  # atno 10763 bound_to 10752
  154.4396  135.2775  155.1859 H   0  0  0  0  0  0  0  0  0  0  0  0  # atno 10764 bound_to 10752
  154.3532  135.6204  153.5707 H   0  0  0  0  0  0  0  0  0  0  0  0  # atno 10765 bound_to 10752
  141.0853  133.9149  157.2198 H   0  0  0  0  0  0  0  0  0  0  0  0  # atno 11005 bound_to 11000
  146.2811  139.6881  142.9228 LP  0  0  0  0  0  0  0  0  0  0  0  0  # atno 17320 bound_to 7965
  145.4434  141.0424  143.2844 LP  0  0  0  0  0  0  0  0  0  0  0  0  # atno 17321 bound_to 7965
  140.2642  144.4034  150.6174 LP  0  0  0  0  0  0  0  0  0  0  0  0  # atno 17342 bound_to 10162
  140.6135  143.2171  151.6838 LP  0  0  0  0  0  0  0  0  0  0  0  0  # atno 17343 bound_to 10162
  157.5698  130.8303  149.8377 LP  0  0  0  0  0  0  0  0  0  0  0  0  # atno 17370 bound_to 10713
  156.0348  130.3754  150.1590 LP  0  0  0  0  0  0  0  0  0  0  0  0  # atno 17371 bound_to 10713
  139.9671  135.0139  156.9416 LP  0  0  0  0  0  0  0  0  0  0  0  0  # atno 17394 bound_to 11000
  140.5376  134.0752  155.7332 LP  0  0  0  0  0  0  0  0  0  0  0  0  # atno 17395 bound_to 11000

$$$$
