AV-unprocessed.smi:421|AV-procd|sdf|2534|dock3
  -GOLD-   2262022493D 1   1.00000     0.00000
 Structure written by MMmdl.
 43 45  0  0  0  0  0  0  0  0  1 V2000
  153.6418  141.0795  160.9477 C   0  0  0  0  0  0  0  0  0  0  0  0
  152.8914  141.6363  159.8289 N   0  0  0  0  0  0  0  0  0  0  0  0
  152.6691  141.0551  158.6268 C   0  0  0  0  0  0  0  0  0  0  0  0
  153.0679  139.9457  158.2727 O   0  0  0  0  0  0  0  0  0  0  0  0
  151.9353  141.9111  157.8760 N   0  0  0  0  0  0  0  0  0  0  0  0
  151.4698  141.6874  156.5079 C   0  0  0  0  0  0  0  0  0  0  0  0
  150.8927  140.2688  156.3245 C   0  0  2  0  0  0  0  0  0  0  0  0
  150.7537  140.0360  154.9368 O   0  0  0  0  0  0  0  0  0  0  0  0
  149.4960  140.1312  156.9532 C   0  0  0  0  0  0  0  0  0  0  0  0
  148.6688  141.1736  156.4637 O   0  0  0  0  0  0  0  0  0  0  0  0
  147.2847  140.9002  156.6121 C   0  0  0  0  0  0  0  0  0  0  0  0
  146.4312  141.7946  155.7324 C   0  0  0  0  0  0  0  0  0  0  0  0
  146.6938  141.8957  154.3493 C   0  0  0  0  0  0  0  0  0  0  0  0
  145.9090  142.7385  153.5383 C   0  0  0  0  0  0  0  0  0  0  0  0
  144.8633  143.4904  154.1078 C   0  0  0  0  0  0  0  0  0  0  0  0
  144.6050  143.4015  155.4893 C   0  0  0  0  0  0  0  0  0  0  0  0
  145.3889  142.5577  156.3005 C   0  0  0  0  0  0  0  0  0  0  0  0
  151.6906  143.0771  158.6166 C   0  0  0  0  0  0  0  0  0  0  0  0
  150.9963  144.2555  158.2905 C   0  0  0  0  0  0  0  0  0  0  0  0
  150.9347  145.2648  159.2800 C   0  0  0  0  0  0  0  0  0  0  0  0
  151.5536  145.0829  160.5442 C   0  0  0  0  0  0  0  0  0  0  0  0
  152.2485  143.8882  160.8455 C   0  0  0  0  0  0  0  0  0  0  0  0
  152.2931  142.9024  159.8448 C   0  0  0  0  0  0  0  0  0  0  0  0
  153.8750  140.0243  160.7991 H   0  0  0  0  0  0  0  0  0  0  0  0
  153.0679  141.1671  161.8705 H   0  0  0  0  0  0  0  0  0  0  0  0
  154.5800  141.6197  161.0763 H   0  0  0  0  0  0  0  0  0  0  0  0
  150.6955  142.4283  156.3025 H   0  0  0  0  0  0  0  0  0  0  0  0
  152.2621  141.8880  155.7855 H   0  0  0  0  0  0  0  0  0  0  0  0
  151.5623  139.5276  156.7632 H   0  0  0  0  0  0  0  0  0  0  0  0
  149.8558  139.7995  154.7615 H   0  0  0  0  0  0  0  0  0  0  0  0
  149.0493  139.1800  156.6600 H   0  0  0  0  0  0  0  0  0  0  0  0
  149.5484  140.1408  158.0437 H   0  0  0  0  0  0  0  0  0  0  0  0
  147.0901  139.8555  156.3642 H   0  0  0  0  0  0  0  0  0  0  0  0
  146.9826  141.0514  157.6495 H   0  0  0  0  0  0  0  0  0  0  0  0
  147.4979  141.3273  153.9047 H   0  0  0  0  0  0  0  0  0  0  0  0
  146.1110  142.8093  152.4798 H   0  0  0  0  0  0  0  0  0  0  0  0
  144.2625  144.1374  153.4857 H   0  0  0  0  0  0  0  0  0  0  0  0
  143.8066  143.9819  155.9276 H   0  0  0  0  0  0  0  0  0  0  0  0
  145.1861  142.4978  157.3598 H   0  0  0  0  0  0  0  0  0  0  0  0
  150.5289  144.3911  157.3263 H   0  0  0  0  0  0  0  0  0  0  0  0
  150.4101  146.1854  159.0703 H   0  0  0  0  0  0  0  0  0  0  0  0
  151.4944  145.8665  161.2854 H   0  0  0  0  0  0  0  0  0  0  0  0
  152.7236  143.7421  161.8044 H   0  0  0  0  0  0  0  0  0  0  0  0
  1  2  1  0  0  0  0
  1 24  1  0  0  0  0
  1 25  1  0  0  0  0
  1 26  1  0  0  0  0
  2 23  1  0  0  0  0
  2  3  1  0  0  0  0
  3  4  2  0  0  0  0
  3  5  1  0  0  0  0
  5  6  1  0  0  0  0
  5 18  1  0  0  0  0
  6  7  1  0  0  0  0
  6 27  1  0  0  0  0
  6 28  1  0  0  0  0
  7  8  1  0  0  0  0
  7  9  1  0  0  0  0
  7 29  1  0  0  0  0
  8 30  1  0  0  0  0
  9 10  1  0  0  0  0
  9 31  1  0  0  0  0
  9 32  1  0  0  0  0
 10 11  1  0  0  0  0
 11 12  1  0  0  0  0
 11 33  1  0  0  0  0
 11 34  1  0  0  0  0
 12 17  1  0  0  0  0
 12 13  2  0  0  0  0
 13 14  1  0  0  0  0
 13 35  1  0  0  0  0
 14 15  2  0  0  0  0
 14 36  1  0  0  0  0
 15 16  1  0  0  0  0
 15 37  1  0  0  0  0
 16 17  2  0  0  0  0
 16 38  1  0  0  0  0
 17 39  1  0  0  0  0
 18 23  2  0  0  0  0
 18 19  1  0  0  0  0
 19 20  2  0  0  0  0
 19 40  1  0  0  0  0
 20 21  1  0  0  0  0
 20 41  1  0  0  0  0
 21 22  2  0  0  0  0
 21 42  1  0  0  0  0
 22 23  1  0  0  0  0
 22 43  1  0  0  0  0
M  END
> <s_m_source_file>
AV-unprocessed.smi

> <i_m_source_file_index>
421

> <i_lp_mmshare_version>
43012

> <i_f3d_flags>
0

> <s_epik_input>
W2NIXTFbY0hdW2NIXVtjSF1jKGMxMiluKFtDSDNdKWMoPU8pbjJbQ0gyXVtDQEhdKFtPSF0pW0NIMl1PW0NIMl1jM1tjSF1bY0hdW2NIXVtjSF1bY0hdMw==

> <s_epik_cmdline>
J2VwaWtfcHl0aG9uJywgJy1waCcsICc3LjAnLCAnLXRuJywgJzgnLCAnLW1hJywgJzIwMCcsICctbWV0YWxfYmluZGluZycsICctaW1hZScsICc8aW5maWxlLm1hZT4nLCAnLW9tYWUnLCAnPG91dGZpbGUubWFlPic=

> <r_lp_tautomer_probability>
1

> <r_epik_Ionization_Penalty>
1.0795e-06

> <r_epik_Ionization_Penalty_Charging>
2.82452e-09

> <r_epik_Ionization_Penalty_Neutral>
1.07667e-06

> <r_epik_State_Penalty>
-0

> <r_epik_Charging_Adjusted_Penalty>
2.82452e-09

> <i_epik_Tot_Q>
0

> <i_epik_Tot_abs_Q>
0

> <r_epik_Metal_State_Penalty>
-0

> <b_epik_Metal_Only>
0

> <s_lp_Force_Field>
OPLS_2005

> <r_lp_Energy>
47.1421

> <b_lp_Chiralities_Consistent>
1

> <s_lp_Variant>
AV-unprocessed.smi:421-1

> <Gold.Version>
5.8.1

> <Gold.Id.Protein>
6NUR|6NUR_protein|mol2

> <Gold.PLP.Fitness>
55.6371

> <Gold.PLP.PLP>
-50.5139

> <Gold.PLP.part.hbond>
-2.0000

> <Gold.PLP.part.metal>
0.0000

> <Gold.PLP.part.buried>
-9.0736

> <Gold.PLP.part.nonpolar>
-39.0116

> <Gold.PLP.part.repulsive>
0.0962

> <Gold.PLP.ligand.clash>
0.0000

> <Gold.PLP.ligand.torsion>
0.5340

> <Gold.PLP.Chemscore.Hbond>
2.0000

> <Gold.PLP.Chemscore.CHOScore>
0.0000

> <Gold.PLP.Chemscore.Metal>
0.0000

> <Gold.Chemscore.Hbonds>
donor molecule, donor type, donor heavy atom, donor atom, acceptor molecule, acceptor atom, score
      P1  H  7989  7998       L1     8  1.00
      P1  H  7997  8009       L1     4  1.00

> <Gold.PLP.Chemscore.Internal.Correction>
0.1912

> <Gold.Rescore>
     Score         DG    S(hbond)    S(metal)    S(lipo)     H(rot)  DE(clash)    DE(int)     intcor
     17.62     -20.51       1.87        0.00     123.52       2.21       1.69       1.21       ----

> <Gold.Chemscore.Fitness>
17.6156

> <Gold.Chemscore.DG>
-20.5138

> <Gold.Chemscore.ZeroCoef>
-5.4800

> <Gold.Chemscore.Hbond>
1.8696

> <Gold.Chemscore.Metal>
0.0000

> <Gold.Chemscore.Lipo>
123.5180

> <Gold.Chemscore.Internal_Hbond>
0.0000

> <Gold.Chemscore.DEClash>
1.6912

> <Gold.Chemscore.DEInternal>
1.2069

> <Gold.Chemscore.Rot>
2.2119

> <Gold.Chemscore.Internal.Correction>
   9.000000E+99

> <Gold.Chemscore.Hbonds>
donor molecule, donor type, donor heavy atom, donor atom, acceptor molecule, acceptor atom, score
      P1  H  7989  7998       L1     8  0.88
      P1  H  7997  8009       L1     4  0.82

> <Gold.Chemscore.Hbond.Weighted>
-6.2445

> <Gold.Chemscore.Metal.Weighted>
-0.0000

> <Gold.Chemscore.Lipo.Weighted>
-14.4516

> <Gold.Chemscore.Internal_Hbond.Weighted>
0.0000

> <Gold.Chemscore.DEClash.Weighted>
1.6912

> <Gold.Chemscore.DEInternal.Weighted>
1.2069

> <Gold.Chemscore.Rot.Weighted>
5.6623

> <Gold.Chemscore.Internal.Correction.Weighted>
   9.000000E+99

> <Gold.Protein.RotatedTorsions>
[ 6907 6896 6895 6894 ] final  167.00 input  -60.11 | X-H torsion
[ 7974 7965 7964 7962 ] final   21.13 input  175.53 | X-H torsion
[ 8008 7997 7996 7995 ] final  152.95 input   59.86 | X-H torsion
[ 10167 10162 10161 10158 ] final   91.94 input  -65.29 | X-H torsion
[ 10718 10713 10712 10709 ] final  -45.81 input   66.30 | X-H torsion
[ 10763 10752 10751 10750 ] final  -99.85 input  -60.55 | X-H torsion
[ 11005 11000 10999 10996 ] final -121.67 input  -57.11 | X-H torsion

> <Gold.Protein.ActiveResidues>
 VAL166  LYS551  ARG553  GLY616  TRP617  ASP618  TYR619  PRO620  LYS621  CYS622 
 ASP623  PHE694  ASN695  SER759  ASP760  ASP761  ALA762  ILE779  LEU786  VAL792 
 PHE793  MET794  SER795  GLU796  ALA797  LYS798  CYS799  TRP800  GLU811  SER814 

> <Gold.Protein.RotatedAtoms>
  151.8701  133.3474  159.3731 H   0  0  0  0  0  0  0  0  0  0  0  0  # atno 6907 bound_to 6896
  150.7155  134.5121  159.5621 H   0  0  0  0  0  0  0  0  0  0  0  0  # atno 6908 bound_to 6896
  152.2652  134.7992  160.0475 H   0  0  0  0  0  0  0  0  0  0  0  0  # atno 6909 bound_to 6896
  146.2084  139.8071  142.8708 H   0  0  0  0  0  0  0  0  0  0  0  0  # atno 7974 bound_to 7965
  156.2605  140.2007  156.6414 H   0  0  0  0  0  0  0  0  0  0  0  0  # atno 8008 bound_to 7997
  154.6606  140.0561  157.0083 H   0  0  0  0  0  0  0  0  0  0  0  0  # atno 8009 bound_to 7997
  155.1281  140.3231  155.4483 H   0  0  0  0  0  0  0  0  0  0  0  0  # atno 8010 bound_to 7997
  139.8326  144.6680  150.9381 H   0  0  0  0  0  0  0  0  0  0  0  0  # atno 10167 bound_to 10162
  156.2245  130.4168  149.8951 H   0  0  0  0  0  0  0  0  0  0  0  0  # atno 10718 bound_to 10713
  154.7532  135.4957  153.9326 H   0  0  0  0  0  0  0  0  0  0  0  0  # atno 10763 bound_to 10752
  153.1166  135.6722  153.9415 H   0  0  0  0  0  0  0  0  0  0  0  0  # atno 10764 bound_to 10752
  153.9159  135.3094  155.3427 H   0  0  0  0  0  0  0  0  0  0  0  0  # atno 10765 bound_to 10752
  141.0053  134.0344  157.3485 H   0  0  0  0  0  0  0  0  0  0  0  0  # atno 11005 bound_to 11000
  145.3235  141.0249  143.3487 LP  0  0  0  0  0  0  0  0  0  0  0  0  # atno 17320 bound_to 7965
  144.8850  139.4852  143.6705 LP  0  0  0  0  0  0  0  0  0  0  0  0  # atno 17321 bound_to 7965
  140.7805  143.3987  151.1186 LP  0  0  0  0  0  0  0  0  0  0  0  0  # atno 17342 bound_to 10162
  139.7639  143.8594  152.3106 LP  0  0  0  0  0  0  0  0  0  0  0  0  # atno 17343 bound_to 10162
  156.6586  130.8772  151.3543 LP  0  0  0  0  0  0  0  0  0  0  0  0  # atno 17370 bound_to 10713
  157.7104  130.9433  150.1070 LP  0  0  0  0  0  0  0  0  0  0  0  0  # atno 17371 bound_to 10713
  139.9060  135.0179  156.7487 LP  0  0  0  0  0  0  0  0  0  0  0  0  # atno 17394 bound_to 11000
  140.6823  133.9463  155.7917 LP  0  0  0  0  0  0  0  0  0  0  0  0  # atno 17395 bound_to 11000

$$$$
