#       Name:                AV-unprocessed.smi:1213
#       Creating user name   scv26
#       Creation time:       Fri Mar 27 04:14:24 2020


#       File generated by GOLD software.
#

@<TRIPOS>MOLECULE
AV-unprocessed.smi:1213
    42    43     1
SMALL
NO_CHARGES


@<TRIPOS>ATOM
      1 ****        -4.8160   1.7089   2.1349 N.am           1 S1                 0.0000
      2 ****        -3.5252   1.5946   2.4564 C.2            1 S1                 0.0000
      3 ****        -2.9279   2.4635   3.0894 O.2            1 S1                 0.0000
      4 ****        -2.8152   0.3090   2.0193 C.3            1 S1                 0.0000
      5 ****        -1.3376   0.4515   1.9559 N.4            1 S1                 1.0000
      6 ****        -0.8752   1.1831   0.7458 C.3            1 S1                 0.0000
      7 ****         0.6455   1.4150   0.7834 C.3            1 S1                 0.0000
      8 ****         1.4213   0.0926   0.9433 C.3            1 S1                 0.0000
      9 ****         1.3106  -0.7471  -0.2490 N.am           1 S1                 0.0000
     10 ****         1.9584  -0.5728  -1.4092 C.2            1 S1                 0.0000
     11 ****         2.7511   0.3624  -1.5387 O.2            1 S1                 0.0000
     12 ****         1.6372  -1.4914  -2.3475 N.pl3          1 S1                -1.0000
     13 ****         2.1988  -1.4329  -3.5659 C.2            1 S1                 0.0000
     14 ****         3.2263  -2.2067  -3.9331 N.2            1 S1                 0.0000
     15 ****         3.6445  -1.9869  -5.2468 C.2            1 S1                 0.0000
     16 ****         2.9137  -1.0284  -5.8972 C.2            1 S1                 0.0000
     17 ****         1.6694  -0.3704  -4.8735 S.3            1 S1                 0.0000
     18 ****         0.8893  -0.6637   2.1721 C.3            1 S1                 0.0000
     19 ****        -0.6386  -0.8500   2.1136 C.3            1 S1                 0.0000
     20 ****        -5.3278   2.5377   2.4029 H              1 S1                 0.0000
     21 ****        -5.2803   0.9694   1.6274 H              1 S1                 0.0000
     22 ****        -3.0790  -0.4548   2.7520 H              1 S1                 0.0000
     23 ****        -3.1990  -0.0347   1.0572 H              1 S1                 0.0000
     24 ****        -1.1493   0.6220  -0.1491 H              1 S1                 0.0000
     25 ****        -1.3789   2.1474   0.6754 H              1 S1                 0.0000
     26 ****         0.9650   1.9431  -0.1156 H              1 S1                 0.0000
     27 ****         0.8855   2.0741   1.6187 H              1 S1                 0.0000
     28 ****         2.4774   0.3140   1.1067 H              1 S1                 0.0000
     29 ****         0.6841  -1.5364  -0.1937 H              1 S1                 0.0000
     30 ****         4.4717  -2.5601  -5.6382 H              1 S1                 0.0000
     31 ****         3.0280  -0.6726  -6.9098 H              1 S1                 0.0000
     32 ****         1.3819  -1.6329   2.2611 H              1 S1                 0.0000
     33 ****         1.1478  -0.1087   3.0750 H              1 S1                 0.0000
     34 ****        -0.9712  -1.3365   3.0312 H              1 S1                 0.0000
     35 ****        -0.9113  -1.5119   1.2899 H              1 S1                 0.0000
     36 ****        -1.0753   1.0116   2.7547 H              1 S1                 0.0000
     37 ****        -3.4096   3.2898   3.3811 LP             1 S1                 0.0000
     38 ****        -1.9605   2.3437   3.3124 LP             1 S1                 0.0000
     39 ****         2.9110   0.9913  -0.7778 LP             1 S1                 0.0000
     40 ****         3.2343   0.4920  -2.4046 LP             1 S1                 0.0000
     41 ****         0.9809  -2.2151  -2.1341 LP             1 S1                 0.0000
     42 ****         3.6531  -2.8770  -3.3260 LP             1 S1                 0.0000
@<TRIPOS>BOND
    1    1    2 am    
    2    1   20 1     
    3    1   21 1     
    4    2    3 2     
    5    2    4 1     
    6    4    5 1     
    7    4   22 1     
    8    4   23 1     
    9    5   19 1     
   10    5    6 1     
   11    5   36 1     
   12    6    7 1     
   13    6   24 1     
   14    6   25 1     
   15    7    8 1     
   16    7   26 1     
   17    7   27 1     
   18    8    9 1     
   19    8   18 1     
   20    8   28 1     
   21    9   10 am    
   22    9   29 1     
   23   10   11 2     
   24   10   12 1     
   25   12   13 1     
   26   13   17 1     
   27   13   14 2     
   28   14   15 1     
   29   15   16 2     
   30   15   30 1     
   31   16   17 1     
   32   16   31 1     
   33   18   19 1     
   34   18   32 1     
   35   18   33 1     
   36   19   34 1     
   37   19   35 1     
   38    3   37 1     
   39    3   38 1     
   40   11   39 1     
   41   11   40 1     
   42   12   41 1     
   43   14   42 1     
@<TRIPOS>SUBSTRUCTURE
      1 S1             1
@<TRIPOS>SET
LONE_PAIRS      STATIC     ATOMS    <user>   **** ""
6 37 38 39 40 41 42
DONOR_HYDROGENS      STATIC     ATOMS    <user>   **** ""
4 20 21 36 29
ATOM$BLUE        STATIC     ATOMS    COLORGROUP SYSTEM
6 37 38 39 40 41 42
ATOM$RED        STATIC     ATOMS    COLORGROUP SYSTEM
4 20 21 36 29
