AV-unprocessed.smi:544|AV-procd|sdf|2879|dock10
  -GOLD-   2262023373D 1   1.00000     0.00000
 Structure written by MMmdl.
 48 50  0  0  0  0  0  0  0  0  2 V2000
  152.0319  138.1851  154.3827 C   0  0  0  0  0  0  0  0  0  0  0  0
  151.5131  137.4526  155.6220 C   0  0  0  0  0  0  0  0  0  0  0  0
  151.1810  136.1222  155.2636 O   0  0  0  0  0  0  0  0  0  0  0  0
  150.7646  135.3442  156.3731 C   0  0  0  0  0  0  0  0  0  0  0  0
  149.3939  135.8557  156.8468 C   0  0  0  0  0  0  0  0  0  0  0  0
  148.8672  135.0837  157.9694 N   0  0  0  0  0  0  0  0  0  0  0  0
  148.6503  133.7387  158.0630 C   0  0  0  0  0  0  0  0  0  0  0  0
  148.9393  132.8284  157.0358 N   0  0  0  0  0  0  0  0  0  0  0  0
  149.6470  131.5498  157.1444 C   0  0  0  0  0  0  0  0  0  0  0  0
  150.7636  131.4156  156.0936 C   0  0  0  0  0  0  0  0  0  0  0  0
  150.1908  131.5634  154.6792 C   0  0  0  0  0  0  0  0  0  0  0  0
  149.3653  132.8564  154.5776 C   0  0  1  0  0  0  0  0  0  0  0  0
  148.7060  132.9961  153.1991 C   0  0  0  0  0  0  0  0  0  0  0  0
  148.3195  132.9033  155.7103 C   0  0  0  0  0  0  0  0  0  0  0  0
  148.0989  133.3551  159.2176 N   0  0  0  0  0  0  0  0  0  0  0  0
  147.9661  134.5395  159.9218 C   0  0  0  0  0  0  0  0  0  0  0  0
  148.4097  135.5953  159.1902 C   0  0  0  0  0  0  0  0  0  0  0  0
  148.3613  136.9978  159.6639 C   0  0  0  0  0  0  0  0  0  0  0  0
  148.7492  137.9234  158.9543 O   0  0  0  0  0  0  0  0  0  0  0  0
  147.8471  137.0997  160.9304 N   0  5  0  0  0  0  0  0  0  0  0  0
  147.3960  136.0554  161.7082 C   0  0  0  0  0  0  0  0  0  0  0  0
  146.9473  136.2350  162.8413 O   0  0  0  0  0  0  0  0  0  0  0  0
  147.4414  134.7758  161.2216 N   0  0  0  0  0  0  0  0  0  0  0  0
  146.9642  133.6459  162.0240 C   0  0  0  0  0  0  0  0  0  0  0  0
  152.2963  139.2151  154.6221 H   0  0  0  0  0  0  0  0  0  0  0  0
  151.2770  138.2071  153.5965 H   0  0  0  0  0  0  0  0  0  0  0  0
  152.9200  137.6955  153.9822 H   0  0  0  0  0  0  0  0  0  0  0  0
  152.2769  137.4537  156.4010 H   0  0  0  0  0  0  0  0  0  0  0  0
  150.6357  137.9662  156.0179 H   0  0  0  0  0  0  0  0  0  0  0  0
  150.7121  134.2932  156.0899 H   0  0  0  0  0  0  0  0  0  0  0  0
  151.5004  135.4166  157.1738 H   0  0  0  0  0  0  0  0  0  0  0  0
  149.4634  136.9023  157.1419 H   0  0  0  0  0  0  0  0  0  0  0  0
  148.6771  135.8480  156.0300 H   0  0  0  0  0  0  0  0  0  0  0  0
  150.0541  131.4133  158.1413 H   0  0  0  0  0  0  0  0  0  0  0  0
  148.9251  130.7425  157.0148 H   0  0  0  0  0  0  0  0  0  0  0  0
  151.5293  132.1737  156.2591 H   0  0  0  0  0  0  0  0  0  0  0  0
  151.2581  130.4492  156.1964 H   0  0  0  0  0  0  0  0  0  0  0  0
  150.9970  131.5646  153.9451 H   0  0  0  0  0  0  0  0  0  0  0  0
  149.5600  130.7030  154.4514 H   0  0  0  0  0  0  0  0  0  0  0  0
  150.0411  133.7034  154.7082 H   0  0  0  0  0  0  0  0  0  0  0  0
  148.0091  132.1794  153.0087 H   0  0  0  0  0  0  0  0  0  0  0  0
  149.4528  132.9899  152.4046 H   0  0  0  0  0  0  0  0  0  0  0  0
  148.1515  133.9319  153.1224 H   0  0  0  0  0  0  0  0  0  0  0  0
  147.6030  132.0879  155.6021 H   0  0  0  0  0  0  0  0  0  0  0  0
  147.7470  133.8274  155.6249 H   0  0  0  0  0  0  0  0  0  0  0  0
  147.5371  133.5665  162.9488 H   0  0  0  0  0  0  0  0  0  0  0  0
  147.0518  132.6927  161.5037 H   0  0  0  0  0  0  0  0  0  0  0  0
  145.9131  133.7786  162.2839 H   0  0  0  0  0  0  0  0  0  0  0  0
  1  2  1  0  0  0  0
  1 25  1  0  0  0  0
  1 26  1  0  0  0  0
  1 27  1  0  0  0  0
  2  3  1  0  0  0  0
  2 28  1  0  0  0  0
  2 29  1  0  0  0  0
  3  4  1  0  0  0  0
  4  5  1  0  0  0  0
  4 30  1  0  0  0  0
  4 31  1  0  0  0  0
  5  6  1  0  0  0  0
  5 32  1  0  0  0  0
  5 33  1  0  0  0  0
  6 17  1  0  0  0  0
  6  7  1  0  0  0  0
  7  8  1  0  0  0  0
  7 15  2  0  0  0  0
  8 14  1  0  0  0  0
  8  9  1  0  0  0  0
  9 10  1  0  0  0  0
  9 34  1  0  0  0  0
  9 35  1  0  0  0  0
 10 11  1  0  0  0  0
 10 36  1  0  0  0  0
 10 37  1  0  0  0  0
 11 12  1  0  0  0  0
 11 38  1  0  0  0  0
 11 39  1  0  0  0  0
 12 13  1  0  0  0  0
 12 14  1  0  0  0  0
 12 40  1  0  0  0  0
 13 41  1  0  0  0  0
 13 42  1  0  0  0  0
 13 43  1  0  0  0  0
 14 44  1  0  0  0  0
 14 45  1  0  0  0  0
 15 16  1  0  0  0  0
 16 23  1  0  0  0  0
 16 17  2  0  0  0  0
 17 18  1  0  0  0  0
 18 19  2  0  0  0  0
 18 20  1  0  0  0  0
 20 21  1  0  0  0  0
 21 22  2  0  0  0  0
 21 23  1  0  0  0  0
 23 24  1  0  0  0  0
 24 46  1  0  0  0  0
 24 47  1  0  0  0  0
 24 48  1  0  0  0  0
M  CHG  1  20  -1
M  END
> <s_m_source_file>
AV-unprocessed.smi

> <i_m_source_file_index>
544

> <i_lp_mmshare_version>
43012

> <i_f3d_flags>
0

> <s_epik_input>
W0NIM11uMWMoPU8pW25IXWMoPU8pYyhjMTIpbihbQ0gyXVtDSDJdT1tDSDJdW0NIM10pYyhuMilOM1tDSDJdW0NIMl1bQ0gyXVtDQEBIXShbQ0gzXSlbQ0gyXTM=

> <s_epik_cmdline>
J2VwaWtfcHl0aG9uJywgJy1waCcsICc3LjAnLCAnLXRuJywgJzgnLCAnLW1hJywgJzIwMCcsICctbWV0YWxfYmluZGluZycsICctaW1hZScsICc8aW5maWxlLm1hZT4nLCAnLW9tYWUnLCAnPG91dGZpbGUubWFlPic=

> <r_lp_tautomer_probability>
1

> <r_epik_Ionization_Penalty>
5.1213

> <r_epik_Ionization_Penalty_Charging>
0.0741877

> <r_epik_Ionization_Penalty_Neutral>
5.04711

> <r_epik_State_Penalty>
5.04142

> <r_epik_Charging_Adjusted_Penalty>
5.11561

> <i_epik_Tot_Q>
-1

> <i_epik_Tot_abs_Q>
1

> <r_epik_Metal_State_Penalty>
1.14934

> <b_epik_Metal_Only>
1

> <s_lp_Force_Field>
OPLS_2005

> <r_lp_Energy>
41.9091

> <b_lp_Chiralities_Consistent>
1

> <s_lp_Variant>
AV-unprocessed.smi:544-3

> <Gold.Version>
5.8.1

> <Gold.Id.Protein>
6NUR|6NUR_protein|mol2

> <Gold.PLP.Fitness>
45.7934

> <Gold.PLP.PLP>
-34.0071

> <Gold.PLP.part.hbond>
-3.7296

> <Gold.PLP.part.metal>
0.0000

> <Gold.PLP.part.buried>
-5.5122

> <Gold.PLP.part.nonpolar>
-25.9888

> <Gold.PLP.part.repulsive>
0.1125

> <Gold.PLP.ligand.clash>
0.0000

> <Gold.PLP.ligand.torsion>
1.0564

> <Gold.PLP.Chemscore.Hbond>
4.5840

> <Gold.PLP.Chemscore.CHOScore>
0.0000

> <Gold.PLP.Chemscore.Metal>
0.0000

> <Gold.Chemscore.Hbonds>
donor molecule, donor type, donor heavy atom, donor atom, acceptor molecule, acceptor atom, score
      P1  H  6931  6943       L1    20  1.89
      P1  H  6934  6947       L1    20  1.66
      P1  H 10752 10763       L1     3  0.85

> <Gold.PLP.Chemscore.Internal.Correction>
0.1471

> <Gold.Rescore>
     Score         DG    S(hbond)    S(metal)    S(lipo)     H(rot)  DE(clash)    DE(int)     intcor
     13.43     -14.52       1.80        0.00      59.93       1.55       0.05       1.04       ----

> <Gold.Chemscore.Fitness>
13.4252

> <Gold.Chemscore.DG>
-14.5187

> <Gold.Chemscore.ZeroCoef>
-5.4800

> <Gold.Chemscore.Hbond>
1.7974

> <Gold.Chemscore.Metal>
0.0000

> <Gold.Chemscore.Lipo>
59.9335

> <Gold.Chemscore.Internal_Hbond>
0.0000

> <Gold.Chemscore.DEClash>
0.0528

> <Gold.Chemscore.DEInternal>
1.0407

> <Gold.Chemscore.Rot>
1.5534

> <Gold.Chemscore.Internal.Correction>
   9.000000E+99

> <Gold.Chemscore.Hbonds>
donor molecule, donor type, donor heavy atom, donor atom, acceptor molecule, acceptor atom, score
      P1  H  6931  6943       L1    20  0.41
      P1  H  6934  6947       L1    20  0.23
      P1  H 10752 10763       L1     3  0.09

> <Gold.Chemscore.Hbond.Weighted>
-6.0033

> <Gold.Chemscore.Metal.Weighted>
-0.0000

> <Gold.Chemscore.Lipo.Weighted>
-7.0122

> <Gold.Chemscore.Internal_Hbond.Weighted>
0.0000

> <Gold.Chemscore.DEClash.Weighted>
0.0528

> <Gold.Chemscore.DEInternal.Weighted>
1.0407

> <Gold.Chemscore.Rot.Weighted>
3.9768

> <Gold.Chemscore.Internal.Correction.Weighted>
   9.000000E+99

> <Gold.Protein.RotatedTorsions>
[ 6907 6896 6895 6894 ] final  -56.59 input  -60.11 | X-H torsion
[ 7974 7965 7964 7962 ] final  141.67 input  175.53 | X-H torsion
[ 8008 7997 7996 7995 ] final -149.87 input   59.86 | X-H torsion
[ 10167 10162 10161 10158 ] final   -7.94 input  -65.29 | X-H torsion
[ 10718 10713 10712 10709 ] final  -66.10 input   66.30 | X-H torsion
[ 10763 10752 10751 10750 ] final   73.85 input  -60.55 | X-H torsion
[ 11005 11000 10999 10996 ] final   76.24 input  -57.11 | X-H torsion

> <Gold.Protein.ActiveResidues>
 VAL166  LYS551  ARG553  GLY616  TRP617  ASP618  TYR619  PRO620  LYS621  CYS622 
 ASP623  PHE694  ASN695  SER759  ASP760  ASP761  ALA762  ILE779  LEU786  VAL792 
 PHE793  MET794  SER795  GLU796  ALA797  LYS798  CYS799  TRP800  GLU811  SER814 

> <Gold.Protein.RotatedAtoms>
  150.8155  134.7334  159.6725 H   0  0  0  0  0  0  0  0  0  0  0  0  # atno 6907 bound_to 6896
  152.4274  134.5840  159.9965 H   0  0  0  0  0  0  0  0  0  0  0  0  # atno 6908 bound_to 6896
  151.6038  133.3316  159.3089 H   0  0  0  0  0  0  0  0  0  0  0  0  # atno 6909 bound_to 6896
  144.9075  139.5338  143.5724 H   0  0  0  0  0  0  0  0  0  0  0  0  # atno 7974 bound_to 7965
  155.6145  140.0675  157.2696 H   0  0  0  0  0  0  0  0  0  0  0  0  # atno 8008 bound_to 7997
  154.4245  140.1795  156.1355 H   0  0  0  0  0  0  0  0  0  0  0  0  # atno 8009 bound_to 7997
  156.0058  140.3331  155.6894 H   0  0  0  0  0  0  0  0  0  0  0  0  # atno 8010 bound_to 7997
  140.7044  143.6025  150.8784 H   0  0  0  0  0  0  0  0  0  0  0  0  # atno 10167 bound_to 10162
  156.0632  130.4257  150.1659 H   0  0  0  0  0  0  0  0  0  0  0  0  # atno 10718 bound_to 10713
  153.0548  135.5047  154.7956 H   0  0  0  0  0  0  0  0  0  0  0  0  # atno 10763 bound_to 10752
  154.6790  135.2965  154.9642 H   0  0  0  0  0  0  0  0  0  0  0  0  # atno 10764 bound_to 10752
  154.0435  135.6714  153.4845 H   0  0  0  0  0  0  0  0  0  0  0  0  # atno 10765 bound_to 10752
  139.9307  134.7584  156.1370 H   0  0  0  0  0  0  0  0  0  0  0  0  # atno 11005 bound_to 11000
  146.3141  139.7855  142.8997 LP  0  0  0  0  0  0  0  0  0  0  0  0  # atno 17320 bound_to 7965
  145.3510  141.0307  143.3338 LP  0  0  0  0  0  0  0  0  0  0  0  0  # atno 17321 bound_to 7965
  139.9749  143.6015  152.2962 LP  0  0  0  0  0  0  0  0  0  0  0  0  # atno 17342 bound_to 10162
  139.6615  144.7662  151.1953 LP  0  0  0  0  0  0  0  0  0  0  0  0  # atno 17343 bound_to 10162
  156.9724  130.9839  151.3456 LP  0  0  0  0  0  0  0  0  0  0  0  0  # atno 17370 bound_to 10713
  157.5655  130.8275  149.8322 LP  0  0  0  0  0  0  0  0  0  0  0  0  # atno 17371 bound_to 10713
  141.0894  133.6720  156.2507 LP  0  0  0  0  0  0  0  0  0  0  0  0  # atno 17394 bound_to 11000
  140.6210  134.5362  157.5547 LP  0  0  0  0  0  0  0  0  0  0  0  0  # atno 17395 bound_to 11000

$$$$
