AV-unprocessed.smi:1556|AV-procd|sdf|6268|dock5
  -GOLD-   22720 6453D 1   1.00000     0.00000
 Structure written by MMmdl.
 37 38  0  0  0  0  0  0  0  0  1 V2000
  144.4097  132.4462  149.4347 C   0  0  0  0  0  0  0  0  0  0  0  0
  145.2116  132.8479  150.5703 N   0  0  0  0  0  0  0  0  0  0  0  0
  145.4661  132.1532  151.7331 C   0  0  0  0  0  0  0  0  0  0  0  0
  146.2718  132.9361  152.5108 C   0  0  0  0  0  0  0  0  0  0  0  0
  146.8322  132.6418  153.8743 C   0  0  0  0  0  0  0  0  0  0  0  0
  148.3693  132.6281  153.8649 C   0  0  0  0  0  0  0  0  0  0  0  0
  148.9142  133.9766  153.7644 N   0  0  0  0  0  0  0  0  0  0  0  0
  149.6543  134.5808  154.7095 C   0  0  0  0  0  0  0  0  0  0  0  0
  149.9434  134.0545  155.7825 O   0  0  0  0  0  0  0  0  0  0  0  0
  150.0563  135.8267  154.4013 N   0  0  0  0  0  0  0  0  0  0  0  0
  150.8656  136.7418  155.2069 C   0  0  2  0  0  0  0  0  0  0  0  0
  150.0585  137.2825  156.4023 C   0  0  0  0  0  0  0  0  0  0  0  0
  150.8019  138.4843  156.9997 C   0  0  0  0  0  0  0  0  0  0  0  0
  151.7211  139.2576  155.6146 S   0  0  0  0  0  0  0  0  0  0  0  0
  151.0522  140.5029  155.2087 O   0  0  0  0  0  0  0  0  0  0  0  0
  153.1577  139.2366  155.9285 O   0  0  0  0  0  0  0  0  0  0  0  0
  151.3505  137.9489  154.3885 C   0  0  0  0  0  0  0  0  0  0  0  0
  146.4575  134.1062  151.7199 C   0  0  0  0  0  0  0  0  0  0  0  0
  145.8213  134.0510  150.5611 N   0  0  0  0  0  0  0  0  0  0  0  0
  144.0404  131.4303  149.5785 H   0  0  0  0  0  0  0  0  0  0  0  0
  145.0120  132.4788  148.5264 H   0  0  0  0  0  0  0  0  0  0  0  0
  143.5600  133.1206  149.3266 H   0  0  0  0  0  0  0  0  0  0  0  0
  145.0565  131.1696  151.9105 H   0  0  0  0  0  0  0  0  0  0  0  0
  146.4804  133.3810  154.5950 H   0  0  0  0  0  0  0  0  0  0  0  0
  146.4658  131.6801  154.2352 H   0  0  0  0  0  0  0  0  0  0  0  0
  148.7452  132.1796  154.7849 H   0  0  0  0  0  0  0  0  0  0  0  0
  148.7414  132.0113  153.0448 H   0  0  0  0  0  0  0  0  0  0  0  0
  148.7182  134.4857  152.9150 H   0  0  0  0  0  0  0  0  0  0  0  0
  149.7292  136.1943  153.5193 H   0  0  0  0  0  0  0  0  0  0  0  0
  151.7334  136.2172  155.6108 H   0  0  0  0  0  0  0  0  0  0  0  0
  149.0811  137.6184  156.0523 H   0  0  0  0  0  0  0  0  0  0  0  0
  149.8780  136.5119  157.1523 H   0  0  0  0  0  0  0  0  0  0  0  0
  150.1319  139.2107  157.4598 H   0  0  0  0  0  0  0  0  0  0  0  0
  151.5281  138.1601  157.7452 H   0  0  0  0  0  0  0  0  0  0  0  0
  152.2347  137.7373  153.7870 H   0  0  0  0  0  0  0  0  0  0  0  0
  150.5633  138.3222  153.7323 H   0  0  0  0  0  0  0  0  0  0  0  0
  147.0311  134.9907  151.9548 H   0  0  0  0  0  0  0  0  0  0  0  0
  1  2  1  0  0  0  0
  1 20  1  0  0  0  0
  1 21  1  0  0  0  0
  1 22  1  0  0  0  0
  2 19  1  0  0  0  0
  2  3  1  0  0  0  0
  3  4  2  0  0  0  0
  3 23  1  0  0  0  0
  4  5  1  0  0  0  0
  4 18  1  0  0  0  0
  5  6  1  0  0  0  0
  5 24  1  0  0  0  0
  5 25  1  0  0  0  0
  6  7  1  0  0  0  0
  6 26  1  0  0  0  0
  6 27  1  0  0  0  0
  7  8  1  0  0  0  0
  7 28  1  0  0  0  0
  8  9  2  0  0  0  0
  8 10  1  0  0  0  0
 10 11  1  0  0  0  0
 10 29  1  0  0  0  0
 11 17  1  0  0  0  0
 11 12  1  0  0  0  0
 11 30  1  0  0  0  0
 12 13  1  0  0  0  0
 12 31  1  0  0  0  0
 12 32  1  0  0  0  0
 13 14  1  0  0  0  0
 13 33  1  0  0  0  0
 13 34  1  0  0  0  0
 14 15  2  0  0  0  0
 14 16  2  0  0  0  0
 14 17  1  0  0  0  0
 17 35  1  0  0  0  0
 17 36  1  0  0  0  0
 18 19  2  0  0  0  0
 18 37  1  0  0  0  0
M  END
> <s_m_source_file>
AV-unprocessed.smi

> <i_m_source_file_index>
1556

> <i_lp_mmshare_version>
43012

> <i_f3d_flags>
0

> <s_epik_input>
W0NIM11uMVtjSF1jKFtjSF1uMSlbQ0gyXVtDSDJdW05IXUMoPU8pW05IXVtDQEBIXShbQ0gyXTIpW0NIMl1bQ0gyXVMyKD1PKT1P

> <s_epik_cmdline>
J2VwaWtfcHl0aG9uJywgJy1waCcsICc3LjAnLCAnLXRuJywgJzgnLCAnLW1hJywgJzIwMCcsICctbWV0YWxfYmluZGluZycsICctaW1hZScsICc8aW5maWxlLm1hZT4nLCAnLW9tYWUnLCAnPG91dGZpbGUubWFlPic=

> <r_lp_tautomer_probability>
1

> <r_epik_Ionization_Penalty>
0.000530192

> <r_epik_Ionization_Penalty_Charging>
0

> <r_epik_Ionization_Penalty_Neutral>
0.000530192

> <r_epik_State_Penalty>
-0

> <r_epik_Charging_Adjusted_Penalty>
0

> <i_epik_Tot_Q>
0

> <i_epik_Tot_abs_Q>
0

> <r_epik_Metal_State_Penalty>
-0

> <b_epik_Metal_Only>
0

> <s_lp_Force_Field>
OPLS_2005

> <r_lp_Energy>
8.62968

> <b_lp_Chiralities_Consistent>
1

> <s_lp_Variant>
AV-unprocessed.smi:1556-1

> <Gold.Version>
5.8.1

> <Gold.Id.Protein>
6NUR|6NUR_protein|mol2

> <Gold.PLP.Fitness>
45.3778

> <Gold.PLP.PLP>
-31.6921

> <Gold.PLP.part.hbond>
-4.7286

> <Gold.PLP.part.metal>
0.0000

> <Gold.PLP.part.buried>
-5.9738

> <Gold.PLP.part.nonpolar>
-22.0004

> <Gold.PLP.part.repulsive>
0.5546

> <Gold.PLP.ligand.clash>
0.0000

> <Gold.PLP.ligand.torsion>
0.1848

> <Gold.PLP.Chemscore.Hbond>
3.6840

> <Gold.PLP.Chemscore.CHOScore>
1.0000

> <Gold.PLP.Chemscore.Metal>
0.0000

> <Gold.Chemscore.Hbonds>
donor molecule, donor type, donor heavy atom, donor atom, acceptor molecule, acceptor atom, score
      L1  H     7    28       P1  7948  0.66
      L1  H    10    29       P1  7948  1.00
      P1  H  7989  7998       L1    15  0.98
      P1  H  7997  8010       L1    16  0.99
      L1  C    18    37       P1  7948  1.00

> <Gold.PLP.Chemscore.Internal.Correction>
0.0032

> <Gold.Rescore>
     Score         DG    S(hbond)    S(metal)    S(lipo)     H(rot)  DE(clash)    DE(int)     intcor
     16.75     -17.08       3.14        0.00      49.46       1.82       0.07       0.25       ----

> <Gold.Chemscore.Fitness>
16.7489

> <Gold.Chemscore.DG>
-17.0757

> <Gold.Chemscore.ZeroCoef>
-5.4800

> <Gold.Chemscore.Hbond>
3.1358

> <Gold.Chemscore.Metal>
0.0000

> <Gold.Chemscore.Lipo>
49.4571

> <Gold.Chemscore.Internal_Hbond>
0.0000

> <Gold.Chemscore.DEClash>
0.0739

> <Gold.Chemscore.DEInternal>
0.2529

> <Gold.Chemscore.Rot>
1.8220

> <Gold.Chemscore.Internal.Correction>
   9.000000E+99

> <Gold.Chemscore.Hbonds>
donor molecule, donor type, donor heavy atom, donor atom, acceptor molecule, acceptor atom, score
      L1  H     7    28       P1  7948  0.06
      L1  H    10    29       P1  7948  0.25
      P1  H  7989  7998       L1    15  0.56
      P1  H  7997  8010       L1    16  0.92

> <Gold.Chemscore.Hbond.Weighted>
-10.4735

> <Gold.Chemscore.Metal.Weighted>
-0.0000

> <Gold.Chemscore.Lipo.Weighted>
-5.7865

> <Gold.Chemscore.Internal_Hbond.Weighted>
0.0000

> <Gold.Chemscore.DEClash.Weighted>
0.0739

> <Gold.Chemscore.DEInternal.Weighted>
0.2529

> <Gold.Chemscore.Rot.Weighted>
4.6642

> <Gold.Chemscore.Internal.Correction.Weighted>
   9.000000E+99

> <Gold.Protein.RotatedTorsions>
[ 6907 6896 6895 6894 ] final   66.32 input  -60.11 | X-H torsion
[ 7974 7965 7964 7962 ] final  -21.49 input  175.53 | X-H torsion
[ 8008 7997 7996 7995 ] final   90.00 input   59.86 | X-H torsion
[ 10167 10162 10161 10158 ] final  156.09 input  -65.29 | X-H torsion
[ 10718 10713 10712 10709 ] final  178.62 input   66.30 | X-H torsion
[ 10763 10752 10751 10750 ] final  -84.15 input  -60.55 | X-H torsion
[ 11005 11000 10999 10996 ] final   57.12 input  -57.11 | X-H torsion

> <Gold.Protein.ActiveResidues>
 VAL166  LYS551  ARG553  GLY616  TRP617  ASP618  TYR619  PRO620  LYS621  CYS622 
 ASP623  PHE694  ASN695  SER759  ASP760  ASP761  ALA762  ILE779  LEU786  VAL792 
 PHE793  MET794  SER795  GLU796  ALA797  LYS798  CYS799  TRP800  GLU811  SER814 

> <Gold.Protein.RotatedAtoms>
  152.4472  134.5470  159.9855 H   0  0  0  0  0  0  0  0  0  0  0  0  # atno 6907 bound_to 6896
  151.5552  133.3405  159.2968 H   0  0  0  0  0  0  0  0  0  0  0  0  # atno 6908 bound_to 6896
  150.8391  134.7708  159.6981 H   0  0  0  0  0  0  0  0  0  0  0  0  # atno 6909 bound_to 6896
  146.1730  140.4348  142.8525 H   0  0  0  0  0  0  0  0  0  0  0  0  # atno 7974 bound_to 7965
  156.0067  140.3354  155.6900 H   0  0  0  0  0  0  0  0  0  0  0  0  # atno 8008 bound_to 7997
  155.6214  140.0675  157.2694 H   0  0  0  0  0  0  0  0  0  0  0  0  # atno 8009 bound_to 7997
  154.4267  140.1776  156.1364 H   0  0  0  0  0  0  0  0  0  0  0  0  # atno 8010 bound_to 7997
  139.4821  144.5040  151.8125 H   0  0  0  0  0  0  0  0  0  0  0  0  # atno 10167 bound_to 10162
  156.8878  130.9837  151.3053 H   0  0  0  0  0  0  0  0  0  0  0  0  # atno 10718 bound_to 10713
  154.5962  135.5531  153.7327 H   0  0  0  0  0  0  0  0  0  0  0  0  # atno 10763 bound_to 10752
  153.0136  135.6355  154.1780 H   0  0  0  0  0  0  0  0  0  0  0  0  # atno 10764 bound_to 10752
  154.1720  135.2891  155.3058 H   0  0  0  0  0  0  0  0  0  0  0  0  # atno 10765 bound_to 10752
  140.0477  134.5782  155.9302 H   0  0  0  0  0  0  0  0  0  0  0  0  # atno 11005 bound_to 11000
  144.8192  140.6521  143.6364 LP  0  0  0  0  0  0  0  0  0  0  0  0  # atno 17320 bound_to 7965
  145.4288  139.1552  143.4033 LP  0  0  0  0  0  0  0  0  0  0  0  0  # atno 17321 bound_to 7965
  140.4536  144.1820  150.5899 LP  0  0  0  0  0  0  0  0  0  0  0  0  # atno 17342 bound_to 10162
  140.4559  143.2468  151.9286 LP  0  0  0  0  0  0  0  0  0  0  0  0  # atno 17343 bound_to 10162
  157.6102  130.8577  149.8939 LP  0  0  0  0  0  0  0  0  0  0  0  0  # atno 17370 bound_to 10713
  156.0644  130.3694  150.0911 LP  0  0  0  0  0  0  0  0  0  0  0  0  # atno 17371 bound_to 10713
  141.1915  133.6572  156.5459 LP  0  0  0  0  0  0  0  0  0  0  0  0  # atno 17394 bound_to 11000
  140.3967  134.7392  157.4755 LP  0  0  0  0  0  0  0  0  0  0  0  0  # atno 17395 bound_to 11000

$$$$
