#       Name:                AV-unprocessed.smi:2334
#       Creating user name   scv26
#       Creation time:       Fri Mar 27 12:54:19 2020


#       File generated by GOLD software.
#

@<TRIPOS>MOLECULE
AV-unprocessed.smi:2334
    55    57     1
SMALL
NO_CHARGES


@<TRIPOS>ATOM
      1 ****        -0.5418  -3.2931   0.1301 C.3            1 S1                 0.0000
      2 ****        -1.2404  -1.9492   0.2560 C.ar           1 S1                 0.0000
      3 ****        -2.5914  -1.9809   0.2930 N.pl3          1 S1                 1.0000
      4 ****        -3.3663  -0.8812   0.4028 C.ar           1 S1                 0.0000
      5 ****        -4.7541  -1.0789   0.4234 N.3            1 S1                 0.0000
      6 ****        -5.4553  -0.5350  -0.7273 C.3            1 S1                 0.0000
      7 ****        -6.9306  -0.4719  -0.3213 C.3            1 S1                 0.0000
      8 ****        -6.9218  -0.5153   1.2114 C.3            1 S1                 0.0000
      9 ****        -5.4404  -0.5567   1.5934 C.3            1 S1                 0.0000
     10 ****        -2.7491   0.3866   0.4871 C.ar           1 S1                 0.0000
     11 ****        -1.3434   0.4747   0.4542 C.ar           1 S1                 0.0000
     12 ****        -0.5652  -0.7036   0.3246 C.ar           1 S1                 0.0000
     13 ****         0.8577  -0.6813   0.3103 N.am           1 S1                 0.0000
     14 ****         1.6719   0.3063  -0.1006 C.2            1 S1                 0.0000
     15 ****         1.2928   1.3760  -0.5763 O.2            1 S1                 0.0000
     16 ****         2.9616  -0.0377   0.0597 N.am           1 S1                 0.0000
     17 ****         4.1790   0.7265  -0.2530 C.3            1 S1                 0.0000
     18 ****         5.3566  -0.1827   0.1607 C.3            1 S1                 0.0000
     19 ****         4.2547   1.0484  -1.7678 C.3            1 S1                 0.0000
     20 ****         5.3817   2.0442  -2.0975 C.3            1 S1                 0.0000
     21 ****         5.2327   3.2261  -1.3207 O.3            1 S1                 0.0000
     22 ****         5.3478   2.9867   0.0765 C.3            1 S1                 0.0000
     23 ****         4.2183   2.0533   0.5482 C.3            1 S1                 0.0000
     24 ****         0.5439  -3.2113   0.1014 H              1 S1                 0.0000
     25 ****        -0.8607  -3.7935  -0.7847 H              1 S1                 0.0000
     26 ****        -0.8055  -3.9319   0.9735 H              1 S1                 0.0000
     27 ****        -5.0866   0.4646  -0.9618 H              1 S1                 0.0000
     28 ****        -5.3091  -1.1621  -1.6073 H              1 S1                 0.0000
     29 ****        -7.4119   0.4274  -0.7070 H              1 S1                 0.0000
     30 ****        -7.4722  -1.3329  -0.7149 H              1 S1                 0.0000
     31 ****        -7.4295   0.3415   1.6556 H              1 S1                 0.0000
     32 ****        -7.4268  -1.4175   1.5588 H              1 S1                 0.0000
     33 ****        -5.2692  -1.1896   2.4648 H              1 S1                 0.0000
     34 ****        -5.0892   0.4475   1.8329 H              1 S1                 0.0000
     35 ****        -3.3387   1.2869   0.5784 H              1 S1                 0.0000
     36 ****        -0.8875   1.4487   0.5435 H              1 S1                 0.0000
     37 ****         1.3077  -1.5427   0.5834 H              1 S1                 0.0000
     38 ****         3.1296  -0.9508   0.4561 H              1 S1                 0.0000
     39 ****         6.3262   0.2770  -0.0258 H              1 S1                 0.0000
     40 ****         5.3392  -1.1261  -0.3864 H              1 S1                 0.0000
     41 ****         5.3156  -0.4232   1.2238 H              1 S1                 0.0000
     42 ****         4.3829   0.1336  -2.3476 H              1 S1                 0.0000
     43 ****         3.3224   1.4934  -2.1138 H              1 S1                 0.0000
     44 ****         6.3657   1.6050  -1.9304 H              1 S1                 0.0000
     45 ****         5.3385   2.3149  -3.1525 H              1 S1                 0.0000
     46 ****         6.3307   2.5754   0.3086 H              1 S1                 0.0000
     47 ****         5.2801   3.9414   0.5985 H              1 S1                 0.0000
     48 ****         3.2831   2.6002   0.4342 H              1 S1                 0.0000
     49 ****         4.3197   1.8530   1.6154 H              1 S1                 0.0000
     50 ****        -3.0521  -2.8894   0.2357 H              1 S1                 0.0000
     51 ****        -4.7943  -2.0781   0.4252 LP             1 S1                 0.0000
     52 ****         0.3151   1.5587  -0.6797 LP             1 S1                 0.0000
     53 ****         1.9624   2.0626  -0.8594 LP             1 S1                 0.0000
     54 ****         4.3309   3.6174  -1.5044 LP             1 S1                 0.0000
     55 ****         5.9406   3.8781  -1.5923 LP             1 S1                 0.0000
@<TRIPOS>BOND
    1    1    2 1     
    2    1   24 1     
    3    1   25 1     
    4    1   26 1     
    5    2   12 ar    
    6    2    3 ar    
    7    3    4 ar    
    8    3   50 1     
    9    4    5 1     
   10    4   10 ar    
   11    5    9 1     
   12    5    6 1     
   13    6    7 1     
   14    6   27 1     
   15    6   28 1     
   16    7    8 1     
   17    7   29 1     
   18    7   30 1     
   19    8    9 1     
   20    8   31 1     
   21    8   32 1     
   22    9   33 1     
   23    9   34 1     
   24   10   11 ar    
   25   10   35 1     
   26   11   12 ar    
   27   11   36 1     
   28   12   13 1     
   29   13   14 am    
   30   13   37 1     
   31   14   15 2     
   32   14   16 am    
   33   16   17 1     
   34   16   38 1     
   35   17   23 1     
   36   17   18 1     
   37   17   19 1     
   38   18   39 1     
   39   18   40 1     
   40   18   41 1     
   41   19   20 1     
   42   19   42 1     
   43   19   43 1     
   44   20   21 1     
   45   20   44 1     
   46   20   45 1     
   47   21   22 1     
   48   22   23 1     
   49   22   46 1     
   50   22   47 1     
   51   23   48 1     
   52   23   49 1     
   53    5   51 1     
   54   15   52 1     
   55   15   53 1     
   56   21   54 1     
   57   21   55 1     
@<TRIPOS>SUBSTRUCTURE
      1 S1             1
@<TRIPOS>SET
LONE_PAIRS      STATIC     ATOMS    <user>   **** ""
5 51 52 53 54 55
DONOR_HYDROGENS      STATIC     ATOMS    <user>   **** ""
3 50 37 38
ATOM$BLUE        STATIC     ATOMS    COLORGROUP SYSTEM
5 51 52 53 54 55
ATOM$RED        STATIC     ATOMS    COLORGROUP SYSTEM
3 50 37 38
