#       Name:                AV-unprocessed.smi:3250
#       Creating user name   scv26
#       Creation time:       Fri Mar 27 18:32:03 2020


#       File generated by GOLD software.
#

@<TRIPOS>MOLECULE
AV-unprocessed.smi:3250
    45    46     1
SMALL
NO_CHARGES


@<TRIPOS>ATOM
      1 ****        -4.2337   1.9798  -1.8959 C.3            1 S1                 0.0000
      2 ****        -3.6688   2.5528  -0.5887 C.3            1 S1                 0.0000
      3 ****        -2.1880   2.4725  -0.5244 N.4            1 S1                 1.0000
      4 ****        -1.6179   3.4031   0.4779 C.3            1 S1                 0.0000
      5 ****        -0.0835   3.3208   0.4766 C.3            1 S1                 0.0000
      6 ****         0.3192   1.9796   0.7243 O.3            1 S1                 0.0000
      7 ****        -0.1344   1.0814  -0.2835 C.3            1 S1                 0.0000
      8 ****         0.4133  -0.3153   0.0443 C.3            1 S1                 0.0000
      9 ****         1.8540  -0.3911  -0.1485 N.pl3          1 S1                 0.0000
     10 ****         2.6107  -1.5105   0.1442 C.ar           1 S1                 0.0000
     11 ****         3.9312  -1.4448  -0.0818 N.pl3          1 S1                 1.0000
     12 ****         4.7149  -2.5179   0.1879 C.ar           1 S1                 0.0000
     13 ****         4.1506  -3.6979   0.7049 C.ar           1 S1                 0.0000
     14 ****         2.7629  -3.6982   0.9211 C.ar           1 S1                 0.0000
     15 ****         2.1546  -4.8258   1.4329 O.3            1 S1                 0.0000
     16 ****         0.7497  -4.7910   1.6608 C.3            1 S1                 0.0000
     17 ****         2.0144  -2.6063   0.6354 N.ar           1 S1                 0.0000
     18 ****        -1.6767   1.0969  -0.3002 C.3            1 S1                 0.0000
     19 ****        -5.3114   2.1367  -1.9476 H              1 S1                 0.0000
     20 ****        -4.0600   0.9076  -1.9828 H              1 S1                 0.0000
     21 ****        -3.7889   2.4665  -2.7643 H              1 S1                 0.0000
     22 ****        -3.9710   3.5992  -0.5263 H              1 S1                 0.0000
     23 ****        -4.1104   2.0518   0.2740 H              1 S1                 0.0000
     24 ****        -1.9291   4.4246   0.2564 H              1 S1                 0.0000
     25 ****        -2.0051   3.1571   1.4681 H              1 S1                 0.0000
     26 ****         0.3266   3.6689  -0.4726 H              1 S1                 0.0000
     27 ****         0.3272   3.9629   1.2559 H              1 S1                 0.0000
     28 ****         0.2419   1.3982  -1.2584 H              1 S1                 0.0000
     29 ****         0.1624  -0.5862   1.0707 H              1 S1                 0.0000
     30 ****        -0.0537  -1.0563  -0.6054 H              1 S1                 0.0000
     31 ****         2.3298   0.4062  -0.5451 H              1 S1                 0.0000
     32 ****         5.7684  -2.3960  -0.0179 H              1 S1                 0.0000
     33 ****         4.7568  -4.5640   0.9279 H              1 S1                 0.0000
     34 ****         0.4261  -5.7493   2.0668 H              1 S1                 0.0000
     35 ****         0.1988  -4.6217   0.7344 H              1 S1                 0.0000
     36 ****         0.4819  -4.0185   2.3832 H              1 S1                 0.0000
     37 ****        -2.0674   0.7132   0.6439 H              1 S1                 0.0000
     38 ****        -2.0330   0.4315  -1.0862 H              1 S1                 0.0000
     39 ****        -1.8434   2.7780  -1.4236 H              1 S1                 0.0000
     40 ****         4.3581  -0.5968  -0.4554 H              1 S1                 0.0000
     41 ****        -0.0549   1.6894   1.6051 LP             1 S1                 0.0000
     42 ****         1.3180   1.9455   0.7589 LP             1 S1                 0.0000
     43 ****         2.5918  -5.0258   2.3097 LP             1 S1                 0.0000
     44 ****         2.3323  -5.5740   0.7936 LP             1 S1                 0.0000
     45 ****         1.0264  -2.6173   0.7893 LP             1 S1                 0.0000
@<TRIPOS>BOND
    1    1    2 1     
    2    1   19 1     
    3    1   20 1     
    4    1   21 1     
    5    2    3 1     
    6    2   22 1     
    7    2   23 1     
    8    3   18 1     
    9    3    4 1     
   10    3   39 1     
   11    4    5 1     
   12    4   24 1     
   13    4   25 1     
   14    5    6 1     
   15    5   26 1     
   16    5   27 1     
   17    6    7 1     
   18    7    8 1     
   19    7   18 1     
   20    7   28 1     
   21    8    9 1     
   22    8   29 1     
   23    8   30 1     
   24    9   10 1     
   25    9   31 1     
   26   10   17 ar    
   27   10   11 ar    
   28   11   12 ar    
   29   11   40 1     
   30   12   13 ar    
   31   12   32 1     
   32   13   14 ar    
   33   13   33 1     
   34   14   15 1     
   35   14   17 ar    
   36   15   16 1     
   37   16   34 1     
   38   16   35 1     
   39   16   36 1     
   40   18   37 1     
   41   18   38 1     
   42    6   41 1     
   43    6   42 1     
   44   15   43 1     
   45   15   44 1     
   46   17   45 1     
@<TRIPOS>SUBSTRUCTURE
      1 S1             1
@<TRIPOS>SET
LONE_PAIRS      STATIC     ATOMS    <user>   **** ""
5 41 42 43 44 45
DONOR_HYDROGENS      STATIC     ATOMS    <user>   **** ""
3 39 31 40
ATOM$BLUE        STATIC     ATOMS    COLORGROUP SYSTEM
5 41 42 43 44 45
ATOM$RED        STATIC     ATOMS    COLORGROUP SYSTEM
3 39 31 40
