#       Name:                AV-unprocessed.smi:558
#       Creating user name   scv26
#       Creation time:       Thu Mar 26 23:41:35 2020


#       File generated by GOLD software.
#

@<TRIPOS>MOLECULE
AV-unprocessed.smi:558
    41    42     1
SMALL
NO_CHARGES


@<TRIPOS>ATOM
      1 ****        -5.0693   2.3659   1.4091 C.3            1 S1                 0.0000
      2 ****        -3.9660   1.3503   1.4486 C.2            1 S1                 0.0000
      3 ****        -4.0684  -0.0673   1.3849 C.2            1 S1                 0.0000
      4 ****        -2.7757  -0.5036   1.4614 C.2            1 S1                 0.0000
      5 ****        -2.2316  -1.8948   1.4445 C.3            1 S1                 0.0000
      6 ****        -1.9769   0.6231   1.5625 N.pl3          1 S1                 0.0000
      7 ****        -0.5293   0.7221   1.6676 C.3            1 S1                 0.0000
      8 ****         0.1321   0.6967   0.2883 C.2            1 S1                 0.0000
      9 ****         0.2088   1.7295  -0.3764 O.2            1 S1                 0.0000
     10 ****         0.6069  -0.4883  -0.1259 N.am           1 S1                 0.0000
     11 ****         1.2676  -0.7395  -1.4024 C.3            1 S1                 0.0000
     12 ****         2.8008  -0.7354  -1.2615 C.3            1 S1                 0.0000
     13 ****         3.5345  -1.0548  -2.5477 C.3            1 S1                 0.0000
     14 ****         4.9398  -0.5434  -2.2451 C.3            1 S1                 0.0000
     15 ****         4.7713   0.5533  -1.3512 O.3            1 S1                 0.0000
     16 ****         3.4194   0.6181  -0.9064 C.3            1 S1                 0.0000
     17 ****        -2.7121   1.7567   1.5552 N.2            1 S1                 0.0000
     18 ****        -6.0471   1.8847   1.3808 H              1 S1                 0.0000
     19 ****        -4.9864   3.0006   0.5266 H              1 S1                 0.0000
     20 ****        -5.0424   3.0101   2.2882 H              1 S1                 0.0000
     21 ****        -4.9581  -0.6731   1.2961 H              1 S1                 0.0000
     22 ****        -3.0347  -2.6262   1.5354 H              1 S1                 0.0000
     23 ****        -1.5395  -2.0582   2.2705 H              1 S1                 0.0000
     24 ****        -1.7040  -2.0934   0.5117 H              1 S1                 0.0000
     25 ****        -0.2674   1.6498   2.1793 H              1 S1                 0.0000
     26 ****        -0.1572  -0.0932   2.2889 H              1 S1                 0.0000
     27 ****         0.4984  -1.2803   0.4907 H              1 S1                 0.0000
     28 ****         0.9380  -1.7166  -1.7563 H              1 S1                 0.0000
     29 ****         0.9469  -0.0195  -2.1573 H              1 S1                 0.0000
     30 ****         3.0977  -1.4653  -0.5063 H              1 S1                 0.0000
     31 ****         3.5149  -2.1150  -2.8015 H              1 S1                 0.0000
     32 ****         3.1052  -0.4959  -3.3806 H              1 S1                 0.0000
     33 ****         5.5238  -1.3142  -1.7408 H              1 S1                 0.0000
     34 ****         5.4777  -0.2461  -3.1456 H              1 S1                 0.0000
     35 ****         2.9198   1.4247  -1.4449 H              1 S1                 0.0000
     36 ****         3.3623   0.8384   0.1599 H              1 S1                 0.0000
     37 ****        -0.1612   2.5854  -0.0150 LP             1 S1                 0.0000
     38 ****         0.6411   1.7129  -1.2780 LP             1 S1                 0.0000
     39 ****         5.0056   1.4035  -1.8227 LP             1 S1                 0.0000
     40 ****         5.3738   0.4327  -0.5623 LP             1 S1                 0.0000
     41 ****        -2.3803   2.6980   1.6170 LP             1 S1                 0.0000
@<TRIPOS>BOND
    1    1    2 1     
    2    1   18 1     
    3    1   19 1     
    4    1   20 1     
    5    2   17 2     
    6    2    3 1     
    7    3    4 2     
    8    3   21 1     
    9    4    5 1     
   10    4    6 1     
   11    5   22 1     
   12    5   23 1     
   13    5   24 1     
   14    6    7 1     
   15    6   17 1     
   16    7    8 1     
   17    7   25 1     
   18    7   26 1     
   19    8    9 2     
   20    8   10 am    
   21   10   11 1     
   22   10   27 1     
   23   11   12 1     
   24   11   28 1     
   25   11   29 1     
   26   12   16 1     
   27   12   13 1     
   28   12   30 1     
   29   13   14 1     
   30   13   31 1     
   31   13   32 1     
   32   14   15 1     
   33   14   33 1     
   34   14   34 1     
   35   15   16 1     
   36   16   35 1     
   37   16   36 1     
   38    9   37 1     
   39    9   38 1     
   40   15   39 1     
   41   15   40 1     
   42   17   41 1     
@<TRIPOS>SUBSTRUCTURE
      1 S1             1
@<TRIPOS>SET
LONE_PAIRS      STATIC     ATOMS    <user>   **** ""
5 37 38 39 40 41
DONOR_HYDROGENS      STATIC     ATOMS    <user>   **** ""
1 27
ATOM$BLUE        STATIC     ATOMS    COLORGROUP SYSTEM
5 37 38 39 40 41
ATOM$RED        STATIC     ATOMS    COLORGROUP SYSTEM
1 27
