AV-unprocessed.smi:36|AV-procd|sdf|286|dock6
  -GOLD-   2262016 63D 1   1.00000     0.00000
 Structure written by MMmdl.
 64 67  0  0  0  0  0  0  0  0  1 V2000
  151.9061  127.9241  153.9386 C   0  0  0  0  0  0  0  0  0  0  0  0
  151.7260  129.2514  154.6940 C   0  0  0  0  0  0  0  0  0  0  0  0
  151.1856  130.3284  153.7382 C   0  0  0  0  0  0  0  0  0  0  0  0
  150.7461  129.0592  155.8633 C   0  0  0  0  0  0  0  0  0  0  0  0
  153.4133  129.8233  155.3836 Si  0  0  0  0  0  0  0  0  0  0  0  0
  154.0507  128.6344  156.7213 C   0  0  0  0  0  0  0  0  0  0  0  0
  154.7023  129.9798  153.9961 C   0  0  0  0  0  0  0  0  0  0  0  0
  153.1965  131.3463  156.0871 O   0  0  0  0  0  0  0  0  0  0  0  0
  152.1910  131.6283  157.0376 C   0  0  0  0  0  0  0  0  0  0  0  0
  151.5020  132.9496  156.6754 C   0  0  1  0  0  0  0  0  0  0  0  0
  152.4850  133.9609  156.4698 O   0  0  0  0  0  0  0  0  0  0  0  0
  152.0760  134.8346  155.4592 C   0  0  2  0  0  0  0  0  0  0  0  0
  152.0124  136.2105  156.0320 N   0  0  0  0  0  0  0  0  0  0  0  0
  152.2945  136.6208  157.3170 C   0  0  0  0  0  0  0  0  0  0  0  0
  152.1610  137.9019  157.5353 N   0  0  0  0  0  0  0  0  0  0  0  0
  151.7523  138.4116  156.3090 C   0  0  0  0  0  0  0  0  0  0  0  0
  151.4340  139.7131  155.8408 C   0  0  0  0  0  0  0  0  0  0  0  0
  151.5177  140.7752  156.6761 N   0  0  0  0  0  0  0  0  0  0  0  0
  152.5072  141.0294  157.7083 C   0  0  0  0  0  0  0  0  0  0  0  0
  153.4881  140.3027  157.8689 O   0  0  0  0  0  0  0  0  0  0  0  0
  152.3124  142.2810  158.5137 C   0  0  0  0  0  0  0  0  0  0  0  0
  153.0050  142.4516  159.7337 C   0  0  0  0  0  0  0  0  0  0  0  0
  152.8107  143.6123  160.5075 C   0  0  0  0  0  0  0  0  0  0  0  0
  151.9164  144.6086  160.0722 C   0  0  0  0  0  0  0  0  0  0  0  0
  151.2150  144.4425  158.8631 C   0  0  0  0  0  0  0  0  0  0  0  0
  151.4085  143.2823  158.0882 C   0  0  0  0  0  0  0  0  0  0  0  0
  151.0597  139.8354  154.5397 N   0  0  0  0  0  0  0  0  0  0  0  0
  151.0004  138.7574  153.7519 C   0  0  0  0  0  0  0  0  0  0  0  0
  151.2727  137.4863  154.0552 N   0  0  0  0  0  0  0  0  0  0  0  0
  151.6511  137.3571  155.3596 C   0  0  0  0  0  0  0  0  0  0  0  0
  150.6891  134.3853  154.9991 C   0  0  0  0  0  0  0  0  0  0  0  0
  150.7219  132.9158  155.3587 C   0  0  2  0  0  0  0  0  0  0  0  0
  149.4141  132.4055  155.5185 O   0  0  0  0  0  0  0  0  0  0  0  0
  150.9592  127.5689  153.5307 H   0  0  0  0  0  0  0  0  0  0  0  0
  152.2945  127.1437  154.5934 H   0  0  0  0  0  0  0  0  0  0  0  0
  152.6018  128.0316  153.1060 H   0  0  0  0  0  0  0  0  0  0  0  0
  151.8559  130.4828  152.8924 H   0  0  0  0  0  0  0  0  0  0  0  0
  151.0702  131.2864  154.2461 H   0  0  0  0  0  0  0  0  0  0  0  0
  150.2110  130.0489  153.3364 H   0  0  0  0  0  0  0  0  0  0  0  0
  149.7623  128.7493  155.5091 H   0  0  0  0  0  0  0  0  0  0  0  0
  150.6167  129.9832  156.4279 H   0  0  0  0  0  0  0  0  0  0  0  0
  151.0995  128.2964  156.5574 H   0  0  0  0  0  0  0  0  0  0  0  0
  154.1813  127.6252  156.3315 H   0  0  0  0  0  0  0  0  0  0  0  0
  153.3615  128.5720  157.5631 H   0  0  0  0  0  0  0  0  0  0  0  0
  155.0145  128.9560  157.1152 H   0  0  0  0  0  0  0  0  0  0  0  0
  154.8604  129.0291  153.4872 H   0  0  0  0  0  0  0  0  0  0  0  0
  155.6685  130.3029  154.3829 H   0  0  0  0  0  0  0  0  0  0  0  0
  154.3955  130.7051  153.2433 H   0  0  0  0  0  0  0  0  0  0  0  0
  151.4644  130.8152  157.0431 H   0  0  0  0  0  0  0  0  0  0  0  0
  152.6281  131.6823  158.0351 H   0  0  0  0  0  0  0  0  0  0  0  0
  150.8539  133.2780  157.4903 H   0  0  0  0  0  0  0  0  0  0  0  0
  152.8195  134.8676  154.6622 H   0  0  0  0  0  0  0  0  0  0  0  0
  152.6071  135.9351  158.0913 H   0  0  0  0  0  0  0  0  0  0  0  0
  150.7831  141.4621  156.5906 H   0  0  0  0  0  0  0  0  0  0  0  0
  153.6924  141.6945  160.0833 H   0  0  0  0  0  0  0  0  0  0  0  0
  153.3464  143.7370  161.4370 H   0  0  0  0  0  0  0  0  0  0  0  0
  151.7659  145.4974  160.6671 H   0  0  0  0  0  0  0  0  0  0  0  0
  150.5243  145.2040  158.5312 H   0  0  0  0  0  0  0  0  0  0  0  0
  150.8514  143.1701  157.1694 H   0  0  0  0  0  0  0  0  0  0  0  0
  150.6913  138.9402  152.7332 H   0  0  0  0  0  0  0  0  0  0  0  0
  149.9200  134.9084  155.5712 H   0  0  0  0  0  0  0  0  0  0  0  0
  150.5403  134.5806  153.9369 H   0  0  0  0  0  0  0  0  0  0  0  0
  151.2621  132.3501  154.5981 H   0  0  0  0  0  0  0  0  0  0  0  0
  149.3615  131.5740  155.0715 H   0  0  0  0  0  0  0  0  0  0  0  0
  1  2  1  0  0  0  0
  1 34  1  0  0  0  0
  1 35  1  0  0  0  0
  1 36  1  0  0  0  0
  2  3  1  0  0  0  0
  2  4  1  0  0  0  0
  2  5  1  0  0  0  0
  3 37  1  0  0  0  0
  3 38  1  0  0  0  0
  3 39  1  0  0  0  0
  4 40  1  0  0  0  0
  4 41  1  0  0  0  0
  4 42  1  0  0  0  0
  5  6  1  0  0  0  0
  5  7  1  0  0  0  0
  5  8  1  0  0  0  0
  6 43  1  0  0  0  0
  6 44  1  0  0  0  0
  6 45  1  0  0  0  0
  7 46  1  0  0  0  0
  7 47  1  0  0  0  0
  7 48  1  0  0  0  0
  8  9  1  0  0  0  0
  9 10  1  0  0  0  0
  9 49  1  0  0  0  0
  9 50  1  0  0  0  0
 10 32  1  0  0  0  0
 10 11  1  0  0  0  0
 10 51  1  0  0  0  0
 11 12  1  0  0  0  0
 12 13  1  0  0  0  0
 12 31  1  0  0  0  0
 12 52  1  0  0  0  0
 13 30  1  0  0  0  0
 13 14  1  0  0  0  0
 14 15  2  0  0  0  0
 14 53  1  0  0  0  0
 15 16  1  0  0  0  0
 16 30  2  0  0  0  0
 16 17  1  0  0  0  0
 17 18  1  0  0  0  0
 17 27  2  0  0  0  0
 18 19  1  0  0  0  0
 18 54  1  0  0  0  0
 19 20  2  0  0  0  0
 19 21  1  0  0  0  0
 21 26  1  0  0  0  0
 21 22  2  0  0  0  0
 22 23  1  0  0  0  0
 22 55  1  0  0  0  0
 23 24  2  0  0  0  0
 23 56  1  0  0  0  0
 24 25  1  0  0  0  0
 24 57  1  0  0  0  0
 25 26  2  0  0  0  0
 25 58  1  0  0  0  0
 26 59  1  0  0  0  0
 27 28  1  0  0  0  0
 28 29  2  0  0  0  0
 28 60  1  0  0  0  0
 29 30  1  0  0  0  0
 31 32  1  0  0  0  0
 31 61  1  0  0  0  0
 31 62  1  0  0  0  0
 32 33  1  0  0  0  0
 32 63  1  0  0  0  0
 33 64  1  0  0  0  0
M  END
> <s_m_source_file>
AV-unprocessed.smi

> <i_m_source_file_index>
36

> <i_lp_mmshare_version>
43012

> <i_f3d_flags>
0

> <s_epik_input>
W0NIM11DKFtDSDNdKShbQ0gzXSlbU2ldKFtDSDNdKShbQ0gzXSlPW0NIMl1bQ0BASF0xT1tDQEhdKFtDSDJdW0NASF0xW09IXSluKFtjSF1uMiljKGMyMyluW2NIXW5jM1tOSF1DKD1PKWM0W2NIXVtjSF1bY0hdW2NIXVtjSF00

> <s_epik_cmdline>
J2VwaWtfcHl0aG9uJywgJy1waCcsICc3LjAnLCAnLXRuJywgJzgnLCAnLW1hJywgJzIwMCcsICctbWV0YWxfYmluZGluZycsICctaW1hZScsICc8aW5maWxlLm1hZT4nLCAnLW9tYWUnLCAnPG91dGZpbGUubWFlPic=

> <r_lp_tautomer_probability>
1

> <r_epik_Ionization_Penalty>
0.00150433

> <r_epik_Ionization_Penalty_Charging>
0

> <r_epik_Ionization_Penalty_Neutral>
0.00150433

> <r_epik_State_Penalty>
0.00724046

> <r_epik_Charging_Adjusted_Penalty>
0.00724046

> <i_epik_Tot_Q>
0

> <i_epik_Tot_abs_Q>
0

> <r_epik_Metal_State_Penalty>
0.323355

> <b_epik_Metal_Only>
0

> <s_epik_Chemistry_Notes>
This compound contains an acetal/aminal-like group ( X-CH(R)-Y where X, Y are N, S, or O) that may be acid/base labile, releasing an aldehyde.

> <s_lp_Force_Field>
OPLS_2005

> <r_lp_Energy>
35.7954

> <b_lp_Chiralities_Consistent>
1

> <s_lp_Variant>
AV-unprocessed.smi:36-8

> <Gold.Version>
5.8.1

> <Gold.Id.Protein>
6NUR|6NUR_protein|mol2

> <Gold.PLP.Fitness>
54.4155

> <Gold.PLP.PLP>
-46.8121

> <Gold.PLP.part.hbond>
-2.7266

> <Gold.PLP.part.metal>
0.0000

> <Gold.PLP.part.buried>
-6.3601

> <Gold.PLP.part.nonpolar>
-38.9684

> <Gold.PLP.part.repulsive>
0.5802

> <Gold.PLP.ligand.clash>
0.0000

> <Gold.PLP.ligand.torsion>
0.8808

> <Gold.PLP.Chemscore.Hbond>
2.0000

> <Gold.PLP.Chemscore.CHOScore>
0.9877

> <Gold.PLP.Chemscore.Metal>
0.0000

> <Gold.Chemscore.Hbonds>
donor molecule, donor type, donor heavy atom, donor atom, acceptor molecule, acceptor atom, score
      P1  H  7989  7998       L1    27  0.95
      P1  H  7997  8010       L1    20  0.58
      L1  C    28    60       P1  7957  0.90

> <Gold.PLP.Chemscore.Internal.Correction>
0.4020

> <Gold.Rescore>
     Score         DG    S(hbond)    S(metal)    S(lipo)     H(rot)  DE(clash)    DE(int)     intcor
     14.30     -16.38       1.73        0.00     103.06       2.70       0.37       1.72       ----

> <Gold.Chemscore.Fitness>
14.2996

> <Gold.Chemscore.DG>
-16.3823

> <Gold.Chemscore.ZeroCoef>
-5.4800

> <Gold.Chemscore.Hbond>
1.7267

> <Gold.Chemscore.Metal>
0.0000

> <Gold.Chemscore.Lipo>
103.0578

> <Gold.Chemscore.Internal_Hbond>
0.0000

> <Gold.Chemscore.DEClash>
0.3663

> <Gold.Chemscore.DEInternal>
1.7164

> <Gold.Chemscore.Rot>
2.7041

> <Gold.Chemscore.Internal.Correction>
   9.000000E+99

> <Gold.Chemscore.Hbonds>
donor molecule, donor type, donor heavy atom, donor atom, acceptor molecule, acceptor atom, score
      P1  H  7989  7998       L1    27  0.21
      P1  H  7997  8010       L1    20  0.58

> <Gold.Chemscore.Hbond.Weighted>
-5.7670

> <Gold.Chemscore.Metal.Weighted>
-0.0000

> <Gold.Chemscore.Lipo.Weighted>
-12.0578

> <Gold.Chemscore.Internal_Hbond.Weighted>
0.0000

> <Gold.Chemscore.DEClash.Weighted>
0.3663

> <Gold.Chemscore.DEInternal.Weighted>
1.7164

> <Gold.Chemscore.Rot.Weighted>
6.9225

> <Gold.Chemscore.Internal.Correction.Weighted>
   9.000000E+99

> <Gold.Protein.RotatedTorsions>
[ 6907 6896 6895 6894 ] final -157.60 input  -60.11 | X-H torsion
[ 7974 7965 7964 7962 ] final  -13.79 input  175.53 | X-H torsion
[ 8008 7997 7996 7995 ] final   34.86 input   59.86 | X-H torsion
[ 10167 10162 10161 10158 ] final -103.70 input  -65.29 | X-H torsion
[ 10718 10713 10712 10709 ] final   14.36 input   66.30 | X-H torsion
[ 10763 10752 10751 10750 ] final   55.96 input  -60.55 | X-H torsion
[ 11005 11000 10999 10996 ] final  147.73 input  -57.11 | X-H torsion

> <Gold.Protein.ActiveResidues>
 VAL166  LYS551  ARG553  GLY616  TRP617  ASP618  TYR619  PRO620  LYS621  CYS622 
 ASP623  PHE694  ASN695  SER759  ASP760  ASP761  ALA762  ILE779  LEU786  VAL792 
 PHE793  MET794  SER795  GLU796  ALA797  LYS798  CYS799  TRP800  GLU811  SER814 

> <Gold.Protein.RotatedAtoms>
  151.3054  133.4104  159.2642 H   0  0  0  0  0  0  0  0  0  0  0  0  # atno 6907 bound_to 6896
  151.0160  134.9433  159.8044 H   0  0  0  0  0  0  0  0  0  0  0  0  # atno 6908 bound_to 6896
  152.5312  134.3017  159.9133 H   0  0  0  0  0  0  0  0  0  0  0  0  # atno 6909 bound_to 6896
  146.2100  140.3255  142.8394 H   0  0  0  0  0  0  0  0  0  0  0  0  # atno 7974 bound_to 7965
  155.1617  140.3284  155.4410 H   0  0  0  0  0  0  0  0  0  0  0  0  # atno 8008 bound_to 7997
  156.2540  140.1959  156.6674 H   0  0  0  0  0  0  0  0  0  0  0  0  # atno 8009 bound_to 7997
  154.6400  140.0571  156.9821 H   0  0  0  0  0  0  0  0  0  0  0  0  # atno 8010 bound_to 7997
  140.2172  143.3702  152.1000 H   0  0  0  0  0  0  0  0  0  0  0  0  # atno 10167 bound_to 10162
  157.0379  130.6219  149.5746 H   0  0  0  0  0  0  0  0  0  0  0  0  # atno 10718 bound_to 10713
  152.9824  135.5692  154.5152 H   0  0  0  0  0  0  0  0  0  0  0  0  # atno 10763 bound_to 10752
  154.4649  135.2783  155.1687 H   0  0  0  0  0  0  0  0  0  0  0  0  # atno 10764 bound_to 10752
  154.3260  135.6259  153.5582 H   0  0  0  0  0  0  0  0  0  0  0  0  # atno 10765 bound_to 10752
  140.0900  134.9046  157.1636 H   0  0  0  0  0  0  0  0  0  0  0  0  # atno 11005 bound_to 11000
  144.8889  140.7498  143.5939 LP  0  0  0  0  0  0  0  0  0  0  0  0  # atno 17320 bound_to 7965
  145.3177  139.1798  143.4604 LP  0  0  0  0  0  0  0  0  0  0  0  0  # atno 17321 bound_to 7965
  139.5157  144.6967  151.5609 LP  0  0  0  0  0  0  0  0  0  0  0  0  # atno 17342 bound_to 10162
  140.6281  143.9129  150.6582 LP  0  0  0  0  0  0  0  0  0  0  0  0  # atno 17343 bound_to 10162
  156.0047  130.5132  150.7790 LP  0  0  0  0  0  0  0  0  0  0  0  0  # atno 17370 bound_to 10713
  157.5127  131.0926  151.0178 LP  0  0  0  0  0  0  0  0  0  0  0  0  # atno 17371 bound_to 10713
  140.3365  134.2751  155.7219 LP  0  0  0  0  0  0  0  0  0  0  0  0  # atno 17394 bound_to 11000
  141.2075  133.7804  157.0116 LP  0  0  0  0  0  0  0  0  0  0  0  0  # atno 17395 bound_to 11000

$$$$
