AV-unprocessed.smi:1826|AV-procd|sdf|7416|dock4
  -GOLD-   22720 9 93D 1   1.00000     0.00000
 Structure written by MMmdl.
 39 41  0  0  0  0  0  0  0  0  1 V2000
  149.3021  141.0053  153.1834 O   0  0  0  0  0  0  0  0  0  0  0  0
  148.5289  140.6004  154.2930 C   0  0  0  0  0  0  0  0  0  0  0  0
  148.7139  139.1523  154.6287 C   0  0  0  0  0  0  0  0  0  0  0  0
  147.6765  138.3355  154.8180 N   0  0  0  0  0  0  0  0  0  0  0  0
  148.2867  137.1296  155.1026 C   0  0  0  0  0  0  0  0  0  0  0  0
  147.7294  135.8648  155.3981 C   0  0  0  0  0  0  0  0  0  0  0  0
  148.5659  134.7598  155.6596 C   0  0  0  0  0  0  0  0  0  0  0  0
  149.9683  134.9032  155.6300 C   0  0  0  0  0  0  0  0  0  0  0  0
  150.5441  136.1546  155.3380 C   0  0  0  0  0  0  0  0  0  0  0  0
  149.7046  137.2539  155.0771 C   0  0  0  0  0  0  0  0  0  0  0  0
  149.9411  138.5878  154.7621 N   0  0  0  0  0  0  0  0  0  0  0  0
  151.2501  139.2115  154.6183 C   0  0  0  0  0  0  0  0  0  0  0  0
  152.1025  139.1019  155.8985 C   0  0  1  0  0  0  0  0  0  0  0  0
  153.4385  138.7770  155.5659 O   0  0  0  0  0  0  0  0  0  0  0  0
  152.0118  140.3693  156.7339 C   0  0  0  0  0  0  0  0  0  0  0  0
  151.2679  141.4724  156.2650 C   0  0  0  0  0  0  0  0  0  0  0  0
  151.1845  142.6503  157.0325 C   0  0  0  0  0  0  0  0  0  0  0  0
  151.8430  142.7413  158.2770 C   0  0  0  0  0  0  0  0  0  0  0  0
  151.7428  144.0248  159.0883 C   0  0  0  0  0  0  0  0  0  0  0  0
  152.3679  143.9206  160.2615 F   0  0  0  0  0  0  0  0  0  0  0  0
  152.2925  145.0248  158.4002 F   0  0  0  0  0  0  0  0  0  0  0  0
  150.4625  144.3156  159.3195 F   0  0  0  0  0  0  0  0  0  0  0  0
  152.5944  141.6395  158.7420 C   0  0  0  0  0  0  0  0  0  0  0  0
  152.6779  140.4613  157.9750 C   0  0  0  0  0  0  0  0  0  0  0  0
  149.2712  140.3218  152.5319 H   0  0  0  0  0  0  0  0  0  0  0  0
  148.8101  141.2084  155.1536 H   0  0  0  0  0  0  0  0  0  0  0  0
  147.4765  140.8047  154.0972 H   0  0  0  0  0  0  0  0  0  0  0  0
  146.6565  135.7449  155.4235 H   0  0  0  0  0  0  0  0  0  0  0  0
  148.1294  133.7978  155.8845 H   0  0  0  0  0  0  0  0  0  0  0  0
  150.6018  134.0518  155.8320 H   0  0  0  0  0  0  0  0  0  0  0  0
  151.6176  136.2683  155.3145 H   0  0  0  0  0  0  0  0  0  0  0  0
  151.7740  138.7766  153.7676 H   0  0  0  0  0  0  0  0  0  0  0  0
  151.0930  140.2616  154.3686 H   0  0  0  0  0  0  0  0  0  0  0  0
  151.7255  138.2729  156.4989 H   0  0  0  0  0  0  0  0  0  0  0  0
  153.6167  137.8993  155.8677 H   0  0  0  0  0  0  0  0  0  0  0  0
  150.7586  141.4209  155.3139 H   0  0  0  0  0  0  0  0  0  0  0  0
  150.6130  143.4891  156.6630 H   0  0  0  0  0  0  0  0  0  0  0  0
  153.1136  141.6886  159.6874 H   0  0  0  0  0  0  0  0  0  0  0  0
  153.2587  139.6277  158.3421 H   0  0  0  0  0  0  0  0  0  0  0  0
  1  2  1  0  0  0  0
  1 25  1  0  0  0  0
  2  3  1  0  0  0  0
  2 26  1  0  0  0  0
  2 27  1  0  0  0  0
  3 11  1  0  0  0  0
  3  4  2  0  0  0  0
  4  5  1  0  0  0  0
  5 10  2  0  0  0  0
  5  6  1  0  0  0  0
  6  7  2  0  0  0  0
  6 28  1  0  0  0  0
  7  8  1  0  0  0  0
  7 29  1  0  0  0  0
  8  9  2  0  0  0  0
  8 30  1  0  0  0  0
  9 10  1  0  0  0  0
  9 31  1  0  0  0  0
 10 11  1  0  0  0  0
 11 12  1  0  0  0  0
 12 13  1  0  0  0  0
 12 32  1  0  0  0  0
 12 33  1  0  0  0  0
 13 14  1  0  0  0  0
 13 15  1  0  0  0  0
 13 34  1  0  0  0  0
 14 35  1  0  0  0  0
 15 24  1  0  0  0  0
 15 16  2  0  0  0  0
 16 17  1  0  0  0  0
 16 36  1  0  0  0  0
 17 18  2  0  0  0  0
 17 37  1  0  0  0  0
 18 19  1  0  0  0  0
 18 23  1  0  0  0  0
 19 20  1  0  0  0  0
 19 21  1  0  0  0  0
 19 22  1  0  0  0  0
 23 24  2  0  0  0  0
 23 38  1  0  0  0  0
 24 39  1  0  0  0  0
M  END
> <s_m_source_file>
AV-unprocessed.smi

> <i_m_source_file_index>
1826

> <i_lp_mmshare_version>
43012

> <i_f3d_flags>
0

> <s_epik_input>
W2NIXTFbY0hdW2NIXVtjSF1jKGMxMiluKGMobjIpW0NIMl1bT0hdKVtDSDJdW0NASF0oW09IXSljM1tjSF1bY0hdYyhDKEYpKEYpRilbY0hdW2NIXTM=

> <s_epik_cmdline>
J2VwaWtfcHl0aG9uJywgJy1waCcsICc3LjAnLCAnLXRuJywgJzgnLCAnLW1hJywgJzIwMCcsICctbWV0YWxfYmluZGluZycsICctaW1hZScsICc8aW5maWxlLm1hZT4nLCAnLW9tYWUnLCAnPG91dGZpbGUubWFlPic=

> <r_epik_Ionization_Penalty>
0.0634718

> <r_epik_Ionization_Penalty_Charging>
0

> <r_epik_Ionization_Penalty_Neutral>
0.0634718

> <r_epik_State_Penalty>
0.0551572

> <r_epik_Charging_Adjusted_Penalty>
0.0551572

> <i_epik_Tot_Q>
0

> <i_epik_Tot_abs_Q>
0

> <r_epik_Metal_State_Penalty>
5.78034e-05

> <b_epik_Metal_Only>
0

> <s_lp_Force_Field>
OPLS_2005

> <r_lp_Energy>
14.1967

> <b_lp_Chiralities_Consistent>
1

> <s_lp_Variant>
AV-unprocessed.smi:1826-2

> <Gold.Version>
5.8.1

> <Gold.Id.Protein>
6NUR|6NUR_protein|mol2

> <Gold.PLP.Fitness>
54.7007

> <Gold.PLP.PLP>
-47.1830

> <Gold.PLP.part.hbond>
-3.4717

> <Gold.PLP.part.metal>
0.0000

> <Gold.PLP.part.buried>
-6.1668

> <Gold.PLP.part.nonpolar>
-38.2679

> <Gold.PLP.part.repulsive>
0.0808

> <Gold.PLP.ligand.clash>
0.0000

> <Gold.PLP.ligand.torsion>
0.7055

> <Gold.PLP.Chemscore.Hbond>
2.9290

> <Gold.PLP.Chemscore.CHOScore>
0.0000

> <Gold.PLP.Chemscore.Metal>
0.0000

> <Gold.Chemscore.Hbonds>
donor molecule, donor type, donor heavy atom, donor atom, acceptor molecule, acceptor atom, score
      L1  H     1    25       P1  7957  0.64
      P1  H  7989  7998       L1     1  0.03
      P1  H  7997  8008       L1    14  0.90
      P1  H  8011  8017       L1     1  1.00

> <Gold.PLP.Chemscore.Internal.Correction>
0.1417

> <Gold.Rescore>
     Score         DG    S(hbond)    S(metal)    S(lipo)     H(rot)  DE(clash)    DE(int)     intcor
     15.57     -16.27       2.02        0.00      98.38       2.91       0.11       0.59       ----

> <Gold.Chemscore.Fitness>
15.5651

> <Gold.Chemscore.DG>
-16.2651

> <Gold.Chemscore.ZeroCoef>
-5.4800

> <Gold.Chemscore.Hbond>
2.0165

> <Gold.Chemscore.Metal>
0.0000

> <Gold.Chemscore.Lipo>
98.3752

> <Gold.Chemscore.Internal_Hbond>
0.0000

> <Gold.Chemscore.DEClash>
0.1126

> <Gold.Chemscore.DEInternal>
0.5874

> <Gold.Chemscore.Rot>
2.9141

> <Gold.Chemscore.Internal.Correction>
   9.000000E+99

> <Gold.Chemscore.Hbonds>
donor molecule, donor type, donor heavy atom, donor atom, acceptor molecule, acceptor atom, score
      L1  H     1    25       P1  7957  0.64
      P1  H  7997  8008       L1    14  0.33
      P1  H  8011  8017       L1     1  0.50

> <Gold.Chemscore.Hbond.Weighted>
-6.7352

> <Gold.Chemscore.Metal.Weighted>
-0.0000

> <Gold.Chemscore.Lipo.Weighted>
-11.5099

> <Gold.Chemscore.Internal_Hbond.Weighted>
0.0000

> <Gold.Chemscore.DEClash.Weighted>
0.1126

> <Gold.Chemscore.DEInternal.Weighted>
0.5874

> <Gold.Chemscore.Rot.Weighted>
7.4600

> <Gold.Chemscore.Internal.Correction.Weighted>
   9.000000E+99

> <Gold.Protein.RotatedTorsions>
[ 6907 6896 6895 6894 ] final -152.23 input  -60.11 | X-H torsion
[ 7974 7965 7964 7962 ] final  137.99 input  175.53 | X-H torsion
[ 8008 7997 7996 7995 ] final  -39.17 input   59.86 | X-H torsion
[ 10167 10162 10161 10158 ] final   10.63 input  -65.29 | X-H torsion
[ 10718 10713 10712 10709 ] final  -52.80 input   66.30 | X-H torsion
[ 10763 10752 10751 10750 ] final -144.62 input  -60.55 | X-H torsion
[ 11005 11000 10999 10996 ] final  154.34 input  -57.11 | X-H torsion

> <Gold.Protein.ActiveResidues>
 VAL166  LYS551  ARG553  GLY616  TRP617  ASP618  TYR619  PRO620  LYS621  CYS622 
 ASP623  PHE694  ASN695  SER759  ASP760  ASP761  ALA762  ILE779  LEU786  VAL792 
 PHE793  MET794  SER795  GLU796  ALA797  LYS798  CYS799  TRP800  GLU811  SER814 

> <Gold.Protein.RotatedAtoms>
  151.2248  133.4483  159.2601 H   0  0  0  0  0  0  0  0  0  0  0  0  # atno 6907 bound_to 6896
  151.0851  134.9882  159.8385 H   0  0  0  0  0  0  0  0  0  0  0  0  # atno 6908 bound_to 6896
  152.5428  134.2185  159.8831 H   0  0  0  0  0  0  0  0  0  0  0  0  # atno 6909 bound_to 6896
  144.9415  139.4926  143.5570 H   0  0  0  0  0  0  0  0  0  0  0  0  # atno 7974 bound_to 7965
  154.4026  140.1559  156.2819 H   0  0  0  0  0  0  0  0  0  0  0  0  # atno 8008 bound_to 7997
  155.8862  140.3441  155.5901 H   0  0  0  0  0  0  0  0  0  0  0  0  # atno 8009 bound_to 7997
  155.7610  140.0817  157.2145 H   0  0  0  0  0  0  0  0  0  0  0  0  # atno 8010 bound_to 7997
  140.6182  143.8262  150.7143 H   0  0  0  0  0  0  0  0  0  0  0  0  # atno 10167 bound_to 10162
  156.1590  130.4150  149.9823 H   0  0  0  0  0  0  0  0  0  0  0  0  # atno 10718 bound_to 10713
  154.8420  135.3435  154.6375 H   0  0  0  0  0  0  0  0  0  0  0  0  # atno 10763 bound_to 10752
  153.6985  135.6971  153.5074 H   0  0  0  0  0  0  0  0  0  0  0  0  # atno 10764 bound_to 10752
  153.2541  135.4344  155.0782 H   0  0  0  0  0  0  0  0  0  0  0  0  # atno 10765 bound_to 10752
  140.1480  134.8694  157.2418 H   0  0  0  0  0  0  0  0  0  0  0  0  # atno 11005 bound_to 11000
  146.3287  139.8437  142.8886 LP  0  0  0  0  0  0  0  0  0  0  0  0  # atno 17320 bound_to 7965
  145.2984  141.0187  143.3622 LP  0  0  0  0  0  0  0  0  0  0  0  0  # atno 17321 bound_to 7965
  140.1846  143.4086  152.1908 LP  0  0  0  0  0  0  0  0  0  0  0  0  # atno 17342 bound_to 10162
  139.5416  144.7261  151.4716 LP  0  0  0  0  0  0  0  0  0  0  0  0  # atno 17343 bound_to 10162
  156.7657  130.9167  151.3643 LP  0  0  0  0  0  0  0  0  0  0  0  0  # atno 17370 bound_to 10713
  157.6718  130.9058  150.0057 LP  0  0  0  0  0  0  0  0  0  0  0  0  # atno 17371 bound_to 10713
  140.2640  134.3538  155.7396 LP  0  0  0  0  0  0  0  0  0  0  0  0  # atno 17394 bound_to 11000
  141.2195  133.7385  156.9122 LP  0  0  0  0  0  0  0  0  0  0  0  0  # atno 17395 bound_to 11000

$$$$
