AV-unprocessed.smi:3023|AV-procd|sdf|11502|dock6
  -GOLD-   2272016433D 1   1.00000     0.00000
 Structure written by MMmdl.
 43 44  0  0  0  0  0  0  0  0  2 V2000
  149.1567  135.1270  154.8526 C   0  0  0  0  0  0  0  0  0  0  0  0
  149.5793  136.5376  154.7000 N   0  3  1  0  0  0  0  0  0  0  0  0
  148.9135  137.4262  155.6915 C   0  0  0  0  0  0  0  0  0  0  0  0
  148.5471  138.8117  155.1154 C   0  0  0  0  0  0  0  0  0  0  0  0
  149.6539  139.5113  154.3015 C   0  0  0  0  0  0  0  0  0  0  0  0
  150.9952  139.1550  154.7887 N   0  0  0  0  0  0  0  0  0  0  0  0
  151.6251  139.7325  155.8432 C   0  0  0  0  0  0  0  0  0  0  0  0
  152.7836  139.4622  156.1615 O   0  0  0  0  0  0  0  0  0  0  0  0
  150.8849  140.6382  156.5080 N   0  0  0  0  0  0  0  0  0  0  0  0
  151.3436  141.4678  157.6202 C   0  0  0  0  0  0  0  0  0  0  0  0
  151.1338  142.9675  157.3402 C   0  0  0  0  0  0  0  0  0  0  0  0
  151.3086  143.8205  158.5690 C   0  0  0  0  0  0  0  0  0  0  0  0
  150.8612  145.1565  158.7781 C   0  0  0  0  0  0  0  0  0  0  0  0
  151.1499  145.6121  159.9861 N   0  0  0  0  0  0  0  0  0  0  0  0
  151.7946  144.5903  160.5855 N   0  0  0  0  0  0  0  0  0  0  0  0
  152.2588  144.7388  161.9481 C   0  0  0  0  0  0  0  0  0  0  0  0
  151.9078  143.4977  159.7539 C   0  0  0  0  0  0  0  0  0  0  0  0
  151.5690  137.9938  154.0964 C   0  0  0  0  0  0  0  0  0  0  0  0
  151.0651  136.6638  154.6927 C   0  0  0  0  0  0  0  0  0  0  0  0
  149.4600  134.7318  155.8230 H   0  0  0  0  0  0  0  0  0  0  0  0
  149.5976  134.5024  154.0751 H   0  0  0  0  0  0  0  0  0  0  0  0
  148.0733  135.0359  154.7668 H   0  0  0  0  0  0  0  0  0  0  0  0
  147.9890  136.9680  156.0461 H   0  0  0  0  0  0  0  0  0  0  0  0
  149.5408  137.5303  156.5782 H   0  0  0  0  0  0  0  0  0  0  0  0
  147.6588  138.7236  154.4890 H   0  0  0  0  0  0  0  0  0  0  0  0
  148.2566  139.4553  155.9466 H   0  0  0  0  0  0  0  0  0  0  0  0
  149.5490  139.2204  153.2556 H   0  0  0  0  0  0  0  0  0  0  0  0
  149.4992  140.5913  154.2924 H   0  0  0  0  0  0  0  0  0  0  0  0
  149.9420  140.7992  156.1854 H   0  0  0  0  0  0  0  0  0  0  0  0
  150.7894  141.1811  158.5141 H   0  0  0  0  0  0  0  0  0  0  0  0
  152.3946  141.2762  157.8423 H   0  0  0  0  0  0  0  0  0  0  0  0
  151.8305  143.2794  156.5613 H   0  0  0  0  0  0  0  0  0  0  0  0
  150.1401  143.1110  156.9146 H   0  0  0  0  0  0  0  0  0  0  0  0
  150.3268  145.7996  158.0947 H   0  0  0  0  0  0  0  0  0  0  0  0
  152.9811  143.9564  162.1830 H   0  0  0  0  0  0  0  0  0  0  0  0
  151.4143  144.6612  162.6336 H   0  0  0  0  0  0  0  0  0  0  0  0
  152.7373  145.7103  162.0765 H   0  0  0  0  0  0  0  0  0  0  0  0
  152.3909  142.5861  160.0735 H   0  0  0  0  0  0  0  0  0  0  0  0
  151.3328  138.0296  153.0323 H   0  0  0  0  0  0  0  0  0  0  0  0
  152.6596  138.0174  154.1314 H   0  0  0  0  0  0  0  0  0  0  0  0
  151.4512  136.5286  155.7045 H   0  0  0  0  0  0  0  0  0  0  0  0
  151.4907  135.8541  154.0985 H   0  0  0  0  0  0  0  0  0  0  0  0
  149.2536  136.8206  153.7868 H   0  0  0  0  0  0  0  0  0  0  0  0
  1  2  1  0  0  0  0
  1 20  1  0  0  0  0
  1 21  1  0  0  0  0
  1 22  1  0  0  0  0
  2 19  1  0  0  0  0
  2  3  1  0  0  0  0
  2 43  1  0  0  0  0
  3  4  1  0  0  0  0
  3 23  1  0  0  0  0
  3 24  1  0  0  0  0
  4  5  1  0  0  0  0
  4 25  1  0  0  0  0
  4 26  1  0  0  0  0
  5  6  1  0  0  0  0
  5 27  1  0  0  0  0
  5 28  1  0  0  0  0
  6  7  1  0  0  0  0
  6 18  1  0  0  0  0
  7  8  2  0  0  0  0
  7  9  1  0  0  0  0
  9 10  1  0  0  0  0
  9 29  1  0  0  0  0
 10 11  1  0  0  0  0
 10 30  1  0  0  0  0
 10 31  1  0  0  0  0
 11 12  1  0  0  0  0
 11 32  1  0  0  0  0
 11 33  1  0  0  0  0
 12 17  2  0  0  0  0
 12 13  1  0  0  0  0
 13 14  2  0  0  0  0
 13 34  1  0  0  0  0
 14 15  1  0  0  0  0
 15 16  1  0  0  0  0
 15 17  1  0  0  0  0
 16 35  1  0  0  0  0
 16 36  1  0  0  0  0
 16 37  1  0  0  0  0
 17 38  1  0  0  0  0
 18 19  1  0  0  0  0
 18 39  1  0  0  0  0
 18 40  1  0  0  0  0
 19 41  1  0  0  0  0
 19 42  1  0  0  0  0
M  CHG  1   2   1
M  END
> <s_m_source_file>
AV-unprocessed.smi

> <i_m_source_file_index>
3023

> <i_lp_mmshare_version>
43012

> <i_f3d_flags>
0

> <s_epik_input>
W0NIM11OMVtDSDJdW0NIMl1bQ0gyXU4oW0NIMl1bQ0gyXTEpQyg9TylbTkhdW0NIMl1bQ0gyXWMyW2NIXW5uKFtDSDNdKVtjSF0y

> <s_epik_cmdline>
J2VwaWtfcHl0aG9uJywgJy1waCcsICc3LjAnLCAnLXRuJywgJzgnLCAnLW1hJywgJzIwMCcsICctbWV0YWxfYmluZGluZycsICctaW1hZScsICc8aW5maWxlLm1hZT4nLCAnLW9tYWUnLCAnPG91dGZpbGUubWFlPic=

> <r_lp_tautomer_probability>
1

> <r_epik_Ionization_Penalty>
0.00258886

> <r_epik_Ionization_Penalty_Charging>
0.00208099

> <r_epik_Ionization_Penalty_Neutral>
0.00050787

> <r_epik_State_Penalty>
-0

> <r_epik_Charging_Adjusted_Penalty>
0.00208099

> <i_epik_Tot_Q>
1

> <i_epik_Tot_abs_Q>
1

> <r_epik_Metal_State_Penalty>
-0

> <b_epik_Metal_Only>
0

> <s_lp_Force_Field>
OPLS_2005

> <r_lp_Energy>
39.0301

> <b_lp_Chiralities_Consistent>
1

> <s_lp_Variant>
AV-unprocessed.smi:3023-2

> <Gold.Version>
5.8.1

> <Gold.Id.Protein>
6NUR|6NUR_protein|mol2

> <Gold.PLP.Fitness>
46.2636

> <Gold.PLP.PLP>
-35.4903

> <Gold.PLP.part.hbond>
-2.4254

> <Gold.PLP.part.metal>
0.0000

> <Gold.PLP.part.buried>
-0.3535

> <Gold.PLP.part.nonpolar>
-33.4937

> <Gold.PLP.part.repulsive>
0.3115

> <Gold.PLP.ligand.clash>
0.0000

> <Gold.PLP.ligand.torsion>
0.3118

> <Gold.PLP.Chemscore.Hbond>
2.7920

> <Gold.PLP.Chemscore.CHOScore>
1.0000

> <Gold.PLP.Chemscore.Metal>
0.0000

> <Gold.Chemscore.Hbonds>
donor molecule, donor type, donor heavy atom, donor atom, acceptor molecule, acceptor atom, score
      L1  H     2    43       P1  7948  1.79
      P1  H  7997  8008       L1     8  1.00
      L1  C    13    34       P1  8029  0.94

> <Gold.PLP.Chemscore.Internal.Correction>
0.0210

> <Gold.Rescore>
     Score         DG    S(hbond)    S(metal)    S(lipo)     H(rot)  DE(clash)    DE(int)     intcor
     17.59     -19.37       1.89        0.00      95.18       1.39       1.47       0.31       ----

> <Gold.Chemscore.Fitness>
17.5923

> <Gold.Chemscore.DG>
-19.3718

> <Gold.Chemscore.ZeroCoef>
-5.4800

> <Gold.Chemscore.Hbond>
1.8909

> <Gold.Chemscore.Metal>
0.0000

> <Gold.Chemscore.Lipo>
95.1797

> <Gold.Chemscore.Internal_Hbond>
0.0000

> <Gold.Chemscore.DEClash>
1.4731

> <Gold.Chemscore.DEInternal>
0.3064

> <Gold.Chemscore.Rot>
1.3906

> <Gold.Chemscore.Internal.Correction>
   9.000000E+99

> <Gold.Chemscore.Hbonds>
donor molecule, donor type, donor heavy atom, donor atom, acceptor molecule, acceptor atom, score
      L1  H     2    43       P1  7948  0.81
      P1  H  7997  8008       L1     8  1.00

> <Gold.Chemscore.Hbond.Weighted>
-6.3156

> <Gold.Chemscore.Metal.Weighted>
-0.0000

> <Gold.Chemscore.Lipo.Weighted>
-11.1360

> <Gold.Chemscore.Internal_Hbond.Weighted>
0.0000

> <Gold.Chemscore.DEClash.Weighted>
1.4731

> <Gold.Chemscore.DEInternal.Weighted>
0.3064

> <Gold.Chemscore.Rot.Weighted>
3.5598

> <Gold.Chemscore.Internal.Correction.Weighted>
   9.000000E+99

> <Gold.Protein.RotatedTorsions>
[ 6907 6896 6895 6894 ] final  147.09 input  -60.11 | X-H torsion
[ 7974 7965 7964 7962 ] final  129.98 input  175.53 | X-H torsion
[ 8008 7997 7996 7995 ] final  -44.95 input   59.86 | X-H torsion
[ 10167 10162 10161 10158 ] final  -20.45 input  -65.29 | X-H torsion
[ 10718 10713 10712 10709 ] final   43.66 input   66.30 | X-H torsion
[ 10763 10752 10751 10750 ] final  -52.07 input  -60.55 | X-H torsion
[ 11005 11000 10999 10996 ] final  -90.57 input  -57.11 | X-H torsion

> <Gold.Protein.ActiveResidues>
 VAL166  LYS551  ARG553  GLY616  TRP617  ASP618  TYR619  PRO620  LYS621  CYS622 
 ASP623  PHE694  ASN695  SER759  ASP760  ASP761  ALA762  ILE779  LEU786  VAL792 
 PHE793  MET794  SER795  GLU796  ALA797  LYS798  CYS799  TRP800  GLU811  SER814 

> <Gold.Protein.RotatedAtoms>
  152.1593  133.4571  159.4852 H   0  0  0  0  0  0  0  0  0  0  0  0  # atno 6907 bound_to 6896
  150.6905  134.2091  159.4361 H   0  0  0  0  0  0  0  0  0  0  0  0  # atno 6908 bound_to 6896
  151.9993  134.9937  160.0615 H   0  0  0  0  0  0  0  0  0  0  0  0  # atno 6909 bound_to 6896
  145.0228  139.4116  143.5189 H   0  0  0  0  0  0  0  0  0  0  0  0  # atno 7974 bound_to 7965
  154.3999  140.1409  156.3767 H   0  0  0  0  0  0  0  0  0  0  0  0  # atno 8008 bound_to 7997
  155.8042  140.3475  155.5399 H   0  0  0  0  0  0  0  0  0  0  0  0  # atno 8009 bound_to 7997
  155.8452  140.0933  157.1700 H   0  0  0  0  0  0  0  0  0  0  0  0  # atno 8010 bound_to 7997
  140.7276  143.4721  151.0233 H   0  0  0  0  0  0  0  0  0  0  0  0  # atno 10167 bound_to 10162
  157.4184  130.7954  149.7493 H   0  0  0  0  0  0  0  0  0  0  0  0  # atno 10718 bound_to 10713
  154.1367  135.6511  153.4933 H   0  0  0  0  0  0  0  0  0  0  0  0  # atno 10763 bound_to 10752
  153.0178  135.5306  154.6946 H   0  0  0  0  0  0  0  0  0  0  0  0  # atno 10764 bound_to 10752
  154.6196  135.2963  155.0312 H   0  0  0  0  0  0  0  0  0  0  0  0  # atno 10765 bound_to 10752
  141.1563  133.7700  156.9756 H   0  0  0  0  0  0  0  0  0  0  0  0  # atno 11005 bound_to 11000
  146.3488  139.9735  142.8703 LP  0  0  0  0  0  0  0  0  0  0  0  0  # atno 17320 bound_to 7965
  145.1873  140.9795  143.4231 LP  0  0  0  0  0  0  0  0  0  0  0  0  # atno 17321 bound_to 7965
  139.8414  143.7559  152.3180 LP  0  0  0  0  0  0  0  0  0  0  0  0  # atno 17342 bound_to 10162
  139.7709  144.7477  151.0226 LP  0  0  0  0  0  0  0  0  0  0  0  0  # atno 17343 bound_to 10162
  155.9872  130.3968  150.3174 LP  0  0  0  0  0  0  0  0  0  0  0  0  # atno 17370 bound_to 10713
  157.1320  131.0274  151.2965 LP  0  0  0  0  0  0  0  0  0  0  0  0  # atno 17371 bound_to 10713
  140.1100  134.9482  157.2051 LP  0  0  0  0  0  0  0  0  0  0  0  0  # atno 17394 bound_to 11000
  140.3206  134.2921  155.7247 LP  0  0  0  0  0  0  0  0  0  0  0  0  # atno 17395 bound_to 11000

$$$$
