AV-unprocessed.smi:1575|AV-procd|sdf|6340|dock6
  -GOLD-   22720 6553D 1   1.00000     0.00000
 Structure written by MMmdl.
 41 41  0  0  0  0  0  0  0  0  1 V2000
  141.3377  138.8962  154.1218 C   0  0  0  0  0  0  0  0  0  0  0  0
  142.6344  138.4701  153.6192 N   0  0  0  0  0  0  0  0  0  0  0  0
  143.2840  137.3753  154.0394 C   0  0  0  0  0  0  0  0  0  0  0  0
  142.8405  136.6232  154.9092 O   0  0  0  0  0  0  0  0  0  0  0  0
  144.6522  137.1054  153.3894 C   0  0  1  0  0  0  0  0  0  0  0  0
  144.4105  136.7679  151.8988 C   0  0  0  0  0  0  0  0  0  0  0  0
  145.6796  136.4095  151.0919 C   0  0  0  0  0  0  0  0  0  0  0  0
  145.3284  136.1556  149.6183 C   0  0  0  0  0  0  0  0  0  0  0  0
  146.4270  135.2005  151.6791 C   0  0  0  0  0  0  0  0  0  0  0  0
  145.4894  138.3025  153.4706 N   0  0  0  0  0  0  0  0  0  0  0  0
  146.7615  138.3325  153.8966 C   0  0  0  0  0  0  0  0  0  0  0  0
  147.3831  137.3240  154.2341 O   0  0  0  0  0  0  0  0  0  0  0  0
  147.4322  139.7127  153.9246 C   0  0  0  0  0  0  0  0  0  0  0  0
  148.7765  139.6799  154.5182 N   0  0  0  0  0  0  0  0  0  0  0  0
  149.7282  138.7843  154.0516 C   0  0  0  0  0  0  0  0  0  0  0  0
  150.9785  138.6909  154.5633 C   0  0  0  0  0  0  0  0  0  0  0  0
  151.3928  139.5551  155.6633 C   0  0  0  0  0  0  0  0  0  0  0  0
  152.5015  139.5463  156.1933 O   0  0  0  0  0  0  0  0  0  0  0  0
  150.4073  140.4413  156.1055 N   0  0  0  0  0  0  0  0  0  0  0  0
  149.1169  140.5422  155.5833 C   0  0  0  0  0  0  0  0  0  0  0  0
  148.3227  141.3578  156.0505 O   0  0  0  0  0  0  0  0  0  0  0  0
  150.6474  141.0587  156.8674 H   0  0  0  0  0  0  0  0  0  0  0  0
  141.0510  139.8398  153.6576 H   0  0  0  0  0  0  0  0  0  0  0  0
  141.3678  139.0435  155.2021 H   0  0  0  0  0  0  0  0  0  0  0  0
  140.5710  138.1551  153.8920 H   0  0  0  0  0  0  0  0  0  0  0  0
  143.0637  139.0398  152.9045 H   0  0  0  0  0  0  0  0  0  0  0  0
  145.1348  136.2689  153.8973 H   0  0  0  0  0  0  0  0  0  0  0  0
  143.7061  135.9377  151.8222 H   0  0  0  0  0  0  0  0  0  0  0  0
  143.9186  137.6160  151.4185 H   0  0  0  0  0  0  0  0  0  0  0  0
  146.3592  137.2622  151.1114 H   0  0  0  0  0  0  0  0  0  0  0  0
  144.6554  135.3039  149.5119 H   0  0  0  0  0  0  0  0  0  0  0  0
  146.2232  135.9485  149.0304 H   0  0  0  0  0  0  0  0  0  0  0  0
  144.8400  137.0233  149.1740 H   0  0  0  0  0  0  0  0  0  0  0  0
  145.7821  134.3226  151.7311 H   0  0  0  0  0  0  0  0  0  0  0  0
  146.7976  135.4043  152.6834 H   0  0  0  0  0  0  0  0  0  0  0  0
  147.2914  134.9402  151.0676 H   0  0  0  0  0  0  0  0  0  0  0  0
  145.0549  139.1771  153.2145 H   0  0  0  0  0  0  0  0  0  0  0  0
  147.4761  140.0876  152.9010 H   0  0  0  0  0  0  0  0  0  0  0  0
  146.8031  140.4234  154.4651 H   0  0  0  0  0  0  0  0  0  0  0  0
  149.4643  138.1209  153.2404 H   0  0  0  0  0  0  0  0  0  0  0  0
  151.6754  137.9722  154.1573 H   0  0  0  0  0  0  0  0  0  0  0  0
  1  2  1  0  0  0  0
  1 23  1  0  0  0  0
  1 24  1  0  0  0  0
  1 25  1  0  0  0  0
  2  3  1  0  0  0  0
  2 26  1  0  0  0  0
  3  4  2  0  0  0  0
  3  5  1  0  0  0  0
  5  6  1  0  0  0  0
  5 10  1  0  0  0  0
  5 27  1  0  0  0  0
  6  7  1  0  0  0  0
  6 28  1  0  0  0  0
  6 29  1  0  0  0  0
  7  8  1  0  0  0  0
  7  9  1  0  0  0  0
  7 30  1  0  0  0  0
  8 31  1  0  0  0  0
  8 32  1  0  0  0  0
  8 33  1  0  0  0  0
  9 34  1  0  0  0  0
  9 35  1  0  0  0  0
  9 36  1  0  0  0  0
 10 11  1  0  0  0  0
 10 37  1  0  0  0  0
 11 12  2  0  0  0  0
 11 13  1  0  0  0  0
 13 14  1  0  0  0  0
 13 38  1  0  0  0  0
 13 39  1  0  0  0  0
 14 20  1  0  0  0  0
 14 15  1  0  0  0  0
 15 16  2  0  0  0  0
 15 40  1  0  0  0  0
 16 17  1  0  0  0  0
 16 41  1  0  0  0  0
 17 18  2  0  0  0  0
 17 19  1  0  0  0  0
 19 22  1  0  0  0  0
 19 20  1  0  0  0  0
 20 21  2  0  0  0  0
M  END
> <s_m_source_file>
AV-unprocessed.smi

> <i_m_source_file_index>
1575

> <i_lp_mmshare_version>
43012

> <i_f3d_flags>
0

> <s_epik_input>
W0NIM11bTkhdQyg9TylbQ0BIXShbQ0gyXVtDSF0oW0NIM10pW0NIM10pW05IXUMoPU8pW0NIMl1uMVtjSF1bY0hdYyg9TylbbkhdYzE9Tw==

> <s_epik_cmdline>
J2VwaWtfcHl0aG9uJywgJy1waCcsICc3LjAnLCAnLXRuJywgJzgnLCAnLW1hJywgJzIwMCcsICctbWV0YWxfYmluZGluZycsICctaW1hZScsICc8aW5maWxlLm1hZT4nLCAnLW9tYWUnLCAnPG91dGZpbGUubWFlPic=

> <r_lp_tautomer_probability>
0.999537

> <r_epik_Ionization_Penalty>
0.00357166

> <r_epik_Ionization_Penalty_Charging>
0.00357161

> <r_epik_Ionization_Penalty_Neutral>
5.44484e-08

> <r_epik_State_Penalty>
0.00253761

> <r_epik_Charging_Adjusted_Penalty>
0.00610921

> <i_epik_Tot_Q>
0

> <i_epik_Tot_abs_Q>
0

> <r_epik_Metal_State_Penalty>
0.368734

> <b_epik_Metal_Only>
0

> <s_lp_Force_Field>
OPLS_2005

> <r_lp_Energy>
5.11716

> <b_lp_Chiralities_Consistent>
1

> <s_lp_Variant>
AV-unprocessed.smi:1575-2

> <Gold.Version>
5.8.1

> <Gold.Id.Protein>
6NUR|6NUR_protein|mol2

> <Gold.PLP.Fitness>
39.2869

> <Gold.PLP.PLP>
-27.8707

> <Gold.PLP.part.hbond>
-2.8833

> <Gold.PLP.part.metal>
0.0000

> <Gold.PLP.part.buried>
-3.6520

> <Gold.PLP.part.nonpolar>
-22.6844

> <Gold.PLP.part.repulsive>
0.9506

> <Gold.PLP.ligand.clash>
0.0000

> <Gold.PLP.ligand.torsion>
0.2892

> <Gold.PLP.Chemscore.Hbond>
2.9760

> <Gold.PLP.Chemscore.CHOScore>
1.0000

> <Gold.PLP.Chemscore.Metal>
0.0000

> <Gold.Chemscore.Hbonds>
donor molecule, donor type, donor heavy atom, donor atom, acceptor molecule, acceptor atom, score
      L1  H     2    26       P1 10175  0.98
      L1  H    10    37       P1 10175  1.00
      P1  H  7997  8010       L1    18  1.00
      L1  C    15    40       P1  7948  1.00
      L1  C    15    40       P1  7957  0.10

> <Gold.PLP.Chemscore.Internal.Correction>
0.0667

> <Gold.Rescore>
     Score         DG    S(hbond)    S(metal)    S(lipo)     H(rot)  DE(clash)    DE(int)     intcor
     11.54     -13.36       2.89        0.00      46.16       2.81       0.11       1.71       ----

> <Gold.Chemscore.Fitness>
11.5442

> <Gold.Chemscore.DG>
-13.3583

> <Gold.Chemscore.ZeroCoef>
-5.4800

> <Gold.Chemscore.Hbond>
2.8934

> <Gold.Chemscore.Metal>
0.0000

> <Gold.Chemscore.Lipo>
46.1614

> <Gold.Chemscore.Internal_Hbond>
0.0000

> <Gold.Chemscore.DEClash>
0.1090

> <Gold.Chemscore.DEInternal>
1.7051

> <Gold.Chemscore.Rot>
2.8072

> <Gold.Chemscore.Internal.Correction>
   9.000000E+99

> <Gold.Chemscore.Hbonds>
donor molecule, donor type, donor heavy atom, donor atom, acceptor molecule, acceptor atom, score
      L1  H     2    26       P1 10175  0.89
      L1  H    10    37       P1 10175  0.93
      P1  H  7997  8010       L1    18  0.99

> <Gold.Chemscore.Hbond.Weighted>
-9.6638

> <Gold.Chemscore.Metal.Weighted>
-0.0000

> <Gold.Chemscore.Lipo.Weighted>
-5.4009

> <Gold.Chemscore.Internal_Hbond.Weighted>
0.0000

> <Gold.Chemscore.DEClash.Weighted>
0.1090

> <Gold.Chemscore.DEInternal.Weighted>
1.7051

> <Gold.Chemscore.Rot.Weighted>
7.1864

> <Gold.Chemscore.Internal.Correction.Weighted>
   9.000000E+99

> <Gold.Protein.RotatedTorsions>
[ 6907 6896 6895 6894 ] final   21.34 input  -60.11 | X-H torsion
[ 7974 7965 7964 7962 ] final -138.80 input  175.53 | X-H torsion
[ 8008 7997 7996 7995 ] final   68.37 input   59.86 | X-H torsion
[ 10167 10162 10161 10158 ] final  111.85 input  -65.29 | X-H torsion
[ 10718 10713 10712 10709 ] final  117.32 input   66.30 | X-H torsion
[ 10763 10752 10751 10750 ] final  -75.50 input  -60.55 | X-H torsion
[ 11005 11000 10999 10996 ] final  -26.27 input  -57.11 | X-H torsion

> <Gold.Protein.ActiveResidues>
 VAL166  LYS551  ARG553  GLY616  TRP617  ASP618  TYR619  PRO620  LYS621  CYS622 
 ASP623  PHE694  ASN695  SER759  ASP760  ASP761  ALA762  ILE779  LEU786  VAL792 
 PHE793  MET794  SER795  GLU796  ALA797  LYS798  CYS799  TRP800  GLU811  SER814 

> <Gold.Protein.RotatedAtoms>
  151.9104  135.0341  160.0513 H   0  0  0  0  0  0  0  0  0  0  0  0  # atno 6907 bound_to 6896
  152.2284  133.5034  159.5210 H   0  0  0  0  0  0  0  0  0  0  0  0  # atno 6908 bound_to 6896
  150.7019  134.1165  159.4062 H   0  0  0  0  0  0  0  0  0  0  0  0  # atno 6909 bound_to 6896
  144.8728  140.6393  143.5256 H   0  0  0  0  0  0  0  0  0  0  0  0  # atno 7974 bound_to 7965
  155.7072  140.3495  155.4958 H   0  0  0  0  0  0  0  0  0  0  0  0  # atno 8008 bound_to 7997
  155.9388  140.1097  157.1095 H   0  0  0  0  0  0  0  0  0  0  0  0  # atno 8009 bound_to 7997
  154.4098  140.1217  156.4885 H   0  0  0  0  0  0  0  0  0  0  0  0  # atno 8010 bound_to 7997
  139.6580  144.7129  151.1920 H   0  0  0  0  0  0  0  0  0  0  0  0  # atno 10167 bound_to 10162
  157.6104  131.1036  150.7598 H   0  0  0  0  0  0  0  0  0  0  0  0  # atno 10718 bound_to 10713
  154.4874  135.5829  153.6433 H   0  0  0  0  0  0  0  0  0  0  0  0  # atno 10763 bound_to 10752
  152.9857  135.6104  154.3169 H   0  0  0  0  0  0  0  0  0  0  0  0  # atno 10764 bound_to 10752
  154.3066  135.2846  155.2565 H   0  0  0  0  0  0  0  0  0  0  0  0  # atno 10765 bound_to 10752
  140.9014  133.7521  156.0549 H   0  0  0  0  0  0  0  0  0  0  0  0  # atno 11005 bound_to 11000
  145.4098  139.1582  143.4132 LP  0  0  0  0  0  0  0  0  0  0  0  0  # atno 17320 bound_to 7965
  146.2942  140.4201  142.8728 LP  0  0  0  0  0  0  0  0  0  0  0  0  # atno 17321 bound_to 7965
  140.7567  143.6041  150.8670 LP  0  0  0  0  0  0  0  0  0  0  0  0  # atno 17342 bound_to 10162
  139.9696  143.6072  152.2978 LP  0  0  0  0  0  0  0  0  0  0  0  0  # atno 17343 bound_to 10162
  156.7977  130.4910  149.5375 LP  0  0  0  0  0  0  0  0  0  0  0  0  # atno 17370 bound_to 10713
  156.1205  130.6106  151.0186 LP  0  0  0  0  0  0  0  0  0  0  0  0  # atno 17371 bound_to 10713
  140.8225  134.3273  157.5377 LP  0  0  0  0  0  0  0  0  0  0  0  0  # atno 17394 bound_to 11000
  139.8743  134.9317  156.3535 LP  0  0  0  0  0  0  0  0  0  0  0  0  # atno 17395 bound_to 11000

$$$$
