#       Name:                AV-unprocessed.smi:2762
#       Creating user name   scv26
#       Creation time:       Fri Mar 27 15:08:47 2020


#       File generated by GOLD software.
#

@<TRIPOS>MOLECULE
AV-unprocessed.smi:2762
    45    46     1
SMALL
NO_CHARGES


@<TRIPOS>ATOM
      1 ****        -0.3222   1.5461   0.6514 O.2            1 S1                 0.0000
      2 ****        -0.8952   0.4625   0.7689 C.2            1 S1                 0.0000
      3 ****        -0.2442  -0.7015   0.9099 N.am           1 S1                 0.0000
      4 ****         1.2068  -0.8461   0.9417 C.3            1 S1                 0.0000
      5 ****         1.8105  -0.7860  -0.4749 C.3            1 S1                 0.0000
      6 ****         3.2913  -0.8857  -0.4685 N.4            1 S1                 1.0000
      7 ****         3.7954  -2.2503  -0.1736 C.3            1 S1                 0.0000
      8 ****         5.3334  -2.2661  -0.1600 C.3            1 S1                 0.0000
      9 ****         5.8285  -1.7900  -1.4051 O.3            1 S1                 0.0000
     10 ****         5.4280  -0.4494  -1.6578 C.3            1 S1                 0.0000
     11 ****         3.8935  -0.3734  -1.7230 C.3            1 S1                 0.0000
     12 ****        -2.2275   0.2807   0.7681 N.am           1 S1                 0.0000
     13 ****        -3.2467   1.2598   0.6263 C.ar           1 S1                 0.0000
     14 ****        -4.5657   0.7550   0.6396 C.ar           1 S1                 0.0000
     15 ****        -5.6560   1.6402   0.5025 C.ar           1 S1                 0.0000
     16 ****        -7.0795   1.1057   0.5185 C.3            1 S1                 0.0000
     17 ****        -7.9615   2.0393   0.1602 F              1 S1                 0.0000
     18 ****        -7.1860   0.0793  -0.3254 F              1 S1                 0.0000
     19 ****        -7.3786   0.6847   1.7469 F              1 S1                 0.0000
     20 ****        -5.3855   3.0170   0.3619 C.ar           1 S1                 0.0000
     21 ****        -4.0428   3.4361   0.3597 C.ar           1 S1                 0.0000
     22 ****        -3.0026   2.5861   0.4864 N.ar           1 S1                 0.0000
     23 ****        -0.7902  -1.5459   1.0021 H              1 S1                 0.0000
     24 ****         1.6444  -0.0750   1.5780 H              1 S1                 0.0000
     25 ****         1.4247  -1.8017   1.4169 H              1 S1                 0.0000
     26 ****         1.3892  -1.5675  -1.1090 H              1 S1                 0.0000
     27 ****         1.5286   0.1645  -0.9303 H              1 S1                 0.0000
     28 ****         3.4270  -2.5949   0.7920 H              1 S1                 0.0000
     29 ****         3.4242  -2.9486  -0.9254 H              1 S1                 0.0000
     30 ****         5.7230  -1.6571   0.6576 H              1 S1                 0.0000
     31 ****         5.6968  -3.2815  -0.0014 H              1 S1                 0.0000
     32 ****         5.8197   0.2134  -0.8844 H              1 S1                 0.0000
     33 ****         5.8602  -0.1246  -2.6044 H              1 S1                 0.0000
     34 ****         3.5263  -0.9557  -2.5697 H              1 S1                 0.0000
     35 ****         3.5866   0.6602  -1.8876 H              1 S1                 0.0000
     36 ****        -2.5521  -0.6689   0.8741 H              1 S1                 0.0000
     37 ****        -4.7458  -0.3043   0.7534 H              1 S1                 0.0000
     38 ****        -6.1803   3.7407   0.2586 H              1 S1                 0.0000
     39 ****        -3.7966   4.4824   0.2539 H              1 S1                 0.0000
     40 ****         3.6196  -0.2800   0.2704 H              1 S1                 0.0000
     41 ****         0.6770   1.5867   0.6584 LP             1 S1                 0.0000
     42 ****        -0.8560   2.3855   0.5490 LP             1 S1                 0.0000
     43 ****         5.4791  -2.3751  -2.1369 LP             1 S1                 0.0000
     44 ****         6.8276  -1.8320  -1.3930 LP             1 S1                 0.0000
     45 ****        -2.0636   2.9300   0.4773 LP             1 S1                 0.0000
@<TRIPOS>BOND
    1    1    2 2     
    2    2    3 am    
    3    2   12 am    
    4    3    4 1     
    5    3   23 1     
    6    4    5 1     
    7    4   24 1     
    8    4   25 1     
    9    5    6 1     
   10    5   26 1     
   11    5   27 1     
   12    6   11 1     
   13    6    7 1     
   14    6   40 1     
   15    7    8 1     
   16    7   28 1     
   17    7   29 1     
   18    8    9 1     
   19    8   30 1     
   20    8   31 1     
   21    9   10 1     
   22   10   11 1     
   23   10   32 1     
   24   10   33 1     
   25   11   34 1     
   26   11   35 1     
   27   12   13 1     
   28   12   36 1     
   29   13   22 ar    
   30   13   14 ar    
   31   14   15 ar    
   32   14   37 1     
   33   15   16 1     
   34   15   20 ar    
   35   16   17 1     
   36   16   18 1     
   37   16   19 1     
   38   20   21 ar    
   39   20   38 1     
   40   21   22 ar    
   41   21   39 1     
   42    1   41 1     
   43    1   42 1     
   44    9   43 1     
   45    9   44 1     
   46   22   45 1     
@<TRIPOS>SUBSTRUCTURE
      1 S1             1
@<TRIPOS>SET
LONE_PAIRS      STATIC     ATOMS    <user>   **** ""
5 41 42 43 44 45
DONOR_HYDROGENS      STATIC     ATOMS    <user>   **** ""
3 23 40 36
ATOM$BLUE        STATIC     ATOMS    COLORGROUP SYSTEM
5 41 42 43 44 45
ATOM$RED        STATIC     ATOMS    COLORGROUP SYSTEM
3 23 40 36
