AV-unprocessed.smi:243|AV-procd|sdf|1862|dock9
  -GOLD-   2262020493D 1   1.00000     0.00000
 Structure written by MMmdl.
 58 61  0  0  0  0  0  0  0  0  2 V2000
  147.5803  129.0754  153.0683 C   0  0  0  0  0  0  0  0  0  0  0  0
  146.3171  129.4044  152.2591 C   0  0  0  0  0  0  0  0  0  0  0  0
  146.4096  130.7106  151.5584 N   0  3  2  0  0  0  0  0  0  0  0  0
  146.5704  131.8585  152.4858 C   0  0  0  0  0  0  0  0  0  0  0  0
  146.7751  133.1799  151.7197 C   0  0  0  0  0  0  0  0  0  0  0  0
  145.6856  133.4738  150.6642 C   0  0  2  0  0  0  0  0  0  0  0  0
  144.4874  134.1524  151.1945 N   0  0  0  0  0  0  0  0  0  0  0  0
  143.3028  133.3706  151.5348 C   0  0  0  0  0  0  0  0  0  0  0  0
  144.5903  135.3122  151.8821 C   0  0  0  0  0  0  0  0  0  0  0  0
  145.8015  135.9153  151.9936 N   0  0  0  0  0  0  0  0  0  0  0  0
  145.9181  137.0626  152.6689 C   0  0  0  0  0  0  0  0  0  0  0  0
  144.9713  137.7566  153.3041 N   0  0  0  0  0  0  0  0  0  0  0  0
  143.7604  137.1343  153.2223 C   0  0  0  0  0  0  0  0  0  0  0  0
  143.4858  135.9154  152.5417 C   0  0  0  0  0  0  0  0  0  0  0  0
  142.1431  135.5874  152.6759 N   0  0  0  0  0  0  0  0  0  0  0  0
  141.6481  136.5635  153.3867 C   0  0  0  0  0  0  0  0  0  0  0  0
  142.5503  137.5336  153.7620 N   0  0  0  0  0  0  0  0  0  0  0  0
  142.2734  138.7240  154.5512 C   0  0  0  0  0  0  0  0  0  0  0  0
  141.0337  139.5107  154.0660 C   0  0  2  0  0  0  0  0  0  0  0  0
  141.1015  139.6600  152.6587 O   0  0  0  0  0  0  0  0  0  0  0  0
  140.8872  140.8947  154.6932 C   0  0  0  0  0  0  0  0  0  0  0  0
  139.3777  141.0770  154.7674 C   0  0  0  0  0  0  0  0  0  0  0  0
  138.9311  139.7838  155.1357 O   0  0  0  0  0  0  0  0  0  0  0  0
  139.7002  138.8224  154.4206 C   0  0  0  0  0  0  0  0  0  0  0  0
  145.4518  132.2077  149.7902 C   0  0  2  0  0  0  0  0  0  0  0  0
  144.3641  132.3496  148.7136 C   0  0  0  0  0  0  0  0  0  0  0  0
  145.2767  130.9193  150.6217 C   0  0  0  0  0  0  0  0  0  0  0  0
  147.5151  128.0704  153.4860 H   0  0  0  0  0  0  0  0  0  0  0  0
  147.7246  129.7605  153.9031 H   0  0  0  0  0  0  0  0  0  0  0  0
  148.4714  129.1137  152.4409 H   0  0  0  0  0  0  0  0  0  0  0  0
  146.1820  128.6112  151.5225 H   0  0  0  0  0  0  0  0  0  0  0  0
  145.4330  129.3836  152.8981 H   0  0  0  0  0  0  0  0  0  0  0  0
  145.7069  131.9071  153.1461 H   0  0  0  0  0  0  0  0  0  0  0  0
  147.4347  131.7018  153.1297 H   0  0  0  0  0  0  0  0  0  0  0  0
  146.8776  134.0160  152.4108 H   0  0  0  0  0  0  0  0  0  0  0  0
  147.7344  133.1166  151.2043 H   0  0  0  0  0  0  0  0  0  0  0  0
  146.1255  134.2188  150.0001 H   0  0  0  0  0  0  0  0  0  0  0  0
  143.2730  133.1163  152.5941 H   0  0  0  0  0  0  0  0  0  0  0  0
  143.2675  132.4429  150.9637 H   0  0  0  0  0  0  0  0  0  0  0  0
  142.4014  133.9377  151.3001 H   0  0  0  0  0  0  0  0  0  0  0  0
  146.9113  137.4852  152.7057 H   0  0  0  0  0  0  0  0  0  0  0  0
  140.6036  136.6009  153.6602 H   0  0  0  0  0  0  0  0  0  0  0  0
  142.1493  138.4268  155.5935 H   0  0  0  0  0  0  0  0  0  0  0  0
  143.1575  139.3622  154.5199 H   0  0  0  0  0  0  0  0  0  0  0  0
  142.0104  139.6617  152.4005 H   0  0  0  0  0  0  0  0  0  0  0  0
  141.2874  140.8938  155.7079 H   0  0  0  0  0  0  0  0  0  0  0  0
  141.3909  141.6874  154.1381 H   0  0  0  0  0  0  0  0  0  0  0  0
  139.0775  141.8305  155.4957 H   0  0  0  0  0  0  0  0  0  0  0  0
  138.9644  141.3487  153.7948 H   0  0  0  0  0  0  0  0  0  0  0  0
  139.1517  138.5066  153.5316 H   0  0  0  0  0  0  0  0  0  0  0  0
  139.8405  137.9401  155.0458 H   0  0  0  0  0  0  0  0  0  0  0  0
  146.3819  132.0691  149.2365 H   0  0  0  0  0  0  0  0  0  0  0  0
  143.3665  132.3829  149.1506 H   0  0  0  0  0  0  0  0  0  0  0  0
  144.3858  131.5037  148.0262 H   0  0  0  0  0  0  0  0  0  0  0  0
  144.5089  133.2531  148.1210 H   0  0  0  0  0  0  0  0  0  0  0  0
  145.2229  130.0693  149.9402 H   0  0  0  0  0  0  0  0  0  0  0  0
  144.3403  130.9224  151.1753 H   0  0  0  0  0  0  0  0  0  0  0  0
  147.2423  130.6723  150.9880 H   0  0  0  0  0  0  0  0  0  0  0  0
  1  2  1  0  0  0  0
  1 28  1  0  0  0  0
  1 29  1  0  0  0  0
  1 30  1  0  0  0  0
  2  3  1  0  0  0  0
  2 31  1  0  0  0  0
  2 32  1  0  0  0  0
  3 27  1  0  0  0  0
  3  4  1  0  0  0  0
  3 58  1  0  0  0  0
  4  5  1  0  0  0  0
  4 33  1  0  0  0  0
  4 34  1  0  0  0  0
  5  6  1  0  0  0  0
  5 35  1  0  0  0  0
  5 36  1  0  0  0  0
  6  7  1  0  0  0  0
  6 25  1  0  0  0  0
  6 37  1  0  0  0  0
  7  8  1  0  0  0  0
  7  9  1  0  0  0  0
  8 38  1  0  0  0  0
  8 39  1  0  0  0  0
  8 40  1  0  0  0  0
  9 14  1  0  0  0  0
  9 10  2  0  0  0  0
 10 11  1  0  0  0  0
 11 12  2  0  0  0  0
 11 41  1  0  0  0  0
 12 13  1  0  0  0  0
 13 17  1  0  0  0  0
 13 14  2  0  0  0  0
 14 15  1  0  0  0  0
 15 16  2  0  0  0  0
 16 17  1  0  0  0  0
 16 42  1  0  0  0  0
 17 18  1  0  0  0  0
 18 19  1  0  0  0  0
 18 43  1  0  0  0  0
 18 44  1  0  0  0  0
 19 24  1  0  0  0  0
 19 20  1  0  0  0  0
 19 21  1  0  0  0  0
 20 45  1  0  0  0  0
 21 22  1  0  0  0  0
 21 46  1  0  0  0  0
 21 47  1  0  0  0  0
 22 23  1  0  0  0  0
 22 48  1  0  0  0  0
 22 49  1  0  0  0  0
 23 24  1  0  0  0  0
 24 50  1  0  0  0  0
 24 51  1  0  0  0  0
 25 26  1  0  0  0  0
 25 27  1  0  0  0  0
 25 52  1  0  0  0  0
 26 53  1  0  0  0  0
 26 54  1  0  0  0  0
 26 55  1  0  0  0  0
 27 56  1  0  0  0  0
 27 57  1  0  0  0  0
M  CHG  1   3   1
M  END
> <s_m_source_file>
AV-unprocessed.smi

> <i_m_source_file_index>
243

> <i_lp_mmshare_version>
43012

> <i_f3d_flags>
0

> <s_epik_input>
W0NIM11bQ0gyXU4xW0NIMl1bQ0gyXVtDQEhdKFtDQEBIXShbQ0gzXSlbQ0gyXTEpTihbQ0gzXSljKG5bY0hdbjIpYyhjMjMpbltjSF1uM1tDSDJdW0NAQF00KFtPSF0pW0NIMl1bQ0gyXU9bQ0gyXTQ=

> <s_epik_cmdline>
J2VwaWtfcHl0aG9uJywgJy1waCcsICc3LjAnLCAnLXRuJywgJzgnLCAnLW1hJywgJzIwMCcsICctbWV0YWxfYmluZGluZycsICctaW1hZScsICc8aW5maWxlLm1hZT4nLCAnLW9tYWUnLCAnPG91dGZpbGUubWFlPic=

> <r_lp_tautomer_probability>
1

> <r_epik_Ionization_Penalty>
0.00253099

> <r_epik_Ionization_Penalty_Charging>
0.00137877

> <r_epik_Ionization_Penalty_Neutral>
0.00115221

> <r_epik_State_Penalty>
-0

> <r_epik_Charging_Adjusted_Penalty>
0.00137877

> <i_epik_Tot_Q>
1

> <i_epik_Tot_abs_Q>
1

> <r_epik_Metal_State_Penalty>
-0

> <b_epik_Metal_Only>
0

> <s_lp_Force_Field>
OPLS_2005

> <r_lp_Energy>
52.4668

> <b_lp_Chiralities_Consistent>
1

> <s_lp_Variant>
AV-unprocessed.smi:243-15

> <Gold.Version>
5.8.1

> <Gold.Id.Protein>
6NUR|6NUR_protein|mol2

> <Gold.PLP.Fitness>
46.7024

> <Gold.PLP.PLP>
-39.4661

> <Gold.PLP.part.hbond>
-2.3012

> <Gold.PLP.part.metal>
0.0000

> <Gold.PLP.part.buried>
-5.8396

> <Gold.PLP.part.nonpolar>
-32.0637

> <Gold.PLP.part.repulsive>
1.0437

> <Gold.PLP.ligand.clash>
0.2700

> <Gold.PLP.ligand.torsion>
0.7316

> <Gold.PLP.Chemscore.Hbond>
2.0000

> <Gold.PLP.Chemscore.CHOScore>
0.6907

> <Gold.PLP.Chemscore.Metal>
0.0000

> <Gold.Chemscore.Hbonds>
donor molecule, donor type, donor heavy atom, donor atom, acceptor molecule, acceptor atom, score
      L1  H     3    58       P1 10747  1.00
      L1  H    20    45       P1 10175  0.86
      L1  C    11    41       P1  7948  0.85

> <Gold.PLP.Chemscore.Internal.Correction>
0.8974

> <Gold.Rescore>
     Score         DG    S(hbond)    S(metal)    S(lipo)     H(rot)  DE(clash)    DE(int)     intcor
     12.85     -16.45       1.71        0.00      93.97       2.24       0.34       3.26       ----

> <Gold.Chemscore.Fitness>
12.8482

> <Gold.Chemscore.DG>
-16.4486

> <Gold.Chemscore.ZeroCoef>
-5.4800

> <Gold.Chemscore.Hbond>
1.7076

> <Gold.Chemscore.Metal>
0.0000

> <Gold.Chemscore.Lipo>
93.9699

> <Gold.Chemscore.Internal_Hbond>
0.0000

> <Gold.Chemscore.DEClash>
0.3421

> <Gold.Chemscore.DEInternal>
3.2583

> <Gold.Chemscore.Rot>
2.2379

> <Gold.Chemscore.Internal.Correction>
   9.000000E+99

> <Gold.Chemscore.Hbonds>
donor molecule, donor type, donor heavy atom, donor atom, acceptor molecule, acceptor atom, score
      L1  H     3    58       P1 10747  1.00
      L1  H    20    45       P1 10175  0.16

> <Gold.Chemscore.Hbond.Weighted>
-5.7032

> <Gold.Chemscore.Metal.Weighted>
-0.0000

> <Gold.Chemscore.Lipo.Weighted>
-10.9945

> <Gold.Chemscore.Internal_Hbond.Weighted>
0.0000

> <Gold.Chemscore.DEClash.Weighted>
0.3421

> <Gold.Chemscore.DEInternal.Weighted>
3.2583

> <Gold.Chemscore.Rot.Weighted>
5.7291

> <Gold.Chemscore.Internal.Correction.Weighted>
   9.000000E+99

> <Gold.Protein.RotatedTorsions>
[ 6907 6896 6895 6894 ] final    2.55 input  -60.11 | X-H torsion
[ 7974 7965 7964 7962 ] final -156.46 input  175.53 | X-H torsion
[ 8008 7997 7996 7995 ] final   -7.46 input   59.86 | X-H torsion
[ 10167 10162 10161 10158 ] final  167.87 input  -65.29 | X-H torsion
[ 10718 10713 10712 10709 ] final -123.86 input   66.30 | X-H torsion
[ 10763 10752 10751 10750 ] final -127.33 input  -60.55 | X-H torsion
[ 11005 11000 10999 10996 ] final   48.12 input  -57.11 | X-H torsion

> <Gold.Protein.ActiveResidues>
 VAL166  LYS551  ARG553  GLY616  TRP617  ASP618  TYR619  PRO620  LYS621  CYS622 
 ASP623  PHE694  ASN695  SER759  ASP760  ASP761  ALA762  ILE779  LEU786  VAL792 
 PHE793  MET794  SER795  GLU796  ALA797  LYS798  CYS799  TRP800  GLU811  SER814 

> <Gold.Protein.RotatedAtoms>
  151.6106  135.1040  160.0080 H   0  0  0  0  0  0  0  0  0  0  0  0  # atno 6907 bound_to 6896
  152.4210  133.7112  159.6491 H   0  0  0  0  0  0  0  0  0  0  0  0  # atno 6908 bound_to 6896
  150.8098  133.8370  159.3210 H   0  0  0  0  0  0  0  0  0  0  0  0  # atno 6909 bound_to 6896
  144.7592  140.4106  143.5989 H   0  0  0  0  0  0  0  0  0  0  0  0  # atno 7974 bound_to 7965
  154.5836  140.2406  155.8018 H   0  0  0  0  0  0  0  0  0  0  0  0  # atno 8008 bound_to 7997
  156.2197  140.3001  155.9879 H   0  0  0  0  0  0  0  0  0  0  0  0  # atno 8009 bound_to 7997
  155.2497  140.0410  157.2975 H   0  0  0  0  0  0  0  0  0  0  0  0  # atno 8010 bound_to 7997
  139.4955  144.3875  151.9554 H   0  0  0  0  0  0  0  0  0  0  0  0  # atno 10167 bound_to 10162
  156.1538  130.6553  150.9952 H   0  0  0  0  0  0  0  0  0  0  0  0  # atno 10718 bound_to 10713
  154.8751  135.3965  154.3577 H   0  0  0  0  0  0  0  0  0  0  0  0  # atno 10763 bound_to 10752
  153.4353  135.7026  153.6209 H   0  0  0  0  0  0  0  0  0  0  0  0  # atno 10764 bound_to 10752
  153.4813  135.3768  155.2413 H   0  0  0  0  0  0  0  0  0  0  0  0  # atno 10765 bound_to 10752
  140.1219  134.4818  155.8590 H   0  0  0  0  0  0  0  0  0  0  0  0  # atno 11005 bound_to 11000
  145.6676  139.1593  143.2773 LP  0  0  0  0  0  0  0  0  0  0  0  0  # atno 17320 bound_to 7965
  146.1636  140.6751  142.9266 LP  0  0  0  0  0  0  0  0  0  0  0  0  # atno 17321 bound_to 7965
  140.3312  144.3314  150.5987 LP  0  0  0  0  0  0  0  0  0  0  0  0  # atno 17342 bound_to 10162
  140.5643  143.2188  151.7710 LP  0  0  0  0  0  0  0  0  0  0  0  0  # atno 17343 bound_to 10162
  157.6678  131.0868  150.7686 LP  0  0  0  0  0  0  0  0  0  0  0  0  # atno 17370 bound_to 10713
  156.7752  130.4841  149.5411 LP  0  0  0  0  0  0  0  0  0  0  0  0  # atno 17371 bound_to 10713
  141.2153  133.6764  156.6905 LP  0  0  0  0  0  0  0  0  0  0  0  0  # atno 17394 bound_to 11000
  140.2954  134.8207  157.4052 LP  0  0  0  0  0  0  0  0  0  0  0  0  # atno 17395 bound_to 11000

$$$$
