AV-unprocessed.smi:3198|AV-procd|sdf|12227|dock7
  -GOLD-   2272018 63D 1   1.00000     0.00000
 Structure written by MMmdl.
 38 39  0  0  0  0  0  0  0  0  2 V2000
  153.8991  141.3115  160.3563 C   0  0  0  0  0  0  0  0  0  0  0  0
  152.8245  142.2888  159.9295 C   0  0  0  0  0  0  0  0  0  0  0  0
  152.4732  143.4111  160.7077 C   0  0  0  0  0  0  0  0  0  0  0  0
  151.4610  144.2757  160.2448 C   0  0  0  0  0  0  0  0  0  0  0  0
  150.8215  144.0000  159.0185 C   0  0  0  0  0  0  0  0  0  0  0  0
  151.2095  142.8596  158.2745 C   0  0  0  0  0  0  0  0  0  0  0  0
  150.6423  142.4871  157.0494 N   0  0  0  0  0  0  0  0  0  0  0  0
  151.1112  141.2946  156.3609 C   0  0  0  0  0  0  0  0  0  0  0  0
  150.0438  140.7398  155.4124 C   0  0  0  0  0  0  0  0  0  0  0  0
  150.6864  140.0602  154.3468 O   0  0  0  0  0  0  0  0  0  0  0  0
  151.4662  138.9608  154.7862 C   0  0  0  0  0  0  0  0  0  0  0  0
  150.8512  137.6664  154.2394 C   0  0  2  0  0  0  0  0  0  0  0  0
  149.5514  137.2593  154.9318 C   0  0  0  0  0  0  0  0  0  0  0  0
  149.5024  135.7500  154.7454 C   0  0  0  0  0  0  0  0  0  0  0  0
  150.9218  135.3813  154.3048 C   0  0  0  0  0  0  0  0  0  0  0  0
  151.6910  136.5570  154.5145 O   0  0  0  0  0  0  0  0  0  0  0  0
  152.1874  142.0615  158.7590 N   0  3  0  0  0  0  0  0  0  0  0  0
  154.3686  141.6255  161.2892 H   0  0  0  0  0  0  0  0  0  0  0  0
  154.6745  141.2407  159.5931 H   0  0  0  0  0  0  0  0  0  0  0  0
  153.4718  140.3198  160.5068 H   0  0  0  0  0  0  0  0  0  0  0  0
  152.9702  143.6092  161.6463 H   0  0  0  0  0  0  0  0  0  0  0  0
  151.1775  145.1417  160.8245 H   0  0  0  0  0  0  0  0  0  0  0  0
  150.0473  144.6652  158.6662 H   0  0  0  0  0  0  0  0  0  0  0  0
  150.1024  143.1611  156.5257 H   0  0  0  0  0  0  0  0  0  0  0  0
  152.0244  141.5163  155.8074 H   0  0  0  0  0  0  0  0  0  0  0  0
  151.3583  140.5383  157.1066 H   0  0  0  0  0  0  0  0  0  0  0  0
  149.4049  140.0414  155.9551 H   0  0  0  0  0  0  0  0  0  0  0  0
  149.4062  141.5416  155.0359 H   0  0  0  0  0  0  0  0  0  0  0  0
  152.5024  139.0614  154.4591 H   0  0  0  0  0  0  0  0  0  0  0  0
  151.4652  138.9355  155.8771 H   0  0  0  0  0  0  0  0  0  0  0  0
  150.6873  137.7433  153.1626 H   0  0  0  0  0  0  0  0  0  0  0  0
  149.6029  137.4922  155.9965 H   0  0  0  0  0  0  0  0  0  0  0  0
  148.6788  137.7665  154.5195 H   0  0  0  0  0  0  0  0  0  0  0  0
  149.2281  135.2532  155.6768 H   0  0  0  0  0  0  0  0  0  0  0  0
  148.7761  135.4619  153.9844 H   0  0  0  0  0  0  0  0  0  0  0  0
  151.3295  134.5393  154.8648 H   0  0  0  0  0  0  0  0  0  0  0  0
  150.9402  135.1257  153.2442 H   0  0  0  0  0  0  0  0  0  0  0  0
  152.4589  141.2423  158.2150 H   0  0  0  0  0  0  0  0  0  0  0  0
  1  2  1  0  0  0  0
  1 18  1  0  0  0  0
  1 19  1  0  0  0  0
  1 20  1  0  0  0  0
  2 17  1  0  0  0  0
  2  3  2  0  0  0  0
  3  4  1  0  0  0  0
  3 21  1  0  0  0  0
  4  5  2  0  0  0  0
  4 22  1  0  0  0  0
  5  6  1  0  0  0  0
  5 23  1  0  0  0  0
  6  7  1  0  0  0  0
  6 17  2  0  0  0  0
  7  8  1  0  0  0  0
  7 24  1  0  0  0  0
  8  9  1  0  0  0  0
  8 25  1  0  0  0  0
  8 26  1  0  0  0  0
  9 10  1  0  0  0  0
  9 27  1  0  0  0  0
  9 28  1  0  0  0  0
 10 11  1  0  0  0  0
 11 12  1  0  0  0  0
 11 29  1  0  0  0  0
 11 30  1  0  0  0  0
 12 16  1  0  0  0  0
 12 13  1  0  0  0  0
 12 31  1  0  0  0  0
 13 14  1  0  0  0  0
 13 32  1  0  0  0  0
 13 33  1  0  0  0  0
 14 15  1  0  0  0  0
 14 34  1  0  0  0  0
 14 35  1  0  0  0  0
 15 16  1  0  0  0  0
 15 36  1  0  0  0  0
 15 37  1  0  0  0  0
 17 38  1  0  0  0  0
M  CHG  1  17   1
M  END
> <s_m_source_file>
AV-unprocessed.smi

> <i_m_source_file_index>
3198

> <i_lp_mmshare_version>
43012

> <i_f3d_flags>
0

> <s_epik_input>
W0NIM11jMVtjSF1bY0hdW2NIXWMobjEpW05IXVtDSDJdW0NIMl1PW0NIMl1bQ0BASF0yW0NIMl1bQ0gyXVtDSDJdTzI=

> <s_epik_cmdline>
J2VwaWtfcHl0aG9uJywgJy1waCcsICc3LjAnLCAnLXRuJywgJzgnLCAnLW1hJywgJzIwMCcsICctbWV0YWxfYmluZGluZycsICctaW1hZScsICc8aW5maWxlLm1hZT4nLCAnLW9tYWUnLCAnPG91dGZpbGUubWFlPic=

> <r_lp_tautomer_probability>
0.999994

> <r_epik_Ionization_Penalty>
0.0710016

> <r_epik_Ionization_Penalty_Charging>
0.0710012

> <r_epik_Ionization_Penalty_Neutral>
3.47026e-07

> <r_epik_State_Penalty>
0.0622974

> <r_epik_Charging_Adjusted_Penalty>
0.133299

> <i_epik_Tot_Q>
1

> <i_epik_Tot_abs_Q>
1

> <r_epik_Metal_State_Penalty>
2.79497

> <b_epik_Metal_Only>
0

> <s_lp_Force_Field>
OPLS_2005

> <r_lp_Energy>
24.6681

> <b_lp_Chiralities_Consistent>
1

> <s_lp_Variant>
AV-unprocessed.smi:3198-1

> <Gold.Version>
5.8.1

> <Gold.Id.Protein>
6NUR|6NUR_protein|mol2

> <Gold.PLP.Fitness>
50.2759

> <Gold.PLP.PLP>
-40.2527

> <Gold.PLP.part.hbond>
-3.0000

> <Gold.PLP.part.metal>
0.0000

> <Gold.PLP.part.buried>
-6.5608

> <Gold.PLP.part.nonpolar>
-31.3500

> <Gold.PLP.part.repulsive>
0.3529

> <Gold.PLP.ligand.clash>
0.4332

> <Gold.PLP.ligand.torsion>
0.7615

> <Gold.PLP.Chemscore.Hbond>
3.9840

> <Gold.PLP.Chemscore.CHOScore>
0.0000

> <Gold.PLP.Chemscore.Metal>
0.0000

> <Gold.Chemscore.Hbonds>
donor molecule, donor type, donor heavy atom, donor atom, acceptor molecule, acceptor atom, score
      L1  H     7    24       P1  8028  1.37
      P1  H  7989  7998       L1    10  0.94
      P1  H 10752 10765       L1    16  0.28

> <Gold.PLP.Chemscore.Internal.Correction>
0.0274

> <Gold.Rescore>
     Score         DG    S(hbond)    S(metal)    S(lipo)     H(rot)  DE(clash)    DE(int)     intcor
     19.40     -20.11       2.29        0.00      97.01       1.71       0.01       0.70       ----

> <Gold.Chemscore.Fitness>
19.4015

> <Gold.Chemscore.DG>
-20.1084

> <Gold.Chemscore.ZeroCoef>
-5.4800

> <Gold.Chemscore.Hbond>
2.2892

> <Gold.Chemscore.Metal>
0.0000

> <Gold.Chemscore.Lipo>
97.0135

> <Gold.Chemscore.Internal_Hbond>
0.0000

> <Gold.Chemscore.DEClash>
0.0057

> <Gold.Chemscore.DEInternal>
0.7012

> <Gold.Chemscore.Rot>
1.7063

> <Gold.Chemscore.Internal.Correction>
   9.000000E+99

> <Gold.Chemscore.Hbonds>
donor molecule, donor type, donor heavy atom, donor atom, acceptor molecule, acceptor atom, score
      L1  H     7    24       P1  8028  0.69
      P1  H  7989  7998       L1    10  0.42
      P1  H 10752 10765       L1    16  0.01

> <Gold.Chemscore.Hbond.Weighted>
-7.6459

> <Gold.Chemscore.Metal.Weighted>
-0.0000

> <Gold.Chemscore.Lipo.Weighted>
-11.3506

> <Gold.Chemscore.Internal_Hbond.Weighted>
0.0000

> <Gold.Chemscore.DEClash.Weighted>
0.0057

> <Gold.Chemscore.DEInternal.Weighted>
0.7012

> <Gold.Chemscore.Rot.Weighted>
4.3681

> <Gold.Chemscore.Internal.Correction.Weighted>
   9.000000E+99

> <Gold.Protein.RotatedTorsions>
[ 6907 6896 6895 6894 ] final  -70.53 input  -60.11 | X-H torsion
[ 7974 7965 7964 7962 ] final   20.73 input  175.53 | X-H torsion
[ 8008 7997 7996 7995 ] final  -12.74 input   59.86 | X-H torsion
[ 10167 10162 10161 10158 ] final  151.49 input  -65.29 | X-H torsion
[ 10718 10713 10712 10709 ] final   88.70 input   66.30 | X-H torsion
[ 10763 10752 10751 10750 ] final -160.43 input  -60.55 | X-H torsion
[ 11005 11000 10999 10996 ] final   66.35 input  -57.11 | X-H torsion

> <Gold.Protein.ActiveResidues>
 VAL166  LYS551  ARG553  GLY616  TRP617  ASP618  TYR619  PRO620  LYS621  CYS622 
 ASP623  PHE694  ASN695  SER759  ASP760  ASP761  ALA762  ILE779  LEU786  VAL792 
 PHE793  MET794  SER795  GLU796  ALA797  LYS798  CYS799  TRP800  GLU811  SER814 

> <Gold.Protein.RotatedAtoms>
  150.7253  134.5440  159.5760 H   0  0  0  0  0  0  0  0  0  0  0  0  # atno 6907 bound_to 6896
  152.2943  134.7682  160.0380 H   0  0  0  0  0  0  0  0  0  0  0  0  # atno 6908 bound_to 6896
  151.8284  133.3369  159.3642 H   0  0  0  0  0  0  0  0  0  0  0  0  # atno 6909 bound_to 6896
  146.2100  139.8128  142.8696 H   0  0  0  0  0  0  0  0  0  0  0  0  # atno 7974 bound_to 7965
  154.5351  140.2268  155.8736 H   0  0  0  0  0  0  0  0  0  0  0  0  # atno 8008 bound_to 7997
  156.1803  140.3101  155.9100 H   0  0  0  0  0  0  0  0  0  0  0  0  # atno 8009 bound_to 7997
  155.3371  140.0448  157.3034 H   0  0  0  0  0  0  0  0  0  0  0  0  # atno 8010 bound_to 7997
  139.4840  144.5436  151.7522 H   0  0  0  0  0  0  0  0  0  0  0  0  # atno 10167 bound_to 10162
  157.6951  131.0305  150.3314 H   0  0  0  0  0  0  0  0  0  0  0  0  # atno 10718 bound_to 10713
  154.7391  135.3064  154.8760 H   0  0  0  0  0  0  0  0  0  0  0  0  # atno 10763 bound_to 10752
  153.9580  135.6756  153.4749 H   0  0  0  0  0  0  0  0  0  0  0  0  # atno 10764 bound_to 10752
  153.0991  135.4921  154.8758 H   0  0  0  0  0  0  0  0  0  0  0  0  # atno 10765 bound_to 10752
  139.9837  134.6702  156.0214 H   0  0  0  0  0  0  0  0  0  0  0  0  # atno 11005 bound_to 11000
  145.3178  141.0236  143.3518 LP  0  0  0  0  0  0  0  0  0  0  0  0  # atno 17320 bound_to 7965
  144.8889  139.4802  143.6687 LP  0  0  0  0  0  0  0  0  0  0  0  0  # atno 17321 bound_to 7965
  140.4979  144.1213  150.5964 LP  0  0  0  0  0  0  0  0  0  0  0  0  # atno 17342 bound_to 10162
  140.4096  143.2663  151.9849 LP  0  0  0  0  0  0  0  0  0  0  0  0  # atno 17343 bound_to 10162
  156.3788  130.3876  149.7118 LP  0  0  0  0  0  0  0  0  0  0  0  0  # atno 17370 bound_to 10713
  156.4507  130.7905  151.2927 LP  0  0  0  0  0  0  0  0  0  0  0  0  # atno 17371 bound_to 10713
  141.1506  133.6549  156.4001 LP  0  0  0  0  0  0  0  0  0  0  0  0  # atno 17394 bound_to 11000
  140.5044  134.6455  157.5261 LP  0  0  0  0  0  0  0  0  0  0  0  0  # atno 17395 bound_to 11000

$$$$
