AV-unprocessed.smi:2923|AV-procd|sdf|11213|dock6
  -GOLD-   2272016103D 1   1.00000     0.00000
 Structure written by MMmdl.
 46 48  0  0  0  0  0  0  0  0  1 V2000
  145.8660  133.2123  162.1496 C   0  0  0  0  0  0  0  0  0  0  0  0
  147.2516  133.2319  161.7076 N   0  0  0  0  0  0  0  0  0  0  0  0
  147.7875  131.9720  161.2156 C   0  0  0  0  0  0  0  0  0  0  0  0
  147.5376  134.3169  160.8686 C   0  0  0  0  0  0  0  0  0  0  0  0
  147.3360  135.6492  161.2951 C   0  0  0  0  0  0  0  0  0  0  0  0
  147.6441  136.6992  160.4093 C   0  0  0  0  0  0  0  0  0  0  0  0
  148.1515  136.3843  159.1261 C   0  0  0  0  0  0  0  0  0  0  0  0
  148.4841  137.3481  158.1365 N   0  0  0  0  0  0  0  0  0  0  0  0
  147.9293  138.5525  157.9188 C   0  0  0  0  0  0  0  0  0  0  0  0
  147.0055  139.0407  158.5691 O   0  0  0  0  0  0  0  0  0  0  0  0
  148.5277  139.1780  156.8971 N   0  0  0  0  0  0  0  0  0  0  0  0
  148.1769  140.5082  156.3950 C   0  0  1  0  0  0  0  0  0  0  0  0
  149.3543  141.5069  156.4643 C   0  0  1  0  0  0  0  0  0  0  0  0
  150.6295  141.2216  157.2198 C   0  0  0  0  0  0  0  0  0  0  0  0
  151.5682  140.7155  156.1206 C   0  0  0  0  0  0  0  0  0  0  0  0
  150.7030  140.2839  155.0722 O   0  0  0  0  0  0  0  0  0  0  0  0
  149.6163  141.2041  154.9978 C   0  0  1  0  0  0  0  0  0  0  0  0
  148.2066  140.5942  154.8463 C   0  0  0  0  0  0  0  0  0  0  0  0
  148.1078  139.2970  154.0318 C   0  0  0  0  0  0  0  0  0  0  0  0
  147.1710  141.5539  154.2527 C   0  0  0  0  0  0  0  0  0  0  0  0
  148.3017  135.0212  158.7967 C   0  0  0  0  0  0  0  0  0  0  0  0
  148.0105  134.0098  159.6416 N   0  0  0  0  0  0  0  0  0  0  0  0
  145.5575  134.1959  162.5061 H   0  0  0  0  0  0  0  0  0  0  0  0
  145.7427  132.5039  162.9691 H   0  0  0  0  0  0  0  0  0  0  0  0
  145.2014  132.9150  161.3376 H   0  0  0  0  0  0  0  0  0  0  0  0
  148.8326  132.0837  160.9236 H   0  0  0  0  0  0  0  0  0  0  0  0
  147.2236  131.6150  160.3531 H   0  0  0  0  0  0  0  0  0  0  0  0
  147.7358  131.2120  161.9954 H   0  0  0  0  0  0  0  0  0  0  0  0
  146.9502  135.8668  162.2803 H   0  0  0  0  0  0  0  0  0  0  0  0
  147.4728  137.7156  160.7271 H   0  0  0  0  0  0  0  0  0  0  0  0
  149.2818  137.1182  157.5618 H   0  0  0  0  0  0  0  0  0  0  0  0
  149.2815  138.7022  156.4228 H   0  0  0  0  0  0  0  0  0  0  0  0
  147.2622  140.9227  156.8225 H   0  0  0  0  0  0  0  0  0  0  0  0
  148.9889  142.5270  156.5927 H   0  0  0  0  0  0  0  0  0  0  0  0
  151.0324  142.1139  157.6997 H   0  0  0  0  0  0  0  0  0  0  0  0
  150.4879  140.4714  157.9978 H   0  0  0  0  0  0  0  0  0  0  0  0
  152.1956  141.5274  155.7498 H   0  0  0  0  0  0  0  0  0  0  0  0
  152.2187  139.9097  156.4605 H   0  0  0  0  0  0  0  0  0  0  0  0
  149.8298  142.0856  154.3914 H   0  0  0  0  0  0  0  0  0  0  0  0
  148.2327  139.4846  152.9650 H   0  0  0  0  0  0  0  0  0  0  0  0
  147.1405  138.8131  154.1699 H   0  0  0  0  0  0  0  0  0  0  0  0
  148.8733  138.5733  154.3124 H   0  0  0  0  0  0  0  0  0  0  0  0
  147.3811  141.7724  153.2053 H   0  0  0  0  0  0  0  0  0  0  0  0
  147.1549  142.5072  154.7817 H   0  0  0  0  0  0  0  0  0  0  0  0
  146.1639  141.1390  154.3078 H   0  0  0  0  0  0  0  0  0  0  0  0
  148.6728  134.7300  157.8248 H   0  0  0  0  0  0  0  0  0  0  0  0
  1  2  1  0  0  0  0
  1 23  1  0  0  0  0
  1 24  1  0  0  0  0
  1 25  1  0  0  0  0
  2  3  1  0  0  0  0
  2  4  1  0  0  0  0
  3 26  1  0  0  0  0
  3 27  1  0  0  0  0
  3 28  1  0  0  0  0
  4 22  1  0  0  0  0
  4  5  2  0  0  0  0
  5  6  1  0  0  0  0
  5 29  1  0  0  0  0
  6  7  2  0  0  0  0
  6 30  1  0  0  0  0
  7  8  1  0  0  0  0
  7 21  1  0  0  0  0
  8  9  1  0  0  0  0
  8 31  1  0  0  0  0
  9 10  2  0  0  0  0
  9 11  1  0  0  0  0
 11 12  1  0  0  0  0
 11 32  1  0  0  0  0
 12 18  1  0  0  0  0
 12 13  1  0  0  0  0
 12 33  1  0  0  0  0
 13 17  1  0  0  0  0
 13 14  1  0  0  0  0
 13 34  1  0  0  0  0
 14 15  1  0  0  0  0
 14 35  1  0  0  0  0
 14 36  1  0  0  0  0
 15 16  1  0  0  0  0
 15 37  1  0  0  0  0
 15 38  1  0  0  0  0
 16 17  1  0  0  0  0
 17 18  1  0  0  0  0
 17 39  1  0  0  0  0
 18 19  1  0  0  0  0
 18 20  1  0  0  0  0
 19 40  1  0  0  0  0
 19 41  1  0  0  0  0
 19 42  1  0  0  0  0
 20 43  1  0  0  0  0
 20 44  1  0  0  0  0
 20 45  1  0  0  0  0
 21 22  2  0  0  0  0
 21 46  1  0  0  0  0
M  END
> <s_m_source_file>
AV-unprocessed.smi

> <i_m_source_file_index>
2923

> <i_lp_mmshare_version>
43012

> <i_f3d_flags>
0

> <s_epik_input>
W0NIM11OKFtDSDNdKWMxW2NIXVtjSF1jKFtjSF1uMSlbTkhdQyg9TylbTkhdW0NASF0yQyhbQ0gzXSkoW0NIM10pW0NAQEhdKFtDQEhdMjMpT1tDSDJdW0NIMl0z

> <s_epik_cmdline>
J2VwaWtfcHl0aG9uJywgJy1waCcsICc3LjAnLCAnLXRuJywgJzgnLCAnLW1hJywgJzIwMCcsICctbWV0YWxfYmluZGluZycsICctaW1hZScsICc8aW5maWxlLm1hZT4nLCAnLW9tYWUnLCAnPG91dGZpbGUubWFlPic=

> <r_lp_tautomer_probability>
1

> <r_epik_Ionization_Penalty>
0.628785

> <r_epik_Ionization_Penalty_Charging>
0

> <r_epik_Ionization_Penalty_Neutral>
0.628785

> <r_epik_State_Penalty>
0.644286

> <r_epik_Charging_Adjusted_Penalty>
0.644286

> <i_epik_Tot_Q>
0

> <i_epik_Tot_abs_Q>
0

> <r_epik_Metal_State_Penalty>
0.308404

> <b_epik_Metal_Only>
0

> <s_lp_Force_Field>
OPLS_2005

> <r_lp_Energy>
44.9089

> <b_lp_Chiralities_Consistent>
1

> <s_lp_Variant>
AV-unprocessed.smi:2923-12

> <Gold.Version>
5.8.1

> <Gold.Id.Protein>
6NUR|6NUR_protein|mol2

> <Gold.PLP.Fitness>
33.1594

> <Gold.PLP.PLP>
-31.0436

> <Gold.PLP.part.hbond>
-2.0000

> <Gold.PLP.part.metal>
0.0000

> <Gold.PLP.part.buried>
-5.8178

> <Gold.PLP.part.nonpolar>
-24.9096

> <Gold.PLP.part.repulsive>
0.1826

> <Gold.PLP.ligand.clash>
0.0000

> <Gold.PLP.ligand.torsion>
0.4901

> <Gold.PLP.Chemscore.Hbond>
0.9000

> <Gold.PLP.Chemscore.CHOScore>
0.0000

> <Gold.PLP.Chemscore.Metal>
0.0000

> <Gold.Chemscore.Hbonds>
donor molecule, donor type, donor heavy atom, donor atom, acceptor molecule, acceptor atom, score
      P1  H  7989  7998       L1    16  0.85

> <Gold.PLP.Chemscore.Internal.Correction>
0.3960

> <Gold.Rescore>
     Score         DG    S(hbond)    S(metal)    S(lipo)     H(rot)  DE(clash)    DE(int)     intcor
     11.69     -12.28       0.29        0.00      75.89       1.19       0.01       0.58       ----

> <Gold.Chemscore.Fitness>
11.6867

> <Gold.Chemscore.DG>
-12.2823

> <Gold.Chemscore.ZeroCoef>
-5.4800

> <Gold.Chemscore.Hbond>
0.2930

> <Gold.Chemscore.Metal>
0.0000

> <Gold.Chemscore.Lipo>
75.8930

> <Gold.Chemscore.Internal_Hbond>
0.0000

> <Gold.Chemscore.DEClash>
0.0141

> <Gold.Chemscore.DEInternal>
0.5815

> <Gold.Chemscore.Rot>
1.1937

> <Gold.Chemscore.Internal.Correction>
   9.000000E+99

> <Gold.Chemscore.Hbonds>
donor molecule, donor type, donor heavy atom, donor atom, acceptor molecule, acceptor atom, score
      P1  H  6934  6947       L1    10  0.02
      P1  H  7989  7998       L1    16  0.05

> <Gold.Chemscore.Hbond.Weighted>
-0.9787

> <Gold.Chemscore.Metal.Weighted>
-0.0000

> <Gold.Chemscore.Lipo.Weighted>
-8.8795

> <Gold.Chemscore.Internal_Hbond.Weighted>
0.0000

> <Gold.Chemscore.DEClash.Weighted>
0.0141

> <Gold.Chemscore.DEInternal.Weighted>
0.5815

> <Gold.Chemscore.Rot.Weighted>
3.0559

> <Gold.Chemscore.Internal.Correction.Weighted>
   9.000000E+99

> <Gold.Protein.RotatedTorsions>
[ 6907 6896 6895 6894 ] final  124.69 input  -60.11 | X-H torsion
[ 7974 7965 7964 7962 ] final  108.86 input  175.53 | X-H torsion
[ 8008 7997 7996 7995 ] final   53.32 input   59.86 | X-H torsion
[ 10167 10162 10161 10158 ] final   10.80 input  -65.29 | X-H torsion
[ 10718 10713 10712 10709 ] final  177.75 input   66.30 | X-H torsion
[ 10763 10752 10751 10750 ] final  -66.07 input  -60.55 | X-H torsion
[ 11005 11000 10999 10996 ] final  110.02 input  -57.11 | X-H torsion

> <Gold.Protein.ActiveResidues>
 VAL166  LYS551  ARG553  GLY616  TRP617  ASP618  TYR619  PRO620  LYS621  CYS622 
 ASP623  PHE694  ASN695  SER759  ASP760  ASP761  ALA762  ILE779  LEU786  VAL792 
 PHE793  MET794  SER795  GLU796  ALA797  LYS798  CYS799  TRP800  GLU811  SER814 

> <Gold.Protein.RotatedAtoms>
  152.4056  133.6884  159.6353 H   0  0  0  0  0  0  0  0  0  0  0  0  # atno 6907 bound_to 6896
  150.7942  133.8714  159.3268 H   0  0  0  0  0  0  0  0  0  0  0  0  # atno 6908 bound_to 6896
  151.6469  135.1008  160.0204 H   0  0  0  0  0  0  0  0  0  0  0  0  # atno 6909 bound_to 6896
  145.2752  139.2652  143.3945 H   0  0  0  0  0  0  0  0  0  0  0  0  # atno 7974 bound_to 7965
  155.4664  140.3463  155.4319 H   0  0  0  0  0  0  0  0  0  0  0  0  # atno 8008 bound_to 7997
  156.1128  140.1465  156.9343 H   0  0  0  0  0  0  0  0  0  0  0  0  # atno 8009 bound_to 7997
  154.4768  140.0882  156.7261 H   0  0  0  0  0  0  0  0  0  0  0  0  # atno 8010 bound_to 7997
  140.6172  143.8283  150.7132 H   0  0  0  0  0  0  0  0  0  0  0  0  # atno 10167 bound_to 10162
  156.9007  130.9877  151.3036 H   0  0  0  0  0  0  0  0  0  0  0  0  # atno 10718 bound_to 10713
  154.3544  135.6129  153.5659 H   0  0  0  0  0  0  0  0  0  0  0  0  # atno 10763 bound_to 10752
  152.9796  135.5800  154.4706 H   0  0  0  0  0  0  0  0  0  0  0  0  # atno 10764 bound_to 10752
  154.4433  135.2851  155.1810 H   0  0  0  0  0  0  0  0  0  0  0  0  # atno 10765 bound_to 10752
  139.8873  134.9473  156.6214 H   0  0  0  0  0  0  0  0  0  0  0  0  # atno 11005 bound_to 11000
  146.3234  140.3205  142.8633 LP  0  0  0  0  0  0  0  0  0  0  0  0  # atno 17320 bound_to 7965
  144.9300  140.7965  143.5695 LP  0  0  0  0  0  0  0  0  0  0  0  0  # atno 17321 bound_to 7965
  140.1865  143.4072  152.1895 LP  0  0  0  0  0  0  0  0  0  0  0  0  # atno 17342 bound_to 10162
  139.5408  144.7254  151.4740 LP  0  0  0  0  0  0  0  0  0  0  0  0  # atno 17343 bound_to 10162
  157.6028  130.8525  149.8828 LP  0  0  0  0  0  0  0  0  0  0  0  0  # atno 17370 bound_to 10713
  156.0583  130.3704  150.1039 LP  0  0  0  0  0  0  0  0  0  0  0  0  # atno 17371 bound_to 10713
  140.7736  133.8718  155.8511 LP  0  0  0  0  0  0  0  0  0  0  0  0  # atno 17394 bound_to 11000
  140.9821  134.1392  157.4485 LP  0  0  0  0  0  0  0  0  0  0  0  0  # atno 17395 bound_to 11000

$$$$
