AV-unprocessed.smi:3084|AV-procd|sdf|11749|dock1
  -GOLD-   2272017143D 1   1.00000     0.00000
 Structure written by MMmdl.
 27 28  0  0  0  0  0  0  0  0  2 V2000
  149.1549  140.5196  154.4055 C   0  0  0  0  0  0  0  0  0  0  0  0
  148.3261  141.3478  155.1081 N   0  0  0  0  0  0  0  0  0  0  0  0
  149.1750  141.7833  156.0282 C   0  0  0  0  0  0  0  0  0  0  0  0
  150.4064  141.2855  155.9028 N   0  0  0  0  0  0  0  0  0  0  0  0
  151.5980  141.4980  156.7040 C   0  0  0  0  0  0  0  0  0  0  0  0
  151.3884  142.5175  157.8424 C   0  0  1  0  0  0  0  0  0  0  0  0
  152.5164  142.4854  158.8993 C   0  0  0  0  0  0  0  0  0  0  0  0
  152.2998  143.5521  159.9841 C   0  0  0  0  0  0  0  0  0  0  0  0
  152.1315  144.9382  159.3460 C   0  0  0  0  0  0  0  0  0  0  0  0
  151.0060  144.9210  158.2995 C   0  0  0  0  0  0  0  0  0  0  0  0
  151.2569  143.8811  157.2776 N   0  3  0  0  0  0  0  0  0  0  0  0
  150.4115  140.4421  154.8440 N   0  0  0  0  0  0  0  0  0  0  0  0
  148.8217  139.9552  153.5468 H   0  0  0  0  0  0  0  0  0  0  0  0
  148.8937  142.4789  156.8054 H   0  0  0  0  0  0  0  0  0  0  0  0
  151.9101  140.5360  157.1133 H   0  0  0  0  0  0  0  0  0  0  0  0
  152.3975  141.8293  156.0398 H   0  0  0  0  0  0  0  0  0  0  0  0
  150.4448  142.2845  158.3387 H   0  0  0  0  0  0  0  0  0  0  0  0
  152.5708  141.5037  159.3710 H   0  0  0  0  0  0  0  0  0  0  0  0
  153.4803  142.6487  158.4154 H   0  0  0  0  0  0  0  0  0  0  0  0
  151.4120  143.3066  160.5684 H   0  0  0  0  0  0  0  0  0  0  0  0
  153.1393  143.5574  160.6800 H   0  0  0  0  0  0  0  0  0  0  0  0
  151.9163  145.6809  160.1150 H   0  0  0  0  0  0  0  0  0  0  0  0
  153.0676  145.2417  158.8751 H   0  0  0  0  0  0  0  0  0  0  0  0
  150.0446  144.7303  158.7783 H   0  0  0  0  0  0  0  0  0  0  0  0
  150.9311  145.8915  157.8087 H   0  0  0  0  0  0  0  0  0  0  0  0
  152.1114  144.1102  156.7906 H   0  0  0  0  0  0  0  0  0  0  0  0
  150.4937  143.8867  156.6160 H   0  0  0  0  0  0  0  0  0  0  0  0
  1 12  2  0  0  0  0
  1  2  1  0  0  0  0
  1 13  1  0  0  0  0
  2  3  2  0  0  0  0
  3  4  1  0  0  0  0
  3 14  1  0  0  0  0
  4  5  1  0  0  0  0
  4 12  1  0  0  0  0
  5  6  1  0  0  0  0
  5 15  1  0  0  0  0
  5 16  1  0  0  0  0
  6 11  1  0  0  0  0
  6  7  1  0  0  0  0
  6 17  1  0  0  0  0
  7  8  1  0  0  0  0
  7 18  1  0  0  0  0
  7 19  1  0  0  0  0
  8  9  1  0  0  0  0
  8 20  1  0  0  0  0
  8 21  1  0  0  0  0
  9 10  1  0  0  0  0
  9 22  1  0  0  0  0
  9 23  1  0  0  0  0
 10 11  1  0  0  0  0
 10 24  1  0  0  0  0
 10 25  1  0  0  0  0
 11 26  1  0  0  0  0
 11 27  1  0  0  0  0
M  CHG  1  11   1
M  END
> <s_m_source_file>
AV-unprocessed.smi

> <i_m_source_file_index>
3084

> <i_lp_mmshare_version>
43012

> <i_f3d_flags>
0

> <s_epik_input>
bjFbY0hdbltjSF1uMVtDSDJdW0NAQEhdMltDSDJdW0NIMl1bQ0gyXVtDSDJdW05IXTI=

> <s_epik_cmdline>
J2VwaWtfcHl0aG9uJywgJy1waCcsICc3LjAnLCAnLXRuJywgJzgnLCAnLW1hJywgJzIwMCcsICctbWV0YWxfYmluZGluZycsICctaW1hZScsICc8aW5maWxlLm1hZT4nLCAnLW9tYWUnLCAnPG91dGZpbGUubWFlPic=

> <r_lp_tautomer_probability>
1

> <r_epik_Ionization_Penalty>
0.000475214

> <r_epik_Ionization_Penalty_Charging>
0.000474443

> <r_epik_Ionization_Penalty_Neutral>
7.70992e-07

> <r_epik_State_Penalty>
0.000294136

> <r_epik_Charging_Adjusted_Penalty>
0.000768579

> <i_epik_Tot_Q>
1

> <i_epik_Tot_abs_Q>
1

> <r_epik_Metal_State_Penalty>
-0

> <b_epik_Metal_Only>
0

> <s_lp_Force_Field>
OPLS_2005

> <r_lp_Energy>
15.8084

> <b_lp_Chiralities_Consistent>
1

> <s_lp_Variant>
AV-unprocessed.smi:3084-2

> <Gold.Version>
5.8.1

> <Gold.Id.Protein>
6NUR|6NUR_protein|mol2

> <Gold.PLP.Fitness>
40.7067

> <Gold.PLP.PLP>
-27.3911

> <Gold.PLP.part.hbond>
-2.0000

> <Gold.PLP.part.metal>
0.0000

> <Gold.PLP.part.buried>
-3.1564

> <Gold.PLP.part.nonpolar>
-22.0284

> <Gold.PLP.part.repulsive>
0.2060

> <Gold.PLP.ligand.clash>
0.0000

> <Gold.PLP.ligand.torsion>
0.0856

> <Gold.PLP.Chemscore.Hbond>
3.0000

> <Gold.PLP.Chemscore.CHOScore>
1.4940

> <Gold.PLP.Chemscore.Metal>
0.0000

> <Gold.Chemscore.Hbonds>
donor molecule, donor type, donor heavy atom, donor atom, acceptor molecule, acceptor atom, score
      L1  H    11    27       P1  8028  2.00
      P1  H  7989  7998       L1    12  1.00
      L1  C     1    13       P1  7957  1.00
      L1  C     3    14       P1  8028  0.49

> <Gold.PLP.Chemscore.Internal.Correction>
0.0048

> <Gold.Rescore>
     Score         DG    S(hbond)    S(metal)    S(lipo)     H(rot)  DE(clash)    DE(int)     intcor
     14.13     -15.57       1.86        0.00      66.25       1.51       1.28       0.17       ----

> <Gold.Chemscore.Fitness>
14.1290

> <Gold.Chemscore.DG>
-15.5722

> <Gold.Chemscore.ZeroCoef>
-5.4800

> <Gold.Chemscore.Hbond>
1.8557

> <Gold.Chemscore.Metal>
0.0000

> <Gold.Chemscore.Lipo>
66.2486

> <Gold.Chemscore.Internal_Hbond>
0.0000

> <Gold.Chemscore.DEClash>
1.2771

> <Gold.Chemscore.DEInternal>
0.1661

> <Gold.Chemscore.Rot>
1.5066

> <Gold.Chemscore.Internal.Correction>
   9.000000E+99

> <Gold.Chemscore.Hbonds>
donor molecule, donor type, donor heavy atom, donor atom, acceptor molecule, acceptor atom, score
      L1  H    11    27       P1  8028  0.91
      P1  H  7989  7998       L1    12  0.68

> <Gold.Chemscore.Hbond.Weighted>
-6.1981

> <Gold.Chemscore.Metal.Weighted>
-0.0000

> <Gold.Chemscore.Lipo.Weighted>
-7.7511

> <Gold.Chemscore.Internal_Hbond.Weighted>
0.0000

> <Gold.Chemscore.DEClash.Weighted>
1.2771

> <Gold.Chemscore.DEInternal.Weighted>
0.1661

> <Gold.Chemscore.Rot.Weighted>
3.8569

> <Gold.Chemscore.Internal.Correction.Weighted>
   9.000000E+99

> <Gold.Protein.RotatedTorsions>
[ 6907 6896 6895 6894 ] final   75.59 input  -60.11 | X-H torsion
[ 7974 7965 7964 7962 ] final   31.38 input  175.53 | X-H torsion
[ 8008 7997 7996 7995 ] final -106.54 input   59.86 | X-H torsion
[ 10167 10162 10161 10158 ] final   43.19 input  -65.29 | X-H torsion
[ 10718 10713 10712 10709 ] final  136.58 input   66.30 | X-H torsion
[ 10763 10752 10751 10750 ] final   75.23 input  -60.55 | X-H torsion
[ 11005 11000 10999 10996 ] final  134.29 input  -57.11 | X-H torsion

> <Gold.Protein.ActiveResidues>
 VAL166  LYS551  ARG553  GLY616  TRP617  ASP618  TYR619  PRO620  LYS621  CYS622 
 ASP623  PHE694  ASN695  SER759  ASP760  ASP761  ALA762  ILE779  LEU786  VAL792 
 PHE793  MET794  SER795  GLU796  ALA797  LYS798  CYS799  TRP800  GLU811  SER814 

> <Gold.Protein.RotatedAtoms>
  152.5033  134.4097  159.9444 H   0  0  0  0  0  0  0  0  0  0  0  0  # atno 6907 bound_to 6896
  151.4065  133.3735  159.2746 H   0  0  0  0  0  0  0  0  0  0  0  0  # atno 6908 bound_to 6896
  150.9323  134.8759  159.7618 H   0  0  0  0  0  0  0  0  0  0  0  0  # atno 6909 bound_to 6896
  146.1553  139.6664  142.9070 H   0  0  0  0  0  0  0  0  0  0  0  0  # atno 7974 bound_to 7965
  154.9161  140.0408  157.1972 H   0  0  0  0  0  0  0  0  0  0  0  0  # atno 8008 bound_to 7997
  154.8300  140.2897  155.5707 H   0  0  0  0  0  0  0  0  0  0  0  0  # atno 8009 bound_to 7997
  156.2986  140.2502  156.3223 H   0  0  0  0  0  0  0  0  0  0  0  0  # atno 8010 bound_to 7997
  140.3468  144.2400  150.6149 H   0  0  0  0  0  0  0  0  0  0  0  0  # atno 10167 bound_to 10162
  157.4451  131.1061  151.0098 H   0  0  0  0  0  0  0  0  0  0  0  0  # atno 10718 bound_to 10713
  153.0641  135.4996  154.8160 H   0  0  0  0  0  0  0  0  0  0  0  0  # atno 10763 bound_to 10752
  154.6927  135.2987  154.9459 H   0  0  0  0  0  0  0  0  0  0  0  0  # atno 10764 bound_to 10752
  154.0208  135.6742  153.4825 H   0  0  0  0  0  0  0  0  0  0  0  0  # atno 10765 bound_to 10752
  139.9905  134.9516  156.9845 H   0  0  0  0  0  0  0  0  0  0  0  0  # atno 11005 bound_to 11000
  145.4723  141.0436  143.2692 LP  0  0  0  0  0  0  0  0  0  0  0  0  # atno 17320 bound_to 7965
  144.7956  139.6241  143.7094 LP  0  0  0  0  0  0  0  0  0  0  0  0  # atno 17321 bound_to 7965
  140.5256  143.2255  151.8319 LP  0  0  0  0  0  0  0  0  0  0  0  0  # atno 17342 bound_to 10162
  139.4832  144.4783  151.9339 LP  0  0  0  0  0  0  0  0  0  0  0  0  # atno 17343 bound_to 10162
  157.0948  130.5957  149.5447 LP  0  0  0  0  0  0  0  0  0  0  0  0  # atno 17370 bound_to 10713
  155.9964  130.5033  150.7496 LP  0  0  0  0  0  0  0  0  0  0  0  0  # atno 17371 bound_to 10713
  140.4917  134.1186  155.7234 LP  0  0  0  0  0  0  0  0  0  0  0  0  # atno 17394 bound_to 11000
  141.1562  133.8878  157.1971 LP  0  0  0  0  0  0  0  0  0  0  0  0  # atno 17395 bound_to 11000

$$$$
