AV-unprocessed.smi:1186|AV-procd|sdf|4975|dock4
  -GOLD-   22720 3573D 1   1.00000     0.00000
 Structure written by MMmdl.
 39 40  0  0  0  0  0  0  0  0  1 V2000
  146.1197  138.9992  154.0437 O   0  0  0  0  0  0  0  0  0  0  0  0
  146.9902  138.2855  153.5454 C   0  0  0  0  0  0  0  0  0  0  0  0
  148.2667  138.6607  153.3853 N   0  0  0  0  0  0  0  0  0  0  0  0
  148.8099  139.9546  153.7875 C   0  0  0  0  0  0  0  0  0  0  0  0
  150.0533  139.8820  154.6649 C   0  0  0  0  0  0  0  0  0  0  0  0
  151.0903  138.9547  154.4248 C   0  0  0  0  0  0  0  0  0  0  0  0
  152.2017  138.9548  155.2874 C   0  0  0  0  0  0  0  0  0  0  0  0
  152.3328  139.8047  156.3267 N   0  0  0  0  0  0  0  0  0  0  0  0
  151.3521  140.7119  156.5584 C   0  0  0  0  0  0  0  0  0  0  0  0
  151.5060  141.6032  157.6421 N   0  0  0  0  0  0  0  0  0  0  0  0
  152.6000  141.3578  158.5796 C   0  0  0  0  0  0  0  0  0  0  0  0
  152.4451  142.2434  159.8274 C   0  0  0  0  0  0  0  0  0  0  0  0
  152.3552  143.6094  159.4366 O   0  0  0  0  0  0  0  0  0  0  0  0
  151.2203  143.8500  158.6109 C   0  0  0  0  0  0  0  0  0  0  0  0
  151.3248  143.0168  157.3218 C   0  0  0  0  0  0  0  0  0  0  0  0
  150.1948  140.7763  155.7459 C   0  0  0  0  0  0  0  0  0  0  0  0
  146.7801  137.0371  153.1071 N   0  0  0  0  0  0  0  0  0  0  0  0
  145.5087  136.3253  153.1871 C   0  0  0  0  0  0  0  0  0  0  0  0
  145.2700  135.4365  151.9549 C   0  0  0  0  0  0  0  0  0  0  0  0
  144.0036  135.0224  151.9535 F   0  0  0  0  0  0  0  0  0  0  0  0
  145.4937  136.1285  150.8376 F   0  0  0  0  0  0  0  0  0  0  0  0
  146.0666  134.3682  151.9761 F   0  0  0  0  0  0  0  0  0  0  0  0
  148.9110  138.0051  152.9682 H   0  0  0  0  0  0  0  0  0  0  0  0
  149.0634  140.5101  152.8845 H   0  0  0  0  0  0  0  0  0  0  0  0
  148.0364  140.5322  154.2969 H   0  0  0  0  0  0  0  0  0  0  0  0
  151.0440  138.2525  153.6059 H   0  0  0  0  0  0  0  0  0  0  0  0
  153.0099  138.2544  155.1367 H   0  0  0  0  0  0  0  0  0  0  0  0
  152.6114  140.3089  158.8792 H   0  0  0  0  0  0  0  0  0  0  0  0
  153.5516  141.5684  158.0894 H   0  0  0  0  0  0  0  0  0  0  0  0
  151.5614  141.9582  160.4003 H   0  0  0  0  0  0  0  0  0  0  0  0
  153.3050  142.1179  160.4854 H   0  0  0  0  0  0  0  0  0  0  0  0
  150.3046  143.6113  159.1544 H   0  0  0  0  0  0  0  0  0  0  0  0
  151.1779  144.9118  158.3682 H   0  0  0  0  0  0  0  0  0  0  0  0
  152.1756  143.3538  156.7283 H   0  0  0  0  0  0  0  0  0  0  0  0
  150.4329  143.1832  156.7193 H   0  0  0  0  0  0  0  0  0  0  0  0
  149.4112  141.4904  155.9520 H   0  0  0  0  0  0  0  0  0  0  0  0
  147.5605  136.5302  152.7161 H   0  0  0  0  0  0  0  0  0  0  0  0
  145.4575  135.7306  154.1006 H   0  0  0  0  0  0  0  0  0  0  0  0
  144.7149  137.0690  153.2618 H   0  0  0  0  0  0  0  0  0  0  0  0
  1  2  2  0  0  0  0
  2  3  1  0  0  0  0
  2 17  1  0  0  0  0
  3  4  1  0  0  0  0
  3 23  1  0  0  0  0
  4  5  1  0  0  0  0
  4 24  1  0  0  0  0
  4 25  1  0  0  0  0
  5 16  1  0  0  0  0
  5  6  2  0  0  0  0
  6  7  1  0  0  0  0
  6 26  1  0  0  0  0
  7  8  2  0  0  0  0
  7 27  1  0  0  0  0
  8  9  1  0  0  0  0
  9 10  1  0  0  0  0
  9 16  2  0  0  0  0
 10 15  1  0  0  0  0
 10 11  1  0  0  0  0
 11 12  1  0  0  0  0
 11 28  1  0  0  0  0
 11 29  1  0  0  0  0
 12 13  1  0  0  0  0
 12 30  1  0  0  0  0
 12 31  1  0  0  0  0
 13 14  1  0  0  0  0
 14 15  1  0  0  0  0
 14 32  1  0  0  0  0
 14 33  1  0  0  0  0
 15 34  1  0  0  0  0
 15 35  1  0  0  0  0
 16 36  1  0  0  0  0
 17 18  1  0  0  0  0
 17 37  1  0  0  0  0
 18 19  1  0  0  0  0
 18 38  1  0  0  0  0
 18 39  1  0  0  0  0
 19 20  1  0  0  0  0
 19 21  1  0  0  0  0
 19 22  1  0  0  0  0
M  END
> <s_m_source_file>
AV-unprocessed.smi

> <i_m_source_file_index>
1186

> <i_lp_mmshare_version>
43012

> <i_f3d_flags>
0

> <s_epik_input>
RkMoRikoRilbQ0gyXVtOSF1DKD1PKVtOSF1bQ0gyXWMxW2NIXVtjSF1uYyhbY0hdMSlOMltDSDJdW0NIMl1PW0NIMl1bQ0gyXTI=

> <s_epik_cmdline>
J2VwaWtfcHl0aG9uJywgJy1waCcsICc3LjAnLCAnLXRuJywgJzgnLCAnLW1hJywgJzIwMCcsICctbWV0YWxfYmluZGluZycsICctaW1hZScsICc8aW5maWxlLm1hZT4nLCAnLW9tYWUnLCAnPG91dGZpbGUubWFlPic=

> <r_lp_tautomer_probability>
1

> <r_epik_Ionization_Penalty>
0.00300827

> <r_epik_Ionization_Penalty_Charging>
0

> <r_epik_Ionization_Penalty_Neutral>
0.00300827

> <r_epik_State_Penalty>
0.0020903

> <r_epik_Charging_Adjusted_Penalty>
0.0020903

> <i_epik_Tot_Q>
0

> <i_epik_Tot_abs_Q>
0

> <r_epik_Metal_State_Penalty>
-0

> <b_epik_Metal_Only>
0

> <s_lp_Force_Field>
OPLS_2005

> <r_lp_Energy>
10.4369

> <b_lp_Chiralities_Consistent>
1

> <s_lp_Variant>
AV-unprocessed.smi:1186-1

> <Gold.Version>
5.8.1

> <Gold.Id.Protein>
6NUR|6NUR_protein|mol2

> <Gold.PLP.Fitness>
46.9026

> <Gold.PLP.PLP>
-39.6655

> <Gold.PLP.part.hbond>
-4.0000

> <Gold.PLP.part.metal>
0.0000

> <Gold.PLP.part.buried>
-2.2566

> <Gold.PLP.part.nonpolar>
-33.3822

> <Gold.PLP.part.repulsive>
0.2233

> <Gold.PLP.ligand.clash>
0.0000

> <Gold.PLP.ligand.torsion>
0.7328

> <Gold.PLP.Chemscore.Hbond>
2.7800

> <Gold.PLP.Chemscore.CHOScore>
0.0000

> <Gold.PLP.Chemscore.Metal>
0.0000

> <Gold.Chemscore.Hbonds>
donor molecule, donor type, donor heavy atom, donor atom, acceptor molecule, acceptor atom, score
      L1  H     3    23       P1  7948  0.77
      L1  H    17    37       P1  7948  1.00
      P1  H  7997  8010       L1     8  0.93

> <Gold.PLP.Chemscore.Internal.Correction>
0.3627

> <Gold.Rescore>
     Score         DG    S(hbond)    S(metal)    S(lipo)     H(rot)  DE(clash)    DE(int)     intcor
     16.68     -18.86       2.75        0.00      81.46       2.09       1.55       0.64       ----

> <Gold.Chemscore.Fitness>
16.6752

> <Gold.Chemscore.DG>
-18.8605

> <Gold.Chemscore.ZeroCoef>
-5.4800

> <Gold.Chemscore.Hbond>
2.7544

> <Gold.Chemscore.Metal>
0.0000

> <Gold.Chemscore.Lipo>
81.4623

> <Gold.Chemscore.Internal_Hbond>
0.0000

> <Gold.Chemscore.DEClash>
1.5500

> <Gold.Chemscore.DEInternal>
0.6353

> <Gold.Chemscore.Rot>
2.0899

> <Gold.Chemscore.Internal.Correction>
   9.000000E+99

> <Gold.Chemscore.Hbonds>
donor molecule, donor type, donor heavy atom, donor atom, acceptor molecule, acceptor atom, score
      L1  H     3    23       P1  7948  0.75
      L1  H    17    37       P1  7948  0.99
      P1  H  7997  8010       L1     8  0.48

> <Gold.Chemscore.Hbond.Weighted>
-9.1997

> <Gold.Chemscore.Metal.Weighted>
-0.0000

> <Gold.Chemscore.Lipo.Weighted>
-9.5311

> <Gold.Chemscore.Internal_Hbond.Weighted>
0.0000

> <Gold.Chemscore.DEClash.Weighted>
1.5500

> <Gold.Chemscore.DEInternal.Weighted>
0.6353

> <Gold.Chemscore.Rot.Weighted>
5.3502

> <Gold.Chemscore.Internal.Correction.Weighted>
   9.000000E+99

> <Gold.Protein.RotatedTorsions>
[ 6907 6896 6895 6894 ] final   73.47 input  -60.11 | X-H torsion
[ 7974 7965 7964 7962 ] final -160.95 input  175.53 | X-H torsion
[ 8008 7997 7996 7995 ] final   62.67 input   59.86 | X-H torsion
[ 10167 10162 10161 10158 ] final   90.91 input  -65.29 | X-H torsion
[ 10718 10713 10712 10709 ] final   88.24 input   66.30 | X-H torsion
[ 10763 10752 10751 10750 ] final  102.55 input  -60.55 | X-H torsion
[ 11005 11000 10999 10996 ] final  -37.50 input  -57.11 | X-H torsion

> <Gold.Protein.ActiveResidues>
 VAL166  LYS551  ARG553  GLY616  TRP617  ASP618  TYR619  PRO620  LYS621  CYS622 
 ASP623  PHE694  ASN695  SER759  ASP760  ASP761  ALA762  ILE779  LEU786  VAL792 
 PHE793  MET794  SER795  GLU796  ALA797  LYS798  CYS799  TRP800  GLU811  SER814 

> <Gold.Protein.RotatedAtoms>
  152.4925  134.4416  159.9545 H   0  0  0  0  0  0  0  0  0  0  0  0  # atno 6907 bound_to 6896
  151.4401  133.3640  159.2788 H   0  0  0  0  0  0  0  0  0  0  0  0  # atno 6908 bound_to 6896
  150.9094  134.8533  159.7474 H   0  0  0  0  0  0  0  0  0  0  0  0  # atno 6909 bound_to 6896
  144.7408  140.3467  143.6124 H   0  0  0  0  0  0  0  0  0  0  0  0  # atno 7974 bound_to 7965
  155.6181  140.3495  155.4643 H   0  0  0  0  0  0  0  0  0  0  0  0  # atno 8008 bound_to 7997
  156.0101  140.1231  157.0486 H   0  0  0  0  0  0  0  0  0  0  0  0  # atno 8009 bound_to 7997
  154.4278  140.1083  156.5804 H   0  0  0  0  0  0  0  0  0  0  0  0  # atno 8010 bound_to 7997
  139.8427  144.6633  150.9264 H   0  0  0  0  0  0  0  0  0  0  0  0  # atno 10167 bound_to 10162
  157.6947  131.0287  150.3244 H   0  0  0  0  0  0  0  0  0  0  0  0  # atno 10718 bound_to 10713
  153.3411  135.4006  155.1572 H   0  0  0  0  0  0  0  0  0  0  0  0  # atno 10763 bound_to 10752
  154.8644  135.3634  154.5345 H   0  0  0  0  0  0  0  0  0  0  0  0  # atno 10764 bound_to 10752
  153.5789  135.7077  153.5531 H   0  0  0  0  0  0  0  0  0  0  0  0  # atno 10765 bound_to 10752
  140.9957  133.6981  156.1930 H   0  0  0  0  0  0  0  0  0  0  0  0  # atno 11005 bound_to 11000
  145.7318  139.1738  143.2426 LP  0  0  0  0  0  0  0  0  0  0  0  0  # atno 17320 bound_to 7965
  146.1200  140.7320  142.9462 LP  0  0  0  0  0  0  0  0  0  0  0  0  # atno 17321 bound_to 7965
  140.7796  143.3898  151.1329 LP  0  0  0  0  0  0  0  0  0  0  0  0  # atno 17342 bound_to 10162
  139.7543  143.8731  152.3085 LP  0  0  0  0  0  0  0  0  0  0  0  0  # atno 17343 bound_to 10162
  156.3727  130.3866  149.7163 LP  0  0  0  0  0  0  0  0  0  0  0  0  # atno 17370 bound_to 10713
  156.4572  130.7934  151.2955 LP  0  0  0  0  0  0  0  0  0  0  0  0  # atno 17371 bound_to 10713
  140.6970  134.4605  157.5587 LP  0  0  0  0  0  0  0  0  0  0  0  0  # atno 17394 bound_to 11000
  139.9013  134.8549  156.1883 LP  0  0  0  0  0  0  0  0  0  0  0  0  # atno 17395 bound_to 11000

$$$$
