AV-unprocessed.smi:114|AV-procd|sdf|1116|dock4
  -GOLD-   2262018233D 1   1.00000     0.00000
 Structure written by MMmdl.
 32 34  0  0  0  0  0  0  0  0  1 V2000
  144.7708  133.7773  154.9952 N   0  0  0  0  0  0  0  0  0  0  0  0
  144.7012  135.0838  154.7039 C   0  0  0  0  0  0  0  0  0  0  0  0
  143.6291  135.5345  154.0108 N   0  0  0  0  0  0  0  0  0  0  0  0
  143.5222  136.8321  153.6975 C   0  0  0  0  0  0  0  0  0  0  0  0
  142.4184  137.1935  153.0023 F   0  0  0  0  0  0  0  0  0  0  0  0
  144.3839  137.8121  153.9925 N   0  0  0  0  0  0  0  0  0  0  0  0
  145.4637  137.3589  154.6926 C   0  0  0  0  0  0  0  0  0  0  0  0
  145.6975  136.0151  155.0853 C   0  0  0  0  0  0  0  0  0  0  0  0
  146.8978  135.9275  155.7778 N   0  0  0  0  0  0  0  0  0  0  0  0
  147.3450  137.1555  155.7891 C   0  0  0  0  0  0  0  0  0  0  0  0
  146.5422  138.0805  155.1533 N   0  0  0  0  0  0  0  0  0  0  0  0
  146.7419  139.5555  154.9759 C   0  0  1  0  0  0  0  0  0  0  0  0
  147.5181  140.0258  156.0377 O   0  0  0  0  0  0  0  0  0  0  0  0
  148.8536  140.2496  155.5981 C   0  0  2  0  0  0  0  0  0  0  0  0
  149.5541  141.2367  156.5437 C   0  0  0  0  0  0  0  0  0  0  0  0
  148.6868  142.3081  156.8478 O   0  0  0  0  0  0  0  0  0  0  0  0
  148.6138  140.8023  154.1935 C   0  0  1  0  0  0  0  0  0  0  0  0
  149.7769  140.7917  153.3865 O   0  0  0  0  0  0  0  0  0  0  0  0
  147.4984  139.9007  153.6702 C   0  0  1  0  0  0  0  0  0  0  0  0
  148.0026  138.7662  152.9797 O   0  0  0  0  0  0  0  0  0  0  0  0
  145.7383  139.9793  155.0290 H   0  0  0  0  0  0  0  0  0  0  0  0
  149.3962  139.3040  155.5370 H   0  0  0  0  0  0  0  0  0  0  0  0
  148.2422  141.8259  154.2635 H   0  0  0  0  0  0  0  0  0  0  0  0
  146.8333  140.4445  152.9987 H   0  0  0  0  0  0  0  0  0  0  0  0
  145.5629  133.4201  155.5102 H   0  0  0  0  0  0  0  0  0  0  0  0
  144.0338  133.1535  154.6995 H   0  0  0  0  0  0  0  0  0  0  0  0
  148.2789  137.4155  156.2657 H   0  0  0  0  0  0  0  0  0  0  0  0
  149.8061  140.7434  157.4828 H   0  0  0  0  0  0  0  0  0  0  0  0
  150.4839  141.6095  156.1130 H   0  0  0  0  0  0  0  0  0  0  0  0
  148.9222  143.0476  156.3089 H   0  0  0  0  0  0  0  0  0  0  0  0
  149.6615  140.1493  152.7032 H   0  0  0  0  0  0  0  0  0  0  0  0
  148.7550  139.0346  152.4744 H   0  0  0  0  0  0  0  0  0  0  0  0
  1  2  1  0  0  0  0
  1 25  1  0  0  0  0
  1 26  1  0  0  0  0
  2  8  1  0  0  0  0
  2  3  2  0  0  0  0
  3  4  1  0  0  0  0
  4  5  1  0  0  0  0
  4  6  2  0  0  0  0
  6  7  1  0  0  0  0
  7 11  1  0  0  0  0
  7  8  2  0  0  0  0
  8  9  1  0  0  0  0
  9 10  2  0  0  0  0
 10 11  1  0  0  0  0
 10 27  1  0  0  0  0
 11 12  1  0  0  0  0
 12 21  1  0  0  0  0
 12 19  1  0  0  0  0
 12 13  1  0  0  0  0
 13 14  1  0  0  0  0
 14 22  1  0  0  0  0
 14 15  1  0  0  0  0
 14 17  1  0  0  0  0
 15 16  1  0  0  0  0
 15 28  1  0  0  0  0
 15 29  1  0  0  0  0
 16 30  1  0  0  0  0
 17 23  1  0  0  0  0
 17 18  1  0  0  0  0
 17 19  1  0  0  0  0
 18 31  1  0  0  0  0
 19 24  1  0  0  0  0
 19 20  1  0  0  0  0
 20 32  1  0  0  0  0
M  END
> <s_m_source_file>
AV-unprocessed.smi

> <i_m_source_file_index>
114

> <i_lp_mmshare_version>
43012

> <i_f3d_flags>
0

> <s_epik_input>
RmMobjEpbmMoW05IMl0pYyhjMTIpbltjSF1uMltDQEBIXTNPW0NASF0oW0NIMl1bT0hdKVtDQEBIXShbT0hdKVtDQEBIXTNbT0hd

> <s_epik_cmdline>
J2VwaWtfcHl0aG9uJywgJy1waCcsICc3LjAnLCAnLXRuJywgJzgnLCAnLW1hJywgJzIwMCcsICctbWV0YWxfYmluZGluZycsICctaW1hZScsICc8aW5maWxlLm1hZT4nLCAnLW9tYWUnLCAnPG91dGZpbGUubWFlPic=

> <r_lp_tautomer_probability>
1

> <r_epik_Ionization_Penalty>
1.13199e-05

> <r_epik_Ionization_Penalty_Charging>
0

> <r_epik_Ionization_Penalty_Neutral>
1.13199e-05

> <r_epik_State_Penalty>
-0

> <r_epik_Charging_Adjusted_Penalty>
0

> <i_epik_Tot_Q>
0

> <i_epik_Tot_abs_Q>
0

> <r_epik_Metal_State_Penalty>
-0

> <b_epik_Metal_Only>
0

> <s_epik_Chemistry_Notes>
This compound contains an acetal/aminal-like group ( X-CH(R)-Y where X, Y are N, S, or O) that may be acid/base labile, releasing an aldehyde.

> <s_lp_Force_Field>
OPLS_2005

> <r_lp_Energy>
42.7446

> <b_lp_Chiralities_Consistent>
1

> <s_lp_Variant>
AV-unprocessed.smi:114-10

> <Gold.Version>
5.8.1

> <Gold.Id.Protein>
6NUR|6NUR_protein|mol2

> <Gold.PLP.Fitness>
32.3862

> <Gold.PLP.PLP>
-18.6058

> <Gold.PLP.part.hbond>
-6.0918

> <Gold.PLP.part.metal>
0.0000

> <Gold.PLP.part.buried>
-3.0525

> <Gold.PLP.part.nonpolar>
-8.7859

> <Gold.PLP.part.repulsive>
0.2359

> <Gold.PLP.ligand.clash>
0.0000

> <Gold.PLP.ligand.torsion>
0.8268

> <Gold.PLP.Chemscore.Hbond>
5.1200

> <Gold.PLP.Chemscore.CHOScore>
0.0000

> <Gold.PLP.Chemscore.Metal>
0.0000

> <Gold.Chemscore.Hbonds>
donor molecule, donor type, donor heavy atom, donor atom, acceptor molecule, acceptor atom, score
      L1  H     1    26       P1 10957  1.00
      L1  H    16    30       P1  8028  1.00
      L1  H    18    31       P1  7957  0.80
      L1  H    20    32       P1  7957  1.00
      P1  H  7989  7998       L1    18  0.30
      P1  H  8011  8017       L1    18  1.00

> <Gold.PLP.Chemscore.Internal.Correction>
0.0740

> <Gold.Rescore>
     Score         DG    S(hbond)    S(metal)    S(lipo)     H(rot)  DE(clash)    DE(int)     intcor
     11.77     -12.62       4.37        0.00      24.40       4.03       0.02       0.83       ----

> <Gold.Chemscore.Fitness>
11.7661

> <Gold.Chemscore.DG>
-12.6152

> <Gold.Chemscore.ZeroCoef>
-5.4800

> <Gold.Chemscore.Hbond>
4.3686

> <Gold.Chemscore.Metal>
0.0000

> <Gold.Chemscore.Lipo>
24.4006

> <Gold.Chemscore.Internal_Hbond>
0.0000

> <Gold.Chemscore.DEClash>
0.0222

> <Gold.Chemscore.DEInternal>
0.8269

> <Gold.Chemscore.Rot>
4.0277

> <Gold.Chemscore.Internal.Correction>
   9.000000E+99

> <Gold.Chemscore.Hbonds>
donor molecule, donor type, donor heavy atom, donor atom, acceptor molecule, acceptor atom, score
      L1  H     1    26       P1 10957  0.98
      L1  H    16    30       P1  8028  0.99
      L1  H    18    31       P1  7957  0.75
      L1  H    20    32       P1  7957  0.97
      P1  H  7989  7998       L1    18  0.09
      P1  H  8011  8017       L1    18  0.18

> <Gold.Chemscore.Hbond.Weighted>
-14.5913

> <Gold.Chemscore.Metal.Weighted>
-0.0000

> <Gold.Chemscore.Lipo.Weighted>
-2.8549

> <Gold.Chemscore.Internal_Hbond.Weighted>
0.0000

> <Gold.Chemscore.DEClash.Weighted>
0.0222

> <Gold.Chemscore.DEInternal.Weighted>
0.8269

> <Gold.Chemscore.Rot.Weighted>
10.3110

> <Gold.Chemscore.Internal.Correction.Weighted>
   9.000000E+99

> <Gold.Protein.RotatedTorsions>
[ 6907 6896 6895 6894 ] final -122.57 input  -60.11 | X-H torsion
[ 7974 7965 7964 7962 ] final -138.03 input  175.53 | X-H torsion
[ 8008 7997 7996 7995 ] final  163.26 input   59.86 | X-H torsion
[ 10167 10162 10161 10158 ] final  -98.41 input  -65.29 | X-H torsion
[ 10718 10713 10712 10709 ] final   67.45 input   66.30 | X-H torsion
[ 10763 10752 10751 10750 ] final  -39.45 input  -60.55 | X-H torsion
[ 11005 11000 10999 10996 ] final  106.47 input  -57.11 | X-H torsion

> <Gold.Protein.ActiveResidues>
 VAL166  LYS551  ARG553  GLY616  TRP617  ASP618  TYR619  PRO620  LYS621  CYS622 
 ASP623  PHE694  ASN695  SER759  ASP760  ASP761  ALA762  ILE779  LEU786  VAL792 
 PHE793  MET794  SER795  GLU796  ALA797  LYS798  CYS799  TRP800  GLU811  SER814 

> <Gold.Protein.RotatedAtoms>
  150.8589  133.7674  159.2999 H   0  0  0  0  0  0  0  0  0  0  0  0  # atno 6907 bound_to 6896
  151.5322  135.1067  159.9915 H   0  0  0  0  0  0  0  0  0  0  0  0  # atno 6908 bound_to 6896
  152.4611  133.7780  159.6891 H   0  0  0  0  0  0  0  0  0  0  0  0  # atno 6909 bound_to 6896
  144.8792  140.6482  143.5217 H   0  0  0  0  0  0  0  0  0  0  0  0  # atno 7974 bound_to 7965
  156.1970  140.1728  156.7977 H   0  0  0  0  0  0  0  0  0  0  0  0  # atno 8008 bound_to 7997
  154.5543  140.0711  156.8749 H   0  0  0  0  0  0  0  0  0  0  0  0  # atno 8009 bound_to 7997
  155.2969  140.3359  155.4252 H   0  0  0  0  0  0  0  0  0  0  0  0  # atno 8010 bound_to 7997
  140.2732  143.3330  152.0514 H   0  0  0  0  0  0  0  0  0  0  0  0  # atno 10167 bound_to 10162
  157.6231  130.9322  150.0245 H   0  0  0  0  0  0  0  0  0  0  0  0  # atno 10718 bound_to 10713
  153.9295  135.6773  153.4746 H   0  0  0  0  0  0  0  0  0  0  0  0  # atno 10763 bound_to 10752
  153.0987  135.4839  154.8823 H   0  0  0  0  0  0  0  0  0  0  0  0  # atno 10764 bound_to 10752
  154.7435  135.3166  154.8643 H   0  0  0  0  0  0  0  0  0  0  0  0  # atno 10765 bound_to 10752
  139.8814  134.9370  156.5671 H   0  0  0  0  0  0  0  0  0  0  0  0  # atno 11005 bound_to 11000
  145.3986  139.1602  143.4190 LP  0  0  0  0  0  0  0  0  0  0  0  0  # atno 17320 bound_to 7965
  146.2983  140.4081  142.8713 LP  0  0  0  0  0  0  0  0  0  0  0  0  # atno 17321 bound_to 7965
  139.4983  144.6642  151.6395 LP  0  0  0  0  0  0  0  0  0  0  0  0  # atno 17342 bound_to 10162
  140.5872  143.9843  150.6303 LP  0  0  0  0  0  0  0  0  0  0  0  0  # atno 17343 bound_to 10162
  156.1387  130.3642  149.9615 LP  0  0  0  0  0  0  0  0  0  0  0  0  # atno 17370 bound_to 10713
  156.7661  130.9169  151.3643 LP  0  0  0  0  0  0  0  0  0  0  0  0  # atno 17371 bound_to 10713
  140.8126  133.8417  155.8823 LP  0  0  0  0  0  0  0  0  0  0  0  0  # atno 17394 bound_to 11000
  140.9492  134.1800  157.4740 LP  0  0  0  0  0  0  0  0  0  0  0  0  # atno 17395 bound_to 11000

$$$$
