AV-unprocessed.smi:3118|AV-procd|sdf|11886|dock4
  -GOLD-   2272017273D 1   1.00000     0.00000
 Structure written by MMmdl.
 33 34  0  0  0  0  0  0  0  0  2 V2000
  151.3609  140.3376  155.8814 C   0  0  0  0  0  0  0  0  0  0  0  0
  150.1009  141.2135  155.8628 C   0  0  2  0  0  0  0  0  0  0  0  0
  149.5297  141.3410  154.4339 C   0  0  0  0  0  0  0  0  0  0  0  0
  148.0640  141.2941  154.3981 N   0  0  0  0  0  0  0  0  0  0  0  0
  147.1920  142.0389  155.1500 C   0  0  0  0  0  0  0  0  0  0  0  0
  145.9293  141.6675  154.7661 C   0  0  0  0  0  0  0  0  0  0  0  0
  146.0836  140.7088  153.8009 N   0  3  0  0  0  0  0  0  0  0  0  0
  147.3823  140.4794  153.5820 C   0  0  0  0  0  0  0  0  0  0  0  0
  150.4306  142.5259  156.4180 N   0  0  0  0  0  0  0  0  0  0  0  0
  151.1138  142.7503  157.5515 C   0  0  0  0  0  0  0  0  0  0  0  0
  151.5477  141.8477  158.2685 O   0  0  0  0  0  0  0  0  0  0  0  0
  151.3203  144.2219  157.9305 C   0  0  0  0  0  0  0  0  0  0  0  0
  152.7553  144.5918  158.3471 C   0  0  0  0  0  0  0  0  0  0  0  0
  152.1665  145.3849  159.5176 C   0  0  0  0  0  0  0  0  0  0  0  0
  150.8795  144.5693  159.3630 C   0  0  0  0  0  0  0  0  0  0  0  0
  151.1480  139.3360  155.5066 H   0  0  0  0  0  0  0  0  0  0  0  0
  151.7513  140.2316  156.8942 H   0  0  0  0  0  0  0  0  0  0  0  0
  152.1513  140.7630  155.2620 H   0  0  0  0  0  0  0  0  0  0  0  0
  149.3600  140.7222  156.4964 H   0  0  0  0  0  0  0  0  0  0  0  0
  149.8636  142.2656  153.9599 H   0  0  0  0  0  0  0  0  0  0  0  0
  149.8878  140.5209  153.8102 H   0  0  0  0  0  0  0  0  0  0  0  0
  147.5262  142.7645  155.8773 H   0  0  0  0  0  0  0  0  0  0  0  0
  144.9584  142.0059  155.0978 H   0  0  0  0  0  0  0  0  0  0  0  0
  147.7974  139.7827  152.8757 H   0  0  0  0  0  0  0  0  0  0  0  0
  150.1188  143.3300  155.8925 H   0  0  0  0  0  0  0  0  0  0  0  0
  150.9158  144.9224  157.1970 H   0  0  0  0  0  0  0  0  0  0  0  0
  153.3645  143.7479  158.6757 H   0  0  0  0  0  0  0  0  0  0  0  0
  153.2893  145.2058  157.6215 H   0  0  0  0  0  0  0  0  0  0  0  0
  152.6830  145.2455  160.4676 H   0  0  0  0  0  0  0  0  0  0  0  0
  152.0270  146.4412  159.2828 H   0  0  0  0  0  0  0  0  0  0  0  0
  149.9680  145.1646  159.4203 H   0  0  0  0  0  0  0  0  0  0  0  0
  150.8390  143.7134  160.0395 H   0  0  0  0  0  0  0  0  0  0  0  0
  145.3258  140.2414  153.3193 H   0  0  0  0  0  0  0  0  0  0  0  0
  1  2  1  0  0  0  0
  1 16  1  0  0  0  0
  1 17  1  0  0  0  0
  1 18  1  0  0  0  0
  2  3  1  0  0  0  0
  2  9  1  0  0  0  0
  2 19  1  0  0  0  0
  3  4  1  0  0  0  0
  3 20  1  0  0  0  0
  3 21  1  0  0  0  0
  4  8  1  0  0  0  0
  4  5  1  0  0  0  0
  5  6  2  0  0  0  0
  5 22  1  0  0  0  0
  6  7  1  0  0  0  0
  6 23  1  0  0  0  0
  7  8  2  0  0  0  0
  7 33  1  0  0  0  0
  8 24  1  0  0  0  0
  9 10  1  0  0  0  0
  9 25  1  0  0  0  0
 10 11  2  0  0  0  0
 10 12  1  0  0  0  0
 12 15  1  0  0  0  0
 12 13  1  0  0  0  0
 12 26  1  0  0  0  0
 13 14  1  0  0  0  0
 13 27  1  0  0  0  0
 13 28  1  0  0  0  0
 14 15  1  0  0  0  0
 14 29  1  0  0  0  0
 14 30  1  0  0  0  0
 15 31  1  0  0  0  0
 15 32  1  0  0  0  0
M  CHG  1   7   1
M  END
> <s_m_source_file>
AV-unprocessed.smi

> <i_m_source_file_index>
3118

> <i_lp_mmshare_version>
43012

> <i_f3d_flags>
0

> <s_epik_input>
W0NIMl0xW0NIMl1bQ0gyXVtDSF0xQyg9TylbTkhdW0NASF0oW0NIM10pW0NIMl1uMltjSF1bY0hdbltjSF0y

> <s_epik_cmdline>
J2VwaWtfcHl0aG9uJywgJy1waCcsICc3LjAnLCAnLXRuJywgJzgnLCAnLW1hJywgJzIwMCcsICctbWV0YWxfYmluZGluZycsICctaW1hZScsICc8aW5maWxlLm1hZT4nLCAnLW9tYWUnLCAnPG91dGZpbGUubWFlPic=

> <r_lp_tautomer_probability>
1

> <r_epik_Ionization_Penalty>
0.244425

> <r_epik_Ionization_Penalty_Charging>
0

> <r_epik_Ionization_Penalty_Neutral>
0.244425

> <r_epik_State_Penalty>
0.23553

> <r_epik_Charging_Adjusted_Penalty>
0.23553

> <i_epik_Tot_Q>
1

> <i_epik_Tot_abs_Q>
1

> <r_epik_Metal_State_Penalty>
0.5288

> <b_epik_Metal_Only>
0

> <s_lp_Force_Field>
OPLS_2005

> <r_lp_Energy>
13.9066

> <b_lp_Chiralities_Consistent>
1

> <s_lp_Variant>
AV-unprocessed.smi:3118-1

> <Gold.Version>
5.8.1

> <Gold.Id.Protein>
6NUR|6NUR_protein|mol2

> <Gold.PLP.Fitness>
50.7500

> <Gold.PLP.PLP>
-37.3541

> <Gold.PLP.part.hbond>
-2.0000

> <Gold.PLP.part.metal>
0.0000

> <Gold.PLP.part.buried>
-1.4561

> <Gold.PLP.part.nonpolar>
-33.6624

> <Gold.PLP.part.repulsive>
0.0932

> <Gold.PLP.ligand.clash>
0.0000

> <Gold.PLP.ligand.torsion>
0.9506

> <Gold.PLP.Chemscore.Hbond>
2.9600

> <Gold.PLP.Chemscore.CHOScore>
2.0000

> <Gold.PLP.Chemscore.Metal>
0.0000

> <Gold.Chemscore.Hbonds>
donor molecule, donor type, donor heavy atom, donor atom, acceptor molecule, acceptor atom, score
      L1  H     7    33       P1 10175  1.79
      L1  H     9    25       P1  8028  0.99
      L1  C     5    22       P1  8028  1.00
      L1  C     8    24       P1  7957  1.00

> <Gold.PLP.Chemscore.Internal.Correction>
0.4172

> <Gold.Rescore>
     Score         DG    S(hbond)    S(metal)    S(lipo)     H(rot)  DE(clash)    DE(int)     intcor
     14.20     -16.59       1.90        0.00      81.17       1.86       0.19       2.20       ----

> <Gold.Chemscore.Fitness>
14.1954

> <Gold.Chemscore.DG>
-16.5879

> <Gold.Chemscore.ZeroCoef>
-5.4800

> <Gold.Chemscore.Hbond>
1.9049

> <Gold.Chemscore.Metal>
0.0000

> <Gold.Chemscore.Lipo>
81.1711

> <Gold.Chemscore.Internal_Hbond>
0.0000

> <Gold.Chemscore.DEClash>
0.1943

> <Gold.Chemscore.DEInternal>
2.1982

> <Gold.Chemscore.Rot>
1.8561

> <Gold.Chemscore.Internal.Correction>
   9.000000E+99

> <Gold.Chemscore.Hbonds>
donor molecule, donor type, donor heavy atom, donor atom, acceptor molecule, acceptor atom, score
      L1  H     7    33       P1 10175  0.86
      L1  H     9    25       P1  8028  0.94

> <Gold.Chemscore.Hbond.Weighted>
-6.3625

> <Gold.Chemscore.Metal.Weighted>
-0.0000

> <Gold.Chemscore.Lipo.Weighted>
-9.4970

> <Gold.Chemscore.Internal_Hbond.Weighted>
0.0000

> <Gold.Chemscore.DEClash.Weighted>
0.1943

> <Gold.Chemscore.DEInternal.Weighted>
2.1982

> <Gold.Chemscore.Rot.Weighted>
4.7516

> <Gold.Chemscore.Internal.Correction.Weighted>
   9.000000E+99

> <Gold.Protein.RotatedTorsions>
[ 6907 6896 6895 6894 ] final  161.62 input  -60.11 | X-H torsion
[ 7974 7965 7964 7962 ] final   45.34 input  175.53 | X-H torsion
[ 8008 7997 7996 7995 ] final   71.28 input   59.86 | X-H torsion
[ 10167 10162 10161 10158 ] final  176.62 input  -65.29 | X-H torsion
[ 10718 10713 10712 10709 ] final -148.65 input   66.30 | X-H torsion
[ 10763 10752 10751 10750 ] final    5.99 input  -60.55 | X-H torsion
[ 11005 11000 10999 10996 ] final   44.93 input  -57.11 | X-H torsion

> <Gold.Protein.ActiveResidues>
 VAL166  LYS551  ARG553  GLY616  TRP617  ASP618  TYR619  PRO620  LYS621  CYS622 
 ASP623  PHE694  ASN695  SER759  ASP760  ASP761  ALA762  ILE779  LEU786  VAL792 
 PHE793  MET794  SER795  GLU796  ALA797  LYS798  CYS799  TRP800  GLU811  SER814 

> <Gold.Protein.RotatedAtoms>
  151.9528  133.3671  159.4005 H   0  0  0  0  0  0  0  0  0  0  0  0  # atno 6907 bound_to 6896
  150.6978  134.4323  159.5263 H   0  0  0  0  0  0  0  0  0  0  0  0  # atno 6908 bound_to 6896
  152.1998  134.8597  160.0560 H   0  0  0  0  0  0  0  0  0  0  0  0  # atno 6909 bound_to 6896
  146.0488  139.4974  142.9731 H   0  0  0  0  0  0  0  0  0  0  0  0  # atno 7974 bound_to 7965
  155.7516  140.3488  155.5153 H   0  0  0  0  0  0  0  0  0  0  0  0  # atno 8008 bound_to 7997
  155.8999  140.1032  157.1378 H   0  0  0  0  0  0  0  0  0  0  0  0  # atno 8009 bound_to 7997
  154.4043  140.1288  156.4410 H   0  0  0  0  0  0  0  0  0  0  0  0  # atno 8010 bound_to 7997
  139.5221  144.2894  152.0477 H   0  0  0  0  0  0  0  0  0  0  0  0  # atno 10167 bound_to 10162
  156.4229  130.8038  151.2261 H   0  0  0  0  0  0  0  0  0  0  0  0  # atno 10718 bound_to 10713
  153.2529  135.6915  153.7660 H   0  0  0  0  0  0  0  0  0  0  0  0  # atno 10763 bound_to 10752
  153.6747  135.3338  155.3163 H   0  0  0  0  0  0  0  0  0  0  0  0  # atno 10764 bound_to 10752
  154.8401  135.4508  154.1492 H   0  0  0  0  0  0  0  0  0  0  0  0  # atno 10765 bound_to 10752
  140.1506  134.4466  155.8384 H   0  0  0  0  0  0  0  0  0  0  0  0  # atno 11005 bound_to 11000
  145.6760  141.0204  143.1632 LP  0  0  0  0  0  0  0  0  0  0  0  0  # atno 17320 bound_to 7965
  144.7112  139.8365  143.7414 LP  0  0  0  0  0  0  0  0  0  0  0  0  # atno 17321 bound_to 7965
  140.2346  144.4333  150.6285 LP  0  0  0  0  0  0  0  0  0  0  0  0  # atno 17342 bound_to 10162
  140.6332  143.2190  151.6451 LP  0  0  0  0  0  0  0  0  0  0  0  0  # atno 17343 bound_to 10162
  157.7508  131.0222  150.3783 LP  0  0  0  0  0  0  0  0  0  0  0  0  # atno 17370 bound_to 10713
  156.4104  130.3933  149.6895 LP  0  0  0  0  0  0  0  0  0  0  0  0  # atno 17371 bound_to 10713
  141.2198  133.6871  156.7415 LP  0  0  0  0  0  0  0  0  0  0  0  0  # atno 17394 bound_to 11000
  140.2609  134.8467  157.3757 LP  0  0  0  0  0  0  0  0  0  0  0  0  # atno 17395 bound_to 11000

$$$$
