#       Name:                AV-unprocessed.smi:529
#       Creating user name   scv26
#       Creation time:       Thu Mar 26 23:33:16 2020


#       File generated by GOLD software.
#

@<TRIPOS>MOLECULE
AV-unprocessed.smi:529
    33    34     1
SMALL
NO_CHARGES


@<TRIPOS>ATOM
      1 ****        -2.6995   1.8443   2.4839 N.2            1 S1                 0.0000
      2 ****        -2.8819   2.3988   1.3373 C.2            1 S1                 0.0000
      3 ****        -3.5677   4.0643   1.0288 S.3            1 S1                 0.0000
      4 ****        -3.3692   3.8174  -0.6931 C.2            1 S1                 0.0000
      5 ****        -2.8532   2.6218  -0.9731 C.2            1 S1                 0.0000
      6 ****        -2.5770   1.8098   0.1082 N.pl3          1 S1                 0.0000
      7 ****        -1.9570   0.4923  -0.0372 C.3            1 S1                 0.0000
      8 ****        -0.4245   0.5310   0.0348 C.2            1 S1                 0.0000
      9 ****         0.1928   1.5874  -0.1100 O.2            1 S1                 0.0000
     10 ****         0.1800  -0.6481   0.2443 N.am           1 S1                 0.0000
     11 ****         1.6231  -0.8438   0.3528 C.3            1 S1                 0.0000
     12 ****         2.3164  -0.7967  -1.0254 C.3            1 S1                 0.0000
     13 ****         3.2024  -2.0415  -1.0979 C.3            1 S1                 0.0000
     14 ****         2.4910  -3.0626  -0.2164 C.3            1 S1                 0.0000
     15 ****         1.9366  -2.2317   0.9410 C.3            1 S1                 0.0000
     16 ****        -2.3043   0.9222   2.3667 H              1 S1                 0.0000
     17 ****        -3.6461   4.5815  -1.4042 H              1 S1                 0.0000
     18 ****        -2.6318   2.2333  -1.9564 H              1 S1                 0.0000
     19 ****        -2.3412  -0.1893   0.7236 H              1 S1                 0.0000
     20 ****        -2.2446   0.0623  -0.9975 H              1 S1                 0.0000
     21 ****        -0.4008  -1.4676   0.3467 H              1 S1                 0.0000
     22 ****         2.0400  -0.0797   1.0118 H              1 S1                 0.0000
     23 ****         1.5802  -0.8385  -1.8299 H              1 S1                 0.0000
     24 ****         2.8905   0.1198  -1.1644 H              1 S1                 0.0000
     25 ****         3.3475  -2.3947  -2.1193 H              1 S1                 0.0000
     26 ****         4.1848  -1.8179  -0.6798 H              1 S1                 0.0000
     27 ****         1.6684  -3.5165  -0.7706 H              1 S1                 0.0000
     28 ****         3.1509  -3.8632   0.1185 H              1 S1                 0.0000
     29 ****         2.7056  -2.1300   1.7079 H              1 S1                 0.0000
     30 ****         1.0765  -2.7083   1.4133 H              1 S1                 0.0000
     31 ****        -2.9176   2.2655   3.3642 LP             1 S1                 0.0000
     32 ****        -0.3049   2.4384  -0.2776 LP             1 S1                 0.0000
     33 ****         1.1915   1.5938  -0.0600 LP             1 S1                 0.0000
@<TRIPOS>BOND
    1    1    2 2     
    2    1   16 1     
    3    2    6 1     
    4    2    3 1     
    5    3    4 1     
    6    4    5 2     
    7    4   17 1     
    8    5    6 1     
    9    5   18 1     
   10    6    7 1     
   11    7    8 1     
   12    7   19 1     
   13    7   20 1     
   14    8    9 2     
   15    8   10 am    
   16   10   11 1     
   17   10   21 1     
   18   11   15 1     
   19   11   12 1     
   20   11   22 1     
   21   12   13 1     
   22   12   23 1     
   23   12   24 1     
   24   13   14 1     
   25   13   25 1     
   26   13   26 1     
   27   14   15 1     
   28   14   27 1     
   29   14   28 1     
   30   15   29 1     
   31   15   30 1     
   32    1   31 1     
   33    9   32 1     
   34    9   33 1     
@<TRIPOS>SUBSTRUCTURE
      1 S1             1
@<TRIPOS>SET
LONE_PAIRS      STATIC     ATOMS    <user>   **** ""
3 31 32 33
DONOR_HYDROGENS      STATIC     ATOMS    <user>   **** ""
2 16 21
ATOM$BLUE        STATIC     ATOMS    COLORGROUP SYSTEM
3 31 32 33
ATOM$RED        STATIC     ATOMS    COLORGROUP SYSTEM
2 16 21
