AV-unprocessed.smi:32|AV-procd|sdf|198|dock4
  -GOLD-   2262015463D 1   1.00000     0.00000
 Structure written by MMmdl.
 49 51  0  0  0  0  0  0  0  0  1 V2000
  155.8371  140.9912  159.5223 O   0  0  0  0  0  0  0  0  0  0  0  0
  154.9208  140.2951  159.9613 C   0  0  0  0  0  0  0  0  0  0  0  0
  155.1677  138.8308  160.3541 C   0  0  0  0  0  0  0  0  0  0  0  0
  155.2089  138.6191  161.8173 N   0  0  0  0  0  0  0  0  0  0  0  0
  154.4194  137.5794  162.3692 C   0  0  0  0  0  0  0  0  0  0  0  0
  153.7229  136.8583  161.6532 O   0  0  0  0  0  0  0  0  0  0  0  0
  154.4871  137.4383  163.8191 C   0  0  0  0  0  0  0  0  0  0  0  0
  153.7693  136.4797  164.4290 F   0  0  0  0  0  0  0  0  0  0  0  0
  155.2579  138.2593  164.5613 C   0  0  0  0  0  0  0  0  0  0  0  0
  156.0224  139.2716  164.0097 N   0  0  0  0  0  0  0  0  0  0  0  0
  156.8608  140.1901  164.8728 C   0  0  1  0  0  0  0  0  0  0  0  0
  156.3529  141.6313  164.7620 C   0  0  0  0  0  0  0  0  0  0  0  0
  155.3606  141.6964  165.9024 C   0  0  0  0  0  0  0  0  0  0  0  0
  156.0296  140.8085  166.9468 C   0  0  0  0  0  0  0  0  0  0  0  0
  156.7333  139.8077  166.2124 O   0  0  0  0  0  0  0  0  0  0  0  0
  156.0037  139.4785  162.6130 C   0  0  0  0  0  0  0  0  0  0  0  0
  156.6557  140.3929  162.1044 O   0  0  0  0  0  0  0  0  0  0  0  0
  153.6607  140.7363  160.1175 N   0  0  0  0  0  0  0  0  0  0  0  0
  153.1359  142.0725  159.8202 C   0  0  0  0  0  0  0  0  0  0  0  0
  152.4616  142.6729  161.0766 C   0  0  0  0  0  0  0  0  0  0  0  0
  152.2235  144.1894  161.0308 C   0  0  0  0  0  0  0  0  0  0  0  0
  151.3710  144.6787  159.8486 C   0  0  0  0  0  0  0  0  0  0  0  0
  152.1398  144.6623  158.5188 C   0  0  0  0  0  0  0  0  0  0  0  0
  152.1207  143.3255  157.7576 C   0  0  0  0  0  0  0  0  0  0  0  0
  152.1892  142.0362  158.5971 C   0  0  0  0  0  0  0  0  0  0  0  0
  154.3998  138.2014  159.9003 H   0  0  0  0  0  0  0  0  0  0  0  0
  156.0918  138.5035  159.8760 H   0  0  0  0  0  0  0  0  0  0  0  0
  155.2618  138.1103  165.6305 H   0  0  0  0  0  0  0  0  0  0  0  0
  157.8929  140.0538  164.5453 H   0  0  0  0  0  0  0  0  0  0  0  0
  157.1876  142.3098  164.9425 H   0  0  0  0  0  0  0  0  0  0  0  0
  155.9233  141.8497  163.7838 H   0  0  0  0  0  0  0  0  0  0  0  0
  155.1801  142.7113  166.2576 H   0  0  0  0  0  0  0  0  0  0  0  0
  154.4059  141.2676  165.5957 H   0  0  0  0  0  0  0  0  0  0  0  0
  156.7507  141.3848  167.5278 H   0  0  0  0  0  0  0  0  0  0  0  0
  155.3133  140.3655  167.6389 H   0  0  0  0  0  0  0  0  0  0  0  0
  152.9913  140.0761  160.4857 H   0  0  0  0  0  0  0  0  0  0  0  0
  154.0139  142.6687  159.5698 H   0  0  0  0  0  0  0  0  0  0  0  0
  151.5123  142.1711  161.2675 H   0  0  0  0  0  0  0  0  0  0  0  0
  153.0837  142.4645  161.9483 H   0  0  0  0  0  0  0  0  0  0  0  0
  151.7280  144.4800  161.9577 H   0  0  0  0  0  0  0  0  0  0  0  0
  153.1815  144.7107  161.0360 H   0  0  0  0  0  0  0  0  0  0  0  0
  150.4386  144.1180  159.7730 H   0  0  0  0  0  0  0  0  0  0  0  0
  151.0832  145.7099  160.0560 H   0  0  0  0  0  0  0  0  0  0  0  0
  151.7240  145.4265  157.8612 H   0  0  0  0  0  0  0  0  0  0  0  0
  153.1721  144.9684  158.6931 H   0  0  0  0  0  0  0  0  0  0  0  0
  151.2190  143.2789  157.1462 H   0  0  0  0  0  0  0  0  0  0  0  0
  152.9498  143.3308  157.0492 H   0  0  0  0  0  0  0  0  0  0  0  0
  152.4848  141.2304  157.9235 H   0  0  0  0  0  0  0  0  0  0  0  0
  151.1837  141.7746  158.9287 H   0  0  0  0  0  0  0  0  0  0  0  0
  1  2  2  0  0  0  0
  2  3  1  0  0  0  0
  2 18  1  0  0  0  0
  3  4  1  0  0  0  0
  3 26  1  0  0  0  0
  3 27  1  0  0  0  0
  4 16  1  0  0  0  0
  4  5  1  0  0  0  0
  5  6  2  0  0  0  0
  5  7  1  0  0  0  0
  7  8  1  0  0  0  0
  7  9  2  0  0  0  0
  9 10  1  0  0  0  0
  9 28  1  0  0  0  0
 10 11  1  0  0  0  0
 10 16  1  0  0  0  0
 11 15  1  0  0  0  0
 11 12  1  0  0  0  0
 11 29  1  0  0  0  0
 12 13  1  0  0  0  0
 12 30  1  0  0  0  0
 12 31  1  0  0  0  0
 13 14  1  0  0  0  0
 13 32  1  0  0  0  0
 13 33  1  0  0  0  0
 14 15  1  0  0  0  0
 14 34  1  0  0  0  0
 14 35  1  0  0  0  0
 16 17  2  0  0  0  0
 18 19  1  0  0  0  0
 18 36  1  0  0  0  0
 19 25  1  0  0  0  0
 19 20  1  0  0  0  0
 19 37  1  0  0  0  0
 20 21  1  0  0  0  0
 20 38  1  0  0  0  0
 20 39  1  0  0  0  0
 21 22  1  0  0  0  0
 21 40  1  0  0  0  0
 21 41  1  0  0  0  0
 22 23  1  0  0  0  0
 22 42  1  0  0  0  0
 22 43  1  0  0  0  0
 23 24  1  0  0  0  0
 23 44  1  0  0  0  0
 23 45  1  0  0  0  0
 24 25  1  0  0  0  0
 24 46  1  0  0  0  0
 24 47  1  0  0  0  0
 25 48  1  0  0  0  0
 25 49  1  0  0  0  0
M  END
> <s_m_source_file>
AV-unprocessed.smi

> <i_m_source_file_index>
32

> <i_lp_mmshare_version>
43012

> <i_f3d_flags>
0

> <s_epik_input>
W0NIMl0xW0NIMl1bQ0gyXVtDSDJdW0NIMl1bQ0gyXVtDSF0xW05IXUMoPU8pW0NIMl1uMmMoPU8pYyhGKVtjSF1uKGMyPU8pW0NAQEhdM1tDSDJdW0NIMl1bQ0gyXU8z

> <s_epik_cmdline>
J2VwaWtfcHl0aG9uJywgJy1waCcsICc3LjAnLCAnLXRuJywgJzgnLCAnLW1hJywgJzIwMCcsICctbWV0YWxfYmluZGluZycsICctaW1hZScsICc8aW5maWxlLm1hZT4nLCAnLW9tYWUnLCAnPG91dGZpbGUubWFlPic=

> <r_lp_tautomer_probability>
1

> <r_epik_Ionization_Penalty>
2.43741e-08

> <r_epik_Ionization_Penalty_Charging>
4.15308e-09

> <r_epik_Ionization_Penalty_Neutral>
2.0221e-08

> <r_epik_State_Penalty>
-0

> <r_epik_Charging_Adjusted_Penalty>
4.15308e-09

> <i_epik_Tot_Q>
0

> <i_epik_Tot_abs_Q>
0

> <r_epik_Metal_State_Penalty>
-0

> <b_epik_Metal_Only>
0

> <s_epik_Chemistry_Notes>
This compound contains an acetal/aminal-like group ( X-CH(R)-Y where X, Y are N, S, or O) that may be acid/base labile, releasing an aldehyde.

> <s_lp_Force_Field>
OPLS_2005

> <r_lp_Energy>
36.3437

> <b_lp_Chiralities_Consistent>
1

> <s_lp_Variant>
AV-unprocessed.smi:32-2

> <Gold.Version>
5.8.1

> <Gold.Id.Protein>
6NUR|6NUR_protein|mol2

> <Gold.PLP.Fitness>
53.8072

> <Gold.PLP.PLP>
-54.4809

> <Gold.PLP.part.hbond>
-2.0000

> <Gold.PLP.part.metal>
0.0000

> <Gold.PLP.part.buried>
-6.4358

> <Gold.PLP.part.nonpolar>
-46.9620

> <Gold.PLP.part.repulsive>
0.0940

> <Gold.PLP.ligand.clash>
0.0000

> <Gold.PLP.ligand.torsion>
0.3593

> <Gold.PLP.Chemscore.Hbond>
0.0000

> <Gold.PLP.Chemscore.CHOScore>
0.0000

> <Gold.PLP.Chemscore.Metal>
0.0000

> <Gold.PLP.Chemscore.Internal.Correction>
0.0450

> <Gold.Rescore>
     Score         DG    S(hbond)    S(metal)    S(lipo)     H(rot)  DE(clash)    DE(int)     intcor
      9.62     -14.27       0.00        0.00     115.02       1.82       0.73       3.91       ----

> <Gold.Chemscore.Fitness>
9.6236

> <Gold.Chemscore.DG>
-14.2663

> <Gold.Chemscore.ZeroCoef>
-5.4800

> <Gold.Chemscore.Hbond>
0.0000

> <Gold.Chemscore.Metal>
0.0000

> <Gold.Chemscore.Lipo>
115.0230

> <Gold.Chemscore.Internal_Hbond>
0.0000

> <Gold.Chemscore.DEClash>
0.7279

> <Gold.Chemscore.DEInternal>
3.9148

> <Gold.Chemscore.Rot>
1.8248

> <Gold.Chemscore.Internal.Correction>
   9.000000E+99

> <Gold.Chemscore.Hbond.Weighted>
-0.0000

> <Gold.Chemscore.Metal.Weighted>
-0.0000

> <Gold.Chemscore.Lipo.Weighted>
-13.4577

> <Gold.Chemscore.Internal_Hbond.Weighted>
0.0000

> <Gold.Chemscore.DEClash.Weighted>
0.7279

> <Gold.Chemscore.DEInternal.Weighted>
3.9148

> <Gold.Chemscore.Rot.Weighted>
4.6714

> <Gold.Chemscore.Internal.Correction.Weighted>
   9.000000E+99

> <Gold.Protein.RotatedTorsions>
[ 6907 6896 6895 6894 ] final  132.90 input  -60.11 | X-H torsion
[ 7974 7965 7964 7962 ] final -115.23 input  175.53 | X-H torsion
[ 8008 7997 7996 7995 ] final  175.25 input   59.86 | X-H torsion
[ 10167 10162 10161 10158 ] final -101.85 input  -65.29 | X-H torsion
[ 10718 10713 10712 10709 ] final   35.32 input   66.30 | X-H torsion
[ 10763 10752 10751 10750 ] final -129.16 input  -60.55 | X-H torsion
[ 11005 11000 10999 10996 ] final   45.26 input  -57.11 | X-H torsion

> <Gold.Protein.ActiveResidues>
 VAL166  LYS551  ARG553  GLY616  TRP617  ASP618  TYR619  PRO620  LYS621  CYS622 
 ASP623  PHE694  ASN695  SER759  ASP760  ASP761  ALA762  ILE779  LEU786  VAL792 
 PHE793  MET794  SER795  GLU796  ALA797  LYS798  CYS799  TRP800  GLU811  SER814 

> <Gold.Protein.RotatedAtoms>
  152.3276  133.5922  159.5786 H   0  0  0  0  0  0  0  0  0  0  0  0  # atno 6907 bound_to 6896
  150.7405  133.9917  159.3618 H   0  0  0  0  0  0  0  0  0  0  0  0  # atno 6908 bound_to 6896
  151.7795  135.0766  160.0423 H   0  0  0  0  0  0  0  0  0  0  0  0  # atno 6909 bound_to 6896
  145.1108  140.8610  143.3871 H   0  0  0  0  0  0  0  0  0  0  0  0  # atno 7974 bound_to 7965
  156.0890  140.1413  156.9617 H   0  0  0  0  0  0  0  0  0  0  0  0  # atno 8008 bound_to 7997
  154.4630  140.0936  156.6992 H   0  0  0  0  0  0  0  0  0  0  0  0  # atno 8009 bound_to 7997
  155.4951  140.3449  155.4364 H   0  0  0  0  0  0  0  0  0  0  0  0  # atno 8010 bound_to 7997
  140.2369  143.3566  152.0837 H   0  0  0  0  0  0  0  0  0  0  0  0  # atno 10167 bound_to 10162
  157.3212  130.7449  149.6786 H   0  0  0  0  0  0  0  0  0  0  0  0  # atno 10718 bound_to 10713
  154.8757  135.3904  154.3874 H   0  0  0  0  0  0  0  0  0  0  0  0  # atno 10763 bound_to 10752
  153.4614  135.7029  153.6053 H   0  0  0  0  0  0  0  0  0  0  0  0  # atno 10764 bound_to 10752
  153.4550  135.3825  155.2274 H   0  0  0  0  0  0  0  0  0  0  0  0  # atno 10765 bound_to 10752
  140.1476  134.4503  155.8404 H   0  0  0  0  0  0  0  0  0  0  0  0  # atno 11005 bound_to 11000
  145.0849  139.2932  143.5764 LP  0  0  0  0  0  0  0  0  0  0  0  0  # atno 17320 bound_to 7965
  146.3526  140.0367  142.8646 LP  0  0  0  0  0  0  0  0  0  0  0  0  # atno 17321 bound_to 7965
  139.5090  144.6860  151.5885 LP  0  0  0  0  0  0  0  0  0  0  0  0  # atno 17342 bound_to 10162
  140.6143  143.9378  150.6476 LP  0  0  0  0  0  0  0  0  0  0  0  0  # atno 17343 bound_to 10162
  155.9686  130.4222  150.4508 LP  0  0  0  0  0  0  0  0  0  0  0  0  # atno 17370 bound_to 10713
  157.2523  131.0549  151.2371 LP  0  0  0  0  0  0  0  0  0  0  0  0  # atno 17371 bound_to 10713
  141.2195  133.6859  156.7363 LP  0  0  0  0  0  0  0  0  0  0  0  0  # atno 17394 bound_to 11000
  140.2644  134.8441  157.3789 LP  0  0  0  0  0  0  0  0  0  0  0  0  # atno 17395 bound_to 11000

$$$$
