AV-unprocessed.smi:3093|AV-procd|sdf|11787|dock2
  -GOLD-   2272017163D 1   1.00000     0.00000
 Structure written by MMmdl.
 25 26  0  0  0  0  0  0  0  0  2 V2000
  148.2669  141.1883  154.8435 C   0  0  0  0  0  0  0  0  0  0  0  0
  149.1130  140.2004  154.2665 C   0  0  0  0  0  0  0  0  0  0  0  0
  150.2761  140.0985  154.8897 N   0  0  0  0  0  0  0  0  0  0  0  0
  150.2113  141.0143  155.8802 N   0  0  0  0  0  0  0  0  0  0  0  0
  151.3335  141.1795  156.7858 C   0  0  0  0  0  0  0  0  0  0  0  0
  151.1388  142.3662  157.7468 C   0  0  1  0  0  0  0  0  0  0  0  0
  152.1694  142.4662  158.8765 C   0  0  0  0  0  0  0  0  0  0  0  0
  152.1143  143.9412  159.2542 C   0  0  0  0  0  0  0  0  0  0  0  0
  151.8829  144.6411  157.9129 C   0  0  0  0  0  0  0  0  0  0  0  0
  151.2014  143.6620  157.0415 N   0  3  0  0  0  0  0  0  0  0  0  0
  149.0082  141.6884  155.8754 C   0  0  0  0  0  0  0  0  0  0  0  0
  147.2718  141.4833  154.5449 H   0  0  0  0  0  0  0  0  0  0  0  0
  148.9181  139.5591  153.4196 H   0  0  0  0  0  0  0  0  0  0  0  0
  151.4707  140.2537  157.3472 H   0  0  0  0  0  0  0  0  0  0  0  0
  152.2363  141.3194  156.1898 H   0  0  0  0  0  0  0  0  0  0  0  0
  150.1475  142.3021  158.1983 H   0  0  0  0  0  0  0  0  0  0  0  0
  151.9455  141.8059  159.7151 H   0  0  0  0  0  0  0  0  0  0  0  0
  153.1656  142.2174  158.5071 H   0  0  0  0  0  0  0  0  0  0  0  0
  151.2669  144.1198  159.9176 H   0  0  0  0  0  0  0  0  0  0  0  0
  153.0166  144.2844  159.7614 H   0  0  0  0  0  0  0  0  0  0  0  0
  151.2974  145.5546  158.0198 H   0  0  0  0  0  0  0  0  0  0  0  0
  152.8363  144.9035  157.4531 H   0  0  0  0  0  0  0  0  0  0  0  0
  151.7409  143.5573  156.1941 H   0  0  0  0  0  0  0  0  0  0  0  0
  148.7816  142.4578  156.5988 H   0  0  0  0  0  0  0  0  0  0  0  0
  150.2686  143.9755  156.8130 H   0  0  0  0  0  0  0  0  0  0  0  0
  1 11  2  0  0  0  0
  1  2  1  0  0  0  0
  1 12  1  0  0  0  0
  2  3  2  0  0  0  0
  2 13  1  0  0  0  0
  3  4  1  0  0  0  0
  4  5  1  0  0  0  0
  4 11  1  0  0  0  0
  5  6  1  0  0  0  0
  5 14  1  0  0  0  0
  5 15  1  0  0  0  0
  6 10  1  0  0  0  0
  6  7  1  0  0  0  0
  6 16  1  0  0  0  0
  7  8  1  0  0  0  0
  7 17  1  0  0  0  0
  7 18  1  0  0  0  0
  8  9  1  0  0  0  0
  8 19  1  0  0  0  0
  8 20  1  0  0  0  0
  9 10  1  0  0  0  0
  9 21  1  0  0  0  0
  9 22  1  0  0  0  0
 10 23  1  0  0  0  0
 10 25  1  0  0  0  0
 11 24  1  0  0  0  0
M  CHG  1  10   1
M  END
> <s_m_source_file>
AV-unprocessed.smi

> <i_m_source_file_index>
3093

> <i_lp_mmshare_version>
43012

> <i_f3d_flags>
0

> <s_epik_input>
W2NIXTFbY0hdW2NIXW5uMVtDSDJdW0NAQEhdMltDSDJdW0NIMl1bQ0gyXVtOSF0y

> <s_epik_cmdline>
J2VwaWtfcHl0aG9uJywgJy1waCcsICc3LjAnLCAnLXRuJywgJzgnLCAnLW1hJywgJzIwMCcsICctbWV0YWxfYmluZGluZycsICctaW1hZScsICc8aW5maWxlLm1hZT4nLCAnLW9tYWUnLCAnPG91dGZpbGUubWFlPic=

> <r_lp_tautomer_probability>
1

> <r_epik_Ionization_Penalty>
0.000867737

> <r_epik_Ionization_Penalty_Charging>
0.000863359

> <r_epik_Ionization_Penalty_Neutral>
4.37747e-06

> <r_epik_State_Penalty>
0.000557253

> <r_epik_Charging_Adjusted_Penalty>
0.00142061

> <i_epik_Tot_Q>
1

> <i_epik_Tot_abs_Q>
1

> <r_epik_Metal_State_Penalty>
-0

> <b_epik_Metal_Only>
0

> <s_lp_Force_Field>
OPLS_2005

> <r_lp_Energy>
24.4202

> <b_lp_Chiralities_Consistent>
1

> <s_lp_Variant>
AV-unprocessed.smi:3093-2

> <Gold.Version>
5.8.1

> <Gold.Id.Protein>
6NUR|6NUR_protein|mol2

> <Gold.PLP.Fitness>
39.9526

> <Gold.PLP.PLP>
-25.9164

> <Gold.PLP.part.hbond>
-2.0000

> <Gold.PLP.part.metal>
0.0000

> <Gold.PLP.part.buried>
0.5240

> <Gold.PLP.part.nonpolar>
-23.9794

> <Gold.PLP.part.repulsive>
0.0864

> <Gold.PLP.ligand.clash>
0.0000

> <Gold.PLP.ligand.torsion>
0.0817

> <Gold.PLP.Chemscore.Hbond>
3.0000

> <Gold.PLP.Chemscore.CHOScore>
1.7331

> <Gold.PLP.Chemscore.Metal>
0.0000

> <Gold.Chemscore.Hbonds>
donor molecule, donor type, donor heavy atom, donor atom, acceptor molecule, acceptor atom, score
      L1  H    10    25       P1  8028  2.00
      P1  H  7989  7998       L1     3  0.86
      L1  C     2    13       P1  7957  0.89
      L1  C    11    24       P1  8028  0.67

> <Gold.PLP.Chemscore.Internal.Correction>
0.0002

> <Gold.Rescore>
     Score         DG    S(hbond)    S(metal)    S(lipo)     H(rot)  DE(clash)    DE(int)     intcor
     16.27     -16.73       1.82        0.00      70.54       1.21       0.13       0.33       ----

> <Gold.Chemscore.Fitness>
16.2723

> <Gold.Chemscore.DG>
-16.7278

> <Gold.Chemscore.ZeroCoef>
-5.4800

> <Gold.Chemscore.Hbond>
1.8208

> <Gold.Chemscore.Metal>
0.0000

> <Gold.Chemscore.Lipo>
70.5354

> <Gold.Chemscore.Internal_Hbond>
0.0000

> <Gold.Chemscore.DEClash>
0.1277

> <Gold.Chemscore.DEInternal>
0.3278

> <Gold.Chemscore.Rot>
1.2056

> <Gold.Chemscore.Internal.Correction>
   9.000000E+99

> <Gold.Chemscore.Hbonds>
donor molecule, donor type, donor heavy atom, donor atom, acceptor molecule, acceptor atom, score
      L1  H    10    25       P1  8028  0.97
      P1  H  7989  7998       L1     3  0.18

> <Gold.Chemscore.Hbond.Weighted>
-6.0816

> <Gold.Chemscore.Metal.Weighted>
-0.0000

> <Gold.Chemscore.Lipo.Weighted>
-8.2526

> <Gold.Chemscore.Internal_Hbond.Weighted>
0.0000

> <Gold.Chemscore.DEClash.Weighted>
0.1277

> <Gold.Chemscore.DEInternal.Weighted>
0.3278

> <Gold.Chemscore.Rot.Weighted>
3.0864

> <Gold.Chemscore.Internal.Correction.Weighted>
   9.000000E+99

> <Gold.Protein.RotatedTorsions>
[ 6907 6896 6895 6894 ] final -178.10 input  -60.11 | X-H torsion
[ 7974 7965 7964 7962 ] final   61.16 input  175.53 | X-H torsion
[ 8008 7997 7996 7995 ] final -148.12 input   59.86 | X-H torsion
[ 10167 10162 10161 10158 ] final  -42.14 input  -65.29 | X-H torsion
[ 10718 10713 10712 10709 ] final  -94.25 input   66.30 | X-H torsion
[ 10763 10752 10751 10750 ] final   17.42 input  -60.55 | X-H torsion
[ 11005 11000 10999 10996 ] final  -91.70 input  -57.11 | X-H torsion

> <Gold.Protein.ActiveResidues>
 VAL166  LYS551  ARG553  GLY616  TRP617  ASP618  TYR619  PRO620  LYS621  CYS622 
 ASP623  PHE694  ASN695  SER759  ASP760  ASP761  ALA762  ILE779  LEU786  VAL792 
 PHE793  MET794  SER795  GLU796  ALA797  LYS798  CYS799  TRP800  GLU811  SER814 

> <Gold.Protein.RotatedAtoms>
  151.6318  133.3331  159.3110 H   0  0  0  0  0  0  0  0  0  0  0  0  # atno 6907 bound_to 6896
  150.8052  134.7177  159.6649 H   0  0  0  0  0  0  0  0  0  0  0  0  # atno 6908 bound_to 6896
  152.4147  134.6066  160.0066 H   0  0  0  0  0  0  0  0  0  0  0  0  # atno 6909 bound_to 6896
  145.8879  139.3490  143.0667 H   0  0  0  0  0  0  0  0  0  0  0  0  # atno 7974 bound_to 7965
  155.5866  140.0648  157.2769 H   0  0  0  0  0  0  0  0  0  0  0  0  # atno 8008 bound_to 7997
  154.4317  140.1842  156.1078 H   0  0  0  0  0  0  0  0  0  0  0  0  # atno 8009 bound_to 7997
  156.0265  140.3311  155.7097 H   0  0  0  0  0  0  0  0  0  0  0  0  # atno 8010 bound_to 7997
  140.6979  143.3055  151.3166 H   0  0  0  0  0  0  0  0  0  0  0  0  # atno 10167 bound_to 10162
  156.0024  130.5060  150.5899 H   0  0  0  0  0  0  0  0  0  0  0  0  # atno 10718 bound_to 10713
  153.1340  135.6746  153.9132 H   0  0  0  0  0  0  0  0  0  0  0  0  # atno 10763 bound_to 10752
  153.8609  135.3081  155.3439 H   0  0  0  0  0  0  0  0  0  0  0  0  # atno 10764 bound_to 10752
  154.7732  135.4928  153.9773 H   0  0  0  0  0  0  0  0  0  0  0  0  # atno 10765 bound_to 10752
  141.1539  133.7772  156.9916 H   0  0  0  0  0  0  0  0  0  0  0  0  # atno 11005 bound_to 11000
  145.8944  140.9283  143.0535 LP  0  0  0  0  0  0  0  0  0  0  0  0  # atno 17320 bound_to 7965
  144.6729  140.0949  143.7463 LP  0  0  0  0  0  0  0  0  0  0  0  0  # atno 17321 bound_to 7965
  139.6459  144.0453  152.2590 LP  0  0  0  0  0  0  0  0  0  0  0  0  # atno 17342 bound_to 10162
  139.9973  144.6318  150.7761 LP  0  0  0  0  0  0  0  0  0  0  0  0  # atno 17343 bound_to 10162
  157.3765  131.0774  151.1513 LP  0  0  0  0  0  0  0  0  0  0  0  0  # atno 17370 bound_to 10713
  157.2249  130.6498  149.5826 LP  0  0  0  0  0  0  0  0  0  0  0  0  # atno 17371 bound_to 10713
  140.0999  134.9541  157.1907 LP  0  0  0  0  0  0  0  0  0  0  0  0  # atno 17394 bound_to 11000
  140.3332  134.2786  155.7224 LP  0  0  0  0  0  0  0  0  0  0  0  0  # atno 17395 bound_to 11000

$$$$
