AV-unprocessed.smi:455|AV-procd|sdf|2614|dock4
  -GOLD-   2262023 13D 1   1.00000     0.00000
 Structure written by MMmdl.
 46 47  0  0  0  0  0  0  0  0  1 V2000
  147.1184  133.1079  155.0841 C   0  0  0  0  0  0  0  0  0  0  0  0
  148.5709  133.6200  155.1880 C   0  0  0  0  0  0  0  0  0  0  0  0
  149.1128  133.2449  156.5813 C   0  0  0  0  0  0  0  0  0  0  0  0
  149.4373  132.9150  154.1234 C   0  0  0  0  0  0  0  0  0  0  0  0
  148.6540  135.1673  155.0437 C   0  0  0  0  0  0  0  0  0  0  0  0
  150.0625  135.7812  155.0598 C   0  0  0  0  0  0  0  0  0  0  0  0
  151.0198  135.1365  155.4866 O   0  0  0  0  0  0  0  0  0  0  0  0
  150.1762  137.0218  154.5589 N   0  0  0  0  0  0  0  0  0  0  0  0
  151.4193  137.7753  154.4186 C   0  0  0  0  0  0  0  0  0  0  0  0
  151.5953  138.8790  155.4503 C   0  0  0  0  0  0  0  0  0  0  0  0
  150.7866  140.0312  155.4009 C   0  0  0  0  0  0  0  0  0  0  0  0
  150.9747  141.0433  156.3608 C   0  0  0  0  0  0  0  0  0  0  0  0
  151.9765  140.8820  157.3471 C   0  0  0  0  0  0  0  0  0  0  0  0
  152.1831  141.8851  158.3189 N   0  0  0  0  0  0  0  0  0  0  0  0
  152.5021  141.4091  159.6627 C   0  0  0  0  0  0  0  0  0  0  0  0
  153.0066  142.5701  160.5368 C   0  0  0  0  0  0  0  0  0  0  0  0
  152.0496  143.6240  160.5373 O   0  0  0  0  0  0  0  0  0  0  0  0
  151.8382  144.1475  159.2303 C   0  0  0  0  0  0  0  0  0  0  0  0
  151.2906  143.0427  158.3110 C   0  0  0  0  0  0  0  0  0  0  0  0
  152.7553  139.7726  157.3906 N   0  0  0  0  0  0  0  0  0  0  0  0
  152.5719  138.8063  156.4661 C   0  0  0  0  0  0  0  0  0  0  0  0
  147.0582  132.0441  155.3159 H   0  0  0  0  0  0  0  0  0  0  0  0
  146.7083  133.2342  154.0823 H   0  0  0  0  0  0  0  0  0  0  0  0
  146.4620  133.6313  155.7802 H   0  0  0  0  0  0  0  0  0  0  0  0
  148.5290  133.7139  157.3743 H   0  0  0  0  0  0  0  0  0  0  0  0
  150.1487  133.5623  156.7049 H   0  0  0  0  0  0  0  0  0  0  0  0
  149.0810  132.1672  156.7466 H   0  0  0  0  0  0  0  0  0  0  0  0
  149.4563  131.8359  154.2807 H   0  0  0  0  0  0  0  0  0  0  0  0
  150.4682  133.2691  154.1518 H   0  0  0  0  0  0  0  0  0  0  0  0
  149.0587  133.0830  153.1155 H   0  0  0  0  0  0  0  0  0  0  0  0
  148.1785  135.4713  154.1103 H   0  0  0  0  0  0  0  0  0  0  0  0
  148.0638  135.6341  155.8345 H   0  0  0  0  0  0  0  0  0  0  0  0
  149.3358  137.4728  154.2273 H   0  0  0  0  0  0  0  0  0  0  0  0
  152.2884  137.1168  154.4604 H   0  0  0  0  0  0  0  0  0  0  0  0
  151.4219  138.2150  153.4207 H   0  0  0  0  0  0  0  0  0  0  0  0
  150.0262  140.1402  154.6416 H   0  0  0  0  0  0  0  0  0  0  0  0
  150.3431  141.9188  156.3376 H   0  0  0  0  0  0  0  0  0  0  0  0
  151.6039  140.9747  160.1033 H   0  0  0  0  0  0  0  0  0  0  0  0
  153.2573  140.6247  159.6465 H   0  0  0  0  0  0  0  0  0  0  0  0
  153.1594  142.2291  161.5607 H   0  0  0  0  0  0  0  0  0  0  0  0
  153.9691  142.9379  160.1770 H   0  0  0  0  0  0  0  0  0  0  0  0
  151.1290  144.9732  159.2884 H   0  0  0  0  0  0  0  0  0  0  0  0
  152.7699  144.5555  158.8353 H   0  0  0  0  0  0  0  0  0  0  0  0
  151.1882  143.4334  157.2979 H   0  0  0  0  0  0  0  0  0  0  0  0
  150.2986  142.7365  158.6459 H   0  0  0  0  0  0  0  0  0  0  0  0
  153.2328  137.9566  156.5408 H   0  0  0  0  0  0  0  0  0  0  0  0
  1  2  1  0  0  0  0
  1 22  1  0  0  0  0
  1 23  1  0  0  0  0
  1 24  1  0  0  0  0
  2  3  1  0  0  0  0
  2  4  1  0  0  0  0
  2  5  1  0  0  0  0
  3 25  1  0  0  0  0
  3 26  1  0  0  0  0
  3 27  1  0  0  0  0
  4 28  1  0  0  0  0
  4 29  1  0  0  0  0
  4 30  1  0  0  0  0
  5  6  1  0  0  0  0
  5 31  1  0  0  0  0
  5 32  1  0  0  0  0
  6  7  2  0  0  0  0
  6  8  1  0  0  0  0
  8  9  1  0  0  0  0
  8 33  1  0  0  0  0
  9 10  1  0  0  0  0
  9 34  1  0  0  0  0
  9 35  1  0  0  0  0
 10 21  1  0  0  0  0
 10 11  2  0  0  0  0
 11 12  1  0  0  0  0
 11 36  1  0  0  0  0
 12 13  2  0  0  0  0
 12 37  1  0  0  0  0
 13 14  1  0  0  0  0
 13 20  1  0  0  0  0
 14 19  1  0  0  0  0
 14 15  1  0  0  0  0
 15 16  1  0  0  0  0
 15 38  1  0  0  0  0
 15 39  1  0  0  0  0
 16 17  1  0  0  0  0
 16 40  1  0  0  0  0
 16 41  1  0  0  0  0
 17 18  1  0  0  0  0
 18 19  1  0  0  0  0
 18 42  1  0  0  0  0
 18 43  1  0  0  0  0
 19 44  1  0  0  0  0
 19 45  1  0  0  0  0
 20 21  2  0  0  0  0
 21 46  1  0  0  0  0
M  END
> <s_m_source_file>
AV-unprocessed.smi

> <i_m_source_file_index>
455

> <i_lp_mmshare_version>
43012

> <i_f3d_flags>
0

> <s_epik_input>
W0NIM11DKFtDSDNdKShbQ0gzXSlbQ0gyXUMoPU8pW05IXVtDSDJdYzFbY0hdW2NIXWMobltjSF0xKU4yW0NIMl1bQ0gyXU9bQ0gyXVtDSDJdMg==

> <s_epik_cmdline>
J2VwaWtfcHl0aG9uJywgJy1waCcsICc3LjAnLCAnLXRuJywgJzgnLCAnLW1hJywgJzIwMCcsICctbWV0YWxfYmluZGluZycsICctaW1hZScsICc8aW5maWxlLm1hZT4nLCAnLW9tYWUnLCAnPG91dGZpbGUubWFlPic=

> <r_lp_tautomer_probability>
1

> <r_epik_Ionization_Penalty>
0.00557649

> <r_epik_Ionization_Penalty_Charging>
0

> <r_epik_Ionization_Penalty_Neutral>
0.00557649

> <r_epik_State_Penalty>
0.00408419

> <r_epik_Charging_Adjusted_Penalty>
0.00408419

> <i_epik_Tot_Q>
0

> <i_epik_Tot_abs_Q>
0

> <r_epik_Metal_State_Penalty>
-0

> <b_epik_Metal_Only>
0

> <s_lp_Force_Field>
OPLS_2005

> <r_lp_Energy>
18.1118

> <b_lp_Chiralities_Consistent>
1

> <s_lp_Variant>
AV-unprocessed.smi:455-1

> <Gold.Version>
5.8.1

> <Gold.Id.Protein>
6NUR|6NUR_protein|mol2

> <Gold.PLP.Fitness>
42.1465

> <Gold.PLP.PLP>
-37.5212

> <Gold.PLP.part.hbond>
-3.0000

> <Gold.PLP.part.metal>
0.0000

> <Gold.PLP.part.buried>
-2.2388

> <Gold.PLP.part.nonpolar>
-31.7084

> <Gold.PLP.part.repulsive>
0.2002

> <Gold.PLP.ligand.clash>
0.0000

> <Gold.PLP.ligand.torsion>
0.7644

> <Gold.PLP.Chemscore.Hbond>
1.9357

> <Gold.PLP.Chemscore.CHOScore>
0.0000

> <Gold.PLP.Chemscore.Metal>
0.0000

> <Gold.Chemscore.Hbonds>
donor molecule, donor type, donor heavy atom, donor atom, acceptor molecule, acceptor atom, score
      P1  H  7997  8010       L1    20  0.65
      P1  H 10752 10763       L1     7  0.78

> <Gold.PLP.Chemscore.Internal.Correction>
0.3468

> <Gold.Rescore>
     Score         DG    S(hbond)    S(metal)    S(lipo)     H(rot)  DE(clash)    DE(int)     intcor
     13.48     -15.83       0.90        0.00      97.98       1.62       0.31       2.04       ----

> <Gold.Chemscore.Fitness>
13.4813

> <Gold.Chemscore.DG>
-15.8279

> <Gold.Chemscore.ZeroCoef>
-5.4800

> <Gold.Chemscore.Hbond>
0.9047

> <Gold.Chemscore.Metal>
0.0000

> <Gold.Chemscore.Lipo>
97.9847

> <Gold.Chemscore.Internal_Hbond>
0.0000

> <Gold.Chemscore.DEClash>
0.3097

> <Gold.Chemscore.DEInternal>
2.0369

> <Gold.Chemscore.Rot>
1.6164

> <Gold.Chemscore.Internal.Correction>
   9.000000E+99

> <Gold.Chemscore.Hbonds>
donor molecule, donor type, donor heavy atom, donor atom, acceptor molecule, acceptor atom, score
      P1  H  7997  8010       L1    20  0.05
      P1  H 10752 10763       L1     7  0.73

> <Gold.Chemscore.Hbond.Weighted>
-3.0218

> <Gold.Chemscore.Metal.Weighted>
-0.0000

> <Gold.Chemscore.Lipo.Weighted>
-11.4642

> <Gold.Chemscore.Internal_Hbond.Weighted>
0.0000

> <Gold.Chemscore.DEClash.Weighted>
0.3097

> <Gold.Chemscore.DEInternal.Weighted>
2.0369

> <Gold.Chemscore.Rot.Weighted>
4.1381

> <Gold.Chemscore.Internal.Correction.Weighted>
   9.000000E+99

> <Gold.Protein.RotatedTorsions>
[ 6907 6896 6895 6894 ] final  179.84 input  -60.11 | X-H torsion
[ 7974 7965 7964 7962 ] final   -6.52 input  175.53 | X-H torsion
[ 8008 7997 7996 7995 ] final   43.66 input   59.86 | X-H torsion
[ 10167 10162 10161 10158 ] final   62.02 input  -65.29 | X-H torsion
[ 10718 10713 10712 10709 ] final -143.26 input   66.30 | X-H torsion
[ 10763 10752 10751 10750 ] final   74.41 input  -60.55 | X-H torsion
[ 11005 11000 10999 10996 ] final  -48.96 input  -57.11 | X-H torsion

> <Gold.Protein.ActiveResidues>
 VAL166  LYS551  ARG553  GLY616  TRP617  ASP618  TYR619  PRO620  LYS621  CYS622 
 ASP623  PHE694  ASN695  SER759  ASP760  ASP761  ALA762  ILE779  LEU786  VAL792 
 PHE793  MET794  SER795  GLU796  ALA797  LYS798  CYS799  TRP800  GLU811  SER814 

> <Gold.Protein.RotatedAtoms>
  151.6652  133.3315  159.3183 H   0  0  0  0  0  0  0  0  0  0  0  0  # atno 6907 bound_to 6896
  150.7894  134.6909  159.6506 H   0  0  0  0  0  0  0  0  0  0  0  0  # atno 6908 bound_to 6896
  152.3971  134.6352  160.0137 H   0  0  0  0  0  0  0  0  0  0  0  0  # atno 6909 bound_to 6896
  146.2329  140.2182  142.8337 H   0  0  0  0  0  0  0  0  0  0  0  0  # atno 7974 bound_to 7965
  155.3064  140.3388  155.4245 H   0  0  0  0  0  0  0  0  0  0  0  0  # atno 8008 bound_to 7997
  156.1977  140.1721  156.8003 H   0  0  0  0  0  0  0  0  0  0  0  0  # atno 8009 bound_to 7997
  154.5519  140.0704  156.8665 H   0  0  0  0  0  0  0  0  0  0  0  0  # atno 8010 bound_to 7997
  140.1484  144.4486  150.6772 H   0  0  0  0  0  0  0  0  0  0  0  0  # atno 10167 bound_to 10162
  156.3558  130.7712  151.1872 H   0  0  0  0  0  0  0  0  0  0  0  0  # atno 10718 bound_to 10713
  153.0585  135.5027  154.8038 H   0  0  0  0  0  0  0  0  0  0  0  0  # atno 10763 bound_to 10752
  154.6845  135.2974  154.9568 H   0  0  0  0  0  0  0  0  0  0  0  0  # atno 10764 bound_to 10752
  154.0343  135.6725  153.4836 H   0  0  0  0  0  0  0  0  0  0  0  0  # atno 10765 bound_to 10752
  141.0731  133.6673  156.3517 H   0  0  0  0  0  0  0  0  0  0  0  0  # atno 11005 bound_to 11000
  144.9653  140.8315  143.5488 LP  0  0  0  0  0  0  0  0  0  0  0  0  # atno 17320 bound_to 7965
  145.2157  139.2183  143.5119 LP  0  0  0  0  0  0  0  0  0  0  0  0  # atno 17321 bound_to 7965
  140.6717  143.2288  151.5607 LP  0  0  0  0  0  0  0  0  0  0  0  0  # atno 17342 bound_to 10162
  139.5438  144.2577  152.1402 LP  0  0  0  0  0  0  0  0  0  0  0  0  # atno 17343 bound_to 10162
  157.7467  131.0414  150.4646 LP  0  0  0  0  0  0  0  0  0  0  0  0  # atno 17370 bound_to 10713
  156.4849  130.4082  149.6440 LP  0  0  0  0  0  0  0  0  0  0  0  0  # atno 17371 bound_to 10713
  140.5630  134.5915  157.5438 LP  0  0  0  0  0  0  0  0  0  0  0  0  # atno 17394 bound_to 11000
  139.9544  134.7560  156.0375 LP  0  0  0  0  0  0  0  0  0  0  0  0  # atno 17395 bound_to 11000

$$$$
