AV-unprocessed.smi:845|AV-procd|sdf|3934|dock1
  -GOLD-   22720 1393D 1   1.00000     0.00000
 Structure written by MMmdl.
 41 42  0  0  0  0  0  0  0  0  2 V2000
  149.9411  139.7567  154.6310 C   0  0  0  0  0  0  0  0  0  0  0  0
  151.0661  139.4096  155.6291 C   0  0  0  0  0  0  0  0  0  0  0  0
  151.9887  138.3124  155.0696 C   0  0  0  0  0  0  0  0  0  0  0  0
  150.6348  139.1380  157.1072 C   0  0  1  0  0  0  0  0  0  0  0  0
  149.7792  137.8548  157.2792 C   0  0  0  0  0  0  0  0  0  0  0  0
  148.9793  137.9010  158.4977 N   0  0  0  0  0  0  0  0  0  0  0  0
  148.6959  136.8497  159.2771 C   0  0  0  0  0  0  0  0  0  0  0  0
  149.1247  135.7321  158.9799 O   0  0  0  0  0  0  0  0  0  0  0  0
  147.9350  137.1588  160.3517 N   0  5  0  0  0  0  0  0  0  0  0  0
  147.3961  136.1808  161.0978 C   0  0  0  0  0  0  0  0  0  0  0  0
  147.7184  134.8905  160.9510 N   0  0  0  0  0  0  0  0  0  0  0  0
  147.0468  134.0459  161.8366 C   0  0  0  0  0  0  0  0  0  0  0  0
  146.1992  134.7095  162.6836 C   0  0  0  0  0  0  0  0  0  0  0  0
  146.2188  136.4254  162.3913 S   0  0  0  0  0  0  0  0  0  0  0  0
  151.7043  139.3105  158.1116 N   0  0  0  0  0  0  0  0  0  0  0  0
  152.7857  138.3367  157.9735 C   0  0  0  0  0  0  0  0  0  0  0  0
  153.8067  138.4532  159.1173 C   0  0  0  0  0  0  0  0  0  0  0  0
  154.3246  139.7788  159.1561 O   0  0  0  0  0  0  0  0  0  0  0  0
  153.3076  140.7588  159.3363 C   0  0  0  0  0  0  0  0  0  0  0  0
  152.2694  140.6548  158.2049 C   0  0  0  0  0  0  0  0  0  0  0  0
  149.2906  138.9141  154.4110 H   0  0  0  0  0  0  0  0  0  0  0  0
  150.3682  140.0750  153.6798 H   0  0  0  0  0  0  0  0  0  0  0  0
  149.3187  140.5799  154.9806 H   0  0  0  0  0  0  0  0  0  0  0  0
  151.6853  140.3069  155.6681 H   0  0  0  0  0  0  0  0  0  0  0  0
  151.4525  137.3746  154.9212 H   0  0  0  0  0  0  0  0  0  0  0  0
  152.8228  138.1183  155.7446 H   0  0  0  0  0  0  0  0  0  0  0  0
  152.4076  138.6058  154.1068 H   0  0  0  0  0  0  0  0  0  0  0  0
  149.9366  139.9534  157.3040 H   0  0  0  0  0  0  0  0  0  0  0  0
  149.1208  137.7101  156.4218 H   0  0  0  0  0  0  0  0  0  0  0  0
  150.4126  136.9702  157.3381 H   0  0  0  0  0  0  0  0  0  0  0  0
  148.6101  138.7996  158.7720 H   0  0  0  0  0  0  0  0  0  0  0  0
  147.2352  132.9835  161.7954 H   0  0  0  0  0  0  0  0  0  0  0  0
  145.5693  134.2975  163.4576 H   0  0  0  0  0  0  0  0  0  0  0  0
  152.3778  137.3256  157.9588 H   0  0  0  0  0  0  0  0  0  0  0  0
  153.3078  138.4799  157.0277 H   0  0  0  0  0  0  0  0  0  0  0  0
  153.3454  138.2049  160.0744 H   0  0  0  0  0  0  0  0  0  0  0  0
  154.6284  137.7532  158.9656 H   0  0  0  0  0  0  0  0  0  0  0  0
  152.8312  140.6203  160.3082 H   0  0  0  0  0  0  0  0  0  0  0  0
  153.7636  141.7488  159.3419 H   0  0  0  0  0  0  0  0  0  0  0  0
  152.7397  140.9320  157.2611 H   0  0  0  0  0  0  0  0  0  0  0  0
  151.4899  141.3843  158.3999 H   0  0  0  0  0  0  0  0  0  0  0  0
  1  2  1  0  0  0  0
  1 21  1  0  0  0  0
  1 22  1  0  0  0  0
  1 23  1  0  0  0  0
  2  3  1  0  0  0  0
  2  4  1  0  0  0  0
  2 24  1  0  0  0  0
  3 25  1  0  0  0  0
  3 26  1  0  0  0  0
  3 27  1  0  0  0  0
  4  5  1  0  0  0  0
  4 15  1  0  0  0  0
  4 28  1  0  0  0  0
  5  6  1  0  0  0  0
  5 29  1  0  0  0  0
  5 30  1  0  0  0  0
  6  7  1  0  0  0  0
  6 31  1  0  0  0  0
  7  8  2  0  0  0  0
  7  9  1  0  0  0  0
  9 10  1  0  0  0  0
 10 14  1  0  0  0  0
 10 11  2  0  0  0  0
 11 12  1  0  0  0  0
 12 13  2  0  0  0  0
 12 32  1  0  0  0  0
 13 14  1  0  0  0  0
 13 33  1  0  0  0  0
 15 20  1  0  0  0  0
 15 16  1  0  0  0  0
 16 17  1  0  0  0  0
 16 34  1  0  0  0  0
 16 35  1  0  0  0  0
 17 18  1  0  0  0  0
 17 36  1  0  0  0  0
 17 37  1  0  0  0  0
 18 19  1  0  0  0  0
 19 20  1  0  0  0  0
 19 38  1  0  0  0  0
 19 39  1  0  0  0  0
 20 40  1  0  0  0  0
 20 41  1  0  0  0  0
M  CHG  1   9  -1
M  END
> <s_m_source_file>
AV-unprocessed.smi

> <i_m_source_file_index>
845

> <i_lp_mmshare_version>
43012

> <i_f3d_flags>
0

> <s_epik_input>
W0NIMl0xW0NIMl1PW0NIMl1bQ0gyXU4xW0NASF0oW0NIXShbQ0gzXSlbQ0gzXSlbQ0gyXVtOSF1DKD1PKVtOSF1jMm5bY0hdW2NIXXMy

> <s_epik_cmdline>
J2VwaWtfcHl0aG9uJywgJy1waCcsICc3LjAnLCAnLXRuJywgJzgnLCAnLW1hJywgJzIwMCcsICctbWV0YWxfYmluZGluZycsICctaW1hZScsICc8aW5maWxlLm1hZT4nLCAnLW9tYWUnLCAnPG91dGZpbGUubWFlPic=

> <r_lp_tautomer_probability>
0.999

> <r_epik_Ionization_Penalty>
9.02543

> <r_epik_Ionization_Penalty_Charging>
6.76546

> <r_epik_Ionization_Penalty_Neutral>
2.25997

> <r_epik_State_Penalty>
7.18984

> <r_epik_Charging_Adjusted_Penalty>
13.9553

> <i_epik_Tot_Q>
-1

> <i_epik_Tot_abs_Q>
1

> <r_epik_Metal_State_Penalty>
3.11401

> <b_epik_Metal_Only>
1

> <s_lp_Force_Field>
OPLS_2005

> <r_lp_Energy>
34.4261

> <b_lp_Chiralities_Consistent>
1

> <s_lp_Variant>
AV-unprocessed.smi:845-8

> <Gold.Version>
5.8.1

> <Gold.Id.Protein>
6NUR|6NUR_protein|mol2

> <Gold.PLP.Fitness>
47.7200

> <Gold.PLP.PLP>
-33.4677

> <Gold.PLP.part.hbond>
-4.0000

> <Gold.PLP.part.metal>
0.0000

> <Gold.PLP.part.buried>
-4.8181

> <Gold.PLP.part.nonpolar>
-26.0988

> <Gold.PLP.part.repulsive>
0.1754

> <Gold.PLP.ligand.clash>
0.0000

> <Gold.PLP.ligand.torsion>
0.5949

> <Gold.PLP.Chemscore.Hbond>
4.8833

> <Gold.PLP.Chemscore.CHOScore>
0.0000

> <Gold.PLP.Chemscore.Metal>
0.0000

> <Gold.Chemscore.Hbonds>
donor molecule, donor type, donor heavy atom, donor atom, acceptor molecule, acceptor atom, score
      P1  H  6896  6909       L1     8  1.00
      P1  H  6931  6943       L1     9  0.89
      P1  H  6934  6947       L1     9  1.38
      P1  H  7997  8008       L1    18  1.00

> <Gold.PLP.Chemscore.Internal.Correction>
0.7922

> <Gold.Rescore>
     Score         DG    S(hbond)    S(metal)    S(lipo)     H(rot)  DE(clash)    DE(int)     intcor
     16.04     -18.47       2.54        0.00      75.97       1.71       0.12       2.30       ----

> <Gold.Chemscore.Fitness>
16.0390

> <Gold.Chemscore.DG>
-18.4661

> <Gold.Chemscore.ZeroCoef>
-5.4800

> <Gold.Chemscore.Hbond>
2.5361

> <Gold.Chemscore.Metal>
0.0000

> <Gold.Chemscore.Lipo>
75.9677

> <Gold.Chemscore.Internal_Hbond>
0.0000

> <Gold.Chemscore.DEClash>
0.1223

> <Gold.Chemscore.DEInternal>
2.3049

> <Gold.Chemscore.Rot>
1.7081

> <Gold.Chemscore.Internal.Correction>
   9.000000E+99

> <Gold.Chemscore.Hbonds>
donor molecule, donor type, donor heavy atom, donor atom, acceptor molecule, acceptor atom, score
      P1  H  6896  6909       L1     8  0.95
      P1  H  6931  6943       L1     9  0.11
      P1  H  6934  6947       L1     9  0.52
      P1  H  7997  8008       L1    18  0.23

> <Gold.Chemscore.Hbond.Weighted>
-8.4707

> <Gold.Chemscore.Metal.Weighted>
-0.0000

> <Gold.Chemscore.Lipo.Weighted>
-8.8882

> <Gold.Chemscore.Internal_Hbond.Weighted>
0.0000

> <Gold.Chemscore.DEClash.Weighted>
0.1223

> <Gold.Chemscore.DEInternal.Weighted>
2.3049

> <Gold.Chemscore.Rot.Weighted>
4.3728

> <Gold.Chemscore.Internal.Correction.Weighted>
   9.000000E+99

> <Gold.Protein.RotatedTorsions>
[ 6907 6896 6895 6894 ] final   63.43 input  -60.11 | X-H torsion
[ 7974 7965 7964 7962 ] final  155.75 input  175.53 | X-H torsion
[ 8008 7997 7996 7995 ] final -118.21 input   59.86 | X-H torsion
[ 10167 10162 10161 10158 ] final  -30.44 input  -65.29 | X-H torsion
[ 10718 10713 10712 10709 ] final -107.38 input   66.30 | X-H torsion
[ 10763 10752 10751 10750 ] final  -20.99 input  -60.55 | X-H torsion
[ 11005 11000 10999 10996 ] final  -77.41 input  -57.11 | X-H torsion

> <Gold.Protein.ActiveResidues>
 VAL166  LYS551  ARG553  GLY616  TRP617  ASP618  TYR619  PRO620  LYS621  CYS622 
 ASP623  PHE694  ASN695  SER759  ASP760  ASP761  ALA762  ILE779  LEU786  VAL792 
 PHE793  MET794  SER795  GLU796  ALA797  LYS798  CYS799  TRP800  GLU811  SER814 

> <Gold.Protein.RotatedAtoms>
  152.4253  134.5881  159.9966 H   0  0  0  0  0  0  0  0  0  0  0  0  # atno 6907 bound_to 6896
  151.6019  133.3350  159.3057 H   0  0  0  0  0  0  0  0  0  0  0  0  # atno 6908 bound_to 6896
  150.8142  134.7351  159.6780 H   0  0  0  0  0  0  0  0  0  0  0  0  # atno 6909 bound_to 6896
  144.8005  139.7110  143.6183 H   0  0  0  0  0  0  0  0  0  0  0  0  # atno 7974 bound_to 7965
  155.0960  140.0395  157.2683 H   0  0  0  0  0  0  0  0  0  0  0  0  # atno 8008 bound_to 7997
  154.6795  140.2630  155.6898 H   0  0  0  0  0  0  0  0  0  0  0  0  # atno 8009 bound_to 7997
  156.2689  140.2781  156.1334 H   0  0  0  0  0  0  0  0  0  0  0  0  # atno 8010 bound_to 7997
  140.7249  143.3849  151.1534 H   0  0  0  0  0  0  0  0  0  0  0  0  # atno 10167 bound_to 10162
  156.0434  130.5660  150.7813 H   0  0  0  0  0  0  0  0  0  0  0  0  # atno 10718 bound_to 10713
  153.6290  135.6990  153.5282 H   0  0  0  0  0  0  0  0  0  0  0  0  # atno 10763 bound_to 10752
  153.2875  135.4167  155.1135 H   0  0  0  0  0  0  0  0  0  0  0  0  # atno 10764 bound_to 10752
  154.8526  135.3617  154.5833 H   0  0  0  0  0  0  0  0  0  0  0  0  # atno 10765 bound_to 10752
  141.1660  133.7021  156.7816 H   0  0  0  0  0  0  0  0  0  0  0  0  # atno 11005 bound_to 11000
  146.2286  139.5769  142.9571 LP  0  0  0  0  0  0  0  0  0  0  0  0  # atno 17320 bound_to 7965
  145.5564  141.0408  143.2250 LP  0  0  0  0  0  0  0  0  0  0  0  0  # atno 17321 bound_to 7965
  139.7444  143.8874  152.3059 LP  0  0  0  0  0  0  0  0  0  0  0  0  # atno 17342 bound_to 10162
  139.8707  144.7070  150.8991 LP  0  0  0  0  0  0  0  0  0  0  0  0  # atno 17343 bound_to 10162
  157.5280  131.0935  150.9992 LP  0  0  0  0  0  0  0  0  0  0  0  0  # atno 17370 bound_to 10713
  157.0306  130.5710  149.5342 LP  0  0  0  0  0  0  0  0  0  0  0  0  # atno 17371 bound_to 10713
  140.2390  134.8628  157.3554 LP  0  0  0  0  0  0  0  0  0  0  0  0  # atno 17394 bound_to 11000
  140.1814  134.4484  155.7769 LP  0  0  0  0  0  0  0  0  0  0  0  0  # atno 17395 bound_to 11000

$$$$
