AV-unprocessed.smi:92|AV-procd|sdf|848|dock7
  -GOLD-   2262017283D 1   1.00000     0.00000
 Structure written by MMmdl.
 61 64  0  0  0  0  0  0  0  0  2 V2000
  150.9965  144.1700  157.9604 C   0  0  0  0  0  0  0  0  0  0  0  0
  151.2747  142.8620  157.2057 C   0  0  0  0  0  0  0  0  0  0  0  0
  150.0290  142.1835  156.7671 N   0  3  1  0  0  0  0  0  0  0  0  0
  150.2883  141.1489  155.7332 C   0  0  0  0  0  0  0  0  0  0  0  0
  148.9753  140.5667  155.1871 C   0  0  0  0  0  0  0  0  0  0  0  0
  148.1082  140.0055  156.3306 C   0  0  2  0  0  0  0  0  0  0  0  0
  146.8939  139.3173  155.8637 N   0  0  0  0  0  0  0  0  0  0  0  0
  145.5841  139.5879  156.4607 C   0  0  0  0  0  0  0  0  0  0  0  0
  147.0796  138.0675  155.3611 C   0  0  0  0  0  0  0  0  0  0  0  0
  148.0072  137.2537  155.9329 N   0  0  0  0  0  0  0  0  0  0  0  0
  148.2293  136.0316  155.4421 C   0  0  0  0  0  0  0  0  0  0  0  0
  147.6456  135.4328  154.4038 N   0  0  0  0  0  0  0  0  0  0  0  0
  146.7072  136.2368  153.8268 C   0  0  0  0  0  0  0  0  0  0  0  0
  146.3638  137.5563  154.2399 C   0  0  0  0  0  0  0  0  0  0  0  0
  145.3566  138.0566  153.4231 N   0  0  0  0  0  0  0  0  0  0  0  0
  145.1256  137.0952  152.5721 C   0  0  0  0  0  0  0  0  0  0  0  0
  145.8932  135.9646  152.7382 N   0  0  0  0  0  0  0  0  0  0  0  0
  145.8352  134.7704  151.9410 C   0  0  0  0  0  0  0  0  0  0  0  0
  144.7909  134.6017  150.8340 C   0  0  0  0  0  0  0  0  0  0  0  0
  144.7381  133.0842  151.1302 C   0  0  0  0  0  0  0  0  0  0  0  0
  143.3437  132.4271  151.1011 C   0  0  0  0  0  0  0  0  0  0  0  0
  142.9117  132.1268  149.7888 O   0  0  0  0  0  0  0  0  0  0  0  0
  145.6593  132.2396  150.2302 C   0  0  0  0  0  0  0  0  0  0  0  0
  145.2478  132.2791  148.8785 O   0  0  0  0  0  0  0  0  0  0  0  0
  145.3198  133.4486  152.5171 C   0  0  0  0  0  0  0  0  0  0  0  0
  147.8711  141.0807  157.4255 C   0  0  2  0  0  0  0  0  0  0  0  0
  146.9104  142.2204  157.0366 C   0  0  0  0  0  0  0  0  0  0  0  0
  149.2305  141.6375  157.8981 C   0  0  0  0  0  0  0  0  0  0  0  0
  151.9296  144.6853  158.1894 H   0  0  0  0  0  0  0  0  0  0  0  0
  150.4842  143.9987  158.9065 H   0  0  0  0  0  0  0  0  0  0  0  0
  150.3844  144.8466  157.3634 H   0  0  0  0  0  0  0  0  0  0  0  0
  151.8779  143.1082  156.3308 H   0  0  0  0  0  0  0  0  0  0  0  0
  151.8764  142.1851  157.8138 H   0  0  0  0  0  0  0  0  0  0  0  0
  150.8543  141.5831  154.9081 H   0  0  0  0  0  0  0  0  0  0  0  0
  150.9058  140.3555  156.1576 H   0  0  0  0  0  0  0  0  0  0  0  0
  148.4419  141.3450  154.6406 H   0  0  0  0  0  0  0  0  0  0  0  0
  149.1992  139.7790  154.4667 H   0  0  0  0  0  0  0  0  0  0  0  0
  148.7326  139.2428  156.7918 H   0  0  0  0  0  0  0  0  0  0  0  0
  144.7905  139.1529  155.8515 H   0  0  0  0  0  0  0  0  0  0  0  0
  145.3859  140.6575  156.5119 H   0  0  0  0  0  0  0  0  0  0  0  0
  145.4963  139.1759  157.4642 H   0  0  0  0  0  0  0  0  0  0  0  0
  148.9831  135.4508  155.9526 H   0  0  0  0  0  0  0  0  0  0  0  0
  144.3808  137.1870  151.7948 H   0  0  0  0  0  0  0  0  0  0  0  0
  146.8358  134.6255  151.5293 H   0  0  0  0  0  0  0  0  0  0  0  0
  143.8593  135.1256  151.0498 H   0  0  0  0  0  0  0  0  0  0  0  0
  145.1519  134.8597  149.8379 H   0  0  0  0  0  0  0  0  0  0  0  0
  143.3405  131.4993  151.6740 H   0  0  0  0  0  0  0  0  0  0  0  0
  142.5932  133.0776  151.5513 H   0  0  0  0  0  0  0  0  0  0  0  0
  142.2134  132.7204  149.5585 H   0  0  0  0  0  0  0  0  0  0  0  0
  146.6916  132.5859  150.2921 H   0  0  0  0  0  0  0  0  0  0  0  0
  145.6693  131.1954  150.5438 H   0  0  0  0  0  0  0  0  0  0  0  0
  145.2581  133.1781  148.5871 H   0  0  0  0  0  0  0  0  0  0  0  0
  146.1050  132.7830  152.8761 H   0  0  0  0  0  0  0  0  0  0  0  0
  144.5580  133.5880  153.2846 H   0  0  0  0  0  0  0  0  0  0  0  0
  147.4248  140.5859  158.2893 H   0  0  0  0  0  0  0  0  0  0  0  0
  147.2063  142.7113  156.1099 H   0  0  0  0  0  0  0  0  0  0  0  0
  146.8759  142.9830  157.8150 H   0  0  0  0  0  0  0  0  0  0  0  0
  145.8913  141.8553  156.9194 H   0  0  0  0  0  0  0  0  0  0  0  0
  149.8025  140.8466  158.3866 H   0  0  0  0  0  0  0  0  0  0  0  0
  149.0620  142.4030  158.6546 H   0  0  0  0  0  0  0  0  0  0  0  0
  149.4620  142.8904  156.3208 H   0  0  0  0  0  0  0  0  0  0  0  0
  1  2  1  0  0  0  0
  1 29  1  0  0  0  0
  1 30  1  0  0  0  0
  1 31  1  0  0  0  0
  2  3  1  0  0  0  0
  2 32  1  0  0  0  0
  2 33  1  0  0  0  0
  3 28  1  0  0  0  0
  3  4  1  0  0  0  0
  3 61  1  0  0  0  0
  4  5  1  0  0  0  0
  4 34  1  0  0  0  0
  4 35  1  0  0  0  0
  5  6  1  0  0  0  0
  5 36  1  0  0  0  0
  5 37  1  0  0  0  0
  6  7  1  0  0  0  0
  6 26  1  0  0  0  0
  6 38  1  0  0  0  0
  7  8  1  0  0  0  0
  7  9  1  0  0  0  0
  8 39  1  0  0  0  0
  8 40  1  0  0  0  0
  8 41  1  0  0  0  0
  9 14  1  0  0  0  0
  9 10  2  0  0  0  0
 10 11  1  0  0  0  0
 11 12  2  0  0  0  0
 11 42  1  0  0  0  0
 12 13  1  0  0  0  0
 13 17  1  0  0  0  0
 13 14  2  0  0  0  0
 14 15  1  0  0  0  0
 15 16  2  0  0  0  0
 16 17  1  0  0  0  0
 16 43  1  0  0  0  0
 17 18  1  0  0  0  0
 18 25  1  0  0  0  0
 18 19  1  0  0  0  0
 18 44  1  0  0  0  0
 19 20  1  0  0  0  0
 19 45  1  0  0  0  0
 19 46  1  0  0  0  0
 20 21  1  0  0  0  0
 20 23  1  0  0  0  0
 20 25  1  0  0  0  0
 21 22  1  0  0  0  0
 21 47  1  0  0  0  0
 21 48  1  0  0  0  0
 22 49  1  0  0  0  0
 23 24  1  0  0  0  0
 23 50  1  0  0  0  0
 23 51  1  0  0  0  0
 24 52  1  0  0  0  0
 25 53  1  0  0  0  0
 25 54  1  0  0  0  0
 26 27  1  0  0  0  0
 26 28  1  0  0  0  0
 26 55  1  0  0  0  0
 27 56  1  0  0  0  0
 27 57  1  0  0  0  0
 27 58  1  0  0  0  0
 28 59  1  0  0  0  0
 28 60  1  0  0  0  0
M  CHG  1   3   1
M  END
> <s_m_source_file>
AV-unprocessed.smi

> <i_m_source_file_index>
92

> <i_lp_mmshare_version>
43012

> <i_f3d_flags>
0

> <s_epik_input>
W0NIM11bQ0gyXU4xW0NIMl1bQ0gyXVtDQEhdKFtDQEBIXShbQ0gzXSlbQ0gyXTEpTihbQ0gzXSljKG5bY0hdbjIpYyhjMjMpbltjSF1uM1tDSF0oW0NIMl00KVtDSDJdQzQoW0NIMl1bT0hdKVtDSDJdW09IXQ==

> <s_epik_cmdline>
J2VwaWtfcHl0aG9uJywgJy1waCcsICc3LjAnLCAnLXRuJywgJzgnLCAnLW1hJywgJzIwMCcsICctbWV0YWxfYmluZGluZycsICctaW1hZScsICc8aW5maWxlLm1hZT4nLCAnLW9tYWUnLCAnPG91dGZpbGUubWFlPic=

> <r_lp_tautomer_probability>
1

> <r_epik_Ionization_Penalty>
0.00235514

> <r_epik_Ionization_Penalty_Charging>
0.00137877

> <r_epik_Ionization_Penalty_Neutral>
0.000976366

> <r_epik_State_Penalty>
-0

> <r_epik_Charging_Adjusted_Penalty>
0.00137877

> <i_epik_Tot_Q>
1

> <i_epik_Tot_abs_Q>
1

> <r_epik_Metal_State_Penalty>
-0

> <b_epik_Metal_Only>
0

> <s_lp_Force_Field>
OPLS_2005

> <r_lp_Energy>
56.4815

> <b_lp_Chiralities_Consistent>
1

> <s_lp_Variant>
AV-unprocessed.smi:92-8

> <Gold.Version>
5.8.1

> <Gold.Id.Protein>
6NUR|6NUR_protein|mol2

> <Gold.PLP.Fitness>
48.7049

> <Gold.PLP.PLP>
-34.4266

> <Gold.PLP.part.hbond>
-5.0670

> <Gold.PLP.part.metal>
0.0000

> <Gold.PLP.part.buried>
-3.9675

> <Gold.PLP.part.nonpolar>
-27.0196

> <Gold.PLP.part.repulsive>
2.2069

> <Gold.PLP.ligand.clash>
0.0000

> <Gold.PLP.ligand.torsion>
1.6494

> <Gold.PLP.Chemscore.Hbond>
4.4062

> <Gold.PLP.Chemscore.CHOScore>
1.0000

> <Gold.PLP.Chemscore.Metal>
0.0000

> <Gold.Chemscore.Hbonds>
donor molecule, donor type, donor heavy atom, donor atom, acceptor molecule, acceptor atom, score
      L1  H     3    61       P1  8028  2.00
      L1  H    22    49       P1 10186  0.89
      L1  H    24    52       P1  7921  0.91
      P1  H 10785 10796       L1    22  0.42
      L1  C    16    43       P1 10171  1.00

> <Gold.PLP.Chemscore.Internal.Correction>
1.3583

> <Gold.Rescore>
     Score         DG    S(hbond)    S(metal)    S(lipo)     H(rot)  DE(clash)    DE(int)     intcor
     11.06     -15.92       2.64        0.00      84.36       3.22       1.98       2.88       ----

> <Gold.Chemscore.Fitness>
11.0577

> <Gold.Chemscore.DG>
-15.9168

> <Gold.Chemscore.ZeroCoef>
-5.4800

> <Gold.Chemscore.Hbond>
2.6392

> <Gold.Chemscore.Metal>
0.0000

> <Gold.Chemscore.Lipo>
84.3601

> <Gold.Chemscore.Internal_Hbond>
0.0000

> <Gold.Chemscore.DEClash>
1.9783

> <Gold.Chemscore.DEInternal>
2.8808

> <Gold.Chemscore.Rot>
3.2219

> <Gold.Chemscore.Internal.Correction>
   9.000000E+99

> <Gold.Chemscore.Hbonds>
donor molecule, donor type, donor heavy atom, donor atom, acceptor molecule, acceptor atom, score
      L1  H     3    61       P1  8028  0.93
      L1  H    22    49       P1 10186  0.85
      L1  H    24    52       P1  7921  0.21
      P1  H 10785 10796       L1    22  0.41

> <Gold.Chemscore.Hbond.Weighted>
-8.8149

> <Gold.Chemscore.Metal.Weighted>
-0.0000

> <Gold.Chemscore.Lipo.Weighted>
-9.8701

> <Gold.Chemscore.Internal_Hbond.Weighted>
0.0000

> <Gold.Chemscore.DEClash.Weighted>
1.9783

> <Gold.Chemscore.DEInternal.Weighted>
2.8808

> <Gold.Chemscore.Rot.Weighted>
8.2482

> <Gold.Chemscore.Internal.Correction.Weighted>
   9.000000E+99

> <Gold.Protein.RotatedTorsions>
[ 6907 6896 6895 6894 ] final  -42.32 input  -60.11 | X-H torsion
[ 7974 7965 7964 7962 ] final  -17.16 input  175.53 | X-H torsion
[ 8008 7997 7996 7995 ] final  -14.52 input   59.86 | X-H torsion
[ 10167 10162 10161 10158 ] final -155.71 input  -65.29 | X-H torsion
[ 10718 10713 10712 10709 ] final  109.99 input   66.30 | X-H torsion
[ 10763 10752 10751 10750 ] final -172.88 input  -60.55 | X-H torsion
[ 11005 11000 10999 10996 ] final   19.37 input  -57.11 | X-H torsion

> <Gold.Protein.ActiveResidues>
 VAL166  LYS551  ARG553  GLY616  TRP617  ASP618  TYR619  PRO620  LYS621  CYS622 
 ASP623  PHE694  ASN695  SER759  ASP760  ASP761  ALA762  ILE779  LEU786  VAL792 
 PHE793  MET794  SER795  GLU796  ALA797  LYS798  CYS799  TRP800  GLU811  SER814 

> <Gold.Protein.RotatedAtoms>
  150.9566  134.8959  159.7704 H   0  0  0  0  0  0  0  0  0  0  0  0  # atno 6907 bound_to 6896
  152.5140  134.3732  159.9335 H   0  0  0  0  0  0  0  0  0  0  0  0  # atno 6908 bound_to 6896
  151.3746  133.3802  159.2738 H   0  0  0  0  0  0  0  0  0  0  0  0  # atno 6909 bound_to 6896
  146.1954  140.3739  142.8442 H   0  0  0  0  0  0  0  0  0  0  0  0  # atno 7974 bound_to 7965
  154.5203  140.2220  155.8988 H   0  0  0  0  0  0  0  0  0  0  0  0  # atno 8008 bound_to 7997
  156.1654  140.3133  155.8845 H   0  0  0  0  0  0  0  0  0  0  0  0  # atno 8009 bound_to 7997
  155.3666  140.0464  157.3036 H   0  0  0  0  0  0  0  0  0  0  0  0  # atno 8010 bound_to 7997
  139.6909  143.9423  152.2384 H   0  0  0  0  0  0  0  0  0  0  0  0  # atno 10167 bound_to 10162
  157.6515  131.0924  150.6536 H   0  0  0  0  0  0  0  0  0  0  0  0  # atno 10718 bound_to 10713
  154.6143  135.2868  155.0398 H   0  0  0  0  0  0  0  0  0  0  0  0  # atno 10763 bound_to 10752
  154.1616  135.6487  153.4991 H   0  0  0  0  0  0  0  0  0  0  0  0  # atno 10764 bound_to 10752
  153.0208  135.5379  154.6908 H   0  0  0  0  0  0  0  0  0  0  0  0  # atno 10765 bound_to 10752
  140.4145  134.1583  155.7669 H   0  0  0  0  0  0  0  0  0  0  0  0  # atno 11005 bound_to 11000
  144.8570  140.7084  143.6132 LP  0  0  0  0  0  0  0  0  0  0  0  0  # atno 17320 bound_to 7965
  145.3660  139.1670  143.4358 LP  0  0  0  0  0  0  0  0  0  0  0  0  # atno 17321 bound_to 7965
  139.9238  144.6783  150.8433 LP  0  0  0  0  0  0  0  0  0  0  0  0  # atno 17342 bound_to 10162
  140.7682  143.3356  151.2316 LP  0  0  0  0  0  0  0  0  0  0  0  0  # atno 17343 bound_to 10162
  156.6846  130.4577  149.5617 LP  0  0  0  0  0  0  0  0  0  0  0  0  # atno 17370 bound_to 10713
  156.1904  130.6556  151.1055 LP  0  0  0  0  0  0  0  0  0  0  0  0  # atno 17371 bound_to 10713
  141.1808  133.8417  157.1264 LP  0  0  0  0  0  0  0  0  0  0  0  0  # atno 17394 bound_to 11000
  140.0244  134.9931  157.0656 LP  0  0  0  0  0  0  0  0  0  0  0  0  # atno 17395 bound_to 11000

$$$$
