AV-unprocessed.smi:1484|AV-procd|sdf|5994|dock8
  -GOLD-   22720 6 93D 1   1.00000     0.00000
 Structure written by MMmdl.
 37 38  0  0  0  0  0  0  0  0  2 V2000
  151.8814  145.3572  159.5319 C   0  0  0  0  0  0  0  0  0  0  0  0
  152.3229  143.9246  159.1995 C   0  0  1  0  0  0  0  0  0  0  0  0
  152.7357  143.1531  160.4678 C   0  0  0  0  0  0  0  0  0  0  0  0
  153.1776  141.7189  160.1369 C   0  0  0  0  0  0  0  0  0  0  0  0
  152.0846  140.9601  159.3688 C   0  0  0  0  0  0  0  0  0  0  0  0
  151.6617  141.7201  158.0980 C   0  0  1  0  0  0  0  0  0  0  0  0
  150.5661  141.0131  157.4402 N   0  0  0  0  0  0  0  0  0  0  0  0
  150.5954  140.4818  156.2079 C   0  0  0  0  0  0  0  0  0  0  0  0
  151.5798  140.5414  155.4691 O   0  0  0  0  0  0  0  0  0  0  0  0
  149.3027  139.7784  155.7633 C   0  0  0  0  0  0  0  0  0  0  0  0
  148.1946  140.6902  155.4414 N   0  0  0  0  0  0  0  0  0  0  0  0
  147.0885  140.6329  156.3934 N   0  5  0  0  0  0  0  0  0  0  0  0
  146.0144  141.4459  156.2109 C   0  0  0  0  0  0  0  0  0  0  0  0
  145.0548  141.4645  156.9782 O   0  0  0  0  0  0  0  0  0  0  0  0
  146.0096  142.3237  155.0523 C   0  0  0  0  0  0  0  0  0  0  0  0
  147.0330  142.3372  154.1758 C   0  0  0  0  0  0  0  0  0  0  0  0
  148.2054  141.4852  154.3334 C   0  0  0  0  0  0  0  0  0  0  0  0
  149.1388  141.4848  153.5303 O   0  0  0  0  0  0  0  0  0  0  0  0
  151.2241  143.1579  158.4373 C   0  0  0  0  0  0  0  0  0  0  0  0
  151.0049  145.3627  160.1805 H   0  0  0  0  0  0  0  0  0  0  0  0
  151.6287  145.9096  158.6264 H   0  0  0  0  0  0  0  0  0  0  0  0
  152.6753  145.9049  160.0406 H   0  0  0  0  0  0  0  0  0  0  0  0
  153.1960  143.9939  158.5488 H   0  0  0  0  0  0  0  0  0  0  0  0
  153.5462  143.6764  160.9762 H   0  0  0  0  0  0  0  0  0  0  0  0
  151.9006  143.1226  161.1691 H   0  0  0  0  0  0  0  0  0  0  0  0
  154.0910  141.7453  159.5414 H   0  0  0  0  0  0  0  0  0  0  0  0
  153.4232  141.1850  161.0553 H   0  0  0  0  0  0  0  0  0  0  0  0
  152.4432  139.9639  159.1068 H   0  0  0  0  0  0  0  0  0  0  0  0
  151.2207  140.8167  160.0195 H   0  0  0  0  0  0  0  0  0  0  0  0
  152.5250  141.7819  157.4328 H   0  0  0  0  0  0  0  0  0  0  0  0
  149.7119  140.9135  157.9690 H   0  0  0  0  0  0  0  0  0  0  0  0
  149.5252  139.1527  154.8973 H   0  0  0  0  0  0  0  0  0  0  0  0
  149.0033  139.0858  156.5522 H   0  0  0  0  0  0  0  0  0  0  0  0
  145.1656  142.9778  154.8896 H   0  0  0  0  0  0  0  0  0  0  0  0
  146.9862  143.0040  153.3278 H   0  0  0  0  0  0  0  0  0  0  0  0
  150.3139  143.1330  159.0385 H   0  0  0  0  0  0  0  0  0  0  0  0
  150.9724  143.6901  157.5189 H   0  0  0  0  0  0  0  0  0  0  0  0
  1  2  1  0  0  0  0
  1 20  1  0  0  0  0
  1 21  1  0  0  0  0
  1 22  1  0  0  0  0
  2 19  1  0  0  0  0
  2  3  1  0  0  0  0
  2 23  1  0  0  0  0
  3  4  1  0  0  0  0
  3 24  1  0  0  0  0
  3 25  1  0  0  0  0
  4  5  1  0  0  0  0
  4 26  1  0  0  0  0
  4 27  1  0  0  0  0
  5  6  1  0  0  0  0
  5 28  1  0  0  0  0
  5 29  1  0  0  0  0
  6  7  1  0  0  0  0
  6 19  1  0  0  0  0
  6 30  1  0  0  0  0
  7  8  1  0  0  0  0
  7 31  1  0  0  0  0
  8  9  2  0  0  0  0
  8 10  1  0  0  0  0
 10 32  1  0  0  0  0
 10 33  1  0  0  0  0
 10 11  1  0  0  0  0
 11 12  1  0  0  0  0
 11 17  1  0  0  0  0
 12 13  1  0  0  0  0
 13 14  2  0  0  0  0
 13 15  1  0  0  0  0
 15 34  1  0  0  0  0
 15 16  2  0  0  0  0
 16 35  1  0  0  0  0
 16 17  1  0  0  0  0
 17 18  2  0  0  0  0
 19 36  1  0  0  0  0
 19 37  1  0  0  0  0
M  CHG  1  12  -1
M  END
> <s_m_source_file>
AV-unprocessed.smi

> <i_m_source_file_index>
1484

> <i_lp_mmshare_version>
43012

> <i_f3d_flags>
0

> <s_epik_input>
W0NIM11bQ0BASF0xW0NIMl1bQ0gyXVtDSDJdW0NASF0oW0NIMl0xKVtOSF1DKD1PKVtDSDJdbjJbbkhdYyg9TylbY0hdW2NIXWMyPU8=

> <s_epik_cmdline>
J2VwaWtfcHl0aG9uJywgJy1waCcsICc3LjAnLCAnLXRuJywgJzgnLCAnLW1hJywgJzIwMCcsICctbWV0YWxfYmluZGluZycsICctaW1hZScsICc8aW5maWxlLm1hZT4nLCAnLW9tYWUnLCAnPG91dGZpbGUubWFlPic=

> <r_lp_tautomer_probability>
1

> <r_epik_Ionization_Penalty>
0.101352

> <r_epik_Ionization_Penalty_Charging>
0.101352

> <r_epik_Ionization_Penalty_Neutral>
1.90469e-08

> <r_epik_State_Penalty>
0.0358555

> <r_epik_Charging_Adjusted_Penalty>
0.137208

> <i_epik_Tot_Q>
-1

> <i_epik_Tot_abs_Q>
1

> <r_epik_Metal_State_Penalty>
0.0358555

> <b_epik_Metal_Only>
0

> <s_lp_Force_Field>
OPLS_2005

> <r_lp_Energy>
25.5617

> <b_lp_Chiralities_Consistent>
1

> <s_lp_Variant>
AV-unprocessed.smi:1484-2

> <Gold.Version>
5.8.1

> <Gold.Id.Protein>
6NUR|6NUR_protein|mol2

> <Gold.PLP.Fitness>
42.9681

> <Gold.PLP.PLP>
-38.3529

> <Gold.PLP.part.hbond>
-2.9797

> <Gold.PLP.part.metal>
0.0000

> <Gold.PLP.part.buried>
-5.9590

> <Gold.PLP.part.nonpolar>
-32.6103

> <Gold.PLP.part.repulsive>
2.7057

> <Gold.PLP.ligand.clash>
0.0000

> <Gold.PLP.ligand.torsion>
0.2387

> <Gold.PLP.Chemscore.Hbond>
1.6960

> <Gold.PLP.Chemscore.CHOScore>
0.0000

> <Gold.PLP.Chemscore.Metal>
0.0000

> <Gold.Chemscore.Hbonds>
donor molecule, donor type, donor heavy atom, donor atom, acceptor molecule, acceptor atom, score
      P1  H  7989  7998       L1     9  0.78
      P1  H  8011  8017       L1    18  0.85

> <Gold.PLP.Chemscore.Internal.Correction>
0.0047

> <Gold.Rescore>
     Score         DG    S(hbond)    S(metal)    S(lipo)     H(rot)  DE(clash)    DE(int)     intcor
     16.33     -17.77       1.73        0.00      91.97       1.65       1.21       0.23       ----

> <Gold.Chemscore.Fitness>
16.3302

> <Gold.Chemscore.DG>
-17.7711

> <Gold.Chemscore.ZeroCoef>
-5.4800

> <Gold.Chemscore.Hbond>
1.7268

> <Gold.Chemscore.Metal>
0.0000

> <Gold.Chemscore.Lipo>
91.9674

> <Gold.Chemscore.Internal_Hbond>
0.0000

> <Gold.Chemscore.DEClash>
1.2145

> <Gold.Chemscore.DEInternal>
0.2265

> <Gold.Chemscore.Rot>
1.6549

> <Gold.Chemscore.Internal.Correction>
   9.000000E+99

> <Gold.Chemscore.Hbonds>
donor molecule, donor type, donor heavy atom, donor atom, acceptor molecule, acceptor atom, score
      P1  H  7989  7998       L1     9  0.76
      P1  H  8011  8017       L1    18  0.83

> <Gold.Chemscore.Hbond.Weighted>
-5.7674

> <Gold.Chemscore.Metal.Weighted>
-0.0000

> <Gold.Chemscore.Lipo.Weighted>
-10.7602

> <Gold.Chemscore.Internal_Hbond.Weighted>
0.0000

> <Gold.Chemscore.DEClash.Weighted>
1.2145

> <Gold.Chemscore.DEInternal.Weighted>
0.2265

> <Gold.Chemscore.Rot.Weighted>
4.2364

> <Gold.Chemscore.Internal.Correction.Weighted>
   9.000000E+99

> <Gold.Protein.RotatedTorsions>
[ 6907 6896 6895 6894 ] final  167.58 input  -60.11 | X-H torsion
[ 7974 7965 7964 7962 ] final -117.90 input  175.53 | X-H torsion
[ 8008 7997 7996 7995 ] final -129.30 input   59.86 | X-H torsion
[ 10167 10162 10161 10158 ] final  -22.19 input  -65.29 | X-H torsion
[ 10718 10713 10712 10709 ] final  102.63 input   66.30 | X-H torsion
[ 10763 10752 10751 10750 ] final  -86.95 input  -60.55 | X-H torsion
[ 11005 11000 10999 10996 ] final   77.97 input  -57.11 | X-H torsion

> <Gold.Protein.ActiveResidues>
 VAL166  LYS551  ARG553  GLY616  TRP617  ASP618  TYR619  PRO620  LYS621  CYS622 
 ASP623  PHE694  ASN695  SER759  ASP760  ASP761  ALA762  ILE779  LEU786  VAL792 
 PHE793  MET794  SER795  GLU796  ALA797  LYS798  CYS799  TRP800  GLU811  SER814 

> <Gold.Protein.RotatedAtoms>
  151.8611  133.3457  159.3703 H   0  0  0  0  0  0  0  0  0  0  0  0  # atno 6907 bound_to 6896
  150.7179  134.5205  159.5661 H   0  0  0  0  0  0  0  0  0  0  0  0  # atno 6908 bound_to 6896
  152.2719  134.7924  160.0463 H   0  0  0  0  0  0  0  0  0  0  0  0  # atno 6909 bound_to 6896
  145.0799  140.8418  143.4045 H   0  0  0  0  0  0  0  0  0  0  0  0  # atno 7974 bound_to 7965
  155.2770  140.0442  157.3012 H   0  0  0  0  0  0  0  0  0  0  0  0  # atno 8008 bound_to 7997
  154.5619  140.2348  155.8290 H   0  0  0  0  0  0  0  0  0  0  0  0  # atno 8009 bound_to 7997
  156.2054  140.3014  155.9623 H   0  0  0  0  0  0  0  0  0  0  0  0  # atno 8010 bound_to 7997
  140.7285  143.4557  151.0451 H   0  0  0  0  0  0  0  0  0  0  0  0  # atno 10167 bound_to 10162
  157.6796  131.0758  150.5433 H   0  0  0  0  0  0  0  0  0  0  0  0  # atno 10718 bound_to 10713
  154.6282  135.5431  153.7651 H   0  0  0  0  0  0  0  0  0  0  0  0  # atno 10763 bound_to 10752
  153.0271  135.6429  154.1340 H   0  0  0  0  0  0  0  0  0  0  0  0  # atno 10764 bound_to 10752
  154.1271  135.2916  155.3174 H   0  0  0  0  0  0  0  0  0  0  0  0  # atno 10765 bound_to 10752
  139.9232  134.7726  156.1589 H   0  0  0  0  0  0  0  0  0  0  0  0  # atno 11005 bound_to 11000
  145.1191  139.2706  143.5598 LP  0  0  0  0  0  0  0  0  0  0  0  0  # atno 17320 bound_to 7965
  146.3531  140.0809  142.8618 LP  0  0  0  0  0  0  0  0  0  0  0  0  # atno 17321 bound_to 7965
  139.8238  143.7784  152.3178 LP  0  0  0  0  0  0  0  0  0  0  0  0  # atno 17342 bound_to 10162
  139.7876  144.7422  151.0000 LP  0  0  0  0  0  0  0  0  0  0  0  0  # atno 17343 bound_to 10162
  156.5740  130.4287  149.6007 LP  0  0  0  0  0  0  0  0  0  0  0  0  # atno 17370 bound_to 10713
  156.2717  130.7020  151.1820 LP  0  0  0  0  0  0  0  0  0  0  0  0  # atno 17371 bound_to 10713
  141.0770  133.6771  156.2256 LP  0  0  0  0  0  0  0  0  0  0  0  0  # atno 17394 bound_to 11000
  140.6412  134.5163  157.5569 LP  0  0  0  0  0  0  0  0  0  0  0  0  # atno 17395 bound_to 11000

$$$$
