AV-unprocessed.smi:2033|AV-procd|sdf|8261|dock5
  -GOLD-   2272010533D 1   1.00000     0.00000
 Structure written by MMmdl.
 32 33  0  0  0  0  0  0  0  0  2 V2000
  150.0707  134.4999  155.9764 C   0  0  0  0  0  0  0  0  0  0  0  0
  150.8789  135.5465  156.6633 C   0  0  0  0  0  0  0  0  0  0  0  0
  152.2054  135.6339  156.5370 N   0  0  0  0  0  0  0  0  0  0  0  0
  152.7317  136.6886  157.2689 N   0  0  0  0  0  0  0  0  0  0  0  0
  151.7977  137.3892  157.9278 C   0  0  0  0  0  0  0  0  0  0  0  0
  152.0991  138.4488  158.6964 N   0  5  0  0  0  0  0  0  0  0  0  0
  152.1720  139.6824  158.1464 C   0  0  0  0  0  0  0  0  0  0  0  0
  152.3528  139.9410  156.9540 O   0  0  0  0  0  0  0  0  0  0  0  0
  152.0249  140.6792  159.0329 N   0  0  0  0  0  0  0  0  0  0  0  0
  152.0420  142.1133  158.7358 C   0  0  2  0  0  0  0  0  0  0  0  0
  151.9518  142.8835  160.0771 C   0  0  0  0  0  0  0  0  0  0  0  0
  151.5704  144.3785  159.9861 C   0  0  0  0  0  0  0  0  0  0  0  0
  152.2882  145.1720  158.8749 C   0  0  0  0  0  0  0  0  0  0  0  0
  152.0460  144.7040  157.4161 C   0  0  0  0  0  0  0  0  0  0  0  0
  150.9467  143.7532  157.2484 N   0  0  0  0  0  0  0  0  0  0  0  0
  150.8789  142.5336  157.8092 C   0  0  0  0  0  0  0  0  0  0  0  0
  149.9144  141.7940  157.6173 O   0  0  0  0  0  0  0  0  0  0  0  0
  150.1632  136.7669  157.7024 S   0  0  0  0  0  0  0  0  0  0  0  0
  149.9281  134.7674  154.9295 H   0  0  0  0  0  0  0  0  0  0  0  0
  149.0936  134.4047  156.4502 H   0  0  0  0  0  0  0  0  0  0  0  0
  150.5776  133.5360  156.0281 H   0  0  0  0  0  0  0  0  0  0  0  0
  151.8732  140.4185  159.9960 H   0  0  0  0  0  0  0  0  0  0  0  0
  152.9920  142.3450  158.2523 H   0  0  0  0  0  0  0  0  0  0  0  0
  151.2328  142.3956  160.7375 H   0  0  0  0  0  0  0  0  0  0  0  0
  152.9156  142.7985  160.5806 H   0  0  0  0  0  0  0  0  0  0  0  0
  150.4916  144.4734  159.8542 H   0  0  0  0  0  0  0  0  0  0  0  0
  151.7776  144.8483  160.9479 H   0  0  0  0  0  0  0  0  0  0  0  0
  151.9711  146.2124  158.9549 H   0  0  0  0  0  0  0  0  0  0  0  0
  153.3607  145.1817  159.0722 H   0  0  0  0  0  0  0  0  0  0  0  0
  151.8427  145.5702  156.7860 H   0  0  0  0  0  0  0  0  0  0  0  0
  152.9561  144.2601  157.0107 H   0  0  0  0  0  0  0  0  0  0  0  0
  150.1837  144.0373  156.6512 H   0  0  0  0  0  0  0  0  0  0  0  0
  1  2  1  0  0  0  0
  1 19  1  0  0  0  0
  1 20  1  0  0  0  0
  1 21  1  0  0  0  0
  2 18  1  0  0  0  0
  2  3  2  0  0  0  0
  3  4  1  0  0  0  0
  4  5  2  0  0  0  0
  5  6  1  0  0  0  0
  5 18  1  0  0  0  0
  6  7  1  0  0  0  0
  7  8  2  0  0  0  0
  7  9  1  0  0  0  0
  9 10  1  0  0  0  0
  9 22  1  0  0  0  0
 10 16  1  0  0  0  0
 10 11  1  0  0  0  0
 10 23  1  0  0  0  0
 11 12  1  0  0  0  0
 11 24  1  0  0  0  0
 11 25  1  0  0  0  0
 12 13  1  0  0  0  0
 12 26  1  0  0  0  0
 12 27  1  0  0  0  0
 13 14  1  0  0  0  0
 13 28  1  0  0  0  0
 13 29  1  0  0  0  0
 14 15  1  0  0  0  0
 14 30  1  0  0  0  0
 14 31  1  0  0  0  0
 15 16  1  0  0  0  0
 15 32  1  0  0  0  0
 16 17  2  0  0  0  0
M  CHG  1   6  -1
M  END
> <s_m_source_file>
AV-unprocessed.smi

> <i_m_source_file_index>
2033

> <i_lp_mmshare_version>
43012

> <i_f3d_flags>
0

> <s_epik_input>
W0NIM11jMW5uYyhzMSlbTkhdQyg9TylbTkhdW0NAQEhdMltDSDJdW0NIMl1bQ0gyXVtDSDJdW05IXUMyPU8=

> <s_epik_cmdline>
J2VwaWtfcHl0aG9uJywgJy1waCcsICc3LjAnLCAnLXRuJywgJzgnLCAnLW1hJywgJzIwMCcsICctbWV0YWxfYmluZGluZycsICctaW1hZScsICc8aW5maWxlLm1hZT4nLCAnLW9tYWUnLCAnPG91dGZpbGUubWFlPic=

> <r_lp_tautomer_probability>
1

> <r_epik_Ionization_Penalty>
4.07233

> <r_epik_Ionization_Penalty_Charging>
3.9374

> <r_epik_Ionization_Penalty_Neutral>
0.134927

> <r_epik_State_Penalty>
3.93663

> <r_epik_Charging_Adjusted_Penalty>
7.87404

> <i_epik_Tot_Q>
-1

> <i_epik_Tot_abs_Q>
1

> <r_epik_Metal_State_Penalty>
0.602812

> <b_epik_Metal_Only>
1

> <s_lp_Force_Field>
OPLS_2005

> <r_lp_Energy>
13.5644

> <b_lp_Chiralities_Consistent>
1

> <s_lp_Variant>
AV-unprocessed.smi:2033-3

> <Gold.Version>
5.8.1

> <Gold.Id.Protein>
6NUR|6NUR_protein|mol2

> <Gold.PLP.Fitness>
36.8912

> <Gold.PLP.PLP>
-29.6163

> <Gold.PLP.part.hbond>
-3.0000

> <Gold.PLP.part.metal>
0.0000

> <Gold.PLP.part.buried>
-6.0871

> <Gold.PLP.part.nonpolar>
-21.2417

> <Gold.PLP.part.repulsive>
0.2163

> <Gold.PLP.ligand.clash>
0.0000

> <Gold.PLP.ligand.torsion>
0.8637

> <Gold.PLP.Chemscore.Hbond>
3.0000

> <Gold.PLP.Chemscore.CHOScore>
0.0000

> <Gold.PLP.Chemscore.Metal>
0.0000

> <Gold.Chemscore.Hbonds>
donor molecule, donor type, donor heavy atom, donor atom, acceptor molecule, acceptor atom, score
      L1  H    15    32       P1  8028  1.00
      P1  H  7997  8008       L1     8  0.96
      P1  H 10752 10765       L1     3  0.96

> <Gold.PLP.Chemscore.Internal.Correction>
0.0024

> <Gold.Rescore>
     Score         DG    S(hbond)    S(metal)    S(lipo)     H(rot)  DE(clash)    DE(int)     intcor
     20.14     -21.18       2.93        0.00      72.55       1.00       0.19       0.85       ----

> <Gold.Chemscore.Fitness>
20.1385

> <Gold.Chemscore.DG>
-21.1818

> <Gold.Chemscore.ZeroCoef>
-5.4800

> <Gold.Chemscore.Hbond>
2.9263

> <Gold.Chemscore.Metal>
0.0000

> <Gold.Chemscore.Lipo>
72.5456

> <Gold.Chemscore.Internal_Hbond>
0.0000

> <Gold.Chemscore.DEClash>
0.1889

> <Gold.Chemscore.DEInternal>
0.8544

> <Gold.Chemscore.Rot>
1.0000

> <Gold.Chemscore.Internal.Correction>
   9.000000E+99

> <Gold.Chemscore.Hbonds>
donor molecule, donor type, donor heavy atom, donor atom, acceptor molecule, acceptor atom, score
      L1  H    15    32       P1  8028  1.00
      P1  H  7997  8008       L1     8  0.73
      P1  H 10752 10765       L1     3  0.24

> <Gold.Chemscore.Hbond.Weighted>
-9.7739

> <Gold.Chemscore.Metal.Weighted>
-0.0000

> <Gold.Chemscore.Lipo.Weighted>
-8.4878

> <Gold.Chemscore.Internal_Hbond.Weighted>
0.0000

> <Gold.Chemscore.DEClash.Weighted>
0.1889

> <Gold.Chemscore.DEInternal.Weighted>
0.8544

> <Gold.Chemscore.Rot.Weighted>
2.5600

> <Gold.Chemscore.Internal.Correction.Weighted>
   9.000000E+99

> <Gold.Protein.RotatedTorsions>
[ 6907 6896 6895 6894 ] final   39.55 input  -60.11 | X-H torsion
[ 7974 7965 7964 7962 ] final -131.87 input  175.53 | X-H torsion
[ 8008 7997 7996 7995 ] final  -50.56 input   59.86 | X-H torsion
[ 10167 10162 10161 10158 ] final -131.88 input  -65.29 | X-H torsion
[ 10718 10713 10712 10709 ] final -176.18 input   66.30 | X-H torsion
[ 10763 10752 10751 10750 ] final -118.68 input  -60.55 | X-H torsion
[ 11005 11000 10999 10996 ] final -132.64 input  -57.11 | X-H torsion

> <Gold.Protein.ActiveResidues>
 VAL166  LYS551  ARG553  GLY616  TRP617  ASP618  TYR619  PRO620  LYS621  CYS622 
 ASP623  PHE694  ASN695  SER759  ASP760  ASP761  ALA762  ILE779  LEU786  VAL792 
 PHE793  MET794  SER795  GLU796  ALA797  LYS798  CYS799  TRP800  GLU811  SER814 

> <Gold.Protein.RotatedAtoms>
  152.1710  134.8834  160.0534 H   0  0  0  0  0  0  0  0  0  0  0  0  # atno 6907 bound_to 6896
  151.9794  133.3747  159.4110 H   0  0  0  0  0  0  0  0  0  0  0  0  # atno 6908 bound_to 6896
  150.6902  134.3977  159.5149 H   0  0  0  0  0  0  0  0  0  0  0  0  # atno 6909 bound_to 6896
  144.9339  140.7160  143.4889 H   0  0  0  0  0  0  0  0  0  0  0  0  # atno 7974 bound_to 7965
  154.4064  140.1269  156.4685 H   0  0  0  0  0  0  0  0  0  0  0  0  # atno 8008 bound_to 7997
  155.7202  140.3493  155.4993 H   0  0  0  0  0  0  0  0  0  0  0  0  # atno 8009 bound_to 7997
  155.9221  140.1054  157.1189 H   0  0  0  0  0  0  0  0  0  0  0  0  # atno 8010 bound_to 7997
  139.9143  143.6457  152.2568 H   0  0  0  0  0  0  0  0  0  0  0  0  # atno 10167 bound_to 10162
  156.8109  130.9586  151.3116 H   0  0  0  0  0  0  0  0  0  0  0  0  # atno 10718 bound_to 10713
  154.8595  135.4265  154.2177 H   0  0  0  0  0  0  0  0  0  0  0  0  # atno 10763 bound_to 10752
  153.3189  135.6981  153.7054 H   0  0  0  0  0  0  0  0  0  0  0  0  # atno 10764 bound_to 10752
  153.6117  135.3518  155.2954 H   0  0  0  0  0  0  0  0  0  0  0  0  # atno 10765 bound_to 10752
  140.9152  134.1516  157.4358 H   0  0  0  0  0  0  0  0  0  0  0  0  # atno 11005 bound_to 11000
  145.3099  139.1822  143.4644 LP  0  0  0  0  0  0  0  0  0  0  0  0  # atno 17320 bound_to 7965
  146.3258  140.3101  142.8626 LP  0  0  0  0  0  0  0  0  0  0  0  0  # atno 17321 bound_to 7965
  139.6915  144.7646  151.1429 LP  0  0  0  0  0  0  0  0  0  0  0  0  # atno 17342 bound_to 10162
  140.7678  143.5582  150.9128 LP  0  0  0  0  0  0  0  0  0  0  0  0  # atno 17343 bound_to 10162
  157.6506  130.8881  149.9626 LP  0  0  0  0  0  0  0  0  0  0  0  0  # atno 17370 bound_to 10713
  156.1045  130.3653  150.0158 LP  0  0  0  0  0  0  0  0  0  0  0  0  # atno 17371 bound_to 10713
  139.8765  134.9951  156.5726 LP  0  0  0  0  0  0  0  0  0  0  0  0  # atno 17394 bound_to 11000
  140.8059  133.8468  155.8767 LP  0  0  0  0  0  0  0  0  0  0  0  0  # atno 17395 bound_to 11000

$$$$
