AV-unprocessed.smi:5|AV-procd|sdf|38|dock8
  -GOLD-   2262015153D 1   1.00000     0.00000
 Structure written by MMmdl.
 43 44  0  0  0  0  0  0  0  0  2 V2000
  153.1462  143.1002  163.1336 C   0  0  0  0  0  0  0  0  0  0  0  0
  152.7962  143.1998  161.6630 C   0  0  0  0  0  0  0  0  0  0  0  0
  151.9074  144.0947  161.1900 C   0  0  0  0  0  0  0  0  0  0  0  0
  151.5671  144.2162  159.7149 C   0  0  0  0  0  0  0  0  0  0  0  0
  152.5594  143.4228  158.8439 C   0  0  0  0  0  0  0  0  0  0  0  0
  152.7992  142.0992  159.4461 N   0  0  0  0  0  0  0  0  0  0  0  0
  152.3112  140.9184  158.9875 C   0  0  0  0  0  0  0  0  0  0  0  0
  152.3579  139.8704  159.6329 O   0  0  0  0  0  0  0  0  0  0  0  0
  151.7101  140.9907  157.7869 N   0  0  0  0  0  0  0  0  0  0  0  0
  150.9092  139.9314  157.1777 C   0  0  0  0  0  0  0  0  0  0  0  0
  149.5599  140.4142  156.6412 C   0  0  0  0  0  0  0  0  0  0  0  0
  148.5511  140.8672  157.4197 C   0  0  0  0  0  0  0  0  0  0  0  0
  147.3140  141.2957  156.9051 N   0  0  0  0  0  0  0  0  0  0  0  0
  146.2903  141.7530  157.8715 C   0  0  0  0  0  0  0  0  0  0  0  0
  145.0831  140.7985  157.8953 C   0  0  0  0  0  0  0  0  0  0  0  0
  145.8768  143.2148  157.6131 C   0  0  0  0  0  0  0  0  0  0  0  0
  147.1095  141.2801  155.5527 C   0  0  0  0  0  0  0  0  0  0  0  0
  146.0330  141.6683  155.0987 O   0  0  0  0  0  0  0  0  0  0  0  0
  148.1133  140.8326  154.7386 N   0  5  0  0  0  0  0  0  0  0  0  0
  149.3224  140.3975  155.1960 C   0  0  0  0  0  0  0  0  0  0  0  0
  150.2069  140.0016  154.4374 O   0  0  0  0  0  0  0  0  0  0  0  0
  153.4945  142.2033  160.7409 C   0  0  0  0  0  0  0  0  0  0  0  0
  154.2182  143.2377  163.2760 H   0  0  0  0  0  0  0  0  0  0  0  0
  152.8700  142.1201  163.5226 H   0  0  0  0  0  0  0  0  0  0  0  0
  152.6246  143.8579  163.7193 H   0  0  0  0  0  0  0  0  0  0  0  0
  151.4009  144.7713  161.8627 H   0  0  0  0  0  0  0  0  0  0  0  0
  150.5517  143.8475  159.5661 H   0  0  0  0  0  0  0  0  0  0  0  0
  151.5734  145.2676  159.4267 H   0  0  0  0  0  0  0  0  0  0  0  0
  152.2192  143.3931  157.8087 H   0  0  0  0  0  0  0  0  0  0  0  0
  153.5120  143.9538  158.8112 H   0  0  0  0  0  0  0  0  0  0  0  0
  151.7186  141.8809  157.3111 H   0  0  0  0  0  0  0  0  0  0  0  0
  151.4810  139.5078  156.3517 H   0  0  0  0  0  0  0  0  0  0  0  0
  150.7517  139.1231  157.8941 H   0  0  0  0  0  0  0  0  0  0  0  0
  148.6255  140.9309  158.4937 H   0  0  0  0  0  0  0  0  0  0  0  0
  146.6922  141.7448  158.8850 H   0  0  0  0  0  0  0  0  0  0  0  0
  144.3729  141.0904  158.6694 H   0  0  0  0  0  0  0  0  0  0  0  0
  145.3984  139.7767  158.1088 H   0  0  0  0  0  0  0  0  0  0  0  0
  144.5463  140.7910  156.9468 H   0  0  0  0  0  0  0  0  0  0  0  0
  145.2127  143.5727  158.4000 H   0  0  0  0  0  0  0  0  0  0  0  0
  145.3501  143.3386  156.6667 H   0  0  0  0  0  0  0  0  0  0  0  0
  146.7483  143.8699  157.5985 H   0  0  0  0  0  0  0  0  0  0  0  0
  154.5238  142.5252  160.5796 H   0  0  0  0  0  0  0  0  0  0  0  0
  153.5500  141.2454  161.2595 H   0  0  0  0  0  0  0  0  0  0  0  0
  1  2  1  0  0  0  0
  1 23  1  0  0  0  0
  1 24  1  0  0  0  0
  1 25  1  0  0  0  0
  2 22  1  0  0  0  0
  2  3  2  0  0  0  0
  3  4  1  0  0  0  0
  3 26  1  0  0  0  0
  4  5  1  0  0  0  0
  4 27  1  0  0  0  0
  4 28  1  0  0  0  0
  5  6  1  0  0  0  0
  5 29  1  0  0  0  0
  5 30  1  0  0  0  0
  6  7  1  0  0  0  0
  6 22  1  0  0  0  0
  7  8  2  0  0  0  0
  7  9  1  0  0  0  0
  9 10  1  0  0  0  0
  9 31  1  0  0  0  0
 10 11  1  0  0  0  0
 10 32  1  0  0  0  0
 10 33  1  0  0  0  0
 11 20  1  0  0  0  0
 11 12  2  0  0  0  0
 12 13  1  0  0  0  0
 12 34  1  0  0  0  0
 13 14  1  0  0  0  0
 13 17  1  0  0  0  0
 14 15  1  0  0  0  0
 14 16  1  0  0  0  0
 14 35  1  0  0  0  0
 15 36  1  0  0  0  0
 15 37  1  0  0  0  0
 15 38  1  0  0  0  0
 16 39  1  0  0  0  0
 16 40  1  0  0  0  0
 16 41  1  0  0  0  0
 17 18  2  0  0  0  0
 17 19  1  0  0  0  0
 19 20  1  0  0  0  0
 20 21  2  0  0  0  0
 22 42  1  0  0  0  0
 22 43  1  0  0  0  0
M  CHG  1  19  -1
M  END
> <s_m_source_file>
AV-unprocessed.smi

> <i_m_source_file_index>
5

> <i_lp_mmshare_version>
43012

> <i_f3d_flags>
0

> <s_epik_input>
W0NIM11DMT1bQ0hdW0NIMl1bQ0gyXU4oW0NIMl0xKUMoPU8pW05IXVtDSDJdYzJbY0hdbihbQ0hdKFtDSDNdKVtDSDNdKWMoPU8pW25IXWMyPU8=

> <s_epik_cmdline>
J2VwaWtfcHl0aG9uJywgJy1waCcsICc3LjAnLCAnLXRuJywgJzgnLCAnLW1hJywgJzIwMCcsICctbWV0YWxfYmluZGluZycsICctaW1hZScsICc8aW5maWxlLm1hZT4nLCAnLW9tYWUnLCAnPG91dGZpbGUubWFlPic=

> <r_lp_tautomer_probability>
0.999537

> <r_epik_Ionization_Penalty>
3.83548

> <r_epik_Ionization_Penalty_Charging>
1.96903e-07

> <r_epik_Ionization_Penalty_Neutral>
3.83548

> <r_epik_State_Penalty>
3.83512

> <r_epik_Charging_Adjusted_Penalty>
3.83512

> <i_epik_Tot_Q>
-1

> <i_epik_Tot_abs_Q>
1

> <r_epik_Metal_State_Penalty>
0.576105

> <b_epik_Metal_Only>
1

> <s_lp_Force_Field>
OPLS_2005

> <r_lp_Energy>
38.6384

> <b_lp_Chiralities_Consistent>
1

> <s_lp_Variant>
AV-unprocessed.smi:5-2

> <Gold.Version>
5.8.1

> <Gold.Id.Protein>
6NUR|6NUR_protein|mol2

> <Gold.PLP.Fitness>
44.2042

> <Gold.PLP.PLP>
-41.6621

> <Gold.PLP.part.hbond>
-0.7145

> <Gold.PLP.part.metal>
0.0000

> <Gold.PLP.part.buried>
-6.5696

> <Gold.PLP.part.nonpolar>
-34.5852

> <Gold.PLP.part.repulsive>
0.4795

> <Gold.PLP.ligand.clash>
0.0000

> <Gold.PLP.ligand.torsion>
0.1758

> <Gold.PLP.Chemscore.Hbond>
0.9440

> <Gold.PLP.Chemscore.CHOScore>
0.0000

> <Gold.PLP.Chemscore.Metal>
0.0000

> <Gold.Chemscore.Hbonds>
donor molecule, donor type, donor heavy atom, donor atom, acceptor molecule, acceptor atom, score
      P1  H  7989  7998       L1    21  1.00

> <Gold.PLP.Chemscore.Internal.Correction>
0.0616

> <Gold.Rescore>
     Score         DG    S(hbond)    S(metal)    S(lipo)     H(rot)  DE(clash)    DE(int)     intcor
     13.55     -15.11       0.92        0.00      87.96       1.46       0.12       1.44       ----

> <Gold.Chemscore.Fitness>
13.5546

> <Gold.Chemscore.DG>
-15.1122

> <Gold.Chemscore.ZeroCoef>
-5.4800

> <Gold.Chemscore.Hbond>
0.9189

> <Gold.Chemscore.Metal>
0.0000

> <Gold.Chemscore.Lipo>
87.9552

> <Gold.Chemscore.Internal_Hbond>
0.0000

> <Gold.Chemscore.DEClash>
0.1209

> <Gold.Chemscore.DEInternal>
1.4367

> <Gold.Chemscore.Rot>
1.4561

> <Gold.Chemscore.Internal.Correction>
   9.000000E+99

> <Gold.Chemscore.Hbonds>
donor molecule, donor type, donor heavy atom, donor atom, acceptor molecule, acceptor atom, score
      P1  H  7989  7998       L1    21  0.98

> <Gold.Chemscore.Hbond.Weighted>
-3.0691

> <Gold.Chemscore.Metal.Weighted>
-0.0000

> <Gold.Chemscore.Lipo.Weighted>
-10.2908

> <Gold.Chemscore.Internal_Hbond.Weighted>
0.0000

> <Gold.Chemscore.DEClash.Weighted>
0.1209

> <Gold.Chemscore.DEInternal.Weighted>
1.4367

> <Gold.Chemscore.Rot.Weighted>
3.7276

> <Gold.Chemscore.Internal.Correction.Weighted>
   9.000000E+99

> <Gold.Protein.RotatedTorsions>
[ 6907 6896 6895 6894 ] final  162.43 input  -60.11 | X-H torsion
[ 7974 7965 7964 7962 ] final -116.49 input  175.53 | X-H torsion
[ 8008 7997 7996 7995 ] final  161.92 input   59.86 | X-H torsion
[ 10167 10162 10161 10158 ] final  -11.42 input  -65.29 | X-H torsion
[ 10718 10713 10712 10709 ] final -136.78 input   66.30 | X-H torsion
[ 10763 10752 10751 10750 ] final   58.96 input  -60.55 | X-H torsion
[ 11005 11000 10999 10996 ] final  152.57 input  -57.11 | X-H torsion

> <Gold.Protein.ActiveResidues>
 VAL166  LYS551  ARG553  GLY616  TRP617  ASP618  TYR619  PRO620  LYS621  CYS622 
 ASP623  PHE694  ASN695  SER759  ASP760  ASP761  ALA762  ILE779  LEU786  VAL792 
 PHE793  MET794  SER795  GLU796  ALA797  LYS798  CYS799  TRP800  GLU811  SER814 

> <Gold.Protein.RotatedAtoms>
  151.9406  133.3637  159.3963 H   0  0  0  0  0  0  0  0  0  0  0  0  # atno 6907 bound_to 6896
  150.6999  134.4443  159.5316 H   0  0  0  0  0  0  0  0  0  0  0  0  # atno 6908 bound_to 6896
  152.2100  134.8510  160.0549 H   0  0  0  0  0  0  0  0  0  0  0  0  # atno 6909 bound_to 6896
  145.0961  140.8522  143.3954 H   0  0  0  0  0  0  0  0  0  0  0  0  # atno 7974 bound_to 7965
  156.2069  140.1764  156.7781 H   0  0  0  0  0  0  0  0  0  0  0  0  # atno 8008 bound_to 7997
  154.5667  140.0690  156.8932 H   0  0  0  0  0  0  0  0  0  0  0  0  # atno 8009 bound_to 7997
  155.2748  140.3345  155.4265 H   0  0  0  0  0  0  0  0  0  0  0  0  # atno 8010 bound_to 7997
  140.7138  143.5641  150.9163 H   0  0  0  0  0  0  0  0  0  0  0  0  # atno 10167 bound_to 10162
  156.2808  130.7320  151.1316 H   0  0  0  0  0  0  0  0  0  0  0  0  # atno 10718 bound_to 10713
  152.9883  135.5588  154.5636 H   0  0  0  0  0  0  0  0  0  0  0  0  # atno 10763 bound_to 10752
  154.5050  135.2799  155.1392 H   0  0  0  0  0  0  0  0  0  0  0  0  # atno 10764 bound_to 10752
  154.2807  135.6345  153.5399 H   0  0  0  0  0  0  0  0  0  0  0  0  # atno 10765 bound_to 10752
  140.1320  134.8796  157.2216 H   0  0  0  0  0  0  0  0  0  0  0  0  # atno 11005 bound_to 11000
  145.1009  139.2823  143.5686 LP  0  0  0  0  0  0  0  0  0  0  0  0  # atno 17320 bound_to 7965
  146.3530  140.0576  142.8631 LP  0  0  0  0  0  0  0  0  0  0  0  0  # atno 17321 bound_to 7965
  139.9367  143.6430  152.3063 LP  0  0  0  0  0  0  0  0  0  0  0  0  # atno 17342 bound_to 10162
  139.6900  144.7648  151.1456 LP  0  0  0  0  0  0  0  0  0  0  0  0  # atno 17343 bound_to 10162
  157.7314  131.0608  150.5681 LP  0  0  0  0  0  0  0  0  0  0  0  0  # atno 17370 bound_to 10713
  156.5786  130.4298  149.5987 LP  0  0  0  0  0  0  0  0  0  0  0  0  # atno 17371 bound_to 10713
  140.2830  134.3327  155.7337 LP  0  0  0  0  0  0  0  0  0  0  0  0  # atno 17394 bound_to 11000
  141.2172  133.7490  156.9392 LP  0  0  0  0  0  0  0  0  0  0  0  0  # atno 17395 bound_to 11000

$$$$
