AV-unprocessed.smi:1718|AV-procd|sdf|6927|dock6
  -GOLD-   22720 8133D 1   1.00000     0.00000
 Structure written by MMmdl.
 39 40  0  0  0  0  0  0  0  0  2 V2000
  149.0022  138.8549  158.0331 C   0  0  0  0  0  0  0  0  0  0  0  0
  150.0407  137.7231  158.0283 C   0  0  1  0  0  0  0  0  0  0  0  0
  151.1829  138.1894  158.7416 O   0  0  0  0  0  0  0  0  0  0  0  0
  152.3119  138.5203  157.9406 C   0  0  0  0  0  0  0  0  0  0  0  0
  153.4909  138.8437  158.8657 C   0  0  2  0  0  0  0  0  0  0  0  0
  153.4730  140.2613  159.4330 C   0  0  0  0  0  0  0  0  0  0  0  0
  154.9292  140.4598  159.7870 C   0  0  0  0  0  0  0  0  0  0  0  0
  155.6395  139.7365  158.6441 C   0  0  0  0  0  0  0  0  0  0  0  0
  154.7231  138.7581  158.1569 O   0  0  0  0  0  0  0  0  0  0  0  0
  149.4850  136.4479  158.6837 C   0  0  0  0  0  0  0  0  0  0  0  0
  149.5461  135.3798  158.0747 O   0  0  0  0  0  0  0  0  0  0  0  0
  148.9615  136.6135  159.9143 N   0  0  0  0  0  0  0  0  0  0  0  0
  148.3365  135.6766  160.7546 C   0  0  0  0  0  0  0  0  0  0  0  0
  147.9336  134.4340  160.3696 C   0  0  0  0  0  0  0  0  0  0  0  0
  147.2727  133.5101  161.2828 C   0  0  0  0  0  0  0  0  0  0  0  0
  146.9004  132.0843  160.9161 C   0  0  0  0  0  0  0  0  0  0  0  0
  145.6102  131.8492  161.1557 F   0  0  0  0  0  0  0  0  0  0  0  0
  147.1266  131.8751  159.6201 F   0  0  0  0  0  0  0  0  0  0  0  0
  147.6241  131.2071  161.6114 F   0  0  0  0  0  0  0  0  0  0  0  0
  147.1225  134.0421  162.5486 C   0  0  0  0  0  0  0  0  0  0  0  0
  147.4660  135.2672  163.0028 N   0  5  0  0  0  0  0  0  0  0  0  0
  148.0815  136.1238  162.1397 C   0  0  0  0  0  0  0  0  0  0  0  0
  148.4253  137.2538  162.4887 O   0  0  0  0  0  0  0  0  0  0  0  0
  148.0916  138.5593  157.5109 H   0  0  0  0  0  0  0  0  0  0  0  0
  149.3951  139.7403  157.5331 H   0  0  0  0  0  0  0  0  0  0  0  0
  148.7288  139.1456  159.0481 H   0  0  0  0  0  0  0  0  0  0  0  0
  150.3190  137.5198  156.9922 H   0  0  0  0  0  0  0  0  0  0  0  0
  152.5825  137.6856  157.2934 H   0  0  0  0  0  0  0  0  0  0  0  0
  152.0889  139.3731  157.2979 H   0  0  0  0  0  0  0  0  0  0  0  0
  153.5306  138.1235  159.6847 H   0  0  0  0  0  0  0  0  0  0  0  0
  153.1724  140.9798  158.6688 H   0  0  0  0  0  0  0  0  0  0  0  0
  152.8050  140.3691  160.2878 H   0  0  0  0  0  0  0  0  0  0  0  0
  155.2130  141.5092  159.8702 H   0  0  0  0  0  0  0  0  0  0  0  0
  155.1506  139.9699  160.7362 H   0  0  0  0  0  0  0  0  0  0  0  0
  155.8685  140.4297  157.8340 H   0  0  0  0  0  0  0  0  0  0  0  0
  156.5730  139.2763  158.9687 H   0  0  0  0  0  0  0  0  0  0  0  0
  149.0487  137.5361  160.3158 H   0  0  0  0  0  0  0  0  0  0  0  0
  148.0722  134.0963  159.3560 H   0  0  0  0  0  0  0  0  0  0  0  0
  146.6598  133.3818  163.3131 H   0  0  0  0  0  0  0  0  0  0  0  0
  1  2  1  0  0  0  0
  1 24  1  0  0  0  0
  1 25  1  0  0  0  0
  1 26  1  0  0  0  0
  2  3  1  0  0  0  0
  2 10  1  0  0  0  0
  2 27  1  0  0  0  0
  3  4  1  0  0  0  0
  4  5  1  0  0  0  0
  4 28  1  0  0  0  0
  4 29  1  0  0  0  0
  5  9  1  0  0  0  0
  5  6  1  0  0  0  0
  5 30  1  0  0  0  0
  6  7  1  0  0  0  0
  6 31  1  0  0  0  0
  6 32  1  0  0  0  0
  7  8  1  0  0  0  0
  7 33  1  0  0  0  0
  7 34  1  0  0  0  0
  8  9  1  0  0  0  0
  8 35  1  0  0  0  0
  8 36  1  0  0  0  0
 10 11  2  0  0  0  0
 10 12  1  0  0  0  0
 12 13  1  0  0  0  0
 12 37  1  0  0  0  0
 13 22  1  0  0  0  0
 13 14  2  0  0  0  0
 14 15  1  0  0  0  0
 14 38  1  0  0  0  0
 15 16  1  0  0  0  0
 15 20  2  0  0  0  0
 16 17  1  0  0  0  0
 16 18  1  0  0  0  0
 16 19  1  0  0  0  0
 20 21  1  0  0  0  0
 20 39  1  0  0  0  0
 21 22  1  0  0  0  0
 22 23  2  0  0  0  0
M  CHG  1  21  -1
M  END
> <s_m_source_file>
AV-unprocessed.smi

> <i_m_source_file_index>
1718

> <i_lp_mmshare_version>
43012

> <i_f3d_flags>
0

> <s_epik_input>
TzFbQ0gyXVtDSDJdW0NIMl1bQ0BIXTFbQ0gyXU9bQ0BASF0oW0NIM10pQyg9TylbTkhdYzJbY0hdYyhDKEYpKEYpRilbY0hdW25IXWMyPU8=

> <s_epik_cmdline>
J2VwaWtfcHl0aG9uJywgJy1waCcsICc3LjAnLCAnLXRuJywgJzgnLCAnLW1hJywgJzIwMCcsICctbWV0YWxfYmluZGluZycsICctaW1hZScsICc8aW5maWxlLm1hZT4nLCAnLW9tYWUnLCAnPG91dGZpbGUubWFlPic=

> <r_epik_Ionization_Penalty>
2.5466

> <r_epik_Ionization_Penalty_Charging>
0.0575837

> <r_epik_Ionization_Penalty_Neutral>
2.48901

> <r_epik_State_Penalty>
2.6532

> <r_epik_Charging_Adjusted_Penalty>
2.71078

> <i_epik_Tot_Q>
-1

> <i_epik_Tot_abs_Q>
1

> <r_epik_Metal_State_Penalty>
0.516196

> <b_epik_Metal_Only>
0

> <s_lp_Force_Field>
OPLS_2005

> <r_lp_Energy>
37.0387

> <b_lp_Chiralities_Consistent>
1

> <s_lp_Variant>
AV-unprocessed.smi:1718-6

> <Gold.Version>
5.8.1

> <Gold.Id.Protein>
6NUR|6NUR_protein|mol2

> <Gold.PLP.Fitness>
46.3723

> <Gold.PLP.PLP>
-38.4904

> <Gold.PLP.part.hbond>
-4.4245

> <Gold.PLP.part.metal>
0.0000

> <Gold.PLP.part.buried>
-4.8723

> <Gold.PLP.part.nonpolar>
-29.6457

> <Gold.PLP.part.repulsive>
0.2280

> <Gold.PLP.ligand.clash>
0.0000

> <Gold.PLP.ligand.torsion>
1.0685

> <Gold.PLP.Chemscore.Hbond>
3.2984

> <Gold.PLP.Chemscore.CHOScore>
0.0000

> <Gold.PLP.Chemscore.Metal>
0.0000

> <Gold.Chemscore.Hbonds>
donor molecule, donor type, donor heavy atom, donor atom, acceptor molecule, acceptor atom, score
      P1  H  6896  6907       L1    11  0.50
      P1  H  6931  6943       L1    23  0.38

> <Gold.PLP.Chemscore.Internal.Correction>
0.1238

> <Gold.Rescore>
     Score         DG    S(hbond)    S(metal)    S(lipo)     H(rot)  DE(clash)    DE(int)     intcor
     16.46     -18.66       2.88        0.00      70.71       1.85       0.02       2.18       ----

> <Gold.Chemscore.Fitness>
16.4578

> <Gold.Chemscore.DG>
-18.6581

> <Gold.Chemscore.ZeroCoef>
-5.4800

> <Gold.Chemscore.Hbond>
2.8832

> <Gold.Chemscore.Metal>
0.0000

> <Gold.Chemscore.Lipo>
70.7060

> <Gold.Chemscore.Internal_Hbond>
0.0000

> <Gold.Chemscore.DEClash>
0.0233

> <Gold.Chemscore.DEInternal>
2.1770

> <Gold.Chemscore.Rot>
1.8455

> <Gold.Chemscore.Internal.Correction>
   9.000000E+99

> <Gold.Chemscore.Hbonds>
donor molecule, donor type, donor heavy atom, donor atom, acceptor molecule, acceptor atom, score
      P1  H  6896  6907       L1    11  0.02
      P1  H  6931  6943       L1    23  0.37

> <Gold.Chemscore.Hbond.Weighted>
-9.6300

> <Gold.Chemscore.Metal.Weighted>
-0.0000

> <Gold.Chemscore.Lipo.Weighted>
-8.2726

> <Gold.Chemscore.Internal_Hbond.Weighted>
0.0000

> <Gold.Chemscore.DEClash.Weighted>
0.0233

> <Gold.Chemscore.DEInternal.Weighted>
2.1770

> <Gold.Chemscore.Rot.Weighted>
4.7245

> <Gold.Chemscore.Internal.Correction.Weighted>
   9.000000E+99

> <Gold.Protein.RotatedTorsions>
[ 6907 6896 6895 6894 ] final  -67.76 input  -60.11 | X-H torsion
[ 7974 7965 7964 7962 ] final -114.03 input  175.53 | X-H torsion
[ 8008 7997 7996 7995 ] final  131.12 input   59.86 | X-H torsion
[ 10167 10162 10161 10158 ] final -155.95 input  -65.29 | X-H torsion
[ 10718 10713 10712 10709 ] final -105.28 input   66.30 | X-H torsion
[ 10763 10752 10751 10750 ] final   92.21 input  -60.55 | X-H torsion
[ 11005 11000 10999 10996 ] final -168.05 input  -57.11 | X-H torsion

> <Gold.Protein.ActiveResidues>
 VAL166  LYS551  ARG553  GLY616  TRP617  ASP618  TYR619  PRO620  LYS621  CYS622 
 ASP623  PHE694  ASN695  SER759  ASP760  ASP761  ALA762  ILE779  LEU786  VAL792 
 PHE793  MET794  SER795  GLU796  ALA797  LYS798  CYS799  TRP800  GLU811  SER814 

> <Gold.Protein.RotatedAtoms>
  150.7392  134.5835  159.5950 H   0  0  0  0  0  0  0  0  0  0  0  0  # atno 6907 bound_to 6896
  152.3242  134.7339  160.0315 H   0  0  0  0  0  0  0  0  0  0  0  0  # atno 6908 bound_to 6896
  151.7844  133.3317  159.3517 H   0  0  0  0  0  0  0  0  0  0  0  0  # atno 6909 bound_to 6896
  145.1250  140.8691  143.3791 H   0  0  0  0  0  0  0  0  0  0  0  0  # atno 7974 bound_to 7965
  156.2965  140.2579  156.2874 H   0  0  0  0  0  0  0  0  0  0  0  0  # atno 8008 bound_to 7997
  154.9543  140.0393  157.2178 H   0  0  0  0  0  0  0  0  0  0  0  0  # atno 8009 bound_to 7997
  154.8006  140.2827  155.5928 H   0  0  0  0  0  0  0  0  0  0  0  0  # atno 8010 bound_to 7997
  139.6890  143.9453  152.2375 H   0  0  0  0  0  0  0  0  0  0  0  0  # atno 10167 bound_to 10162
  156.0339  130.5556  150.7517 H   0  0  0  0  0  0  0  0  0  0  0  0  # atno 10718 bound_to 10713
  153.2166  135.4370  155.0441 H   0  0  0  0  0  0  0  0  0  0  0  0  # atno 10763 bound_to 10752
  154.8228  135.3346  154.6989 H   0  0  0  0  0  0  0  0  0  0  0  0  # atno 10764 bound_to 10752
  153.7423  135.7004  153.5020 H   0  0  0  0  0  0  0  0  0  0  0  0  # atno 10765 bound_to 10752
  140.5464  134.5472  157.5112 H   0  0  0  0  0  0  0  0  0  0  0  0  # atno 11005 bound_to 11000
  145.0698  139.3040  143.5838 LP  0  0  0  0  0  0  0  0  0  0  0  0  # atno 17320 bound_to 7965
  146.3518  140.0169  142.8662 LP  0  0  0  0  0  0  0  0  0  0  0  0  # atno 17321 bound_to 7965
  139.9263  144.6768  150.8408 LP  0  0  0  0  0  0  0  0  0  0  0  0  # atno 17342 bound_to 10162
  140.7677  143.3339  151.2350 LP  0  0  0  0  0  0  0  0  0  0  0  0  # atno 17343 bound_to 10162
  157.5060  131.0922  151.0257 LP  0  0  0  0  0  0  0  0  0  0  0  0  # atno 17370 bound_to 10713
  157.0625  130.5831  149.5388 LP  0  0  0  0  0  0  0  0  0  0  0  0  # atno 17371 bound_to 10713
  139.9478  134.7671  156.0521 LP  0  0  0  0  0  0  0  0  0  0  0  0  # atno 17394 bound_to 11000
  141.1197  133.6616  156.3184 LP  0  0  0  0  0  0  0  0  0  0  0  0  # atno 17395 bound_to 11000

$$$$
