AV-unprocessed.smi:3303|AV-procd|sdf|12660|dock9
  -GOLD-   2272018593D 1   1.00000     0.00000
 Structure written by MMmdl.
 45 46  0  0  0  0  0  0  0  0  3 V2000
  151.6135  138.0051  154.7666 C   0  0  0  0  0  0  0  0  0  0  0  0
  150.6986  139.1839  154.3940 C   0  0  1  0  0  0  0  0  0  0  0  0
  149.2543  138.7306  154.1000 C   0  0  0  0  0  0  0  0  0  0  0  0
  148.4198  139.8691  153.6387 N   0  3  1  0  0  0  0  0  0  0  0  0
  147.0962  139.4432  153.1291 C   0  0  0  0  0  0  0  0  0  0  0  0
  148.3677  141.0004  154.6091 C   0  0  1  0  0  0  0  0  0  0  0  0
  147.4871  140.7161  155.8458 C   0  0  0  0  0  0  0  0  0  0  0  0
  149.7967  141.4686  154.9710 C   0  0  0  0  0  0  0  0  0  0  0  0
  150.7368  140.3295  155.4310 C   0  0  1  0  0  0  0  0  0  0  0  0
  150.4250  139.8427  156.7975 N   0  3  0  0  0  0  0  0  0  0  0  0
  150.4122  140.8751  157.8544 C   0  0  0  0  0  0  0  0  0  0  0  0
  151.7945  141.5246  158.0009 C   0  0  0  0  0  0  0  0  0  0  0  0
  151.7241  142.8587  158.7186 C   0  0  0  0  0  0  0  0  0  0  0  0
  152.4016  143.0591  159.9402 C   0  0  0  0  0  0  0  0  0  0  0  0
  152.3072  144.3207  160.5594 C   0  0  0  0  0  0  0  0  0  0  0  0
  151.5446  145.3270  159.9357 C   0  0  0  0  0  0  0  0  0  0  0  0
  150.9070  145.0264  158.7155 C   0  0  0  0  0  0  0  0  0  0  0  0
  150.9918  143.8203  158.1128 N   0  0  0  0  0  0  0  0  0  0  0  0
  151.2652  137.4868  155.6604 H   0  0  0  0  0  0  0  0  0  0  0  0
  152.6340  138.3423  154.9514 H   0  0  0  0  0  0  0  0  0  0  0  0
  151.6532  137.2728  153.9595 H   0  0  0  0  0  0  0  0  0  0  0  0
  151.0951  139.5912  153.4621 H   0  0  0  0  0  0  0  0  0  0  0  0
  149.2707  137.9689  153.3189 H   0  0  0  0  0  0  0  0  0  0  0  0
  148.8058  138.2628  154.9770 H   0  0  0  0  0  0  0  0  0  0  0  0
  146.5148  138.9342  153.8985 H   0  0  0  0  0  0  0  0  0  0  0  0
  147.2166  138.7555  152.2917 H   0  0  0  0  0  0  0  0  0  0  0  0
  146.5239  140.3003  152.7726 H   0  0  0  0  0  0  0  0  0  0  0  0
  147.8968  141.8342  154.0860 H   0  0  0  0  0  0  0  0  0  0  0  0
  147.5377  141.5431  156.5547 H   0  0  0  0  0  0  0  0  0  0  0  0
  147.7826  139.8122  156.3761 H   0  0  0  0  0  0  0  0  0  0  0  0
  146.4382  140.6033  155.5712 H   0  0  0  0  0  0  0  0  0  0  0  0
  150.2347  141.9179  154.0787 H   0  0  0  0  0  0  0  0  0  0  0  0
  149.7595  142.2773  155.7003 H   0  0  0  0  0  0  0  0  0  0  0  0
  151.7568  140.7164  155.4581 H   0  0  0  0  0  0  0  0  0  0  0  0
  149.5304  139.3743  156.7852 H   0  0  0  0  0  0  0  0  0  0  0  0
  149.6699  141.6357  157.6089 H   0  0  0  0  0  0  0  0  0  0  0  0
  150.1176  140.4295  158.8042 H   0  0  0  0  0  0  0  0  0  0  0  0
  152.4628  140.8628  158.5544 H   0  0  0  0  0  0  0  0  0  0  0  0
  152.2478  141.6677  157.0190 H   0  0  0  0  0  0  0  0  0  0  0  0
  152.9803  142.2682  160.3950 H   0  0  0  0  0  0  0  0  0  0  0  0
  152.8113  144.5128  161.4953 H   0  0  0  0  0  0  0  0  0  0  0  0
  151.4498  146.3061  160.3820 H   0  0  0  0  0  0  0  0  0  0  0  0
  150.3142  145.7739  158.2095 H   0  0  0  0  0  0  0  0  0  0  0  0
  151.1344  139.1692  157.0507 H   0  0  0  0  0  0  0  0  0  0  0  0
  148.9015  140.2395  152.8314 H   0  0  0  0  0  0  0  0  0  0  0  0
  1  2  1  0  0  0  0
  1 19  1  0  0  0  0
  1 20  1  0  0  0  0
  1 21  1  0  0  0  0
  2  9  1  0  0  0  0
  2  3  1  0  0  0  0
  2 22  1  0  0  0  0
  3  4  1  0  0  0  0
  3 23  1  0  0  0  0
  3 24  1  0  0  0  0
  4  5  1  0  0  0  0
  4  6  1  0  0  0  0
  4 45  1  0  0  0  0
  5 25  1  0  0  0  0
  5 26  1  0  0  0  0
  5 27  1  0  0  0  0
  6  7  1  0  0  0  0
  6  8  1  0  0  0  0
  6 28  1  0  0  0  0
  7 29  1  0  0  0  0
  7 30  1  0  0  0  0
  7 31  1  0  0  0  0
  8  9  1  0  0  0  0
  8 32  1  0  0  0  0
  8 33  1  0  0  0  0
  9 10  1  0  0  0  0
  9 34  1  0  0  0  0
 10 11  1  0  0  0  0
 10 35  1  0  0  0  0
 10 44  1  0  0  0  0
 11 12  1  0  0  0  0
 11 36  1  0  0  0  0
 11 37  1  0  0  0  0
 12 13  1  0  0  0  0
 12 38  1  0  0  0  0
 12 39  1  0  0  0  0
 13 18  1  0  0  0  0
 13 14  2  0  0  0  0
 14 15  1  0  0  0  0
 14 40  1  0  0  0  0
 15 16  2  0  0  0  0
 15 41  1  0  0  0  0
 16 17  1  0  0  0  0
 16 42  1  0  0  0  0
 17 18  2  0  0  0  0
 17 43  1  0  0  0  0
M  CHG  1   4   1
M  CHG  1  10   1
M  END
> <s_m_source_file>
AV-unprocessed.smi

> <i_m_source_file_index>
3303

> <i_lp_mmshare_version>
43012

> <i_f3d_flags>
0

> <s_epik_input>
W0NIM11bQ0BASF0xW0NIMl1OKFtDSDNdKVtDQEBIXShbQ0gzXSlbQ0gyXVtDQEhdMVtOSF1bQ0gyXVtDSDJdYzJbY0hdW2NIXVtjSF1bY0hdbjI=

> <s_epik_cmdline>
J2VwaWtfcHl0aG9uJywgJy1waCcsICc3LjAnLCAnLXRuJywgJzgnLCAnLW1hJywgJzIwMCcsICctbWV0YWxfYmluZGluZycsICctaW1hZScsICc8aW5maWxlLm1hZT4nLCAnLW9tYWUnLCAnPG91dGZpbGUubWFlPic=

> <r_epik_Ionization_Penalty>
0.0769462

> <r_epik_Ionization_Penalty_Charging>
0.0759813

> <r_epik_Ionization_Penalty_Neutral>
0.000964829

> <r_epik_State_Penalty>
0.0654373

> <r_epik_Charging_Adjusted_Penalty>
0.141419

> <i_epik_Tot_Q>
2

> <i_epik_Tot_abs_Q>
2

> <r_epik_Metal_State_Penalty>
0.0656439

> <b_epik_Metal_Only>
0

> <s_lp_Force_Field>
OPLS_2005

> <r_lp_Energy>
33.2065

> <b_lp_Chiralities_Consistent>
1

> <s_lp_Variant>
AV-unprocessed.smi:3303-4

> <Gold.Version>
5.8.1

> <Gold.Id.Protein>
6NUR|6NUR_protein|mol2

> <Gold.PLP.Fitness>
46.0276

> <Gold.PLP.PLP>
-40.2020

> <Gold.PLP.part.hbond>
-1.0000

> <Gold.PLP.part.metal>
0.0000

> <Gold.PLP.part.buried>
-2.9705

> <Gold.PLP.part.nonpolar>
-35.5367

> <Gold.PLP.part.repulsive>
0.2623

> <Gold.PLP.ligand.clash>
0.0000

> <Gold.PLP.ligand.torsion>
0.0936

> <Gold.PLP.Chemscore.Hbond>
1.0000

> <Gold.PLP.Chemscore.CHOScore>
1.0000

> <Gold.PLP.Chemscore.Metal>
0.0000

> <Gold.Chemscore.Hbonds>
donor molecule, donor type, donor heavy atom, donor atom, acceptor molecule, acceptor atom, score
      L1  H     4    45       P1  7957  1.00
      L1  C    17    43       P1  8029  0.90

> <Gold.PLP.Chemscore.Internal.Correction>
0.0129

> <Gold.Rescore>
     Score         DG    S(hbond)    S(metal)    S(lipo)     H(rot)  DE(clash)    DE(int)     intcor
     19.19     -19.37       0.98        0.00     120.94       1.37       0.13       0.05       ----

> <Gold.Chemscore.Fitness>
19.1877

> <Gold.Chemscore.DG>
-19.3677

> <Gold.Chemscore.ZeroCoef>
-5.4800

> <Gold.Chemscore.Hbond>
0.9750

> <Gold.Chemscore.Metal>
0.0000

> <Gold.Chemscore.Lipo>
120.9367

> <Gold.Chemscore.Internal_Hbond>
0.0000

> <Gold.Chemscore.DEClash>
0.1314

> <Gold.Chemscore.DEInternal>
0.0486

> <Gold.Chemscore.Rot>
1.3744

> <Gold.Chemscore.Internal.Correction>
   9.000000E+99

> <Gold.Chemscore.Hbonds>
donor molecule, donor type, donor heavy atom, donor atom, acceptor molecule, acceptor atom, score
      L1  H     4    45       P1  7957  0.95

> <Gold.Chemscore.Hbond.Weighted>
-3.2565

> <Gold.Chemscore.Metal.Weighted>
-0.0000

> <Gold.Chemscore.Lipo.Weighted>
-14.1496

> <Gold.Chemscore.Internal_Hbond.Weighted>
0.0000

> <Gold.Chemscore.DEClash.Weighted>
0.1314

> <Gold.Chemscore.DEInternal.Weighted>
0.0486

> <Gold.Chemscore.Rot.Weighted>
3.5185

> <Gold.Chemscore.Internal.Correction.Weighted>
   9.000000E+99

> <Gold.Protein.RotatedTorsions>
[ 6907 6896 6895 6894 ] final  -22.45 input  -60.11 | X-H torsion
[ 7974 7965 7964 7962 ] final -122.28 input  175.53 | X-H torsion
[ 8008 7997 7996 7995 ] final  -73.32 input   59.86 | X-H torsion
[ 10167 10162 10161 10158 ] final -170.56 input  -65.29 | X-H torsion
[ 10718 10713 10712 10709 ] final -128.69 input   66.30 | X-H torsion
[ 10763 10752 10751 10750 ] final -170.06 input  -60.55 | X-H torsion
[ 11005 11000 10999 10996 ] final -117.44 input  -57.11 | X-H torsion

> <Gold.Protein.ActiveResidues>
 VAL166  LYS551  ARG553  GLY616  TRP617  ASP618  TYR619  PRO620  LYS621  CYS622 
 ASP623  PHE694  ASN695  SER759  ASP760  ASP761  ALA762  ILE779  LEU786  VAL792 
 PHE793  MET794  SER795  GLU796  ALA797  LYS798  CYS799  TRP800  GLU811  SER814 

> <Gold.Protein.RotatedAtoms>
  151.2184  135.0509  159.8939 H   0  0  0  0  0  0  0  0  0  0  0  0  # atno 6907 bound_to 6896
  152.5418  134.0667  159.8186 H   0  0  0  0  0  0  0  0  0  0  0  0  # atno 6908 bound_to 6896
  151.0830  133.5327  159.2651 H   0  0  0  0  0  0  0  0  0  0  0  0  # atno 6909 bound_to 6896
  145.0312  140.8069  143.4322 H   0  0  0  0  0  0  0  0  0  0  0  0  # atno 7974 bound_to 7965
  154.5238  140.0781  156.8220 H   0  0  0  0  0  0  0  0  0  0  0  0  # atno 8008 bound_to 7997
  155.3520  140.3413  155.4221 H   0  0  0  0  0  0  0  0  0  0  0  0  # atno 8009 bound_to 7997
  156.1709  140.1619  156.8435 H   0  0  0  0  0  0  0  0  0  0  0  0  # atno 8010 bound_to 7997
  139.5854  144.1329  152.1569 H   0  0  0  0  0  0  0  0  0  0  0  0  # atno 10167 bound_to 10162
  156.1975  130.6835  151.0499 H   0  0  0  0  0  0  0  0  0  0  0  0  # atno 10718 bound_to 10713
  154.6456  135.2904  155.0050 H   0  0  0  0  0  0  0  0  0  0  0  0  # atno 10763 bound_to 10752
  154.1161  135.6555  153.4898 H   0  0  0  0  0  0  0  0  0  0  0  0  # atno 10764 bound_to 10752
  153.0349  135.5276  154.7342 H   0  0  0  0  0  0  0  0  0  0  0  0  # atno 10765 bound_to 10752
  141.0355  133.9917  157.3078 H   0  0  0  0  0  0  0  0  0  0  0  0  # atno 11005 bound_to 11000
  145.1768  139.2373  143.5313 LP  0  0  0  0  0  0  0  0  0  0  0  0  # atno 17320 bound_to 7965
  146.3498  140.1533  142.8592 LP  0  0  0  0  0  0  0  0  0  0  0  0  # atno 17321 bound_to 7965
  140.0892  144.5635  150.7067 LP  0  0  0  0  0  0  0  0  0  0  0  0  # atno 17342 bound_to 10162
  140.7127  143.2518  151.4532 LP  0  0  0  0  0  0  0  0  0  0  0  0  # atno 17343 bound_to 10162
  157.6966  131.0791  150.6950 LP  0  0  0  0  0  0  0  0  0  0  0  0  # atno 17370 bound_to 10713
  156.7007  130.4622  149.5574 LP  0  0  0  0  0  0  0  0  0  0  0  0  # atno 17371 bound_to 10713
  139.9237  135.0201  156.8158 LP  0  0  0  0  0  0  0  0  0  0  0  0  # atno 17394 bound_to 11000
  140.6331  133.9888  155.7671 LP  0  0  0  0  0  0  0  0  0  0  0  0  # atno 17395 bound_to 11000

$$$$
