#       Name:                AV-unprocessed.smi:199
#       Creating user name   scv26
#       Creation time:       Thu Mar 26 19:43:23 2020


#       File generated by GOLD software.
#

@<TRIPOS>MOLECULE
AV-unprocessed.smi:199
    61    65     1
SMALL
NO_CHARGES


@<TRIPOS>ATOM
      1 ****        -2.6546   2.5090   0.3266 C.3            1 S1                 0.0000
      2 ****        -3.6882   1.3720   0.3786 C.3            1 S1                 0.0000
      3 ****        -4.9085   1.8309   0.9419 O.3            1 S1                 0.0000
      4 ****        -5.9021   0.8794   0.6065 C.3            1 S1                 0.0000
      5 ****        -5.6126   0.5931  -0.8620 C.3            1 S1                 0.0000
      6 ****        -4.0894   0.7171  -0.9704 C.3            1 S1                 0.0000
      7 ****        -3.7926   1.5597  -2.0720 O.3            1 S1                 0.0000
      8 ****        -3.4099  -0.6531  -1.2134 C.3            1 S1                 0.0000
      9 ****        -1.9566  -0.5969  -1.1635 N.pl3          1 S1                 0.0000
     10 ****        -1.1120  -0.1540  -2.1556 C.2            1 S1                 0.0000
     11 ****         0.1587  -0.1978  -1.8639 N.2            1 S1                 0.0000
     12 ****         0.1986  -0.7129  -0.5732 C.ar           1 S1                 0.0000
     13 ****         1.2429  -1.0209   0.3464 C.ar           1 S1                 0.0000
     14 ****         2.5632  -0.8232   0.0816 N.3            1 S1                 0.0000
     15 ****         3.0091   0.4285  -0.5077 C.3            1 S1                 0.0000
     16 ****         2.9314   1.4386   0.6542 C.3            1 S1                 0.0000
     17 ****         3.3203   0.5537   1.8486 C.3            1 S1                 0.0000
     18 ****         3.5498  -0.8066   1.1541 C.3            1 S1                 0.0000
     19 ****         4.8887  -0.7476   0.3857 C.3            1 S1                 0.0000
     20 ****         5.4207  -2.1309  -0.0315 C.3            1 S1                 0.0000
     21 ****         5.8477  -2.8566   1.1018 O.3            1 S1                 0.0000
     22 ****         4.4846   0.1272  -0.8192 C.3            1 S1                 0.0000
     23 ****         0.8803  -1.5683   1.5374 N.ar           1 S1                 0.0000
     24 ****        -0.4072  -1.7715   1.8278 C.ar           1 S1                 0.0000
     25 ****        -1.4804  -1.5145   1.0793 N.ar           1 S1                 0.0000
     26 ****        -1.1264  -0.9848  -0.1261 C.ar           1 S1                 0.0000
     27 ****        -1.7170   2.1694  -0.1140 H              1 S1                 0.0000
     28 ****        -2.4344   2.8742   1.3297 H              1 S1                 0.0000
     29 ****        -3.0173   3.3550  -0.2574 H              1 S1                 0.0000
     30 ****        -3.3188   0.6022   1.0570 H              1 S1                 0.0000
     31 ****        -5.7746  -0.0178   1.2144 H              1 S1                 0.0000
     32 ****        -6.9068   1.2691   0.7706 H              1 S1                 0.0000
     33 ****        -5.9939  -0.3801  -1.1735 H              1 S1                 0.0000
     34 ****        -6.1130   1.3479  -1.4712 H              1 S1                 0.0000
     35 ****        -4.1460   1.1658  -2.8547 H              1 S1                 0.0000
     36 ****        -3.7492  -1.3730  -0.4674 H              1 S1                 0.0000
     37 ****        -3.7039  -1.0598  -2.1820 H              1 S1                 0.0000
     38 ****        -1.4700   0.2116  -3.1069 H              1 S1                 0.0000
     39 ****         2.4659   0.7548  -1.3929 H              1 S1                 0.0000
     40 ****         3.6017   2.2881   0.5183 H              1 S1                 0.0000
     41 ****         1.9169   1.8212   0.7735 H              1 S1                 0.0000
     42 ****         4.2048   0.9142   2.3749 H              1 S1                 0.0000
     43 ****         2.5028   0.4993   2.5683 H              1 S1                 0.0000
     44 ****         3.4927  -1.6521   1.8408 H              1 S1                 0.0000
     45 ****         5.6540  -0.2436   0.9784 H              1 S1                 0.0000
     46 ****         4.6580  -2.7032  -0.5607 H              1 S1                 0.0000
     47 ****         6.2697  -2.0211  -0.7068 H              1 S1                 0.0000
     48 ****         6.1682  -3.6985   0.8160 H              1 S1                 0.0000
     49 ****         4.5696  -0.4236  -1.7571 H              1 S1                 0.0000
     50 ****         5.0887   1.0312  -0.9071 H              1 S1                 0.0000
     51 ****        -0.6049  -2.2017   2.7985 H              1 S1                 0.0000
     52 ****        -5.1471   2.7250   0.5628 LP             1 S1                 0.0000
     53 ****        -4.8227   1.9024   1.9356 LP             1 S1                 0.0000
     54 ****        -2.8017   1.6599  -2.1627 LP             1 S1                 0.0000
     55 ****        -4.2069   2.4587  -1.9302 LP             1 S1                 0.0000
     56 ****         0.9296   0.0770  -2.4386 LP             1 S1                 0.0000
     57 ****         2.5480  -1.6339  -0.5037 LP             1 S1                 0.0000
     58 ****         5.0800  -2.9835   1.7299 LP             1 S1                 0.0000
     59 ****         6.5792  -2.3572   1.5661 LP             1 S1                 0.0000
     60 ****         1.5840  -1.8208   2.2015 LP             1 S1                 0.0000
     61 ****        -2.4229  -1.6878   1.3651 LP             1 S1                 0.0000
@<TRIPOS>BOND
    1    1    2 1     
    2    1   27 1     
    3    1   28 1     
    4    1   29 1     
    5    2    6 1     
    6    2    3 1     
    7    2   30 1     
    8    3    4 1     
    9    4    5 1     
   10    4   31 1     
   11    4   32 1     
   12    5    6 1     
   13    5   33 1     
   14    5   34 1     
   15    6    7 1     
   16    6    8 1     
   17    7   35 1     
   18    8    9 1     
   19    8   36 1     
   20    8   37 1     
   21    9   26 1     
   22    9   10 1     
   23   10   11 2     
   24   10   38 1     
   25   11   12 1     
   26   12   26 ar    
   27   12   13 ar    
   28   13   14 1     
   29   13   23 ar    
   30   14   18 1     
   31   14   15 1     
   32   15   22 1     
   33   15   16 1     
   34   15   39 1     
   35   16   17 1     
   36   16   40 1     
   37   16   41 1     
   38   17   18 1     
   39   17   42 1     
   40   17   43 1     
   41   18   19 1     
   42   18   44 1     
   43   19   20 1     
   44   19   22 1     
   45   19   45 1     
   46   20   21 1     
   47   20   46 1     
   48   20   47 1     
   49   21   48 1     
   50   22   49 1     
   51   22   50 1     
   52   23   24 ar    
   53   24   25 ar    
   54   24   51 1     
   55   25   26 ar    
   56    3   52 1     
   57    3   53 1     
   58    7   54 1     
   59    7   55 1     
   60   11   56 1     
   61   14   57 1     
   62   21   58 1     
   63   21   59 1     
   64   23   60 1     
   65   25   61 1     
@<TRIPOS>SUBSTRUCTURE
      1 S1             1
@<TRIPOS>SET
LONE_PAIRS      STATIC     ATOMS    <user>   **** ""
10 52 53 54 55 56 57 58 59 60 61
DONOR_HYDROGENS      STATIC     ATOMS    <user>   **** ""
2 35 48
ATOM$BLUE        STATIC     ATOMS    COLORGROUP SYSTEM
10 52 53 54 55 56 57 58 59 60 61
ATOM$RED        STATIC     ATOMS    COLORGROUP SYSTEM
2 35 48
