#       Name:                AV-unprocessed.smi:3166
#       Creating user name   scv26
#       Creation time:       Fri Mar 27 17:52:58 2020


#       File generated by GOLD software.
#

@<TRIPOS>MOLECULE
AV-unprocessed.smi:3166
    44    45     1
SMALL
NO_CHARGES


@<TRIPOS>ATOM
      1 ****        -2.2445  -0.3763   1.6492 C.3            1 S1                 0.0000
      2 ****        -1.7024  -0.4607   0.2070 C.3            1 S1                 0.0000
      3 ****        -2.2744  -1.6658  -0.5684 C.3            1 S1                 0.0000
      4 ****        -3.7253  -1.6556  -0.6430 N.pl3          1 S1                 0.0000
      5 ****        -4.5402  -0.7870  -1.3387 C.2            1 S1                 0.0000
      6 ****        -5.8309  -1.1709  -1.1131 C.2            1 S1                 0.0000
      7 ****        -5.7022  -2.3043  -0.2623 C.2            1 S1                 0.0000
      8 ****        -4.4411  -2.5931   0.0156 N.2            1 S1                 0.0000
      9 ****        -0.2379  -0.5246   0.1773 N.3            1 S1                 0.0000
     10 ****         0.4598   0.6535   0.7015 C.3            1 S1                 0.0000
     11 ****         1.9922   0.5632   0.5204 C.3            1 S1                 0.0000
     12 ****         2.4461  -0.4770   1.3677 O.3            1 S1                 0.0000
     13 ****         2.4052   0.2691  -0.9449 C.3            1 S1                 0.0000
     14 ****         3.9283   0.3212  -1.1628 C.3            1 S1                 0.0000
     15 ****         4.5198   1.6557  -0.6888 C.3            1 S1                 0.0000
     16 ****         4.1684   1.9163   0.7821 C.3            1 S1                 0.0000
     17 ****         2.6461   1.8791   1.0061 C.3            1 S1                 0.0000
     18 ****        -3.3341  -0.3531   1.6665 H              1 S1                 0.0000
     19 ****        -1.9124   0.5277   2.1581 H              1 S1                 0.0000
     20 ****        -1.9239  -1.2333   2.2421 H              1 S1                 0.0000
     21 ****        -2.0185   0.4414  -0.3186 H              1 S1                 0.0000
     22 ****        -1.8894  -1.6740  -1.5891 H              1 S1                 0.0000
     23 ****        -1.9486  -2.5999  -0.1067 H              1 S1                 0.0000
     24 ****        -4.1379   0.0251  -1.9262 H              1 S1                 0.0000
     25 ****        -6.7299  -0.7133  -1.4986 H              1 S1                 0.0000
     26 ****        -6.4823  -2.9219   0.1581 H              1 S1                 0.0000
     27 ****         0.0741  -0.7068  -0.7712 H              1 S1                 0.0000
     28 ****         0.0954   1.5427   0.1855 H              1 S1                 0.0000
     29 ****         0.2327   0.7968   1.7578 H              1 S1                 0.0000
     30 ****         1.9917  -1.2714   1.1316 H              1 S1                 0.0000
     31 ****         2.0365  -0.7071  -1.2617 H              1 S1                 0.0000
     32 ****         1.9321   0.9993  -1.6029 H              1 S1                 0.0000
     33 ****         4.4053  -0.5003  -0.6269 H              1 S1                 0.0000
     34 ****         4.1555   0.1707  -2.2184 H              1 S1                 0.0000
     35 ****         5.6026   1.6499  -0.8171 H              1 S1                 0.0000
     36 ****         4.1378   2.4686  -1.3077 H              1 S1                 0.0000
     37 ****         4.6544   1.1708   1.4128 H              1 S1                 0.0000
     38 ****         4.5648   2.8838   1.0914 H              1 S1                 0.0000
     39 ****         2.1988   2.7198   0.4739 H              1 S1                 0.0000
     40 ****         2.4275   2.0429   2.0622 H              1 S1                 0.0000
     41 ****        -4.0953  -3.3385   0.5856 LP             1 S1                 0.0000
     42 ****         0.0028  -1.2701   0.7989 LP             1 S1                 0.0000
     43 ****         2.2508  -0.2463   2.3209 LP             1 S1                 0.0000
     44 ****         3.4312  -0.6032   1.2504 LP             1 S1                 0.0000
@<TRIPOS>BOND
    1    1    2 1     
    2    1   18 1     
    3    1   19 1     
    4    1   20 1     
    5    2    3 1     
    6    2    9 1     
    7    2   21 1     
    8    3    4 1     
    9    3   22 1     
   10    3   23 1     
   11    4    8 1     
   12    4    5 1     
   13    5    6 2     
   14    5   24 1     
   15    6    7 1     
   16    6   25 1     
   17    7    8 2     
   18    7   26 1     
   19    9   10 1     
   20    9   27 1     
   21   10   11 1     
   22   10   28 1     
   23   10   29 1     
   24   11   17 1     
   25   11   12 1     
   26   11   13 1     
   27   12   30 1     
   28   13   14 1     
   29   13   31 1     
   30   13   32 1     
   31   14   15 1     
   32   14   33 1     
   33   14   34 1     
   34   15   16 1     
   35   15   35 1     
   36   15   36 1     
   37   16   17 1     
   38   16   37 1     
   39   16   38 1     
   40   17   39 1     
   41   17   40 1     
   42    8   41 1     
   43    9   42 1     
   44   12   43 1     
   45   12   44 1     
@<TRIPOS>SUBSTRUCTURE
      1 S1             1
@<TRIPOS>SET
LONE_PAIRS      STATIC     ATOMS    <user>   **** ""
4 41 42 43 44
DONOR_HYDROGENS      STATIC     ATOMS    <user>   **** ""
2 27 30
ATOM$BLUE        STATIC     ATOMS    COLORGROUP SYSTEM
4 41 42 43 44
ATOM$RED        STATIC     ATOMS    COLORGROUP SYSTEM
2 27 30
