AV-unprocessed.smi:3206|AV-procd|sdf|12256|dock6
  -GOLD-   2272018 93D 1   1.00000     0.00000
 Structure written by MMmdl.
 42 43  0  0  0  0  0  0  0  0  2 V2000
  152.9288  143.4302  162.8948 C   0  0  0  0  0  0  0  0  0  0  0  0
  152.3518  143.2595  161.4821 C   0  0  2  0  0  0  0  0  0  0  0  0
  153.3225  142.4943  160.5636 C   0  0  0  0  0  0  0  0  0  0  0  0
  152.7490  142.3296  159.1466 C   0  0  0  0  0  0  0  0  0  0  0  0
  152.3889  143.6883  158.5142 C   0  0  1  0  0  0  0  0  0  0  0  0
  151.8173  143.5007  157.0968 C   0  0  0  0  0  0  0  0  0  0  0  0
  150.4820  142.8722  157.1283 N   0  3  0  0  0  0  0  0  0  0  0  0
  150.3745  141.6408  156.3198 C   0  0  0  0  0  0  0  0  0  0  0  0
  151.5689  140.7026  156.5518 C   0  0  0  0  0  0  0  0  0  0  0  0
  151.5358  139.4779  155.6885 C   0  0  0  0  0  0  0  0  0  0  0  0
  150.8717  139.3911  154.5404 N   0  0  0  0  0  0  0  0  0  0  0  0
  151.1875  138.1157  154.1707 C   0  0  0  0  0  0  0  0  0  0  0  0
  151.9917  137.4550  154.9995 N   0  0  0  0  0  0  0  0  0  0  0  0
  152.2109  138.3584  155.9822 N   0  0  0  0  0  0  0  0  0  0  0  0
  153.0634  138.0295  157.1087 C   0  0  0  0  0  0  0  0  0  0  0  0
  151.4138  144.4507  159.4369 C   0  0  0  0  0  0  0  0  0  0  0  0
  151.9841  144.6171  160.8550 C   0  0  0  0  0  0  0  0  0  0  0  0
  153.8501  144.0134  162.8795 H   0  0  0  0  0  0  0  0  0  0  0  0
  153.1541  142.4638  163.3470 H   0  0  0  0  0  0  0  0  0  0  0  0
  152.2220  143.9417  163.5484 H   0  0  0  0  0  0  0  0  0  0  0  0
  151.4375  142.6705  161.5705 H   0  0  0  0  0  0  0  0  0  0  0  0
  154.2751  143.0234  160.5105 H   0  0  0  0  0  0  0  0  0  0  0  0
  153.5391  141.5123  160.9857 H   0  0  0  0  0  0  0  0  0  0  0  0
  153.4748  141.8073  158.5220 H   0  0  0  0  0  0  0  0  0  0  0  0
  151.8632  141.6940  159.1854 H   0  0  0  0  0  0  0  0  0  0  0  0
  153.3100  144.2683  158.4330 H   0  0  0  0  0  0  0  0  0  0  0  0
  151.7267  144.4694  156.6031 H   0  0  0  0  0  0  0  0  0  0  0  0
  152.4946  142.8964  156.4917 H   0  0  0  0  0  0  0  0  0  0  0  0
  150.2554  142.6479  158.0868 H   0  0  0  0  0  0  0  0  0  0  0  0
  149.4435  141.1253  156.5606 H   0  0  0  0  0  0  0  0  0  0  0  0
  150.3251  141.9152  155.2655 H   0  0  0  0  0  0  0  0  0  0  0  0
  152.4998  141.2415  156.3735 H   0  0  0  0  0  0  0  0  0  0  0  0
  151.5990  140.3912  157.5968 H   0  0  0  0  0  0  0  0  0  0  0  0
  150.8190  137.6642  153.2614 H   0  0  0  0  0  0  0  0  0  0  0  0
  153.8394  138.7875  157.2174 H   0  0  0  0  0  0  0  0  0  0  0  0
  153.5387  137.0589  156.9603 H   0  0  0  0  0  0  0  0  0  0  0  0
  152.4674  137.9944  158.0208 H   0  0  0  0  0  0  0  0  0  0  0  0
  151.1926  145.4355  159.0246 H   0  0  0  0  0  0  0  0  0  0  0  0
  150.4629  143.9187  159.4898 H   0  0  0  0  0  0  0  0  0  0  0  0
  151.2559  145.1321  161.4827 H   0  0  0  0  0  0  0  0  0  0  0  0
  152.8662  145.2582  160.8183 H   0  0  0  0  0  0  0  0  0  0  0  0
  149.8046  143.5398  156.7871 H   0  0  0  0  0  0  0  0  0  0  0  0
  1  2  1  0  0  0  0
  1 18  1  0  0  0  0
  1 19  1  0  0  0  0
  1 20  1  0  0  0  0
  2 17  1  0  0  0  0
  2  3  1  0  0  0  0
  2 21  1  0  0  0  0
  3  4  1  0  0  0  0
  3 22  1  0  0  0  0
  3 23  1  0  0  0  0
  4  5  1  0  0  0  0
  4 24  1  0  0  0  0
  4 25  1  0  0  0  0
  5  6  1  0  0  0  0
  5 16  1  0  0  0  0
  5 26  1  0  0  0  0
  6  7  1  0  0  0  0
  6 27  1  0  0  0  0
  6 28  1  0  0  0  0
  7  8  1  0  0  0  0
  7 29  1  0  0  0  0
  7 42  1  0  0  0  0
  8  9  1  0  0  0  0
  8 30  1  0  0  0  0
  8 31  1  0  0  0  0
  9 10  1  0  0  0  0
  9 32  1  0  0  0  0
  9 33  1  0  0  0  0
 10 14  1  0  0  0  0
 10 11  2  0  0  0  0
 11 12  1  0  0  0  0
 12 13  2  0  0  0  0
 12 34  1  0  0  0  0
 13 14  1  0  0  0  0
 14 15  1  0  0  0  0
 15 35  1  0  0  0  0
 15 36  1  0  0  0  0
 15 37  1  0  0  0  0
 16 17  1  0  0  0  0
 16 38  1  0  0  0  0
 16 39  1  0  0  0  0
 17 40  1  0  0  0  0
 17 41  1  0  0  0  0
M  CHG  1   7   1
M  END
> <s_m_source_file>
AV-unprocessed.smi

> <i_m_source_file_index>
3206

> <i_lp_mmshare_version>
43012

> <i_f3d_flags>
0

> <s_epik_input>
W0NIM11bQ0BASF0xW0NIMl1bQ0gyXVtDQEhdKFtDSDJdW0NIMl0xKVtDSDJdW05IXVtDSDJdW0NIMl1jMm5bY0hdbm4yW0NIM10=

> <s_epik_cmdline>
J2VwaWtfcHl0aG9uJywgJy1waCcsICc3LjAnLCAnLXRuJywgJzgnLCAnLW1hJywgJzIwMCcsICctbWV0YWxfYmluZGluZycsICctaW1hZScsICc8aW5maWxlLm1hZT4nLCAnLW9tYWUnLCAnPG91dGZpbGUubWFlPic=

> <r_lp_tautomer_probability>
1

> <r_epik_Ionization_Penalty>
0.00114491

> <r_epik_Ionization_Penalty_Charging>
0.00114083

> <r_epik_Ionization_Penalty_Neutral>
4.0852e-06

> <r_epik_State_Penalty>
-0

> <r_epik_Charging_Adjusted_Penalty>
0.00114083

> <i_epik_Tot_Q>
1

> <i_epik_Tot_abs_Q>
1

> <r_epik_Metal_State_Penalty>
-0

> <b_epik_Metal_Only>
0

> <s_lp_Force_Field>
OPLS_2005

> <r_lp_Energy>
13.9676

> <b_lp_Chiralities_Consistent>
1

> <s_lp_Variant>
AV-unprocessed.smi:3206-1

> <Gold.Version>
5.8.1

> <Gold.Id.Protein>
6NUR|6NUR_protein|mol2

> <Gold.PLP.Fitness>
57.8045

> <Gold.PLP.PLP>
-44.9265

> <Gold.PLP.part.hbond>
-3.0000

> <Gold.PLP.part.metal>
0.0000

> <Gold.PLP.part.buried>
-6.4716

> <Gold.PLP.part.nonpolar>
-36.1651

> <Gold.PLP.part.repulsive>
0.2204

> <Gold.PLP.ligand.clash>
0.0000

> <Gold.PLP.ligand.torsion>
0.7647

> <Gold.PLP.Chemscore.Hbond>
3.7028

> <Gold.PLP.Chemscore.CHOScore>
1.0947

> <Gold.PLP.Chemscore.Metal>
0.0000

> <Gold.Chemscore.Hbonds>
donor molecule, donor type, donor heavy atom, donor atom, acceptor molecule, acceptor atom, score
      L1  H     7    42       P1  8028  2.00
      P1  H  7989  7998       L1    11  1.00
      P1  H 10752 10765       L1    13  0.65
      L1  C    12    34       P1  7948  0.23
      L1  C    12    34       P1  7949  0.87

> <Gold.PLP.Chemscore.Internal.Correction>
0.0149

> <Gold.Rescore>
     Score         DG    S(hbond)    S(metal)    S(lipo)     H(rot)  DE(clash)    DE(int)     intcor
     19.75     -22.10       2.56        0.00     113.75       2.05       1.62       0.72       ----

> <Gold.Chemscore.Fitness>
19.7524

> <Gold.Chemscore.DG>
-22.1003

> <Gold.Chemscore.ZeroCoef>
-5.4800

> <Gold.Chemscore.Hbond>
2.5650

> <Gold.Chemscore.Metal>
0.0000

> <Gold.Chemscore.Lipo>
113.7469

> <Gold.Chemscore.Internal_Hbond>
0.0000

> <Gold.Chemscore.DEClash>
1.6229

> <Gold.Chemscore.DEInternal>
0.7250

> <Gold.Chemscore.Rot>
2.0528

> <Gold.Chemscore.Internal.Correction>
   9.000000E+99

> <Gold.Chemscore.Hbonds>
donor molecule, donor type, donor heavy atom, donor atom, acceptor molecule, acceptor atom, score
      L1  H     7    42       P1  8028  0.99
      P1  H  7989  7998       L1    11  0.37
      P1  H 10752 10765       L1    13  0.63

> <Gold.Chemscore.Hbond.Weighted>
-8.5670

> <Gold.Chemscore.Metal.Weighted>
-0.0000

> <Gold.Chemscore.Lipo.Weighted>
-13.3084

> <Gold.Chemscore.Internal_Hbond.Weighted>
0.0000

> <Gold.Chemscore.DEClash.Weighted>
1.6229

> <Gold.Chemscore.DEInternal.Weighted>
0.7250

> <Gold.Chemscore.Rot.Weighted>
5.2551

> <Gold.Chemscore.Internal.Correction.Weighted>
   9.000000E+99

> <Gold.Protein.RotatedTorsions>
[ 6907 6896 6895 6894 ] final -175.28 input  -60.11 | X-H torsion
[ 7974 7965 7964 7962 ] final  -74.95 input  175.53 | X-H torsion
[ 8008 7997 7996 7995 ] final  -77.20 input   59.86 | X-H torsion
[ 10167 10162 10161 10158 ] final -122.62 input  -65.29 | X-H torsion
[ 10718 10713 10712 10709 ] final   24.17 input   66.30 | X-H torsion
[ 10763 10752 10751 10750 ] final  167.99 input  -60.55 | X-H torsion
[ 11005 11000 10999 10996 ] final -119.90 input  -57.11 | X-H torsion

> <Gold.Protein.ActiveResidues>
 VAL166  LYS551  ARG553  GLY616  TRP617  ASP618  TYR619  PRO620  LYS621  CYS622 
 ASP623  PHE694  ASN695  SER759  ASP760  ASP761  ALA762  ILE779  LEU786  VAL792 
 PHE793  MET794  SER795  GLU796  ALA797  LYS798  CYS799  TRP800  GLU811  SER814 

> <Gold.Protein.RotatedAtoms>
  151.5860  133.3372  159.3017 H   0  0  0  0  0  0  0  0  0  0  0  0  # atno 6907 bound_to 6896
  150.8287  134.7533  159.6846 H   0  0  0  0  0  0  0  0  0  0  0  0  # atno 6908 bound_to 6896
  152.4373  134.5667  159.9961 H   0  0  0  0  0  0  0  0  0  0  0  0  # atno 6909 bound_to 6896
  145.6324  140.9334  143.1080 H   0  0  0  0  0  0  0  0  0  0  0  0  # atno 7974 bound_to 7965
  154.5574  140.0714  156.8765 H   0  0  0  0  0  0  0  0  0  0  0  0  # atno 8008 bound_to 7997
  155.2876  140.3376  155.4236 H   0  0  0  0  0  0  0  0  0  0  0  0  # atno 8009 bound_to 7997
  156.2014  140.1723  156.7878 H   0  0  0  0  0  0  0  0  0  0  0  0  # atno 8010 bound_to 7997
  140.0123  143.5429  152.2257 H   0  0  0  0  0  0  0  0  0  0  0  0  # atno 10167 bound_to 10162
  157.1761  130.6781  149.6096 H   0  0  0  0  0  0  0  0  0  0  0  0  # atno 10718 bound_to 10713
  154.3619  135.2753  155.2315 H   0  0  0  0  0  0  0  0  0  0  0  0  # atno 10763 bound_to 10752
  154.4499  135.5933  153.6188 H   0  0  0  0  0  0  0  0  0  0  0  0  # atno 10764 bound_to 10752
  152.9843  135.6039  154.3841 H   0  0  0  0  0  0  0  0  0  0  0  0  # atno 10765 bound_to 10752
  141.0182  134.0163  157.3319 H   0  0  0  0  0  0  0  0  0  0  0  0  # atno 11005 bound_to 11000
  144.7189  139.8100  143.7389 LP  0  0  0  0  0  0  0  0  0  0  0  0  # atno 17320 bound_to 7965
  146.1346  139.4389  143.0147 LP  0  0  0  0  0  0  0  0  0  0  0  0  # atno 17321 bound_to 7965
  139.6196  144.7626  151.2769 LP  0  0  0  0  0  0  0  0  0  0  0  0  # atno 17342 bound_to 10162
  140.7376  143.6672  150.8112 LP  0  0  0  0  0  0  0  0  0  0  0  0  # atno 17343 bound_to 10162
  155.9731  130.4662  150.6282 LP  0  0  0  0  0  0  0  0  0  0  0  0  # atno 17370 bound_to 10713
  157.3997  131.0808  151.1320 LP  0  0  0  0  0  0  0  0  0  0  0  0  # atno 17371 bound_to 10713
  139.9130  135.0193  156.7768 LP  0  0  0  0  0  0  0  0  0  0  0  0  # atno 17394 bound_to 11000
  140.6618  133.9638  155.7809 LP  0  0  0  0  0  0  0  0  0  0  0  0  # atno 17395 bound_to 11000

$$$$
