AV-unprocessed.smi:1232|AV-procd|sdf|5170|dock3
  -GOLD-   22720 4243D 1   1.00000     0.00000
 Structure written by MMmdl.
 53 54  0  0  0  0  0  0  0  0  1 V2000
  149.9148  132.9100  152.1303 C   0  0  0  0  0  0  0  0  0  0  0  0
  149.9391  133.4638  153.5507 C   0  0  0  0  0  0  0  0  0  0  0  0
  150.3748  132.7717  154.4691 O   0  0  0  0  0  0  0  0  0  0  0  0
  149.4593  134.7111  153.7038 N   0  0  0  0  0  0  0  0  0  0  0  0
  149.3807  135.5244  154.9258 C   0  0  1  0  0  0  0  0  0  0  0  0
  150.5395  136.5359  154.9950 C   0  0  0  0  0  0  0  0  0  0  0  0
  151.2779  136.5735  155.9796 O   0  0  0  0  0  0  0  0  0  0  0  0
  150.7020  137.3382  153.9307 N   0  0  0  0  0  0  0  0  0  0  0  0
  151.7464  138.3488  153.7976 C   0  0  0  0  0  0  0  0  0  0  0  0
  151.8413  139.3163  154.9693 C   0  0  0  0  0  0  0  0  0  0  0  0
  150.8156  140.2377  155.2675 C   0  0  0  0  0  0  0  0  0  0  0  0
  150.9741  141.1069  156.3634 C   0  0  0  0  0  0  0  0  0  0  0  0
  152.1570  141.0359  157.1375 C   0  0  0  0  0  0  0  0  0  0  0  0
  152.3369  141.8944  158.2446 N   0  0  0  0  0  0  0  0  0  0  0  0
  152.7181  141.2948  159.5221 C   0  0  0  0  0  0  0  0  0  0  0  0
  153.1494  142.3838  160.5180 C   0  0  0  0  0  0  0  0  0  0  0  0
  152.1134  143.3513  160.6487 O   0  0  0  0  0  0  0  0  0  0  0  0
  151.8341  144.0078  159.4154 C   0  0  2  0  0  0  0  0  0  0  0  0
  150.7791  145.0887  159.6745 C   0  0  0  0  0  0  0  0  0  0  0  0
  151.3562  142.9689  158.3819 C   0  0  0  0  0  0  0  0  0  0  0  0
  153.1464  140.1585  156.8376 N   0  0  0  0  0  0  0  0  0  0  0  0
  152.9891  139.3268  155.7864 C   0  0  0  0  0  0  0  0  0  0  0  0
  147.9627  136.1062  155.2223 C   0  0  0  0  0  0  0  0  0  0  0  0
  147.5164  137.1531  154.1824 C   0  0  0  0  0  0  0  0  0  0  0  0
  147.8707  136.7231  156.6316 C   0  0  0  0  0  0  0  0  0  0  0  0
  148.9502  133.0993  151.6583 H   0  0  0  0  0  0  0  0  0  0  0  0
  150.0867  131.8332  152.1319 H   0  0  0  0  0  0  0  0  0  0  0  0
  150.6933  133.3804  151.5290 H   0  0  0  0  0  0  0  0  0  0  0  0
  149.1181  135.1617  152.8675 H   0  0  0  0  0  0  0  0  0  0  0  0
  149.5743  134.8010  155.7198 H   0  0  0  0  0  0  0  0  0  0  0  0
  150.0605  137.2381  153.1573 H   0  0  0  0  0  0  0  0  0  0  0  0
  152.7098  137.8599  153.6422 H   0  0  0  0  0  0  0  0  0  0  0  0
  151.5459  138.9263  152.8950 H   0  0  0  0  0  0  0  0  0  0  0  0
  149.9195  140.2875  154.6670 H   0  0  0  0  0  0  0  0  0  0  0  0
  150.1972  141.8228  156.5857 H   0  0  0  0  0  0  0  0  0  0  0  0
  151.8727  140.7349  159.9248 H   0  0  0  0  0  0  0  0  0  0  0  0
  153.5393  140.5909  159.3805 H   0  0  0  0  0  0  0  0  0  0  0  0
  153.3474  141.9415  161.4943 H   0  0  0  0  0  0  0  0  0  0  0  0
  154.0735  142.8648  160.1931 H   0  0  0  0  0  0  0  0  0  0  0  0
  152.7435  144.4917  159.0544 H   0  0  0  0  0  0  0  0  0  0  0  0
  150.5383  145.6295  158.7590 H   0  0  0  0  0  0  0  0  0  0  0  0
  151.1367  145.8147  160.4049 H   0  0  0  0  0  0  0  0  0  0  0  0
  149.8562  144.6548  160.0600 H   0  0  0  0  0  0  0  0  0  0  0  0
  151.1755  143.4724  157.4334 H   0  0  0  0  0  0  0  0  0  0  0  0
  150.4053  142.5360  158.6958 H   0  0  0  0  0  0  0  0  0  0  0  0
  153.8067  138.6478  155.5941 H   0  0  0  0  0  0  0  0  0  0  0  0
  147.2317  135.2999  155.1694 H   0  0  0  0  0  0  0  0  0  0  0  0
  148.2223  137.9822  154.1265 H   0  0  0  0  0  0  0  0  0  0  0  0
  146.5405  137.5668  154.4375 H   0  0  0  0  0  0  0  0  0  0  0  0
  147.4240  136.7229  153.1850 H   0  0  0  0  0  0  0  0  0  0  0  0
  148.5823  137.5403  156.7522 H   0  0  0  0  0  0  0  0  0  0  0  0
  148.0702  135.9908  157.4133 H   0  0  0  0  0  0  0  0  0  0  0  0
  146.8742  137.1230  156.8200 H   0  0  0  0  0  0  0  0  0  0  0  0
  1  2  1  0  0  0  0
  1 26  1  0  0  0  0
  1 27  1  0  0  0  0
  1 28  1  0  0  0  0
  2  3  2  0  0  0  0
  2  4  1  0  0  0  0
  4  5  1  0  0  0  0
  4 29  1  0  0  0  0
  5  6  1  0  0  0  0
  5 23  1  0  0  0  0
  5 30  1  0  0  0  0
  6  7  2  0  0  0  0
  6  8  1  0  0  0  0
  8  9  1  0  0  0  0
  8 31  1  0  0  0  0
  9 10  1  0  0  0  0
  9 32  1  0  0  0  0
  9 33  1  0  0  0  0
 10 22  1  0  0  0  0
 10 11  2  0  0  0  0
 11 12  1  0  0  0  0
 11 34  1  0  0  0  0
 12 13  2  0  0  0  0
 12 35  1  0  0  0  0
 13 14  1  0  0  0  0
 13 21  1  0  0  0  0
 14 20  1  0  0  0  0
 14 15  1  0  0  0  0
 15 16  1  0  0  0  0
 15 36  1  0  0  0  0
 15 37  1  0  0  0  0
 16 17  1  0  0  0  0
 16 38  1  0  0  0  0
 16 39  1  0  0  0  0
 17 18  1  0  0  0  0
 18 19  1  0  0  0  0
 18 20  1  0  0  0  0
 18 40  1  0  0  0  0
 19 41  1  0  0  0  0
 19 42  1  0  0  0  0
 19 43  1  0  0  0  0
 20 44  1  0  0  0  0
 20 45  1  0  0  0  0
 21 22  2  0  0  0  0
 22 46  1  0  0  0  0
 23 24  1  0  0  0  0
 23 25  1  0  0  0  0
 23 47  1  0  0  0  0
 24 48  1  0  0  0  0
 24 49  1  0  0  0  0
 24 50  1  0  0  0  0
 25 51  1  0  0  0  0
 25 52  1  0  0  0  0
 25 53  1  0  0  0  0
M  END
> <s_m_source_file>
AV-unprocessed.smi

> <i_m_source_file_index>
1232

> <i_lp_mmshare_version>
43012

> <i_f3d_flags>
0

> <s_epik_input>
W0NIM11DKD1PKVtOSF1bQ0BASF0oW0NIXShbQ0gzXSlbQ0gzXSlDKD1PKVtOSF1bQ0gyXWMxW2NIXVtjSF1jKG5bY0hdMSlOMltDSDJdW0NIMl1PW0NAQEhdKFtDSDNdKVtDSDJdMg==

> <s_epik_cmdline>
J2VwaWtfcHl0aG9uJywgJy1waCcsICc3LjAnLCAnLXRuJywgJzgnLCAnLW1hJywgJzIwMCcsICctbWV0YWxfYmluZGluZycsICctaW1hZScsICc8aW5maWxlLm1hZT4nLCAnLW9tYWUnLCAnPG91dGZpbGUubWFlPic=

> <r_lp_tautomer_probability>
1

> <r_epik_Ionization_Penalty>
0.00557618

> <r_epik_Ionization_Penalty_Charging>
0

> <r_epik_Ionization_Penalty_Neutral>
0.00557618

> <r_epik_State_Penalty>
0.00408363

> <r_epik_Charging_Adjusted_Penalty>
0.00408363

> <i_epik_Tot_Q>
0

> <i_epik_Tot_abs_Q>
0

> <r_epik_Metal_State_Penalty>
-0

> <b_epik_Metal_Only>
0

> <s_lp_Force_Field>
OPLS_2005

> <r_lp_Energy>
20.9167

> <b_lp_Chiralities_Consistent>
1

> <s_lp_Variant>
AV-unprocessed.smi:1232-4

> <Gold.Version>
5.8.1

> <Gold.Id.Protein>
6NUR|6NUR_protein|mol2

> <Gold.PLP.Fitness>
50.7845

> <Gold.PLP.PLP>
-42.8706

> <Gold.PLP.part.hbond>
-3.5282

> <Gold.PLP.part.metal>
0.0000

> <Gold.PLP.part.buried>
-3.8276

> <Gold.PLP.part.nonpolar>
-35.9247

> <Gold.PLP.part.repulsive>
0.1249

> <Gold.PLP.ligand.clash>
0.0000

> <Gold.PLP.ligand.torsion>
0.7392

> <Gold.PLP.Chemscore.Hbond>
2.8640

> <Gold.PLP.Chemscore.CHOScore>
0.0000

> <Gold.PLP.Chemscore.Metal>
0.0000

> <Gold.Chemscore.Hbonds>
donor molecule, donor type, donor heavy atom, donor atom, acceptor molecule, acceptor atom, score
      L1  H     4    29       P1  7948  0.49
      L1  H     8    31       P1  7948  0.85
      P1  H  7997  8009       L1    21  0.23
      P1  H 10752 10764       L1     7  0.02

> <Gold.PLP.Chemscore.Internal.Correction>
0.8004

> <Gold.Rescore>
     Score         DG    S(hbond)    S(metal)    S(lipo)     H(rot)  DE(clash)    DE(int)     intcor
     17.53     -19.64       2.32        0.00     101.43       2.13       0.92       1.20       ----

> <Gold.Chemscore.Fitness>
17.5253

> <Gold.Chemscore.DG>
-19.6417

> <Gold.Chemscore.ZeroCoef>
-5.4800

> <Gold.Chemscore.Hbond>
2.3209

> <Gold.Chemscore.Metal>
0.0000

> <Gold.Chemscore.Lipo>
101.4291

> <Gold.Chemscore.Internal_Hbond>
0.0000

> <Gold.Chemscore.DEClash>
0.9160

> <Gold.Chemscore.DEInternal>
1.2004

> <Gold.Chemscore.Rot>
2.1317

> <Gold.Chemscore.Internal.Correction>
   9.000000E+99

> <Gold.Chemscore.Hbonds>
donor molecule, donor type, donor heavy atom, donor atom, acceptor molecule, acceptor atom, score
      L1  H     4    29       P1  7948  0.04
      L1  H     8    31       P1  7948  0.14
      P1  H  7997  8009       L1    21  0.02
      P1  H 10752 10764       L1     7  0.02

> <Gold.Chemscore.Hbond.Weighted>
-7.7517

> <Gold.Chemscore.Metal.Weighted>
-0.0000

> <Gold.Chemscore.Lipo.Weighted>
-11.8672

> <Gold.Chemscore.Internal_Hbond.Weighted>
0.0000

> <Gold.Chemscore.DEClash.Weighted>
0.9160

> <Gold.Chemscore.DEInternal.Weighted>
1.2004

> <Gold.Chemscore.Rot.Weighted>
5.4572

> <Gold.Chemscore.Internal.Correction.Weighted>
   9.000000E+99

> <Gold.Protein.RotatedTorsions>
[ 6907 6896 6895 6894 ] final  -20.70 input  -60.11 | X-H torsion
[ 7974 7965 7964 7962 ] final   21.99 input  175.53 | X-H torsion
[ 8008 7997 7996 7995 ] final  168.76 input   59.86 | X-H torsion
[ 10167 10162 10161 10158 ] final  148.18 input  -65.29 | X-H torsion
[ 10718 10713 10712 10709 ] final  -53.53 input   66.30 | X-H torsion
[ 10763 10752 10751 10750 ] final  -18.40 input  -60.55 | X-H torsion
[ 11005 11000 10999 10996 ] final   14.85 input  -57.11 | X-H torsion

> <Gold.Protein.ActiveResidues>
 VAL166  LYS551  ARG553  GLY616  TRP617  ASP618  TYR619  PRO620  LYS621  CYS622 
 ASP623  PHE694  ASN695  SER759  ASP760  ASP761  ALA762  ILE779  LEU786  VAL792 
 PHE793  MET794  SER795  GLU796  ALA797  LYS798  CYS799  TRP800  GLU811  SER814 

> <Gold.Protein.RotatedAtoms>
  151.2443  135.0600  159.9036 H   0  0  0  0  0  0  0  0  0  0  0  0  # atno 6907 bound_to 6896
  152.5389  134.0400  159.8073 H   0  0  0  0  0  0  0  0  0  0  0  0  # atno 6908 bound_to 6896
  151.0599  133.5504  159.2666 H   0  0  0  0  0  0  0  0  0  0  0  0  # atno 6909 bound_to 6896
  146.2048  139.7948  142.8734 H   0  0  0  0  0  0  0  0  0  0  0  0  # atno 7974 bound_to 7965
  156.1518  140.1582  156.8756 H   0  0  0  0  0  0  0  0  0  0  0  0  # atno 8008 bound_to 7997
  154.5078  140.0808  156.7967 H   0  0  0  0  0  0  0  0  0  0  0  0  # atno 8009 bound_to 7997
  155.3880  140.3408  155.4252 H   0  0  0  0  0  0  0  0  0  0  0  0  # atno 8010 bound_to 7997
  139.4879  144.5699  151.7074 H   0  0  0  0  0  0  0  0  0  0  0  0  # atno 10167 bound_to 10162
  156.1528  130.4151  149.9918 H   0  0  0  0  0  0  0  0  0  0  0  0  # atno 10718 bound_to 10713
  153.5886  135.7003  153.5432 H   0  0  0  0  0  0  0  0  0  0  0  0  # atno 10763 bound_to 10752
  153.3198  135.4077  155.1406 H   0  0  0  0  0  0  0  0  0  0  0  0  # atno 10764 bound_to 10752
  154.8604  135.3692  154.5417 H   0  0  0  0  0  0  0  0  0  0  0  0  # atno 10765 bound_to 10752
  140.4649  134.1090  155.7722 H   0  0  0  0  0  0  0  0  0  0  0  0  # atno 11005 bound_to 11000
  145.3359  141.0277  143.3420 LP  0  0  0  0  0  0  0  0  0  0  0  0  # atno 17320 bound_to 7965
  144.8766  139.4963  143.6743 LP  0  0  0  0  0  0  0  0  0  0  0  0  # atno 17321 bound_to 7965
  140.5284  144.0769  150.6045 LP  0  0  0  0  0  0  0  0  0  0  0  0  # atno 17342 bound_to 10162
  140.3750  143.2833  152.0235 LP  0  0  0  0  0  0  0  0  0  0  0  0  # atno 17343 bound_to 10162
  156.7771  130.9207  151.3645 LP  0  0  0  0  0  0  0  0  0  0  0  0  # atno 17370 bound_to 10713
  157.6670  130.9017  149.9955 LP  0  0  0  0  0  0  0  0  0  0  0  0  # atno 17371 bound_to 10713
  141.1604  133.8804  157.1863 LP  0  0  0  0  0  0  0  0  0  0  0  0  # atno 17394 bound_to 11000
  139.9922  135.0060  157.0000 LP  0  0  0  0  0  0  0  0  0  0  0  0  # atno 17395 bound_to 11000

$$$$
