AV-unprocessed.smi:34|AV-procd|sdf|223|dock7
  -GOLD-   2262015543D 1   1.00000     0.00000
 Structure written by MMmdl.
 55 59  0  0  0  0  0  0  0  0  1 V2000
  152.8453  140.0896  158.2288 O   0  0  0  0  0  0  0  0  0  0  0  0
  152.0448  140.9854  157.9593 C   0  0  0  0  0  0  0  0  0  0  0  0
  151.0621  140.8510  156.8981 N   0  0  0  0  0  0  0  0  0  0  0  0
  150.8180  139.7745  156.1142 C   0  0  0  0  0  0  0  0  0  0  0  0
  150.9284  139.8175  154.7606 N   0  0  0  0  0  0  0  0  0  0  0  0
  150.6717  138.7287  154.0306 C   0  0  0  0  0  0  0  0  0  0  0  0
  150.2968  137.5173  154.4454 N   0  0  0  0  0  0  0  0  0  0  0  0
  150.1842  137.4617  155.8037 C   0  0  0  0  0  0  0  0  0  0  0  0
  150.4269  138.5416  156.6991 C   0  0  0  0  0  0  0  0  0  0  0  0
  150.2142  138.1266  158.0067 N   0  0  0  0  0  0  0  0  0  0  0  0
  149.8651  136.8745  157.8869 C   0  0  0  0  0  0  0  0  0  0  0  0
  149.8155  136.3916  156.5977 N   0  0  0  0  0  0  0  0  0  0  0  0
  149.4358  135.0030  156.1734 C   0  0  2  0  0  0  0  0  0  0  0  0
  148.7238  134.3696  157.1966 O   0  0  0  0  0  0  0  0  0  0  0  0
  149.4420  133.2265  157.6528 C   0  0  1  0  0  0  0  0  0  0  0  0
  148.4871  132.1629  158.2084 C   0  0  0  0  0  0  0  0  0  0  0  0
  147.5318  132.7840  159.0535 O   0  0  0  0  0  0  0  0  0  0  0  0
  147.6549  132.6934  160.3922 C   0  0  0  0  0  0  0  0  0  0  0  0
  148.1742  131.7340  160.9661 O   0  0  0  0  0  0  0  0  0  0  0  0
  147.0997  133.8780  161.1085 C   0  0  0  0  0  0  0  0  0  0  0  0
  147.5862  135.1683  160.7937 C   0  0  0  0  0  0  0  0  0  0  0  0
  147.0824  136.3059  161.4537 C   0  0  0  0  0  0  0  0  0  0  0  0
  146.0867  136.1673  162.4379 C   0  0  0  0  0  0  0  0  0  0  0  0
  145.5947  134.8893  162.7607 C   0  0  0  0  0  0  0  0  0  0  0  0
  146.0961  133.7504  162.1006 C   0  0  0  0  0  0  0  0  0  0  0  0
  150.2668  132.7922  156.4406 C   0  0  1  0  0  0  0  0  0  0  0  0
  149.5144  132.1077  155.5761 F   0  0  0  0  0  0  0  0  0  0  0  0
  150.6546  134.1232  155.8240 C   0  0  2  0  0  0  0  0  0  0  0  0
  151.8859  134.5858  156.3515 O   0  0  0  0  0  0  0  0  0  0  0  0
  152.0841  142.3140  158.6572 C   0  0  0  0  0  0  0  0  0  0  0  0
  151.7433  143.4914  157.9541 C   0  0  0  0  0  0  0  0  0  0  0  0
  151.7915  144.7445  158.5952 C   0  0  0  0  0  0  0  0  0  0  0  0
  152.1888  144.8322  159.9425 C   0  0  0  0  0  0  0  0  0  0  0  0
  152.5413  143.6660  160.6475 C   0  0  0  0  0  0  0  0  0  0  0  0
  152.4930  142.4120  160.0076 C   0  0  0  0  0  0  0  0  0  0  0  0
  150.4789  141.6583  156.7331 H   0  0  0  0  0  0  0  0  0  0  0  0
  150.7811  138.8452  152.9625 H   0  0  0  0  0  0  0  0  0  0  0  0
  149.6256  136.2634  158.7451 H   0  0  0  0  0  0  0  0  0  0  0  0
  148.7671  135.1511  155.3244 H   0  0  0  0  0  0  0  0  0  0  0  0
  150.1204  133.5468  158.4440 H   0  0  0  0  0  0  0  0  0  0  0  0
  147.9643  131.6687  157.3886 H   0  0  0  0  0  0  0  0  0  0  0  0
  149.0428  131.3955  158.7492 H   0  0  0  0  0  0  0  0  0  0  0  0
  148.3502  135.2995  160.0409 H   0  0  0  0  0  0  0  0  0  0  0  0
  147.4610  137.2860  161.2037 H   0  0  0  0  0  0  0  0  0  0  0  0
  145.7011  137.0400  162.9440 H   0  0  0  0  0  0  0  0  0  0  0  0
  144.8305  134.7810  163.5164 H   0  0  0  0  0  0  0  0  0  0  0  0
  145.6973  132.7844  162.3733 H   0  0  0  0  0  0  0  0  0  0  0  0
  151.1176  132.1604  156.6995 H   0  0  0  0  0  0  0  0  0  0  0  0
  150.7561  134.0559  154.7403 H   0  0  0  0  0  0  0  0  0  0  0  0
  152.0569  134.1264  157.1595 H   0  0  0  0  0  0  0  0  0  0  0  0
  151.4377  143.4416  156.9188 H   0  0  0  0  0  0  0  0  0  0  0  0
  151.5245  145.6388  158.0518 H   0  0  0  0  0  0  0  0  0  0  0  0
  152.2264  145.7935  160.4333 H   0  0  0  0  0  0  0  0  0  0  0  0
  152.8523  143.7331  161.6797 H   0  0  0  0  0  0  0  0  0  0  0  0
  152.7771  141.5313  160.5652 H   0  0  0  0  0  0  0  0  0  0  0  0
  1  2  2  0  0  0  0
  2  3  1  0  0  0  0
  2 30  1  0  0  0  0
  3  4  1  0  0  0  0
  3 36  1  0  0  0  0
  4  9  1  0  0  0  0
  4  5  2  0  0  0  0
  5  6  1  0  0  0  0
  6  7  2  0  0  0  0
  6 37  1  0  0  0  0
  7  8  1  0  0  0  0
  8 12  1  0  0  0  0
  8  9  2  0  0  0  0
  9 10  1  0  0  0  0
 10 11  2  0  0  0  0
 11 12  1  0  0  0  0
 11 38  1  0  0  0  0
 12 13  1  0  0  0  0
 13 28  1  0  0  0  0
 13 14  1  0  0  0  0
 13 39  1  0  0  0  0
 14 15  1  0  0  0  0
 15 16  1  0  0  0  0
 15 26  1  0  0  0  0
 15 40  1  0  0  0  0
 16 17  1  0  0  0  0
 16 41  1  0  0  0  0
 16 42  1  0  0  0  0
 17 18  1  0  0  0  0
 18 19  2  0  0  0  0
 18 20  1  0  0  0  0
 20 25  1  0  0  0  0
 20 21  2  0  0  0  0
 21 22  1  0  0  0  0
 21 43  1  0  0  0  0
 22 23  2  0  0  0  0
 22 44  1  0  0  0  0
 23 24  1  0  0  0  0
 23 45  1  0  0  0  0
 24 25  2  0  0  0  0
 24 46  1  0  0  0  0
 25 47  1  0  0  0  0
 26 27  1  0  0  0  0
 26 28  1  0  0  0  0
 26 48  1  0  0  0  0
 28 29  1  0  0  0  0
 28 49  1  0  0  0  0
 29 50  1  0  0  0  0
 30 35  1  0  0  0  0
 30 31  2  0  0  0  0
 31 32  1  0  0  0  0
 31 51  1  0  0  0  0
 32 33  2  0  0  0  0
 32 52  1  0  0  0  0
 33 34  1  0  0  0  0
 33 53  1  0  0  0  0
 34 35  2  0  0  0  0
 34 54  1  0  0  0  0
 35 55  1  0  0  0  0
M  END
> <s_m_source_file>
AV-unprocessed.smi

> <i_m_source_file_index>
34

> <i_lp_mmshare_version>
43012

> <i_f3d_flags>
0

> <s_epik_input>
W2NIXTFbY0hdW2NIXVtjSF1bY0hdYzFDKD1PKVtOSF1jKG5bY0hdbjIpYyhjMjMpbltjSF1uM1tDQEBIXTRPW0NASF0oW0NAQEhdKEYpW0NASF00W09IXSlbQ0gyXU9DKD1PKWM1W2NIXVtjSF1bY0hdW2NIXVtjSF01

> <s_epik_cmdline>
J2VwaWtfcHl0aG9uJywgJy1waCcsICc3LjAnLCAnLXRuJywgJzgnLCAnLW1hJywgJzIwMCcsICctbWV0YWxfYmluZGluZycsICctaW1hZScsICc8aW5maWxlLm1hZT4nLCAnLW9tYWUnLCAnPG91dGZpbGUubWFlPic=

> <r_lp_tautomer_probability>
1

> <r_epik_Ionization_Penalty>
0.00257489

> <r_epik_Ionization_Penalty_Charging>
0

> <r_epik_Ionization_Penalty_Neutral>
0.00257489

> <r_epik_State_Penalty>
0.00519398

> <r_epik_Charging_Adjusted_Penalty>
0.00519398

> <i_epik_Tot_Q>
0

> <i_epik_Tot_abs_Q>
0

> <r_epik_Metal_State_Penalty>
0.335891

> <b_epik_Metal_Only>
0

> <s_epik_Chemistry_Notes>
This compound has an ester and may undergo hydrolysis at high or low pH. This compound contains an acetal/aminal-like group ( X-CH(R)-Y where X, Y are N, S, or O) that may be acid/base labile, releasing an aldehyde.

> <s_lp_Force_Field>
OPLS_2005

> <r_lp_Energy>
53.1328

> <b_lp_Chiralities_Consistent>
1

> <s_lp_Variant>
AV-unprocessed.smi:34-9

> <Gold.Version>
5.8.1

> <Gold.Id.Protein>
6NUR|6NUR_protein|mol2

> <Gold.PLP.Fitness>
58.2115

> <Gold.PLP.PLP>
-53.4923

> <Gold.PLP.part.hbond>
-3.0000

> <Gold.PLP.part.metal>
0.0000

> <Gold.PLP.part.buried>
-6.0427

> <Gold.PLP.part.nonpolar>
-45.0600

> <Gold.PLP.part.repulsive>
0.3726

> <Gold.PLP.ligand.clash>
0.0000

> <Gold.PLP.ligand.torsion>
3.3439

> <Gold.PLP.Chemscore.Hbond>
2.7425

> <Gold.PLP.Chemscore.CHOScore>
0.9915

> <Gold.PLP.Chemscore.Metal>
0.0000

> <Gold.Chemscore.Hbonds>
donor molecule, donor type, donor heavy atom, donor atom, acceptor molecule, acceptor atom, score
      P1  H  7989  7998       L1     5  1.00
      P1  H  7997  8009       L1     1  0.81
      P1  H 10752 10763       L1    29  0.80
      L1  C     6    37       P1  7957  0.97

> <Gold.PLP.Chemscore.Internal.Correction>
0.2053

> <Gold.Rescore>
     Score         DG    S(hbond)    S(metal)    S(lipo)     H(rot)  DE(clash)    DE(int)     intcor
     17.75     -22.63       2.43        0.00     136.78       2.72       1.99       2.89       ----

> <Gold.Chemscore.Fitness>
17.7495

> <Gold.Chemscore.DG>
-22.6275

> <Gold.Chemscore.ZeroCoef>
-5.4800

> <Gold.Chemscore.Hbond>
2.4284

> <Gold.Chemscore.Metal>
0.0000

> <Gold.Chemscore.Lipo>
136.7839

> <Gold.Chemscore.Internal_Hbond>
0.0000

> <Gold.Chemscore.DEClash>
1.9887

> <Gold.Chemscore.DEInternal>
2.8893

> <Gold.Chemscore.Rot>
2.7215

> <Gold.Chemscore.Internal.Correction>
   9.000000E+99

> <Gold.Chemscore.Hbonds>
donor molecule, donor type, donor heavy atom, donor atom, acceptor molecule, acceptor atom, score
      P1  H  7989  7998       L1     5  0.26
      P1  H  7997  8009       L1     1  0.65
      P1  H 10752 10763       L1    29  0.76

> <Gold.Chemscore.Hbond.Weighted>
-8.1108

> <Gold.Chemscore.Metal.Weighted>
-0.0000

> <Gold.Chemscore.Lipo.Weighted>
-16.0037

> <Gold.Chemscore.Internal_Hbond.Weighted>
0.0000

> <Gold.Chemscore.DEClash.Weighted>
1.9887

> <Gold.Chemscore.DEInternal.Weighted>
2.8893

> <Gold.Chemscore.Rot.Weighted>
6.9670

> <Gold.Chemscore.Internal.Correction.Weighted>
   9.000000E+99

> <Gold.Protein.RotatedTorsions>
[ 6907 6896 6895 6894 ] final -167.60 input  -60.11 | X-H torsion
[ 7974 7965 7964 7962 ] final   59.95 input  175.53 | X-H torsion
[ 8008 7997 7996 7995 ] final  160.73 input   59.86 | X-H torsion
[ 10167 10162 10161 10158 ] final   84.86 input  -65.29 | X-H torsion
[ 10718 10713 10712 10709 ] final -128.46 input   66.30 | X-H torsion
[ 10763 10752 10751 10750 ] final   97.54 input  -60.55 | X-H torsion
[ 11005 11000 10999 10996 ] final -120.21 input  -57.11 | X-H torsion

> <Gold.Protein.ActiveResidues>
 VAL166  LYS551  ARG553  GLY616  TRP617  ASP618  TYR619  PRO620  LYS621  CYS622 
 ASP623  PHE694  ASN695  SER759  ASP760  ASP761  ALA762  ILE779  LEU786  VAL792 
 PHE793  MET794  SER795  GLU796  ALA797  LYS798  CYS799  TRP800  GLU811  SER814 

> <Gold.Protein.RotatedAtoms>
  151.4621  133.3590  159.2810 H   0  0  0  0  0  0  0  0  0  0  0  0  # atno 6907 bound_to 6896
  150.9018  134.8433  159.7376 H   0  0  0  0  0  0  0  0  0  0  0  0  # atno 6908 bound_to 6896
  152.4884  134.4542  159.9636 H   0  0  0  0  0  0  0  0  0  0  0  0  # atno 6909 bound_to 6896
  145.9015  139.3585  143.0590 H   0  0  0  0  0  0  0  0  0  0  0  0  # atno 7974 bound_to 7965
  156.2152  140.1796  156.7604 H   0  0  0  0  0  0  0  0  0  0  0  0  # atno 8008 bound_to 7997
  154.5781  140.0671  156.9094 H   0  0  0  0  0  0  0  0  0  0  0  0  # atno 8009 bound_to 7997
  155.2551  140.3332  155.4281 H   0  0  0  0  0  0  0  0  0  0  0  0  # atno 8010 bound_to 7997
  139.9037  144.6314  150.8610 H   0  0  0  0  0  0  0  0  0  0  0  0  # atno 10167 bound_to 10162
  156.1953  130.6822  151.0474 H   0  0  0  0  0  0  0  0  0  0  0  0  # atno 10718 bound_to 10713
  153.2781  135.4180  155.1053 H   0  0  0  0  0  0  0  0  0  0  0  0  # atno 10763 bound_to 10752
  154.8480  135.3488  154.6150 H   0  0  0  0  0  0  0  0  0  0  0  0  # atno 10764 bound_to 10752
  153.6570  135.7050  153.5247 H   0  0  0  0  0  0  0  0  0  0  0  0  # atno 10765 bound_to 10752
  141.0160  134.0195  157.3349 H   0  0  0  0  0  0  0  0  0  0  0  0  # atno 11005 bound_to 11000
  145.8785  140.9377  143.0613 LP  0  0  0  0  0  0  0  0  0  0  0  0  # atno 17320 bound_to 7965
  144.6736  140.0748  143.7471 LP  0  0  0  0  0  0  0  0  0  0  0  0  # atno 17321 bound_to 7965
  140.7701  143.3417  151.2193 LP  0  0  0  0  0  0  0  0  0  0  0  0  # atno 17342 bound_to 10162
  139.7003  143.9544  152.2902 LP  0  0  0  0  0  0  0  0  0  0  0  0  # atno 17343 bound_to 10162
  157.6954  131.0796  150.6985 LP  0  0  0  0  0  0  0  0  0  0  0  0  # atno 17370 bound_to 10713
  156.7042  130.4632  149.5564 LP  0  0  0  0  0  0  0  0  0  0  0  0  # atno 17371 bound_to 10713
  139.9117  135.0191  156.7719 LP  0  0  0  0  0  0  0  0  0  0  0  0  # atno 17394 bound_to 11000
  140.6654  133.9607  155.7827 LP  0  0  0  0  0  0  0  0  0  0  0  0  # atno 17395 bound_to 11000

$$$$
