AV-unprocessed.smi:1941|AV-procd|sdf|7845|dock2
  -GOLD-   22720 9583D 1   1.00000     0.00000
 Structure written by MMmdl.
 40 41  0  0  0  0  0  0  0  0  1 V2000
  150.9132  142.0663  156.0482 C   0  0  0  0  0  0  0  0  0  0  0  0
  150.6219  140.7412  155.4322 C   0  0  0  0  0  0  0  0  0  0  0  0
  151.3657  139.6512  155.6381 N   0  0  0  0  0  0  0  0  0  0  0  0
  150.8870  138.5338  154.9468 C   0  0  0  0  0  0  0  0  0  0  0  0
  151.6011  137.2213  155.0615 C   0  0  0  0  0  0  0  0  0  0  0  0
  150.7008  136.1172  155.6399 C   0  0  0  0  0  0  0  0  0  0  0  0
  149.7879  135.5886  154.6329 N   0  0  0  0  0  0  0  0  0  0  0  0
  149.0070  134.5116  154.7946 C   0  0  0  0  0  0  0  0  0  0  0  0
  148.9563  133.8470  155.8296 O   0  0  0  0  0  0  0  0  0  0  0  0
  148.2932  134.2485  153.6906 N   0  0  0  0  0  0  0  0  0  0  0  0
  147.3523  133.1424  153.5217 C   0  0  2  0  0  0  0  0  0  0  0  0
  148.0907  131.8174  153.7601 C   0  0  0  0  0  0  0  0  0  0  0  0
  146.7128  133.2011  152.1209 C   0  0  2  0  0  0  0  0  0  0  0  0
  145.8921  134.4608  151.8406 C   0  0  0  0  0  0  0  0  0  0  0  0
  144.9257  134.0193  150.7534 C   0  0  0  0  0  0  0  0  0  0  0  0
  144.9685  132.4893  150.8140 C   0  0  0  0  0  0  0  0  0  0  0  0
  145.7397  132.1799  151.9668 O   0  0  0  0  0  0  0  0  0  0  0  0
  149.7576  138.7958  154.2118 C   0  0  0  0  0  0  0  0  0  0  0  0
  149.2557  140.4574  154.3609 S   0  0  0  0  0  0  0  0  0  0  0  0
  151.9209  142.0825  156.4648 H   0  0  0  0  0  0  0  0  0  0  0  0
  150.2003  142.2697  156.8471 H   0  0  0  0  0  0  0  0  0  0  0  0
  150.8337  142.8527  155.2975 H   0  0  0  0  0  0  0  0  0  0  0  0
  151.9676  136.9127  154.0816 H   0  0  0  0  0  0  0  0  0  0  0  0
  152.4870  137.3395  155.6867 H   0  0  0  0  0  0  0  0  0  0  0  0
  151.3035  135.3105  156.0611 H   0  0  0  0  0  0  0  0  0  0  0  0
  150.1034  136.5183  156.4592 H   0  0  0  0  0  0  0  0  0  0  0  0
  149.7571  136.0716  153.7470 H   0  0  0  0  0  0  0  0  0  0  0  0
  148.4105  134.8619  152.8977 H   0  0  0  0  0  0  0  0  0  0  0  0
  146.5536  133.2122  154.2624 H   0  0  0  0  0  0  0  0  0  0  0  0
  147.4149  130.9677  153.6619 H   0  0  0  0  0  0  0  0  0  0  0  0
  148.5171  131.7814  154.7631 H   0  0  0  0  0  0  0  0  0  0  0  0
  148.9034  131.6800  153.0462 H   0  0  0  0  0  0  0  0  0  0  0  0
  147.4758  133.0794  151.3492 H   0  0  0  0  0  0  0  0  0  0  0  0
  145.3321  134.7493  152.7314 H   0  0  0  0  0  0  0  0  0  0  0  0
  146.5080  135.3094  151.5421 H   0  0  0  0  0  0  0  0  0  0  0  0
  143.9234  134.4062  150.9395 H   0  0  0  0  0  0  0  0  0  0  0  0
  145.2453  134.3708  149.7718 H   0  0  0  0  0  0  0  0  0  0  0  0
  143.9749  132.0454  150.8794 H   0  0  0  0  0  0  0  0  0  0  0  0
  145.4643  132.0838  149.9311 H   0  0  0  0  0  0  0  0  0  0  0  0
  149.1920  138.1146  153.5935 H   0  0  0  0  0  0  0  0  0  0  0  0
  1  2  1  0  0  0  0
  1 20  1  0  0  0  0
  1 21  1  0  0  0  0
  1 22  1  0  0  0  0
  2 19  1  0  0  0  0
  2  3  2  0  0  0  0
  3  4  1  0  0  0  0
  4  5  1  0  0  0  0
  4 18  2  0  0  0  0
  5  6  1  0  0  0  0
  5 23  1  0  0  0  0
  5 24  1  0  0  0  0
  6  7  1  0  0  0  0
  6 25  1  0  0  0  0
  6 26  1  0  0  0  0
  7  8  1  0  0  0  0
  7 27  1  0  0  0  0
  8  9  2  0  0  0  0
  8 10  1  0  0  0  0
 10 11  1  0  0  0  0
 10 28  1  0  0  0  0
 11 12  1  0  0  0  0
 11 13  1  0  0  0  0
 11 29  1  0  0  0  0
 12 30  1  0  0  0  0
 12 31  1  0  0  0  0
 12 32  1  0  0  0  0
 13 17  1  0  0  0  0
 13 14  1  0  0  0  0
 13 33  1  0  0  0  0
 14 15  1  0  0  0  0
 14 34  1  0  0  0  0
 14 35  1  0  0  0  0
 15 16  1  0  0  0  0
 15 36  1  0  0  0  0
 15 37  1  0  0  0  0
 16 17  1  0  0  0  0
 16 38  1  0  0  0  0
 16 39  1  0  0  0  0
 18 19  1  0  0  0  0
 18 40  1  0  0  0  0
M  END
> <s_m_source_file>
AV-unprocessed.smi

> <i_m_source_file_index>
1941

> <i_lp_mmshare_version>
43012

> <i_f3d_flags>
0

> <s_epik_input>
W0NIM11jMW5jKFtjSF1zMSlbQ0gyXVtDSDJdW05IXUMoPU8pW05IXVtDQEhdKFtDSDNdKVtDQEBIXTJbQ0gyXVtDSDJdW0NIMl1PMg==

> <s_epik_cmdline>
J2VwaWtfcHl0aG9uJywgJy1waCcsICc3LjAnLCAnLXRuJywgJzgnLCAnLW1hJywgJzIwMCcsICctbWV0YWxfYmluZGluZycsICctaW1hZScsICc8aW5maWxlLm1hZT4nLCAnLW9tYWUnLCAnPG91dGZpbGUubWFlPic=

> <r_epik_Ionization_Penalty>
0.00195486

> <r_epik_Ionization_Penalty_Charging>
0

> <r_epik_Ionization_Penalty_Neutral>
0.00195486

> <r_epik_State_Penalty>
0.00129472

> <r_epik_Charging_Adjusted_Penalty>
0.00129472

> <i_epik_Tot_Q>
0

> <i_epik_Tot_abs_Q>
0

> <r_epik_Metal_State_Penalty>
-0

> <b_epik_Metal_Only>
0

> <s_lp_Force_Field>
OPLS_2005

> <r_lp_Energy>
10.4909

> <b_lp_Chiralities_Consistent>
1

> <s_lp_Variant>
AV-unprocessed.smi:1941-1

> <Gold.Version>
5.8.1

> <Gold.Id.Protein>
6NUR|6NUR_protein|mol2

> <Gold.PLP.Fitness>
42.6624

> <Gold.PLP.PLP>
-34.3637

> <Gold.PLP.part.hbond>
-2.0600

> <Gold.PLP.part.metal>
0.0000

> <Gold.PLP.part.buried>
-3.5685

> <Gold.PLP.part.nonpolar>
-30.0717

> <Gold.PLP.part.repulsive>
0.1965

> <Gold.PLP.ligand.clash>
0.0000

> <Gold.PLP.ligand.torsion>
0.1288

> <Gold.PLP.Chemscore.Hbond>
1.8160

> <Gold.PLP.Chemscore.CHOScore>
1.0000

> <Gold.PLP.Chemscore.Metal>
0.0000

> <Gold.Chemscore.Hbonds>
donor molecule, donor type, donor heavy atom, donor atom, acceptor molecule, acceptor atom, score
      L1  H     7    27       P1  7948  0.99
      L1  H    10    28       P1  7948  1.00
      L1  C    18    40       P1  7948  0.97

> <Gold.PLP.Chemscore.Internal.Correction>
0.1083

> <Gold.Rescore>
     Score         DG    S(hbond)    S(metal)    S(lipo)     H(rot)  DE(clash)    DE(int)     intcor
     15.71     -15.92       1.76        0.00      75.89       1.69       0.00       0.21       ----

> <Gold.Chemscore.Fitness>
15.7066

> <Gold.Chemscore.DG>
-15.9188

> <Gold.Chemscore.ZeroCoef>
-5.4800

> <Gold.Chemscore.Hbond>
1.7640

> <Gold.Chemscore.Metal>
0.0000

> <Gold.Chemscore.Lipo>
75.8914

> <Gold.Chemscore.Internal_Hbond>
0.0000

> <Gold.Chemscore.DEClash>
0.0009

> <Gold.Chemscore.DEInternal>
0.2113

> <Gold.Chemscore.Rot>
1.6923

> <Gold.Chemscore.Internal.Correction>
   9.000000E+99

> <Gold.Chemscore.Hbonds>
donor molecule, donor type, donor heavy atom, donor atom, acceptor molecule, acceptor atom, score
      L1  H     7    27       P1  7948  0.23
      L1  H    10    28       P1  7948  0.60

> <Gold.Chemscore.Hbond.Weighted>
-5.8918

> <Gold.Chemscore.Metal.Weighted>
-0.0000

> <Gold.Chemscore.Lipo.Weighted>
-8.8793

> <Gold.Chemscore.Internal_Hbond.Weighted>
0.0000

> <Gold.Chemscore.DEClash.Weighted>
0.0009

> <Gold.Chemscore.DEInternal.Weighted>
0.2113

> <Gold.Chemscore.Rot.Weighted>
4.3323

> <Gold.Chemscore.Internal.Correction.Weighted>
   9.000000E+99

> <Gold.Protein.RotatedTorsions>
[ 6907 6896 6895 6894 ] final   76.93 input  -60.11 | X-H torsion
[ 7974 7965 7964 7962 ] final    4.17 input  175.53 | X-H torsion
[ 8008 7997 7996 7995 ] final -103.65 input   59.86 | X-H torsion
[ 10167 10162 10161 10158 ] final  -60.43 input  -65.29 | X-H torsion
[ 10718 10713 10712 10709 ] final   59.96 input   66.30 | X-H torsion
[ 10763 10752 10751 10750 ] final -133.20 input  -60.55 | X-H torsion
[ 11005 11000 10999 10996 ] final -111.97 input  -57.11 | X-H torsion

> <Gold.Protein.ActiveResidues>
 VAL166  LYS551  ARG553  GLY616  TRP617  ASP618  TYR619  PRO620  LYS621  CYS622 
 ASP623  PHE694  ASN695  SER759  ASP760  ASP761  ALA762  ILE779  LEU786  VAL792 
 PHE793  MET794  SER795  GLU796  ALA797  LYS798  CYS799  TRP800  GLU811  SER814 

> <Gold.Protein.RotatedAtoms>
  152.5095  134.3894  159.9378 H   0  0  0  0  0  0  0  0  0  0  0  0  # atno 6907 bound_to 6896
  151.3853  133.3801  159.2722 H   0  0  0  0  0  0  0  0  0  0  0  0  # atno 6908 bound_to 6896
  150.9473  134.8897  159.7709 H   0  0  0  0  0  0  0  0  0  0  0  0  # atno 6909 bound_to 6896
  146.2444  140.0575  142.8371 H   0  0  0  0  0  0  0  0  0  0  0  0  # atno 7974 bound_to 7965
  154.8739  140.0422  157.1741 H   0  0  0  0  0  0  0  0  0  0  0  0  # atno 8008 bound_to 7997
  154.8710  140.2958  155.5461 H   0  0  0  0  0  0  0  0  0  0  0  0  # atno 8009 bound_to 7997
  156.2999  140.2429  156.3698 H   0  0  0  0  0  0  0  0  0  0  0  0  # atno 8010 bound_to 7997
  140.6072  143.2377  151.5794 H   0  0  0  0  0  0  0  0  0  0  0  0  # atno 10167 bound_to 10162
  157.5716  130.8912  149.9277 H   0  0  0  0  0  0  0  0  0  0  0  0  # atno 10718 bound_to 10713
  154.8735  135.3773  154.4534 H   0  0  0  0  0  0  0  0  0  0  0  0  # atno 10763 bound_to 10752
  153.5209  135.7029  153.5737 H   0  0  0  0  0  0  0  0  0  0  0  0  # atno 10764 bound_to 10752
  153.3985  135.3954  155.1937 H   0  0  0  0  0  0  0  0  0  0  0  0  # atno 10765 bound_to 10752
  141.0703  133.9391  157.2498 H   0  0  0  0  0  0  0  0  0  0  0  0  # atno 11005 bound_to 11000
  145.0929  140.9296  143.4758 LP  0  0  0  0  0  0  0  0  0  0  0  0  # atno 17320 bound_to 7965
  145.0752  139.3001  143.5812 LP  0  0  0  0  0  0  0  0  0  0  0  0  # atno 17321 bound_to 7965
  139.5334  144.2851  152.1197 LP  0  0  0  0  0  0  0  0  0  0  0  0  # atno 17342 bound_to 10162
  140.2043  144.4626  150.6416 LP  0  0  0  0  0  0  0  0  0  0  0  0  # atno 17343 bound_to 10162
  156.0762  130.3678  150.0674 LP  0  0  0  0  0  0  0  0  0  0  0  0  # atno 17370 bound_to 10713
  156.8826  130.9561  151.3598 LP  0  0  0  0  0  0  0  0  0  0  0  0  # atno 17371 bound_to 10713
  139.9516  135.0174  156.9011 LP  0  0  0  0  0  0  0  0  0  0  0  0  # atno 17394 bound_to 11000
  140.5688  134.0463  155.7423 LP  0  0  0  0  0  0  0  0  0  0  0  0  # atno 17395 bound_to 11000

$$$$
