AV-unprocessed.smi:1545|AV-procd|sdf|6215|dock7
  -GOLD-   22720 6383D 1   1.00000     0.00000
 Structure written by MMmdl.
 42 44  0  0  0  0  0  0  0  0  2 V2000
  149.5069  140.8062  153.4261 O   0  0  0  0  0  0  0  0  0  0  0  0
  148.1846  140.8276  153.9181 C   0  0  0  0  0  0  0  0  0  0  0  0
  148.1078  141.6953  155.1809 C   0  0  0  0  0  0  0  0  0  0  0  0
  148.6858  141.0215  156.3323 N   0  0  0  0  0  0  0  0  0  0  0  0
  149.7448  141.6295  157.0145 C   0  0  0  0  0  0  0  0  0  0  0  0
  150.1889  142.9012  156.8281 N   0  3  0  0  0  0  0  0  0  0  0  0
  151.2679  143.1207  157.6892 C   0  0  0  0  0  0  0  0  0  0  0  0
  152.0637  144.2462  157.8788 C   0  0  0  0  0  0  0  0  0  0  0  0
  153.0923  144.1405  158.8381 C   0  0  0  0  0  0  0  0  0  0  0  0
  153.2996  142.9511  159.5667 C   0  0  0  0  0  0  0  0  0  0  0  0
  152.4876  141.8150  159.3690 C   0  0  0  0  0  0  0  0  0  0  0  0
  151.4721  141.9256  158.4200 C   0  0  0  0  0  0  0  0  0  0  0  0
  150.4999  141.0248  157.9684 N   0  0  0  0  0  0  0  0  0  0  0  0
  150.4488  139.6649  158.5261 C   0  0  0  0  0  0  0  0  0  0  0  0
  150.3846  138.5821  157.4308 C   0  0  1  0  0  0  0  0  0  0  0  0
  151.7033  138.3051  157.0079 O   0  0  0  0  0  0  0  0  0  0  0  0
  149.6518  137.3336  157.9015 C   0  0  0  0  0  0  0  0  0  0  0  0
  149.5526  136.1974  157.0681 C   0  0  0  0  0  0  0  0  0  0  0  0
  148.8954  135.0384  157.5243 C   0  0  0  0  0  0  0  0  0  0  0  0
  148.3390  135.0062  158.8173 C   0  0  0  0  0  0  0  0  0  0  0  0
  148.4392  136.1338  159.6540 C   0  0  0  0  0  0  0  0  0  0  0  0
  147.9119  136.1013  160.9007 F   0  0  0  0  0  0  0  0  0  0  0  0
  149.0914  137.2949  159.1965 C   0  0  0  0  0  0  0  0  0  0  0  0
  149.5683  140.1405  152.7578 H   0  0  0  0  0  0  0  0  0  0  0  0
  147.5546  141.2586  153.1397 H   0  0  0  0  0  0  0  0  0  0  0  0
  147.8243  139.8138  154.0980 H   0  0  0  0  0  0  0  0  0  0  0  0
  148.5869  142.6619  155.0184 H   0  0  0  0  0  0  0  0  0  0  0  0
  147.0599  141.8935  155.4089 H   0  0  0  0  0  0  0  0  0  0  0  0
  148.4764  140.0456  156.4888 H   0  0  0  0  0  0  0  0  0  0  0  0
  151.9088  145.1589  157.3221 H   0  0  0  0  0  0  0  0  0  0  0  0
  153.7359  144.9893  159.0183 H   0  0  0  0  0  0  0  0  0  0  0  0
  154.0984  142.9089  160.2929 H   0  0  0  0  0  0  0  0  0  0  0  0
  152.6553  140.9086  159.9318 H   0  0  0  0  0  0  0  0  0  0  0  0
  151.3239  139.5264  159.1623 H   0  0  0  0  0  0  0  0  0  0  0  0
  149.5801  139.6016  159.1826 H   0  0  0  0  0  0  0  0  0  0  0  0
  149.8623  138.9828  156.5612 H   0  0  0  0  0  0  0  0  0  0  0  0
  152.2485  138.2010  157.7730 H   0  0  0  0  0  0  0  0  0  0  0  0
  149.9859  136.2080  156.0787 H   0  0  0  0  0  0  0  0  0  0  0  0
  148.8242  134.1709  156.8851 H   0  0  0  0  0  0  0  0  0  0  0  0
  147.8403  134.1151  159.1687 H   0  0  0  0  0  0  0  0  0  0  0  0
  149.1704  138.1527  159.8482 H   0  0  0  0  0  0  0  0  0  0  0  0
  149.7915  143.5572  156.1685 H   0  0  0  0  0  0  0  0  0  0  0  0
  1  2  1  0  0  0  0
  1 24  1  0  0  0  0
  2  3  1  0  0  0  0
  2 25  1  0  0  0  0
  2 26  1  0  0  0  0
  3  4  1  0  0  0  0
  3 27  1  0  0  0  0
  3 28  1  0  0  0  0
  4  5  1  0  0  0  0
  4 29  1  0  0  0  0
  5 13  1  0  0  0  0
  5  6  2  0  0  0  0
  6  7  1  0  0  0  0
  6 42  1  0  0  0  0
  7 12  2  0  0  0  0
  7  8  1  0  0  0  0
  8  9  2  0  0  0  0
  8 30  1  0  0  0  0
  9 10  1  0  0  0  0
  9 31  1  0  0  0  0
 10 11  2  0  0  0  0
 10 32  1  0  0  0  0
 11 12  1  0  0  0  0
 11 33  1  0  0  0  0
 12 13  1  0  0  0  0
 13 14  1  0  0  0  0
 14 15  1  0  0  0  0
 14 34  1  0  0  0  0
 14 35  1  0  0  0  0
 15 16  1  0  0  0  0
 15 17  1  0  0  0  0
 15 36  1  0  0  0  0
 16 37  1  0  0  0  0
 17 23  1  0  0  0  0
 17 18  2  0  0  0  0
 18 19  1  0  0  0  0
 18 38  1  0  0  0  0
 19 20  2  0  0  0  0
 19 39  1  0  0  0  0
 20 21  1  0  0  0  0
 20 40  1  0  0  0  0
 21 22  1  0  0  0  0
 21 23  2  0  0  0  0
 23 41  1  0  0  0  0
M  CHG  1   6   1
M  END
> <s_m_source_file>
AV-unprocessed.smi

> <i_m_source_file_index>
1545

> <i_lp_mmshare_version>
43012

> <i_f3d_flags>
0

> <s_epik_input>
W09IXVtDSDJdW0NIMl1bTkhdYyhuMSluKGMoYzEyKVtjSF1bY0hdW2NIXVtjSF0yKVtDSDJdW0NASF0oW09IXSljM1tjSF1bY0hdW2NIXWMoRilbY0hdMw==

> <s_epik_cmdline>
J2VwaWtfcHl0aG9uJywgJy1waCcsICc3LjAnLCAnLXRuJywgJzgnLCAnLW1hJywgJzIwMCcsICctbWV0YWxfYmluZGluZycsICctaW1hZScsICc8aW5maWxlLm1hZT4nLCAnLW9tYWUnLCAnPG91dGZpbGUubWFlPic=

> <r_epik_Ionization_Penalty>
0.0688114

> <r_epik_Ionization_Penalty_Charging>
0.0688055

> <r_epik_Ionization_Penalty_Neutral>
5.85933e-06

> <r_epik_State_Penalty>
0.0602293

> <r_epik_Charging_Adjusted_Penalty>
0.129035

> <i_epik_Tot_Q>
1

> <i_epik_Tot_abs_Q>
1

> <r_epik_Metal_State_Penalty>
2.77411

> <b_epik_Metal_Only>
0

> <s_lp_Force_Field>
OPLS_2005

> <r_lp_Energy>
23.1511

> <b_lp_Chiralities_Consistent>
1

> <s_lp_Variant>
AV-unprocessed.smi:1545-2

> <Gold.Version>
5.8.1

> <Gold.Id.Protein>
6NUR|6NUR_protein|mol2

> <Gold.PLP.Fitness>
52.5205

> <Gold.PLP.PLP>
-41.8350

> <Gold.PLP.part.hbond>
-3.5025

> <Gold.PLP.part.metal>
0.0000

> <Gold.PLP.part.buried>
-5.3635

> <Gold.PLP.part.nonpolar>
-33.2932

> <Gold.PLP.part.repulsive>
0.0363

> <Gold.PLP.ligand.clash>
0.0000

> <Gold.PLP.ligand.torsion>
0.5110

> <Gold.PLP.Chemscore.Hbond>
3.8897

> <Gold.PLP.Chemscore.CHOScore>
0.0000

> <Gold.PLP.Chemscore.Metal>
0.0000

> <Gold.Chemscore.Hbonds>
donor molecule, donor type, donor heavy atom, donor atom, acceptor molecule, acceptor atom, score
      L1  H     1    24       P1  7957  0.77
      L1  H     6    42       P1  8028  2.00
      P1  H  7989  7998       L1     1  0.12
      P1  H  8011  8017       L1     1  1.00

> <Gold.PLP.Chemscore.Internal.Correction>
0.0385

> <Gold.Rescore>
     Score         DG    S(hbond)    S(metal)    S(lipo)     H(rot)  DE(clash)    DE(int)     intcor
     16.87     -17.23       2.29        0.00     104.06       3.15       0.02       0.35       ----

> <Gold.Chemscore.Fitness>
16.8655

> <Gold.Chemscore.DG>
-17.2330

> <Gold.Chemscore.ZeroCoef>
-5.4800

> <Gold.Chemscore.Hbond>
2.2882

> <Gold.Chemscore.Metal>
0.0000

> <Gold.Chemscore.Lipo>
104.0642

> <Gold.Chemscore.Internal_Hbond>
0.0000

> <Gold.Chemscore.DEClash>
0.0153

> <Gold.Chemscore.DEInternal>
0.3523

> <Gold.Chemscore.Rot>
3.1505

> <Gold.Chemscore.Internal.Correction>
   9.000000E+99

> <Gold.Chemscore.Hbonds>
donor molecule, donor type, donor heavy atom, donor atom, acceptor molecule, acceptor atom, score
      L1  H     1    24       P1  7957  0.77
      L1  H     6    42       P1  8028  0.95
      P1  H  8011  8017       L1     1  0.17

> <Gold.Chemscore.Hbond.Weighted>
-7.6427

> <Gold.Chemscore.Metal.Weighted>
-0.0000

> <Gold.Chemscore.Lipo.Weighted>
-12.1755

> <Gold.Chemscore.Internal_Hbond.Weighted>
0.0000

> <Gold.Chemscore.DEClash.Weighted>
0.0153

> <Gold.Chemscore.DEInternal.Weighted>
0.3523

> <Gold.Chemscore.Rot.Weighted>
8.0652

> <Gold.Chemscore.Internal.Correction.Weighted>
   9.000000E+99

> <Gold.Protein.RotatedTorsions>
[ 6907 6896 6895 6894 ] final  -32.70 input  -60.11 | X-H torsion
[ 7974 7965 7964 7962 ] final  118.66 input  175.53 | X-H torsion
[ 8008 7997 7996 7995 ] final -115.50 input   59.86 | X-H torsion
[ 10167 10162 10161 10158 ] final -103.25 input  -65.29 | X-H torsion
[ 10718 10713 10712 10709 ] final    5.92 input   66.30 | X-H torsion
[ 10763 10752 10751 10750 ] final   40.83 input  -60.55 | X-H torsion
[ 11005 11000 10999 10996 ] final -125.08 input  -57.11 | X-H torsion

> <Gold.Protein.ActiveResidues>
 VAL166  LYS551  ARG553  GLY616  TRP617  ASP618  TYR619  PRO620  LYS621  CYS622 
 ASP623  PHE694  ASN695  SER759  ASP760  ASP761  ALA762  ILE779  LEU786  VAL792 
 PHE793  MET794  SER795  GLU796  ALA797  LYS798  CYS799  TRP800  GLU811  SER814 

> <Gold.Protein.RotatedAtoms>
  151.0753  134.9824  159.8328 H   0  0  0  0  0  0  0  0  0  0  0  0  # atno 6907 bound_to 6896
  152.5413  134.2248  159.8812 H   0  0  0  0  0  0  0  0  0  0  0  0  # atno 6908 bound_to 6896
  151.2275  133.4425  159.2636 H   0  0  0  0  0  0  0  0  0  0  0  0  # atno 6909 bound_to 6896
  145.1525  139.3202  143.4559 H   0  0  0  0  0  0  0  0  0  0  0  0  # atno 7974 bound_to 7965
  155.0531  140.0393  157.2550 H   0  0  0  0  0  0  0  0  0  0  0  0  # atno 8008 bound_to 7997
  154.7121  140.2695  155.6595 H   0  0  0  0  0  0  0  0  0  0  0  0  # atno 8009 bound_to 7997
  156.2792  140.2719  156.1766 H   0  0  0  0  0  0  0  0  0  0  0  0  # atno 8010 bound_to 7997
  140.2220  143.3669  152.0961 H   0  0  0  0  0  0  0  0  0  0  0  0  # atno 10167 bound_to 10162
  156.9146  130.5768  149.5647 H   0  0  0  0  0  0  0  0  0  0  0  0  # atno 10718 bound_to 10713
  152.9925  135.6180  154.2689 H   0  0  0  0  0  0  0  0  0  0  0  0  # atno 10763 bound_to 10752
  154.2423  135.2788  155.2851 H   0  0  0  0  0  0  0  0  0  0  0  0  # atno 10764 bound_to 10752
  154.5359  135.5775  153.6856 H   0  0  0  0  0  0  0  0  0  0  0  0  # atno 10765 bound_to 10752
  140.9791  134.0699  157.3786 H   0  0  0  0  0  0  0  0  0  0  0  0  # atno 11005 bound_to 11000
  146.3493  140.1605  142.8591 LP  0  0  0  0  0  0  0  0  0  0  0  0  # atno 17320 bound_to 7965
  145.0415  140.8949  143.5049 LP  0  0  0  0  0  0  0  0  0  0  0  0  # atno 17321 bound_to 7965
  139.5141  144.6942  151.5676 LP  0  0  0  0  0  0  0  0  0  0  0  0  # atno 17342 bound_to 10162
  140.6248  143.9189  150.6555 LP  0  0  0  0  0  0  0  0  0  0  0  0  # atno 17343 bound_to 10162
  156.0520  130.5587  150.9009 LP  0  0  0  0  0  0  0  0  0  0  0  0  # atno 17370 bound_to 10713
  157.5946  131.0943  150.9062 LP  0  0  0  0  0  0  0  0  0  0  0  0  # atno 17371 bound_to 10713
  139.8942  135.0135  156.6941 LP  0  0  0  0  0  0  0  0  0  0  0  0  # atno 17394 bound_to 11000
  140.7214  133.9137  155.8149 LP  0  0  0  0  0  0  0  0  0  0  0  0  # atno 17395 bound_to 11000

$$$$
