AV-unprocessed.smi:1514|AV-procd|sdf|6115|dock7
  -GOLD-   22720 6253D 1   1.00000     0.00000
 Structure written by MMmdl.
 48 49  0  0  0  0  0  0  0  0  2 V2000
  146.1421  130.2225  151.6641 C   0  0  0  0  0  0  0  0  0  0  0  0
  145.1272  131.3546  151.4498 C   0  0  0  0  0  0  0  0  0  0  0  0
  145.5794  132.3135  150.4390 N   0  0  0  0  0  0  0  0  0  0  0  0
  144.5056  133.2054  149.9954 C   0  0  0  0  0  0  0  0  0  0  0  0
  144.1141  134.2275  151.0835 C   0  0  0  0  0  0  0  0  0  0  0  0
  145.2885  135.0383  151.4867 N   0  3  0  0  0  0  0  0  0  0  0  0
  144.9384  136.0867  152.4766 C   0  0  0  0  0  0  0  0  0  0  0  0
  145.5166  137.4657  152.1039 C   0  0  0  0  0  0  0  0  0  0  0  0
  146.8969  137.6074  152.5530 N   0  0  0  0  0  0  0  0  0  0  0  0
  147.3572  138.6195  153.3026 C   0  0  0  0  0  0  0  0  0  0  0  0
  146.6490  139.5516  153.6839 O   0  0  0  0  0  0  0  0  0  0  0  0
  148.6675  138.4737  153.5672 N   0  0  0  0  0  0  0  0  0  0  0  0
  149.4846  139.2889  154.2858 C   0  0  0  0  0  0  0  0  0  0  0  0
  149.1901  140.4705  154.9094 C   0  0  0  0  0  0  0  0  0  0  0  0
  150.4404  140.8416  155.4843 C   0  0  0  0  0  0  0  0  0  0  0  0
  150.7562  142.0599  156.3008 C   0  0  0  0  0  0  0  0  0  0  0  0
  151.4031  139.9624  155.2294 N   0  0  0  0  0  0  0  0  0  0  0  0
  150.8157  138.9986  154.4878 N   0  0  0  0  0  0  0  0  0  0  0  0
  151.5910  137.8628  154.0276 C   0  0  0  0  0  0  0  0  0  0  0  0
  146.3922  134.1489  151.9292 C   0  0  0  0  0  0  0  0  0  0  0  0
  146.7380  133.1249  150.8275 C   0  0  0  0  0  0  0  0  0  0  0  0
  145.7246  129.4574  152.3187 H   0  0  0  0  0  0  0  0  0  0  0  0
  147.0602  130.5770  152.1313 H   0  0  0  0  0  0  0  0  0  0  0  0
  146.4038  129.7412  150.7212 H   0  0  0  0  0  0  0  0  0  0  0  0
  144.1944  130.9069  151.1044 H   0  0  0  0  0  0  0  0  0  0  0  0
  144.9020  131.8422  152.3975 H   0  0  0  0  0  0  0  0  0  0  0  0
  144.8382  133.7340  149.1009 H   0  0  0  0  0  0  0  0  0  0  0  0
  143.6371  132.6170  149.6967 H   0  0  0  0  0  0  0  0  0  0  0  0
  143.3397  134.8851  150.6870 H   0  0  0  0  0  0  0  0  0  0  0  0
  143.6840  133.7310  151.9544 H   0  0  0  0  0  0  0  0  0  0  0  0
  143.8525  136.1793  152.5295 H   0  0  0  0  0  0  0  0  0  0  0  0
  145.2687  135.7743  153.4686 H   0  0  0  0  0  0  0  0  0  0  0  0
  145.4740  137.6411  151.0286 H   0  0  0  0  0  0  0  0  0  0  0  0
  144.9259  138.2547  152.5702 H   0  0  0  0  0  0  0  0  0  0  0  0
  147.5434  136.8798  152.2838 H   0  0  0  0  0  0  0  0  0  0  0  0
  149.1114  137.6525  153.1833 H   0  0  0  0  0  0  0  0  0  0  0  0
  148.2497  140.9980  154.9599 H   0  0  0  0  0  0  0  0  0  0  0  0
  149.8515  142.6190  156.5399 H   0  0  0  0  0  0  0  0  0  0  0  0
  151.4271  142.7290  155.7616 H   0  0  0  0  0  0  0  0  0  0  0  0
  151.2370  141.7902  157.2414 H   0  0  0  0  0  0  0  0  0  0  0  0
  151.5730  137.8245  152.9383 H   0  0  0  0  0  0  0  0  0  0  0  0
  151.1632  136.9422  154.4249 H   0  0  0  0  0  0  0  0  0  0  0  0
  152.6266  137.9435  154.3610 H   0  0  0  0  0  0  0  0  0  0  0  0
  147.2827  134.7386  152.1435 H   0  0  0  0  0  0  0  0  0  0  0  0
  146.1238  133.6488  152.8605 H   0  0  0  0  0  0  0  0  0  0  0  0
  147.5624  132.4884  151.1464 H   0  0  0  0  0  0  0  0  0  0  0  0
  147.0967  133.6547  149.9441 H   0  0  0  0  0  0  0  0  0  0  0  0
  145.6046  135.5136  150.6535 H   0  0  0  0  0  0  0  0  0  0  0  0
  1  2  1  0  0  0  0
  1 22  1  0  0  0  0
  1 23  1  0  0  0  0
  1 24  1  0  0  0  0
  2  3  1  0  0  0  0
  2 25  1  0  0  0  0
  2 26  1  0  0  0  0
  3 21  1  0  0  0  0
  3  4  1  0  0  0  0
  4  5  1  0  0  0  0
  4 27  1  0  0  0  0
  4 28  1  0  0  0  0
  5  6  1  0  0  0  0
  5 29  1  0  0  0  0
  5 30  1  0  0  0  0
  6  7  1  0  0  0  0
  6 20  1  0  0  0  0
  6 48  1  0  0  0  0
  7  8  1  0  0  0  0
  7 31  1  0  0  0  0
  7 32  1  0  0  0  0
  8  9  1  0  0  0  0
  8 33  1  0  0  0  0
  8 34  1  0  0  0  0
  9 10  1  0  0  0  0
  9 35  1  0  0  0  0
 10 11  2  0  0  0  0
 10 12  1  0  0  0  0
 12 13  1  0  0  0  0
 12 36  1  0  0  0  0
 13 18  1  0  0  0  0
 13 14  2  0  0  0  0
 14 15  1  0  0  0  0
 14 37  1  0  0  0  0
 15 16  1  0  0  0  0
 15 17  2  0  0  0  0
 16 38  1  0  0  0  0
 16 39  1  0  0  0  0
 16 40  1  0  0  0  0
 17 18  1  0  0  0  0
 18 19  1  0  0  0  0
 19 41  1  0  0  0  0
 19 42  1  0  0  0  0
 19 43  1  0  0  0  0
 20 21  1  0  0  0  0
 20 44  1  0  0  0  0
 20 45  1  0  0  0  0
 21 46  1  0  0  0  0
 21 47  1  0  0  0  0
M  CHG  1   6   1
M  END
> <s_m_source_file>
AV-unprocessed.smi

> <i_m_source_file_index>
1514

> <i_lp_mmshare_version>
43012

> <i_f3d_flags>
0

> <s_epik_input>
W0NIM11bQ0gyXU4xW0NIMl1bQ0gyXU4oW0NIMl1bQ0gyXTEpW0NIMl1bQ0gyXVtOSF1DKD1PKVtOSF1jMltjSF1jKFtDSDNdKW5uMltDSDNd

> <s_epik_cmdline>
J2VwaWtfcHl0aG9uJywgJy1waCcsICc3LjAnLCAnLXRuJywgJzgnLCAnLW1hJywgJzIwMCcsICctbWV0YWxfYmluZGluZycsICctaW1hZScsICc8aW5maWxlLm1hZT4nLCAnLW9tYWUnLCAnPG91dGZpbGUubWFlPic=

> <r_epik_Ionization_Penalty>
0.237948

> <r_epik_Ionization_Penalty_Charging>
0.236594

> <r_epik_Ionization_Penalty_Neutral>
0.00135429

> <r_epik_State_Penalty>
1.1865

> <r_epik_Charging_Adjusted_Penalty>
1.42309

> <i_epik_Tot_Q>
1

> <i_epik_Tot_abs_Q>
1

> <r_epik_Metal_State_Penalty>
1.18651

> <b_epik_Metal_Only>
0

> <s_lp_Force_Field>
OPLS_2005

> <r_lp_Energy>
18.1448

> <b_lp_Chiralities_Consistent>
1

> <s_lp_Variant>
AV-unprocessed.smi:1514-2

> <Gold.Version>
5.8.1

> <Gold.Id.Protein>
6NUR|6NUR_protein|mol2

> <Gold.PLP.Fitness>
43.2190

> <Gold.PLP.PLP>
-38.8666

> <Gold.PLP.part.hbond>
-4.0000

> <Gold.PLP.part.metal>
0.0000

> <Gold.PLP.part.buried>
-2.8039

> <Gold.PLP.part.nonpolar>
-33.6905

> <Gold.PLP.part.repulsive>
0.4563

> <Gold.PLP.ligand.clash>
0.0000

> <Gold.PLP.ligand.torsion>
0.8530

> <Gold.PLP.Chemscore.Hbond>
2.0020

> <Gold.PLP.Chemscore.CHOScore>
0.0000

> <Gold.PLP.Chemscore.Metal>
0.0000

> <Gold.Chemscore.Hbonds>
donor molecule, donor type, donor heavy atom, donor atom, acceptor molecule, acceptor atom, score
      L1  H     9    35       P1  7948  1.00
      L1  H    12    36       P1  7948  0.91
      P1  H  7989  7998       L1    17  0.09

> <Gold.PLP.Chemscore.Internal.Correction>
0.0524

> <Gold.Rescore>
     Score         DG    S(hbond)    S(metal)    S(lipo)     H(rot)  DE(clash)    DE(int)     intcor
     15.12     -17.11       1.86        0.00      83.22       1.69       0.15       1.85       ----

> <Gold.Chemscore.Fitness>
15.1178

> <Gold.Chemscore.DG>
-17.1130

> <Gold.Chemscore.ZeroCoef>
-5.4800

> <Gold.Chemscore.Hbond>
1.8641

> <Gold.Chemscore.Metal>
0.0000

> <Gold.Chemscore.Lipo>
83.2215

> <Gold.Chemscore.Internal_Hbond>
0.0000

> <Gold.Chemscore.DEClash>
0.1486

> <Gold.Chemscore.DEInternal>
1.8466

> <Gold.Chemscore.Rot>
1.6914

> <Gold.Chemscore.Internal.Correction>
   9.000000E+99

> <Gold.Chemscore.Hbonds>
donor molecule, donor type, donor heavy atom, donor atom, acceptor molecule, acceptor atom, score
      L1  H     9    35       P1  7948  0.97
      L1  H    12    36       P1  7948  0.87

> <Gold.Chemscore.Hbond.Weighted>
-6.2260

> <Gold.Chemscore.Metal.Weighted>
-0.0000

> <Gold.Chemscore.Lipo.Weighted>
-9.7369

> <Gold.Chemscore.Internal_Hbond.Weighted>
0.0000

> <Gold.Chemscore.DEClash.Weighted>
0.1486

> <Gold.Chemscore.DEInternal.Weighted>
1.8466

> <Gold.Chemscore.Rot.Weighted>
4.3299

> <Gold.Chemscore.Internal.Correction.Weighted>
   9.000000E+99

> <Gold.Protein.RotatedTorsions>
[ 6907 6896 6895 6894 ] final  -55.02 input  -60.11 | X-H torsion
[ 7974 7965 7964 7962 ] final   75.37 input  175.53 | X-H torsion
[ 8008 7997 7996 7995 ] final   45.43 input   59.86 | X-H torsion
[ 10167 10162 10161 10158 ] final -146.30 input  -65.29 | X-H torsion
[ 10718 10713 10712 10709 ] final  163.72 input   66.30 | X-H torsion
[ 10763 10752 10751 10750 ] final -150.85 input  -60.55 | X-H torsion
[ 11005 11000 10999 10996 ] final -115.84 input  -57.11 | X-H torsion

> <Gold.Protein.ActiveResidues>
 VAL166  LYS551  ARG553  GLY616  TRP617  ASP618  TYR619  PRO620  LYS621  CYS622 
 ASP623  PHE694  ASN695  SER759  ASP760  ASP761  ALA762  ILE779  LEU786  VAL792 
 PHE793  MET794  SER795  GLU796  ALA797  LYS798  CYS799  TRP800  GLU811  SER814 

> <Gold.Protein.RotatedAtoms>
  150.8288  134.7531  159.6835 H   0  0  0  0  0  0  0  0  0  0  0  0  # atno 6907 bound_to 6896
  152.4395  134.5616  159.9905 H   0  0  0  0  0  0  0  0  0  0  0  0  # atno 6908 bound_to 6896
  151.5782  133.3343  159.3039 H   0  0  0  0  0  0  0  0  0  0  0  0  # atno 6909 bound_to 6896
  145.7165  139.2633  143.1621 H   0  0  0  0  0  0  0  0  0  0  0  0  # atno 7974 bound_to 7965
  155.3357  140.3405  155.4239 H   0  0  0  0  0  0  0  0  0  0  0  0  # atno 8008 bound_to 7997
  156.1839  140.1673  156.8259 H   0  0  0  0  0  0  0  0  0  0  0  0  # atno 8009 bound_to 7997
  154.5364  140.0734  156.8418 H   0  0  0  0  0  0  0  0  0  0  0  0  # atno 8010 bound_to 7997
  139.7726  143.8216  152.2627 H   0  0  0  0  0  0  0  0  0  0  0  0  # atno 10167 bound_to 10162
  157.1045  131.0452  151.2483 H   0  0  0  0  0  0  0  0  0  0  0  0  # atno 10718 bound_to 10713
  154.8094  135.3274  154.7346 H   0  0  0  0  0  0  0  0  0  0  0  0  # atno 10763 bound_to 10752
  153.7998  135.6904  153.4862 H   0  0  0  0  0  0  0  0  0  0  0  0  # atno 10764 bound_to 10752
  153.1861  135.4568  155.0036 H   0  0  0  0  0  0  0  0  0  0  0  0  # atno 10765 bound_to 10752
  141.0461  133.9760  157.2915 H   0  0  0  0  0  0  0  0  0  0  0  0  # atno 11005 bound_to 11000
  146.0665  140.7915  142.9709 LP  0  0  0  0  0  0  0  0  0  0  0  0  # atno 17320 bound_to 7965
  144.6928  140.3276  143.7221 LP  0  0  0  0  0  0  0  0  0  0  0  0  # atno 17321 bound_to 7965
  139.8255  144.7277  150.9517 LP  0  0  0  0  0  0  0  0  0  0  0  0  # atno 17342 bound_to 10162
  140.7815  143.4119  151.0979 LP  0  0  0  0  0  0  0  0  0  0  0  0  # atno 17343 bound_to 10162
  157.4612  130.7654  149.7237 LP  0  0  0  0  0  0  0  0  0  0  0  0  # atno 17370 bound_to 10713
  155.9865  130.3974  150.3208 LP  0  0  0  0  0  0  0  0  0  0  0  0  # atno 17371 bound_to 10713
  139.9313  135.0199  156.8409 LP  0  0  0  0  0  0  0  0  0  0  0  0  # atno 17394 bound_to 11000
  140.6144  134.0053  155.7590 LP  0  0  0  0  0  0  0  0  0  0  0  0  # atno 17395 bound_to 11000

$$$$
