#       Name:                AV-unprocessed.smi:2087
#       Creating user name   scv26
#       Creation time:       Fri Mar 27 11:23:41 2020


#       File generated by GOLD software.
#

@<TRIPOS>MOLECULE
AV-unprocessed.smi:2087
    59    60     1
SMALL
NO_CHARGES


@<TRIPOS>ATOM
      1 ****        -4.7087  -1.7802  -0.7007 C.3            1 S1                 0.0000
      2 ****        -4.1144  -0.9195   0.4243 C.3            1 S1                 0.0000
      3 ****        -4.9476  -1.0666   1.7088 C.3            1 S1                 0.0000
      4 ****        -3.9995   0.5542  -0.0229 C.3            1 S1                 0.0000
      5 ****        -3.3006   1.4127   0.9722 N.4            1 S1                 1.0000
      6 ****        -3.6559   2.8487   0.8709 C.3            1 S1                 0.0000
      7 ****        -2.9244   3.5192  -0.3047 C.3            1 S1                 0.0000
      8 ****        -1.5218   3.3517  -0.1423 O.3            1 S1                 0.0000
      9 ****        -1.1268   1.9839  -0.1529 C.3            1 S1                 0.0000
     10 ****         0.4060   1.9460  -0.0499 C.3            1 S1                 0.0000
     11 ****         0.9126   0.5825  -0.1455 N.am           1 S1                 0.0000
     12 ****         2.1520   0.2076   0.2001 C.2            1 S1                 0.0000
     13 ****         2.9899   0.9887   0.6525 O.2            1 S1                 0.0000
     14 ****         2.4779  -1.2819   0.0242 C.3            1 S1                 0.0000
     15 ****         3.9167  -1.5470  -0.1038 N.am           1 S1                 0.0000
     16 ****         4.6348  -1.9707   0.9999 C.2            1 S1                 0.0000
     17 ****         5.9617  -2.2221   0.9737 C.2            1 S1                 0.0000
     18 ****         6.7285  -2.0578  -0.2548 C.2            1 S1                 0.0000
     19 ****         7.9412  -2.2615  -0.3289 O.2            1 S1                 0.0000
     20 ****         5.9702  -1.6340  -1.3704 N.am           1 S1                 0.0000
     21 ****         6.6933  -1.4449  -2.6108 C.3            1 S1                 0.0000
     22 ****         4.5828  -1.3606  -1.3350 C.2            1 S1                 0.0000
     23 ****         3.9604  -0.9692  -2.3251 O.2            1 S1                 0.0000
     24 ****        -1.8247   1.2463   1.0157 C.3            1 S1                 0.0000
     25 ****        -5.7196  -1.4600  -0.9555 H              1 S1                 0.0000
     26 ****        -4.7565  -2.8300  -0.4094 H              1 S1                 0.0000
     27 ****        -4.1026  -1.7199  -1.6052 H              1 S1                 0.0000
     28 ****        -3.1188  -1.3136   0.6247 H              1 S1                 0.0000
     29 ****        -5.9598  -0.6842   1.5720 H              1 S1                 0.0000
     30 ****        -4.4971  -0.5271   2.5423 H              1 S1                 0.0000
     31 ****        -5.0265  -2.1126   2.0066 H              1 S1                 0.0000
     32 ****        -3.4990   0.6201  -0.9889 H              1 S1                 0.0000
     33 ****        -5.0085   0.9367  -0.1838 H              1 S1                 0.0000
     34 ****        -4.7355   2.9755   0.7820 H              1 S1                 0.0000
     35 ****        -3.3671   3.3399   1.8011 H              1 S1                 0.0000
     36 ****        -3.2484   3.1085  -1.2622 H              1 S1                 0.0000
     37 ****        -3.1494   4.5856  -0.3256 H              1 S1                 0.0000
     38 ****        -1.4170   1.5422  -1.1074 H              1 S1                 0.0000
     39 ****         0.8468   2.5364  -0.8545 H              1 S1                 0.0000
     40 ****         0.7241   2.4017   0.8894 H              1 S1                 0.0000
     41 ****         0.2858  -0.1205  -0.5094 H              1 S1                 0.0000
     42 ****         2.0760  -1.8204   0.8834 H              1 S1                 0.0000
     43 ****         1.9468  -1.6761  -0.8442 H              1 S1                 0.0000
     44 ****         4.1110  -2.1031   1.9355 H              1 S1                 0.0000
     45 ****         6.4629  -2.5460   1.8740 H              1 S1                 0.0000
     46 ****         6.0095  -1.3157  -3.4493 H              1 S1                 0.0000
     47 ****         7.2968  -2.3376  -2.7859 H              1 S1                 0.0000
     48 ****         7.3183  -0.5598  -2.4826 H              1 S1                 0.0000
     49 ****        -1.4705   1.6578   1.9618 H              1 S1                 0.0000
     50 ****        -1.5544   0.1916   1.0288 H              1 S1                 0.0000
     51 ****        -3.6516   1.1073   1.8689 H              1 S1                 0.0000
     52 ****        -1.2503   3.7563   0.7309 LP             1 S1                 0.0000
     53 ****        -1.0545   3.8254  -0.8888 LP             1 S1                 0.0000
     54 ****         2.7582   1.9534   0.7771 LP             1 S1                 0.0000
     55 ****         3.9019   0.6581   0.8952 LP             1 S1                 0.0000
     56 ****         8.4492  -2.5554   0.4807 LP             1 S1                 0.0000
     57 ****         8.4176  -2.1330  -1.1987 LP             1 S1                 0.0000
     58 ****         2.9803  -0.7826  -2.2580 LP             1 S1                 0.0000
     59 ****         4.4359  -0.8385  -3.1951 LP             1 S1                 0.0000
@<TRIPOS>BOND
    1    1    2 1     
    2    1   25 1     
    3    1   26 1     
    4    1   27 1     
    5    2    3 1     
    6    2    4 1     
    7    2   28 1     
    8    3   29 1     
    9    3   30 1     
   10    3   31 1     
   11    4    5 1     
   12    4   32 1     
   13    4   33 1     
   14    5   24 1     
   15    5    6 1     
   16    5   51 1     
   17    6    7 1     
   18    6   34 1     
   19    6   35 1     
   20    7    8 1     
   21    7   36 1     
   22    7   37 1     
   23    8    9 1     
   24    9   10 1     
   25    9   24 1     
   26    9   38 1     
   27   10   11 1     
   28   10   39 1     
   29   10   40 1     
   30   11   12 am    
   31   11   41 1     
   32   12   13 2     
   33   12   14 1     
   34   14   15 1     
   35   14   42 1     
   36   14   43 1     
   37   15   22 am    
   38   15   16 1     
   39   16   17 2     
   40   16   44 1     
   41   17   18 1     
   42   17   45 1     
   43   18   19 2     
   44   18   20 am    
   45   20   21 1     
   46   20   22 am    
   47   21   46 1     
   48   21   47 1     
   49   21   48 1     
   50   22   23 2     
   51   24   49 1     
   52   24   50 1     
   53    8   52 1     
   54    8   53 1     
   55   13   54 1     
   56   13   55 1     
   57   19   56 1     
   58   19   57 1     
   59   23   58 1     
   60   23   59 1     
@<TRIPOS>SUBSTRUCTURE
      1 S1             1
@<TRIPOS>SET
LONE_PAIRS      STATIC     ATOMS    <user>   **** ""
8 52 53 54 55 56 57 58 59
DONOR_HYDROGENS      STATIC     ATOMS    <user>   **** ""
2 51 41
ATOM$BLUE        STATIC     ATOMS    COLORGROUP SYSTEM
8 52 53 54 55 56 57 58 59
ATOM$RED        STATIC     ATOMS    COLORGROUP SYSTEM
2 51 41
