AV-unprocessed.smi:283|AV-procd|sdf|2150|dock9
  -GOLD-   2262021493D 1   1.00000     0.00000
 Structure written by MMmdl.
 48 51  0  0  0  0  0  0  0  0  1 V2000
  147.8045  135.9364  162.3912 C   0  0  0  0  0  0  0  0  0  0  0  0
  146.7271  136.3637  161.3852 C   0  0  1  0  0  0  0  0  0  0  0  0
  147.0562  135.8391  160.0617 N   0  0  0  0  0  0  0  0  0  0  0  0
  147.5092  136.6427  159.0735 C   0  0  0  0  0  0  0  0  0  0  0  0
  146.5518  137.2932  158.3709 N   0  0  0  0  0  0  0  0  0  0  0  0
  146.8934  138.1274  157.3864 C   0  0  0  0  0  0  0  0  0  0  0  0
  148.1122  138.4461  156.9505 N   0  0  0  0  0  0  0  0  0  0  0  0
  149.0873  137.7844  157.6393 C   0  0  0  0  0  0  0  0  0  0  0  0
  148.8705  136.8657  158.7079 C   0  0  0  0  0  0  0  0  0  0  0  0
  150.0956  136.3842  159.1533 N   0  0  0  0  0  0  0  0  0  0  0  0
  150.9752  136.9949  158.4091 C   0  0  0  0  0  0  0  0  0  0  0  0
  150.4581  137.8565  157.4693 N   0  0  0  0  0  0  0  0  0  0  0  0
  151.2328  138.6812  156.4829 C   0  0  2  0  0  0  0  0  0  0  0  0
  150.5415  139.8708  156.2488 O   0  0  0  0  0  0  0  0  0  0  0  0
  150.4783  140.1380  154.8511 C   0  0  2  0  0  0  0  0  0  0  0  0
  149.2690  141.0268  154.5083 C   0  0  0  0  0  0  0  0  0  0  0  0
  149.3027  141.3935  153.1454 O   0  0  0  0  0  0  0  0  0  0  0  0
  150.4832  138.7456  154.2032 C   0  0  2  0  0  0  0  0  0  0  0  0
  149.1810  138.1886  154.1486 O   0  0  0  0  0  0  0  0  0  0  0  0
  151.4164  137.9707  155.1260 C   0  0  2  0  0  0  0  0  0  0  0  0
  151.1855  136.5715  155.1229 O   0  0  0  0  0  0  0  0  0  0  0  0
  145.3364  135.9816  161.9017 C   0  0  0  0  0  0  0  0  0  0  0  0
  144.3492  136.9792  162.0795 C   0  0  0  0  0  0  0  0  0  0  0  0
  143.0694  136.6462  162.5611 C   0  0  0  0  0  0  0  0  0  0  0  0
  142.7579  135.3082  162.8614 C   0  0  0  0  0  0  0  0  0  0  0  0
  143.7258  134.3048  162.6731 C   0  0  0  0  0  0  0  0  0  0  0  0
  145.0090  134.6326  162.1912 C   0  0  0  0  0  0  0  0  0  0  0  0
  146.1526  133.3553  161.9655 Cl  0  0  0  0  0  0  0  0  0  0  0  0
  152.1790  138.8800  156.9878 H   0  0  0  0  0  0  0  0  0  0  0  0
  151.4040  140.6410  154.5642 H   0  0  0  0  0  0  0  0  0  0  0  0
  150.8700  138.7835  153.1842 H   0  0  0  0  0  0  0  0  0  0  0  0
  152.4452  138.1491  154.8108 H   0  0  0  0  0  0  0  0  0  0  0  0
  147.6333  136.3909  163.3677 H   0  0  0  0  0  0  0  0  0  0  0  0
  148.7968  136.2412  162.0575 H   0  0  0  0  0  0  0  0  0  0  0  0
  147.8154  134.8541  162.5254 H   0  0  0  0  0  0  0  0  0  0  0  0
  146.7879  137.4474  161.2998 H   0  0  0  0  0  0  0  0  0  0  0  0
  146.6885  134.9185  159.8706 H   0  0  0  0  0  0  0  0  0  0  0  0
  146.0737  138.6111  156.8761 H   0  0  0  0  0  0  0  0  0  0  0  0
  152.0362  136.8262  158.5211 H   0  0  0  0  0  0  0  0  0  0  0  0
  148.3409  140.4785  154.6726 H   0  0  0  0  0  0  0  0  0  0  0  0
  149.2375  141.9169  155.1375 H   0  0  0  0  0  0  0  0  0  0  0  0
  149.6679  140.6773  152.6489 H   0  0  0  0  0  0  0  0  0  0  0  0
  149.0248  137.8678  153.2740 H   0  0  0  0  0  0  0  0  0  0  0  0
  150.4742  136.3860  154.5294 H   0  0  0  0  0  0  0  0  0  0  0  0
  144.5695  138.0118  161.8516 H   0  0  0  0  0  0  0  0  0  0  0  0
  142.3272  137.4183  162.7008 H   0  0  0  0  0  0  0  0  0  0  0  0
  141.7765  135.0509  163.2318 H   0  0  0  0  0  0  0  0  0  0  0  0
  143.4809  133.2775  162.8988 H   0  0  0  0  0  0  0  0  0  0  0  0
  1  2  1  0  0  0  0
  1 33  1  0  0  0  0
  1 34  1  0  0  0  0
  1 35  1  0  0  0  0
  2  3  1  0  0  0  0
  2 22  1  0  0  0  0
  2 36  1  0  0  0  0
  3  4  1  0  0  0  0
  3 37  1  0  0  0  0
  4  9  1  0  0  0  0
  4  5  2  0  0  0  0
  5  6  1  0  0  0  0
  6  7  2  0  0  0  0
  6 38  1  0  0  0  0
  7  8  1  0  0  0  0
  8 12  1  0  0  0  0
  8  9  2  0  0  0  0
  9 10  1  0  0  0  0
 10 11  2  0  0  0  0
 11 12  1  0  0  0  0
 11 39  1  0  0  0  0
 12 13  1  0  0  0  0
 13 29  1  0  0  0  0
 13 20  1  0  0  0  0
 13 14  1  0  0  0  0
 14 15  1  0  0  0  0
 15 30  1  0  0  0  0
 15 16  1  0  0  0  0
 15 18  1  0  0  0  0
 16 17  1  0  0  0  0
 16 40  1  0  0  0  0
 16 41  1  0  0  0  0
 17 42  1  0  0  0  0
 18 31  1  0  0  0  0
 18 19  1  0  0  0  0
 18 20  1  0  0  0  0
 19 43  1  0  0  0  0
 20 32  1  0  0  0  0
 20 21  1  0  0  0  0
 21 44  1  0  0  0  0
 22 27  1  0  0  0  0
 22 23  2  0  0  0  0
 23 24  1  0  0  0  0
 23 45  1  0  0  0  0
 24 25  2  0  0  0  0
 24 46  1  0  0  0  0
 25 26  1  0  0  0  0
 25 47  1  0  0  0  0
 26 27  2  0  0  0  0
 26 48  1  0  0  0  0
 27 28  1  0  0  0  0
M  END
> <s_m_source_file>
AV-unprocessed.smi

> <i_m_source_file_index>
283

> <i_lp_mmshare_version>
43012

> <i_f3d_flags>
0

> <s_epik_input>
Q2xjMVtjSF1bY0hdW2NIXVtjSF1jMVtDQEhdKFtDSDNdKVtOSF1jKG5bY0hdbjIpYyhjMjMpbltjSF1uM1tDQEBIXTRPW0NASF0oW0NIMl1bT0hdKVtDQEBIXShbT0hdKVtDQEhdNFtPSF0=

> <s_epik_cmdline>
J2VwaWtfcHl0aG9uJywgJy1waCcsICc3LjAnLCAnLXRuJywgJzgnLCAnLW1hJywgJzIwMCcsICctbWV0YWxfYmluZGluZycsICctaW1hZScsICc8aW5maWxlLm1hZT4nLCAnLW9tYWUnLCAnPG91dGZpbGUubWFlPic=

> <r_lp_tautomer_probability>
1

> <r_epik_Ionization_Penalty>
0.000266407

> <r_epik_Ionization_Penalty_Charging>
0

> <r_epik_Ionization_Penalty_Neutral>
0.000266407

> <r_epik_State_Penalty>
-0

> <r_epik_Charging_Adjusted_Penalty>
0

> <i_epik_Tot_Q>
0

> <i_epik_Tot_abs_Q>
0

> <r_epik_Metal_State_Penalty>
-0

> <b_epik_Metal_Only>
0

> <s_epik_Chemistry_Notes>
This compound contains an acetal/aminal-like group ( X-CH(R)-Y where X, Y are N, S, or O) that may be acid/base labile, releasing an aldehyde.

> <s_lp_Force_Field>
OPLS_2005

> <r_lp_Energy>
56.8802

> <b_lp_Chiralities_Consistent>
1

> <s_lp_Variant>
AV-unprocessed.smi:283-26

> <Gold.Version>
5.8.1

> <Gold.Id.Protein>
6NUR|6NUR_protein|mol2

> <Gold.PLP.Fitness>
55.5036

> <Gold.PLP.PLP>
-44.8280

> <Gold.PLP.part.hbond>
-5.1636

> <Gold.PLP.part.metal>
0.0000

> <Gold.PLP.part.buried>
-5.9364

> <Gold.PLP.part.nonpolar>
-34.2275

> <Gold.PLP.part.repulsive>
0.0884

> <Gold.PLP.ligand.clash>
0.0000

> <Gold.PLP.ligand.torsion>
1.6480

> <Gold.PLP.Chemscore.Hbond>
4.6245

> <Gold.PLP.Chemscore.CHOScore>
0.0000

> <Gold.PLP.Chemscore.Metal>
0.0000

> <Gold.Chemscore.Hbonds>
donor molecule, donor type, donor heavy atom, donor atom, acceptor molecule, acceptor atom, score
      L1  H    17    42       P1  7957  0.80
      L1  H    19    43       P1  7948  0.73
      P1  H  6896  6907       L1    10  1.00
      P1  H  8011  8017       L1    17  0.53
      P1  H 10752 10765       L1    21  0.81

> <Gold.PLP.Chemscore.Internal.Correction>
0.0982

> <Gold.Rescore>
     Score         DG    S(hbond)    S(metal)    S(lipo)     H(rot)  DE(clash)    DE(int)     intcor
     14.33     -17.34       3.39        0.00      94.29       4.10       0.23       2.79       ----

> <Gold.Chemscore.Fitness>
14.3308

> <Gold.Chemscore.DG>
-17.3436

> <Gold.Chemscore.ZeroCoef>
-5.4800

> <Gold.Chemscore.Hbond>
3.3892

> <Gold.Chemscore.Metal>
0.0000

> <Gold.Chemscore.Lipo>
94.2867

> <Gold.Chemscore.Internal_Hbond>
0.0000

> <Gold.Chemscore.DEClash>
0.2259

> <Gold.Chemscore.DEInternal>
2.7869

> <Gold.Chemscore.Rot>
4.0968

> <Gold.Chemscore.Internal.Correction>
   9.000000E+99

> <Gold.Chemscore.Hbonds>
donor molecule, donor type, donor heavy atom, donor atom, acceptor molecule, acceptor atom, score
      L1  H    17    42       P1  7957  0.79
      L1  H    19    43       P1  7948  0.69
      P1  H  6896  6907       L1    10  0.45
      P1  H  8011  8017       L1    17  0.08
      P1  H 10752 10765       L1    21  0.37

> <Gold.Chemscore.Hbond.Weighted>
-11.3200

> <Gold.Chemscore.Metal.Weighted>
-0.0000

> <Gold.Chemscore.Lipo.Weighted>
-11.0315

> <Gold.Chemscore.Internal_Hbond.Weighted>
0.0000

> <Gold.Chemscore.DEClash.Weighted>
0.2259

> <Gold.Chemscore.DEInternal.Weighted>
2.7869

> <Gold.Chemscore.Rot.Weighted>
10.4879

> <Gold.Chemscore.Internal.Correction.Weighted>
   9.000000E+99

> <Gold.Protein.RotatedTorsions>
[ 6907 6896 6895 6894 ] final  -40.70 input  -60.11 | X-H torsion
[ 7974 7965 7964 7962 ] final   52.10 input  175.53 | X-H torsion
[ 8008 7997 7996 7995 ] final   68.45 input   59.86 | X-H torsion
[ 10167 10162 10161 10158 ] final  101.85 input  -65.29 | X-H torsion
[ 10718 10713 10712 10709 ] final   79.74 input   66.30 | X-H torsion
[ 10763 10752 10751 10750 ] final  167.87 input  -60.55 | X-H torsion
[ 11005 11000 10999 10996 ] final  -46.90 input  -57.11 | X-H torsion

> <Gold.Protein.ActiveResidues>
 VAL166  LYS551  ARG553  GLY616  TRP617  ASP618  TYR619  PRO620  LYS621  CYS622 
 ASP623  PHE694  ASN695  SER759  ASP760  ASP761  ALA762  ILE779  LEU786  VAL792 
 PHE793  MET794  SER795  GLU796  ALA797  LYS798  CYS799  TRP800  GLU811  SER814 

> <Gold.Protein.RotatedAtoms>
  150.9753  134.9118  159.7811 H   0  0  0  0  0  0  0  0  0  0  0  0  # atno 6907 bound_to 6896
  152.5204  134.3485  159.9252 H   0  0  0  0  0  0  0  0  0  0  0  0  # atno 6908 bound_to 6896
  151.3493  133.3891  159.2713 H   0  0  0  0  0  0  0  0  0  0  0  0  # atno 6909 bound_to 6896
  145.9847  139.4278  143.0110 H   0  0  0  0  0  0  0  0  0  0  0  0  # atno 7974 bound_to 7965
  155.7084  140.3494  155.4963 H   0  0  0  0  0  0  0  0  0  0  0  0  # atno 8008 bound_to 7997
  155.9377  140.1096  157.1103 H   0  0  0  0  0  0  0  0  0  0  0  0  # atno 8009 bound_to 7997
  154.4097  140.1219  156.4873 H   0  0  0  0  0  0  0  0  0  0  0  0  # atno 8010 bound_to 7997
  139.7402  144.7013  151.0588 H   0  0  0  0  0  0  0  0  0  0  0  0  # atno 10167 bound_to 10162
  157.6786  130.9928  150.1977 H   0  0  0  0  0  0  0  0  0  0  0  0  # atno 10718 bound_to 10713
  154.3602  135.2753  155.2324 H   0  0  0  0  0  0  0  0  0  0  0  0  # atno 10763 bound_to 10752
  154.4516  135.5929  153.6199 H   0  0  0  0  0  0  0  0  0  0  0  0  # atno 10764 bound_to 10752
  152.9844  135.6043  154.3821 H   0  0  0  0  0  0  0  0  0  0  0  0  # atno 10765 bound_to 10752
  141.0607  133.6710  156.3220 H   0  0  0  0  0  0  0  0  0  0  0  0  # atno 11005 bound_to 11000
  145.7718  140.9893  143.1145 LP  0  0  0  0  0  0  0  0  0  0  0  0  # atno 17320 bound_to 7965
  144.6871  139.9456  143.7476 LP  0  0  0  0  0  0  0  0  0  0  0  0  # atno 17321 bound_to 7965
  140.7784  143.4934  150.9863 LP  0  0  0  0  0  0  0  0  0  0  0  0  # atno 17342 bound_to 10162
  139.8623  143.7299  152.3172 LP  0  0  0  0  0  0  0  0  0  0  0  0  # atno 17343 bound_to 10162
  156.2674  130.3718  149.8067 LP  0  0  0  0  0  0  0  0  0  0  0  0  # atno 17370 bound_to 10713
  156.5794  130.8459  151.3378 LP  0  0  0  0  0  0  0  0  0  0  0  0  # atno 17371 bound_to 10713
  140.5874  134.5685  157.5492 LP  0  0  0  0  0  0  0  0  0  0  0  0  # atno 17394 bound_to 11000
  139.9430  134.7752  156.0631 LP  0  0  0  0  0  0  0  0  0  0  0  0  # atno 17395 bound_to 11000

$$$$
