AV-unprocessed.smi:1670|AV-procd|sdf|6695|dock7
  -GOLD-   22720 7433D 1   1.00000     0.00000
 Structure written by MMmdl.
 41 42  0  0  0  0  0  0  0  0  1 V2000
  146.8231  133.0216  155.1774 C   0  0  0  0  0  0  0  0  0  0  0  0
  146.4161  133.5696  153.8027 C   0  0  2  0  0  0  0  0  0  0  0  0
  146.7691  132.5771  152.6735 C   0  0  0  0  0  0  0  0  0  0  0  0
  145.8677  132.6778  151.5381 N   0  0  0  0  0  0  0  0  0  0  0  0
  145.9115  131.9856  150.3462 C   0  0  0  0  0  0  0  0  0  0  0  0
  144.8455  132.3968  149.5985 C   0  0  0  0  0  0  0  0  0  0  0  0
  144.2010  133.3569  150.4276 C   0  0  0  0  0  0  0  0  0  0  0  0
  144.8178  133.5271  151.5856 N   0  0  0  0  0  0  0  0  0  0  0  0
  147.0763  134.8570  153.5878 N   0  0  0  0  0  0  0  0  0  0  0  0
  146.8177  135.9857  154.2643 C   0  0  0  0  0  0  0  0  0  0  0  0
  146.0297  136.0626  155.2073 O   0  0  0  0  0  0  0  0  0  0  0  0
  147.4958  137.0288  153.7667 N   0  0  0  0  0  0  0  0  0  0  0  0
  147.3711  138.4073  154.2298 C   0  0  2  0  0  0  0  0  0  0  0  0
  146.9890  139.3410  153.0619 C   0  0  0  0  0  0  0  0  0  0  0  0
  146.9175  140.8100  153.5136 C   0  0  0  0  0  0  0  0  0  0  0  0
  148.2169  141.2756  154.1972 C   0  0  2  0  0  0  0  0  0  0  0  0
  149.2582  141.3740  153.2455 O   0  0  0  0  0  0  0  0  0  0  0  0
  148.6305  140.3235  155.3354 C   0  0  0  0  0  0  0  0  0  0  0  0
  148.6950  138.8567  154.8743 C   0  0  0  0  0  0  0  0  0  0  0  0
  146.3264  132.0731  155.3837 H   0  0  0  0  0  0  0  0  0  0  0  0
  146.5497  133.7148  155.9737 H   0  0  0  0  0  0  0  0  0  0  0  0
  147.8990  132.8530  155.2362 H   0  0  0  0  0  0  0  0  0  0  0  0
  145.3334  133.7068  153.8188 H   0  0  0  0  0  0  0  0  0  0  0  0
  147.7946  132.7318  152.3330 H   0  0  0  0  0  0  0  0  0  0  0  0
  146.7184  131.5536  153.0472 H   0  0  0  0  0  0  0  0  0  0  0  0
  146.6838  131.2604  150.1364 H   0  0  0  0  0  0  0  0  0  0  0  0
  144.5662  132.0601  148.6113 H   0  0  0  0  0  0  0  0  0  0  0  0
  143.3097  133.9318  150.2235 H   0  0  0  0  0  0  0  0  0  0  0  0
  147.7408  134.9031  152.8292 H   0  0  0  0  0  0  0  0  0  0  0  0
  148.1158  136.8656  152.9870 H   0  0  0  0  0  0  0  0  0  0  0  0
  146.5892  138.4533  154.9905 H   0  0  0  0  0  0  0  0  0  0  0  0
  147.7166  139.2413  152.2553 H   0  0  0  0  0  0  0  0  0  0  0  0
  146.0267  139.0467  152.6408 H   0  0  0  0  0  0  0  0  0  0  0  0
  146.6839  141.4528  152.6640 H   0  0  0  0  0  0  0  0  0  0  0  0
  146.0891  140.9218  154.2142 H   0  0  0  0  0  0  0  0  0  0  0  0
  148.0662  142.2749  154.6067 H   0  0  0  0  0  0  0  0  0  0  0  0
  149.1764  140.6565  152.6359 H   0  0  0  0  0  0  0  0  0  0  0  0
  149.5909  140.6275  155.7533 H   0  0  0  0  0  0  0  0  0  0  0  0
  147.9068  140.4060  156.1471 H   0  0  0  0  0  0  0  0  0  0  0  0
  148.9320  138.2174  155.7255 H   0  0  0  0  0  0  0  0  0  0  0  0
  149.5129  138.7355  154.1626 H   0  0  0  0  0  0  0  0  0  0  0  0
  1  2  1  0  0  0  0
  1 20  1  0  0  0  0
  1 21  1  0  0  0  0
  1 22  1  0  0  0  0
  2  3  1  0  0  0  0
  2  9  1  0  0  0  0
  2 23  1  0  0  0  0
  3  4  1  0  0  0  0
  3 24  1  0  0  0  0
  3 25  1  0  0  0  0
  4  8  1  0  0  0  0
  4  5  1  0  0  0  0
  5  6  2  0  0  0  0
  5 26  1  0  0  0  0
  6  7  1  0  0  0  0
  6 27  1  0  0  0  0
  7  8  2  0  0  0  0
  7 28  1  0  0  0  0
  9 10  1  0  0  0  0
  9 29  1  0  0  0  0
 10 11  2  0  0  0  0
 10 12  1  0  0  0  0
 12 13  1  0  0  0  0
 12 30  1  0  0  0  0
 13 19  1  0  0  0  0
 13 14  1  0  0  0  0
 13 31  1  0  0  0  0
 14 15  1  0  0  0  0
 14 32  1  0  0  0  0
 14 33  1  0  0  0  0
 15 16  1  0  0  0  0
 15 34  1  0  0  0  0
 15 35  1  0  0  0  0
 16 17  1  0  0  0  0
 16 18  1  0  0  0  0
 16 36  1  0  0  0  0
 17 37  1  0  0  0  0
 18 19  1  0  0  0  0
 18 38  1  0  0  0  0
 18 39  1  0  0  0  0
 19 40  1  0  0  0  0
 19 41  1  0  0  0  0
M  END
> <s_m_source_file>
AV-unprocessed.smi

> <i_m_source_file_index>
1670

> <i_lp_mmshare_version>
43012

> <i_f3d_flags>
0

> <s_epik_input>
bjFbY0hdW2NIXVtjSF1uMVtDSDJdW0NAQEhdKFtDSDNdKVtOSF1DKD1PKVtOSF1bQ0BASF0yW0NIMl1bQ0gyXVtDQEBIXShbT0hdKVtDSDJdW0NIMl0y

> <s_epik_cmdline>
J2VwaWtfcHl0aG9uJywgJy1waCcsICc3LjAnLCAnLXRuJywgJzgnLCAnLW1hJywgJzIwMCcsICctbWV0YWxfYmluZGluZycsICctaW1hZScsICc8aW5maWxlLm1hZT4nLCAnLW9tYWUnLCAnPG91dGZpbGUubWFlPic=

> <r_lp_tautomer_probability>
1

> <r_epik_Ionization_Penalty>
7.33369e-05

> <r_epik_Ionization_Penalty_Charging>
0

> <r_epik_Ionization_Penalty_Neutral>
7.33369e-05

> <r_epik_State_Penalty>
-0

> <r_epik_Charging_Adjusted_Penalty>
0

> <i_epik_Tot_Q>
0

> <i_epik_Tot_abs_Q>
0

> <r_epik_Metal_State_Penalty>
-0

> <b_epik_Metal_Only>
0

> <s_lp_Force_Field>
OPLS_2005

> <r_lp_Energy>
7.35879

> <b_lp_Chiralities_Consistent>
1

> <s_lp_Variant>
AV-unprocessed.smi:1670-3

> <Gold.Version>
5.8.1

> <Gold.Id.Protein>
6NUR|6NUR_protein|mol2

> <Gold.PLP.Fitness>
45.2486

> <Gold.PLP.PLP>
-29.0465

> <Gold.PLP.part.hbond>
-4.5660

> <Gold.PLP.part.metal>
0.0000

> <Gold.PLP.part.buried>
-4.2099

> <Gold.PLP.part.nonpolar>
-20.7887

> <Gold.PLP.part.repulsive>
0.1254

> <Gold.PLP.ligand.clash>
0.0000

> <Gold.PLP.ligand.torsion>
0.4665

> <Gold.PLP.Chemscore.Hbond>
3.7062

> <Gold.PLP.Chemscore.CHOScore>
2.0000

> <Gold.PLP.Chemscore.Metal>
0.0000

> <Gold.Chemscore.Hbonds>
donor molecule, donor type, donor heavy atom, donor atom, acceptor molecule, acceptor atom, score
      L1  H     9    29       P1  7948  0.85
      L1  H    12    30       P1  7948  1.00
      L1  H    17    37       P1  7957  0.91
      P1  H  8011  8017       L1    17  0.83
      L1  C     5    26       P1 10747  1.00
      L1  C     7    28       P1 10186  1.00

> <Gold.PLP.Chemscore.Internal.Correction>
0.0166

> <Gold.Rescore>
     Score         DG    S(hbond)    S(metal)    S(lipo)     H(rot)  DE(clash)    DE(int)     intcor
     17.58     -18.04       2.97        0.00      71.12       2.22       0.13       0.33       ----

> <Gold.Chemscore.Fitness>
17.5774

> <Gold.Chemscore.DG>
-18.0405

> <Gold.Chemscore.ZeroCoef>
-5.4800

> <Gold.Chemscore.Hbond>
2.9727

> <Gold.Chemscore.Metal>
0.0000

> <Gold.Chemscore.Lipo>
71.1197

> <Gold.Chemscore.Internal_Hbond>
0.0000

> <Gold.Chemscore.DEClash>
0.1350

> <Gold.Chemscore.DEInternal>
0.3281

> <Gold.Chemscore.Rot>
2.2224

> <Gold.Chemscore.Internal.Correction>
   9.000000E+99

> <Gold.Chemscore.Hbonds>
donor molecule, donor type, donor heavy atom, donor atom, acceptor molecule, acceptor atom, score
      L1  H     9    29       P1  7948  0.78
      L1  H    12    30       P1  7948  0.93
      L1  H    17    37       P1  7957  0.89
      P1  H  8011  8017       L1    17  0.18

> <Gold.Chemscore.Hbond.Weighted>
-9.9288

> <Gold.Chemscore.Metal.Weighted>
-0.0000

> <Gold.Chemscore.Lipo.Weighted>
-8.3210

> <Gold.Chemscore.Internal_Hbond.Weighted>
0.0000

> <Gold.Chemscore.DEClash.Weighted>
0.1350

> <Gold.Chemscore.DEInternal.Weighted>
0.3281

> <Gold.Chemscore.Rot.Weighted>
5.6893

> <Gold.Chemscore.Internal.Correction.Weighted>
   9.000000E+99

> <Gold.Protein.RotatedTorsions>
[ 6907 6896 6895 6894 ] final -166.61 input  -60.11 | X-H torsion
[ 7974 7965 7964 7962 ] final -120.32 input  175.53 | X-H torsion
[ 8008 7997 7996 7995 ] final -167.34 input   59.86 | X-H torsion
[ 10167 10162 10161 10158 ] final   32.25 input  -65.29 | X-H torsion
[ 10718 10713 10712 10709 ] final -118.24 input   66.30 | X-H torsion
[ 10763 10752 10751 10750 ] final  152.85 input  -60.55 | X-H torsion
[ 11005 11000 10999 10996 ] final -162.64 input  -57.11 | X-H torsion

> <Gold.Protein.ActiveResidues>
 VAL166  LYS551  ARG553  GLY616  TRP617  ASP618  TYR619  PRO620  LYS621  CYS622 
 ASP623  PHE694  ASN695  SER759  ASP760  ASP761  ALA762  ILE779  LEU786  VAL792 
 PHE793  MET794  SER795  GLU796  ALA797  LYS798  CYS799  TRP800  GLU811  SER814 

> <Gold.Protein.RotatedAtoms>
  151.4464  133.3629  159.2788 H   0  0  0  0  0  0  0  0  0  0  0  0  # atno 6907 bound_to 6896
  150.9121  134.8540  159.7443 H   0  0  0  0  0  0  0  0  0  0  0  0  # atno 6908 bound_to 6896
  152.4938  134.4395  159.9590 H   0  0  0  0  0  0  0  0  0  0  0  0  # atno 6909 bound_to 6896
  145.0527  140.8230  143.4200 H   0  0  0  0  0  0  0  0  0  0  0  0  # atno 7974 bound_to 7965
  155.8764  140.1001  157.1515 H   0  0  0  0  0  0  0  0  0  0  0  0  # atno 8008 bound_to 7997
  154.4001  140.1337  156.4205 H   0  0  0  0  0  0  0  0  0  0  0  0  # atno 8009 bound_to 7997
  155.7693  140.3461  155.5241 H   0  0  0  0  0  0  0  0  0  0  0  0  # atno 8010 bound_to 7997
  140.4516  144.1040  150.6193 H   0  0  0  0  0  0  0  0  0  0  0  0  # atno 10167 bound_to 10162
  156.1092  130.6235  150.9265 H   0  0  0  0  0  0  0  0  0  0  0  0  # atno 10718 bound_to 10713
  154.1266  135.2829  155.3195 H   0  0  0  0  0  0  0  0  0  0  0  0  # atno 10763 bound_to 10752
  154.6385  135.5410  153.7765 H   0  0  0  0  0  0  0  0  0  0  0  0  # atno 10764 bound_to 10752
  153.0295  135.6480  154.1418 H   0  0  0  0  0  0  0  0  0  0  0  0  # atno 10765 bound_to 10752
  140.6070  134.4889  157.5211 H   0  0  0  0  0  0  0  0  0  0  0  0  # atno 11005 bound_to 11000
  145.1507  139.2516  143.5442 LP  0  0  0  0  0  0  0  0  0  0  0  0  # atno 17320 bound_to 7965
  146.3519  140.1209  142.8600 LP  0  0  0  0  0  0  0  0  0  0  0  0  # atno 17321 bound_to 7965
  140.4201  143.2616  151.9726 LP  0  0  0  0  0  0  0  0  0  0  0  0  # atno 17342 bound_to 10162
  139.4797  144.5839  151.7887 LP  0  0  0  0  0  0  0  0  0  0  0  0  # atno 17343 bound_to 10162
  157.6271  131.0924  150.8512 LP  0  0  0  0  0  0  0  0  0  0  0  0  # atno 17370 bound_to 10713
  156.8626  130.5118  149.5302 LP  0  0  0  0  0  0  0  0  0  0  0  0  # atno 17371 bound_to 10713
  139.9208  134.8152  156.1217 LP  0  0  0  0  0  0  0  0  0  0  0  0  # atno 17394 bound_to 11000
  141.0834  133.6744  156.2384 LP  0  0  0  0  0  0  0  0  0  0  0  0  # atno 17395 bound_to 11000

$$$$
