#       Name:                AV-unprocessed.smi:1582
#       Creating user name   scv26
#       Creation time:       Fri Mar 27 06:58:47 2020


#       File generated by GOLD software.
#

@<TRIPOS>MOLECULE
AV-unprocessed.smi:1582
    46    47     1
SMALL
NO_CHARGES


@<TRIPOS>ATOM
      1 ****        -2.0827  -0.2384   2.1767 O.2            1 S1                 0.0000
      2 ****        -2.5655   0.1728   1.1221 C.2            1 S1                 0.0000
      3 ****        -2.5577  -0.5305  -0.0190 N.am           1 S1                 0.0000
      4 ****        -2.0277  -1.8823  -0.1711 C.3            1 S1                 0.0000
      5 ****        -0.4862  -1.9390  -0.1214 C.3            1 S1                 0.0000
      6 ****        -0.1020  -3.2873  -0.3017 O.3            1 S1                 0.0000
      7 ****         0.1937  -1.0816  -1.2110 C.3            1 S1                 0.0000
      8 ****         1.6748  -1.0809  -1.0929 N.4            1 S1                 1.0000
      9 ****         2.3420  -0.7974  -2.3904 C.3            1 S1                 0.0000
     10 ****         3.8687  -0.9447  -2.2765 C.3            1 S1                 0.0000
     11 ****         4.4280  -0.0441  -1.1678 C.3            1 S1                 0.0000
     12 ****         3.7031  -0.3302   0.1536 C.3            1 S1                 0.0000
     13 ****         2.1801  -0.1916  -0.0117 C.3            1 S1                 0.0000
     14 ****        -3.1602   1.3651   0.9561 N.am           1 S1                 0.0000
     15 ****        -3.3718   2.3626   1.9405 C.2            1 S1                 0.0000
     16 ****        -2.9817   2.3747   3.3121 C.2            1 S1                 0.0000
     17 ****        -3.3662   3.4936   3.9100 N.2            1 S1                 0.0000
     18 ****        -3.9951   4.1926   2.9384 N.pl3          1 S1                 0.0000
     19 ****        -4.0208   3.5415   1.7248 C.2            1 S1                 0.0000
     20 ****        -4.3968   5.1021   3.1179 H              1 S1                 0.0000
     21 ****        -2.9808  -0.1135  -0.8354 H              1 S1                 0.0000
     22 ****        -2.4554  -2.5232   0.6021 H              1 S1                 0.0000
     23 ****        -2.3848  -2.2723  -1.1250 H              1 S1                 0.0000
     24 ****        -0.1548  -1.6323   0.8698 H              1 S1                 0.0000
     25 ****        -0.4692  -3.6026  -1.1137 H              1 S1                 0.0000
     26 ****        -0.1014  -1.4700  -2.1870 H              1 S1                 0.0000
     27 ****        -0.1607  -0.0505  -1.1777 H              1 S1                 0.0000
     28 ****         1.9751  -1.4866  -3.1520 H              1 S1                 0.0000
     29 ****         2.0827   0.2097  -2.7216 H              1 S1                 0.0000
     30 ****         4.1213  -1.9848  -2.0662 H              1 S1                 0.0000
     31 ****         4.3392  -0.6985  -3.2289 H              1 S1                 0.0000
     32 ****         5.5001  -0.2069  -1.0536 H              1 S1                 0.0000
     33 ****         4.2978   1.0039  -1.4416 H              1 S1                 0.0000
     34 ****         3.9444  -1.3382   0.4939 H              1 S1                 0.0000
     35 ****         4.0580   0.3507   0.9280 H              1 S1                 0.0000
     36 ****         1.9219   0.8438  -0.2394 H              1 S1                 0.0000
     37 ****         1.7011  -0.4322   0.9366 H              1 S1                 0.0000
     38 ****        -3.5155   1.5742   0.0346 H              1 S1                 0.0000
     39 ****        -2.4463   1.6345   3.8878 H              1 S1                 0.0000
     40 ****        -4.4850   3.9619   0.8448 H              1 S1                 0.0000
     41 ****         1.9361  -2.0248  -0.8439 H              1 S1                 0.0000
     42 ****        -1.6556  -1.1419   2.2123 LP             1 S1                 0.0000
     43 ****        -2.1175   0.3310   2.9980 LP             1 S1                 0.0000
     44 ****        -0.4446  -3.8390   0.4587 LP             1 S1                 0.0000
     45 ****         0.8954  -3.3508  -0.3368 LP             1 S1                 0.0000
     46 ****        -3.2235   3.7602   4.8632 LP             1 S1                 0.0000
@<TRIPOS>BOND
    1    1    2 2     
    2    2    3 am    
    3    2   14 am    
    4    3    4 1     
    5    3   21 1     
    6    4    5 1     
    7    4   22 1     
    8    4   23 1     
    9    5    6 1     
   10    5    7 1     
   11    5   24 1     
   12    6   25 1     
   13    7    8 1     
   14    7   26 1     
   15    7   27 1     
   16    8   13 1     
   17    8    9 1     
   18    8   41 1     
   19    9   10 1     
   20    9   28 1     
   21    9   29 1     
   22   10   11 1     
   23   10   30 1     
   24   10   31 1     
   25   11   12 1     
   26   11   32 1     
   27   11   33 1     
   28   12   13 1     
   29   12   34 1     
   30   12   35 1     
   31   13   36 1     
   32   13   37 1     
   33   14   15 1     
   34   14   38 1     
   35   15   19 2     
   36   15   16 1     
   37   16   17 2     
   38   16   39 1     
   39   17   18 1     
   40   18   20 1     
   41   18   19 1     
   42   19   40 1     
   43    1   42 1     
   44    1   43 1     
   45    6   44 1     
   46    6   45 1     
   47   17   46 1     
@<TRIPOS>SUBSTRUCTURE
      1 S1             1
@<TRIPOS>SET
LONE_PAIRS      STATIC     ATOMS    <user>   **** ""
5 42 43 44 45 46
DONOR_HYDROGENS      STATIC     ATOMS    <user>   **** ""
5 21 25 41 38 20
ATOM$BLUE        STATIC     ATOMS    COLORGROUP SYSTEM
5 42 43 44 45 46
ATOM$RED        STATIC     ATOMS    COLORGROUP SYSTEM
5 21 25 41 38 20
