AV-unprocessed.smi:2397|AV-procd|sdf|9495|dock5
  -GOLD-   2272013123D 1   1.00000     0.00000
 Structure written by MMmdl.
 37 38  0  0  0  0  0  0  0  0  2 V2000
  147.9482  142.4384  157.5126 C   0  0  0  0  0  0  0  0  0  0  0  0
  149.4003  141.9432  157.4290 C   0  0  0  0  0  0  0  0  0  0  0  0
  149.5453  140.4482  157.7513 C   0  0  0  0  0  0  0  0  0  0  0  0
  150.3386  142.7995  158.2666 C   0  0  0  0  0  0  0  0  0  0  0  0
  150.4664  144.1040  157.9774 N   0  3  0  0  0  0  0  0  0  0  0  0
  151.2916  144.8786  158.7224 C   0  0  0  0  0  0  0  0  0  0  0  0
  152.0101  144.3248  159.7981 C   0  0  0  0  0  0  0  0  0  0  0  0
  151.8280  142.9521  160.0543 C   0  0  0  0  0  0  0  0  0  0  0  0
  152.5215  142.3309  161.1156 N   0  0  0  0  0  0  0  0  0  0  0  0
  152.6608  143.2502  162.2447 C   0  0  0  0  0  0  0  0  0  0  0  0
  153.2738  142.5421  163.4602 C   0  0  0  0  0  0  0  0  0  0  0  0
  154.5189  141.9747  163.0825 O   0  0  0  0  0  0  0  0  0  0  0  0
  154.3525  140.9748  162.0859 C   0  0  0  0  0  0  0  0  0  0  0  0
  153.7508  141.5794  160.7945 C   0  0  1  0  0  0  0  0  0  0  0  0
  153.6001  140.4333  159.7723 C   0  0  0  0  0  0  0  0  0  0  0  0
  153.1614  140.7288  158.5441 N   0  0  0  0  0  0  0  0  0  0  0  0
  153.8985  139.2851  160.0919 O   0  0  0  0  0  0  0  0  0  0  0  0
  151.0019  142.2178  159.2748 N   0  0  0  0  0  0  0  0  0  0  0  0
  147.8720  143.4821  157.2065 H   0  0  0  0  0  0  0  0  0  0  0  0
  147.5574  142.3597  158.5279 H   0  0  0  0  0  0  0  0  0  0  0  0
  147.2964  141.8553  156.8616 H   0  0  0  0  0  0  0  0  0  0  0  0
  149.7054  142.0627  156.3880 H   0  0  0  0  0  0  0  0  0  0  0  0
  150.5744  140.1150  157.6134 H   0  0  0  0  0  0  0  0  0  0  0  0
  148.9131  139.8432  157.1006 H   0  0  0  0  0  0  0  0  0  0  0  0
  149.2600  140.2328  158.7816 H   0  0  0  0  0  0  0  0  0  0  0  0
  151.3473  145.9183  158.4350 H   0  0  0  0  0  0  0  0  0  0  0  0
  152.6673  144.9326  160.4033 H   0  0  0  0  0  0  0  0  0  0  0  0
  153.2940  144.0891  161.9499 H   0  0  0  0  0  0  0  0  0  0  0  0
  151.6943  143.6671  162.5302 H   0  0  0  0  0  0  0  0  0  0  0  0
  153.4400  143.2562  164.2668 H   0  0  0  0  0  0  0  0  0  0  0  0
  152.6045  141.7722  163.8483 H   0  0  0  0  0  0  0  0  0  0  0  0
  155.3298  140.5353  161.8815 H   0  0  0  0  0  0  0  0  0  0  0  0
  153.7243  140.1721  162.4775 H   0  0  0  0  0  0  0  0  0  0  0  0
  154.4803  142.2859  160.3936 H   0  0  0  0  0  0  0  0  0  0  0  0
  153.0743  140.0002  157.8508 H   0  0  0  0  0  0  0  0  0  0  0  0
  152.9388  141.6856  158.3091 H   0  0  0  0  0  0  0  0  0  0  0  0
  149.9475  144.5185  157.2028 H   0  0  0  0  0  0  0  0  0  0  0  0
  1  2  1  0  0  0  0
  1 19  1  0  0  0  0
  1 20  1  0  0  0  0
  1 21  1  0  0  0  0
  2  3  1  0  0  0  0
  2  4  1  0  0  0  0
  2 22  1  0  0  0  0
  3 23  1  0  0  0  0
  3 24  1  0  0  0  0
  3 25  1  0  0  0  0
  4 18  1  0  0  0  0
  4  5  2  0  0  0  0
  5  6  1  0  0  0  0
  5 37  1  0  0  0  0
  6  7  2  0  0  0  0
  6 26  1  0  0  0  0
  7  8  1  0  0  0  0
  7 27  1  0  0  0  0
  8  9  1  0  0  0  0
  8 18  2  0  0  0  0
  9 14  1  0  0  0  0
  9 10  1  0  0  0  0
 10 11  1  0  0  0  0
 10 28  1  0  0  0  0
 10 29  1  0  0  0  0
 11 12  1  0  0  0  0
 11 30  1  0  0  0  0
 11 31  1  0  0  0  0
 12 13  1  0  0  0  0
 13 14  1  0  0  0  0
 13 32  1  0  0  0  0
 13 33  1  0  0  0  0
 14 15  1  0  0  0  0
 14 34  1  0  0  0  0
 15 16  1  0  0  0  0
 15 17  2  0  0  0  0
 16 35  1  0  0  0  0
 16 36  1  0  0  0  0
M  CHG  1   5   1
M  END
> <s_m_source_file>
AV-unprocessed.smi

> <i_m_source_file_index>
2397

> <i_lp_mmshare_version>
43012

> <i_f3d_flags>
0

> <s_epik_input>
W0NIM11bQ0hdKFtDSDNdKWMxbltjSF1bY0hdYyhuMSlOMltDSDJdW0NIMl1PW0NIMl1bQ0BIXTJDKD1PKVtOSDJd

> <s_epik_cmdline>
J2VwaWtfcHl0aG9uJywgJy1waCcsICc3LjAnLCAnLXRuJywgJzgnLCAnLW1hJywgJzIwMCcsICctbWV0YWxfYmluZGluZycsICctaW1hZScsICc8aW5maWxlLm1hZT4nLCAnLW9tYWUnLCAnPG91dGZpbGUubWFlPic=

> <r_lp_tautomer_probability>
0.999336

> <r_epik_Ionization_Penalty>
1.74009

> <r_epik_Ionization_Penalty_Charging>
1.74009

> <r_epik_Ionization_Penalty_Neutral>
2.46902e-07

> <r_epik_State_Penalty>
1.8491

> <r_epik_Charging_Adjusted_Penalty>
3.5892

> <i_epik_Tot_Q>
1

> <i_epik_Tot_abs_Q>
1

> <r_epik_Metal_State_Penalty>
1.87997

> <b_epik_Metal_Only>
0

> <s_lp_Force_Field>
OPLS_2005

> <r_lp_Energy>
12.3684

> <b_lp_Chiralities_Consistent>
1

> <s_lp_Variant>
AV-unprocessed.smi:2397-3

> <Gold.Version>
5.8.1

> <Gold.Id.Protein>
6NUR|6NUR_protein|mol2

> <Gold.PLP.Fitness>
42.5078

> <Gold.PLP.PLP>
-37.7196

> <Gold.PLP.part.hbond>
-3.2565

> <Gold.PLP.part.metal>
0.0000

> <Gold.PLP.part.buried>
-3.4039

> <Gold.PLP.part.nonpolar>
-29.9425

> <Gold.PLP.part.repulsive>
0.1914

> <Gold.PLP.ligand.clash>
0.0000

> <Gold.PLP.ligand.torsion>
0.7411

> <Gold.PLP.Chemscore.Hbond>
2.0000

> <Gold.PLP.Chemscore.CHOScore>
0.0000

> <Gold.PLP.Chemscore.Metal>
0.0000

> <Gold.Chemscore.Hbonds>
donor molecule, donor type, donor heavy atom, donor atom, acceptor molecule, acceptor atom, score
      L1  H     5    37       P1  8028  2.00

> <Gold.PLP.Chemscore.Internal.Correction>
0.2704

> <Gold.Rescore>
     Score         DG    S(hbond)    S(metal)    S(lipo)     H(rot)  DE(clash)    DE(int)     intcor
      8.98     -13.38       0.94        0.00      79.47       1.77       1.29       3.12       ----

> <Gold.Chemscore.Fitness>
8.9757

> <Gold.Chemscore.DG>
-13.3767

> <Gold.Chemscore.ZeroCoef>
-5.4800

> <Gold.Chemscore.Hbond>
0.9385

> <Gold.Chemscore.Metal>
0.0000

> <Gold.Chemscore.Lipo>
79.4694

> <Gold.Chemscore.Internal_Hbond>
0.0000

> <Gold.Chemscore.DEClash>
1.2852

> <Gold.Chemscore.DEInternal>
3.1158

> <Gold.Chemscore.Rot>
1.7717

> <Gold.Chemscore.Internal.Correction>
   9.000000E+99

> <Gold.Chemscore.Hbonds>
donor molecule, donor type, donor heavy atom, donor atom, acceptor molecule, acceptor atom, score
      L1  H     5    37       P1  8028  0.35

> <Gold.Chemscore.Hbond.Weighted>
-3.1345

> <Gold.Chemscore.Metal.Weighted>
-0.0000

> <Gold.Chemscore.Lipo.Weighted>
-9.2979

> <Gold.Chemscore.Internal_Hbond.Weighted>
0.0000

> <Gold.Chemscore.DEClash.Weighted>
1.2852

> <Gold.Chemscore.DEInternal.Weighted>
3.1158

> <Gold.Chemscore.Rot.Weighted>
4.5357

> <Gold.Chemscore.Internal.Correction.Weighted>
   9.000000E+99

> <Gold.Protein.RotatedTorsions>
[ 6907 6896 6895 6894 ] final -126.08 input  -60.11 | X-H torsion
[ 7974 7965 7964 7962 ] final   87.60 input  175.53 | X-H torsion
[ 8008 7997 7996 7995 ] final  129.73 input   59.86 | X-H torsion
[ 10167 10162 10161 10158 ] final  144.97 input  -65.29 | X-H torsion
[ 10718 10713 10712 10709 ] final  131.87 input   66.30 | X-H torsion
[ 10763 10752 10751 10750 ] final  143.24 input  -60.55 | X-H torsion
[ 11005 11000 10999 10996 ] final   92.65 input  -57.11 | X-H torsion

> <Gold.Protein.ActiveResidues>
 VAL166  LYS551  ARG553  GLY616  TRP617  ASP618  TYR619  PRO620  LYS621  CYS622 
 ASP623  PHE694  ASN695  SER759  ASP760  ASP761  ALA762  ILE779  LEU786  VAL792 
 PHE793  MET794  SER795  GLU796  ALA797  LYS798  CYS799  TRP800  GLU811  SER814 

> <Gold.Protein.RotatedAtoms>
  150.8933  133.7214  159.2898 H   0  0  0  0  0  0  0  0  0  0  0  0  # atno 6907 bound_to 6896
  151.4757  135.1047  159.9773 H   0  0  0  0  0  0  0  0  0  0  0  0  # atno 6908 bound_to 6896
  152.4833  133.8262  159.7135 H   0  0  0  0  0  0  0  0  0  0  0  0  # atno 6909 bound_to 6896
  145.5569  139.2300  143.2481 H   0  0  0  0  0  0  0  0  0  0  0  0  # atno 7974 bound_to 7965
  156.2942  140.2613  156.2647 H   0  0  0  0  0  0  0  0  0  0  0  0  # atno 8008 bound_to 7997
  154.9754  140.0390  157.2272 H   0  0  0  0  0  0  0  0  0  0  0  0  # atno 8009 bound_to 7997
  154.7820  140.2797  155.6061 H   0  0  0  0  0  0  0  0  0  0  0  0  # atno 8010 bound_to 7997
  139.4936  144.5935  151.6632 H   0  0  0  0  0  0  0  0  0  0  0  0  # atno 10167 bound_to 10162
  157.4926  131.1091  150.9536 H   0  0  0  0  0  0  0  0  0  0  0  0  # atno 10718 bound_to 10713
  153.9691  135.2952  155.3428 H   0  0  0  0  0  0  0  0  0  0  0  0  # atno 10763 bound_to 10752
  154.7332  135.5058  153.9002 H   0  0  0  0  0  0  0  0  0  0  0  0  # atno 10764 bound_to 10752
  153.0909  135.6707  153.9968 H   0  0  0  0  0  0  0  0  0  0  0  0  # atno 10765 bound_to 10752
  139.8820  134.8745  156.3604 H   0  0  0  0  0  0  0  0  0  0  0  0  # atno 11005 bound_to 11000
  146.1878  140.6393  142.9159 LP  0  0  0  0  0  0  0  0  0  0  0  0  # atno 17320 bound_to 7965
  144.7502  140.5171  143.6807 LP  0  0  0  0  0  0  0  0  0  0  0  0  # atno 17321 bound_to 7965
  140.5567  144.0336  150.6151 LP  0  0  0  0  0  0  0  0  0  0  0  0  # atno 17342 bound_to 10162
  140.3409  143.3020  152.0590 LP  0  0  0  0  0  0  0  0  0  0  0  0  # atno 17343 bound_to 10162
  157.0232  130.5682  149.5334 LP  0  0  0  0  0  0  0  0  0  0  0  0  # atno 17370 bound_to 10713
  156.0182  130.5277  150.8198 LP  0  0  0  0  0  0  0  0  0  0  0  0  # atno 17371 bound_to 10713
  140.9533  133.7436  156.0301 LP  0  0  0  0  0  0  0  0  0  0  0  0  # atno 17394 bound_to 11000
  140.8079  134.3433  157.5420 LP  0  0  0  0  0  0  0  0  0  0  0  0  # atno 17395 bound_to 11000

$$$$
