#       Name:                AV-unprocessed.smi:2124
#       Creating user name   scv26
#       Creation time:       Fri Mar 27 11:40:10 2020


#       File generated by GOLD software.
#

@<TRIPOS>MOLECULE
AV-unprocessed.smi:2124
    52    54     1
SMALL
NO_CHARGES


@<TRIPOS>ATOM
      1 ****        -4.4105   5.2001  -0.8031 C.3            1 S1                 0.0000
      2 ****        -3.8198   3.8073  -0.7425 C.2            1 S1                 0.0000
      3 ****        -3.4213   3.2395   0.3481 N.2            1 S1                 0.0000
      4 ****        -2.8880   1.9448   0.2775 C.2            1 S1                 0.0000
      5 ****        -2.4332   1.3485   1.5986 C.3            1 S1                 0.0000
      6 ****        -2.7880   1.2758  -0.9084 C.2            1 S1                 0.0000
      7 ****        -2.2075  -0.1335  -1.0205 C.3            1 S1                 0.0000
      8 ****        -0.6814  -0.2336  -1.0885 C.2            1 S1                 0.0000
      9 ****         0.0094   0.7824  -1.1695 O.2            1 S1                 0.0000
     10 ****        -0.1763  -1.4780  -1.0464 N.am           1 S1                 0.0000
     11 ****         1.2366  -1.8687  -1.0603 C.3            1 S1                 0.0000
     12 ****         1.8905  -1.4912  -2.4047 C.3            1 S1                 0.0000
     13 ****         2.0066  -1.3275   0.1762 C.3            1 S1                 0.0000
     14 ****         1.3357  -1.6640   1.5324 C.3            1 S1                 0.0000
     15 ****         2.4654  -2.3372   2.3309 C.3            1 S1                 0.0000
     16 ****         3.5377  -1.2927   2.6897 C.3            1 S1                 0.0000
     17 ****         4.2209  -1.0317   1.3345 C.3            1 S1                 0.0000
     18 ****         3.4210  -1.9299   0.3711 C.3            1 S1                 0.0000
     19 ****         3.1601  -3.1508   1.2477 C.3            1 S1                 0.0000
     20 ****        -3.2452   1.9339  -2.1472 C.2            1 S1                 0.0000
     21 ****        -3.1934   1.4265  -3.2666 O.2            1 S1                 0.0000
     22 ****        -3.7412   3.1809  -1.9852 N.am           1 S1                 0.0000
     23 ****        -4.0646   3.6750  -2.8040 H              1 S1                 0.0000
     24 ****        -3.6957   5.9280  -0.4189 H              1 S1                 0.0000
     25 ****        -5.3136   5.2518  -0.1946 H              1 S1                 0.0000
     26 ****        -4.6703   5.4835  -1.8241 H              1 S1                 0.0000
     27 ****        -3.0477   0.4869   1.8601 H              1 S1                 0.0000
     28 ****        -2.5125   2.0743   2.4087 H              1 S1                 0.0000
     29 ****        -1.3927   1.0286   1.5405 H              1 S1                 0.0000
     30 ****        -2.5434  -0.7162  -0.1624 H              1 S1                 0.0000
     31 ****        -2.6262  -0.6479  -1.8862 H              1 S1                 0.0000
     32 ****        -0.8398  -2.2367  -0.9848 H              1 S1                 0.0000
     33 ****         1.2275  -2.9574  -1.0032 H              1 S1                 0.0000
     34 ****         2.8735  -1.9468  -2.5157 H              1 S1                 0.0000
     35 ****         2.0168  -0.4131  -2.5053 H              1 S1                 0.0000
     36 ****         1.2849  -1.8341  -3.2442 H              1 S1                 0.0000
     37 ****         2.0954  -0.2451   0.0763 H              1 S1                 0.0000
     38 ****         0.9452  -0.7761   2.0312 H              1 S1                 0.0000
     39 ****         0.5072  -2.3628   1.4100 H              1 S1                 0.0000
     40 ****         2.1120  -2.9145   3.1858 H              1 S1                 0.0000
     41 ****         3.1049  -0.3886   3.1197 H              1 S1                 0.0000
     42 ****         4.2524  -1.6973   3.4073 H              1 S1                 0.0000
     43 ****         4.1945   0.0202   1.0480 H              1 S1                 0.0000
     44 ****         5.2666  -1.3399   1.3693 H              1 S1                 0.0000
     45 ****         3.9599  -2.1397  -0.5519 H              1 S1                 0.0000
     46 ****         4.0736  -3.6391   1.5922 H              1 S1                 0.0000
     47 ****         2.5133  -3.8953   0.7812 H              1 S1                 0.0000
     48 ****        -3.4920   3.7145   1.2253 LP             1 S1                 0.0000
     49 ****        -0.4258   1.6825  -1.1913 LP             1 S1                 0.0000
     50 ****         1.0056   0.7075  -1.2134 LP             1 S1                 0.0000
     51 ****        -2.8214   0.5054  -3.3813 LP             1 S1                 0.0000
     52 ****        -3.5232   1.9352  -4.0619 LP             1 S1                 0.0000
@<TRIPOS>BOND
    1    1    2 1     
    2    1   24 1     
    3    1   25 1     
    4    1   26 1     
    5    2   22 1     
    6    2    3 2     
    7    3    4 1     
    8    4    5 1     
    9    4    6 2     
   10    5   27 1     
   11    5   28 1     
   12    5   29 1     
   13    6    7 1     
   14    6   20 1     
   15    7    8 1     
   16    7   30 1     
   17    7   31 1     
   18    8    9 2     
   19    8   10 am    
   20   10   11 1     
   21   10   32 1     
   22   11   12 1     
   23   11   13 1     
   24   11   33 1     
   25   12   34 1     
   26   12   35 1     
   27   12   36 1     
   28   13   18 1     
   29   13   14 1     
   30   13   37 1     
   31   14   15 1     
   32   14   38 1     
   33   14   39 1     
   34   15   19 1     
   35   15   16 1     
   36   15   40 1     
   37   16   17 1     
   38   16   41 1     
   39   16   42 1     
   40   17   18 1     
   41   17   43 1     
   42   17   44 1     
   43   18   19 1     
   44   18   45 1     
   45   19   46 1     
   46   19   47 1     
   47   20   21 2     
   48   20   22 am    
   49   22   23 1     
   50    3   48 1     
   51    9   49 1     
   52    9   50 1     
   53   21   51 1     
   54   21   52 1     
@<TRIPOS>SUBSTRUCTURE
      1 S1             1
@<TRIPOS>SET
LONE_PAIRS      STATIC     ATOMS    <user>   **** ""
5 48 49 50 51 52
DONOR_HYDROGENS      STATIC     ATOMS    <user>   **** ""
2 32 23
ATOM$BLUE        STATIC     ATOMS    COLORGROUP SYSTEM
5 48 49 50 51 52
ATOM$RED        STATIC     ATOMS    COLORGROUP SYSTEM
2 32 23
