AV-unprocessed.smi:36|AV-procd|sdf|280|dock8
  -GOLD-   2262016 53D 1   1.00000     0.00000
 Structure written by MMmdl.
 64 67  0  0  0  0  0  0  0  0  1 V2000
  148.6020  132.8735  161.9066 C   0  0  0  0  0  0  0  0  0  0  0  0
  147.3713  133.7908  161.8093 C   0  0  0  0  0  0  0  0  0  0  0  0
  146.0968  132.9335  161.7309 C   0  0  0  0  0  0  0  0  0  0  0  0
  147.3065  134.7031  163.0453 C   0  0  0  0  0  0  0  0  0  0  0  0
  147.5221  134.8740  160.2376 Si  0  0  0  0  0  0  0  0  0  0  0  0
  145.9077  135.8284  159.9341 C   0  0  0  0  0  0  0  0  0  0  0  0
  148.9727  136.0946  160.3915 C   0  0  0  0  0  0  0  0  0  0  0  0
  147.7876  133.8758  158.8951 O   0  0  0  0  0  0  0  0  0  0  0  0
  149.0395  133.2933  158.5954 C   0  0  0  0  0  0  0  0  0  0  0  0
  149.1935  133.0989  157.0751 C   0  0  1  0  0  0  0  0  0  0  0  0
  149.0421  134.3805  156.4634 O   0  0  0  0  0  0  0  0  0  0  0  0
  150.2682  134.8401  155.9746 C   0  0  1  0  0  0  0  0  0  0  0  0
  150.4882  136.2248  156.4823 N   0  0  0  0  0  0  0  0  0  0  0  0
  150.6873  136.6486  157.7785 C   0  0  0  0  0  0  0  0  0  0  0  0
  150.8507  137.9362  157.9255 N   0  0  0  0  0  0  0  0  0  0  0  0
  150.7614  138.4358  156.6325 C   0  0  0  0  0  0  0  0  0  0  0  0
  150.8426  139.7372  156.0737 C   0  0  0  0  0  0  0  0  0  0  0  0
  151.0407  140.8082  156.8770 N   0  0  0  0  0  0  0  0  0  0  0  0
  152.1438  141.0543  157.7888 C   0  0  0  0  0  0  0  0  0  0  0  0
  153.0154  140.2120  158.0060 O   0  0  0  0  0  0  0  0  0  0  0  0
  152.1145  142.3657  158.5184 C   0  0  0  0  0  0  0  0  0  0  0  0
  152.6020  142.4502  159.8421 C   0  0  0  0  0  0  0  0  0  0  0  0
  152.5997  143.6817  160.5256 C   0  0  0  0  0  0  0  0  0  0  0  0
  152.1175  144.8406  159.8886 C   0  0  0  0  0  0  0  0  0  0  0  0
  151.6402  144.7679  158.5664 C   0  0  0  0  0  0  0  0  0  0  0  0
  151.6404  143.5367  157.8824 C   0  0  0  0  0  0  0  0  0  0  0  0
  150.7058  139.8490  154.7258 N   0  0  0  0  0  0  0  0  0  0  0  0
  150.5046  138.7600  153.9772 C   0  0  0  0  0  0  0  0  0  0  0  0
  150.4054  137.4866  154.3659 N   0  0  0  0  0  0  0  0  0  0  0  0
  150.5391  137.3694  155.7183 C   0  0  0  0  0  0  0  0  0  0  0  0
  151.3499  133.9014  156.5023 C   0  0  0  0  0  0  0  0  0  0  0  0
  150.5695  132.6096  156.5967 C   0  0  1  0  0  0  0  0  0  0  0  0
  151.1931  131.6765  157.4543 O   0  0  0  0  0  0  0  0  0  0  0  0
  148.5590  132.2461  162.7975 H   0  0  0  0  0  0  0  0  0  0  0  0
  149.5258  133.4502  161.9574 H   0  0  0  0  0  0  0  0  0  0  0  0
  148.6737  132.2117  161.0431 H   0  0  0  0  0  0  0  0  0  0  0  0
  146.0984  132.2956  160.8470 H   0  0  0  0  0  0  0  0  0  0  0  0
  145.2009  133.5516  161.6910 H   0  0  0  0  0  0  0  0  0  0  0  0
  146.0024  132.2858  162.6032 H   0  0  0  0  0  0  0  0  0  0  0  0
  147.2016  134.1220  163.9621 H   0  0  0  0  0  0  0  0  0  0  0  0
  146.4595  135.3867  162.9902 H   0  0  0  0  0  0  0  0  0  0  0  0
  148.2094  135.3062  163.1425 H   0  0  0  0  0  0  0  0  0  0  0  0
  145.6635  136.4819  160.7712 H   0  0  0  0  0  0  0  0  0  0  0  0
  145.0633  135.1550  159.7899 H   0  0  0  0  0  0  0  0  0  0  0  0
  145.9777  136.4542  159.0447 H   0  0  0  0  0  0  0  0  0  0  0  0
  148.8358  136.7749  161.2317 H   0  0  0  0  0  0  0  0  0  0  0  0
  149.0762  136.7055  159.4950 H   0  0  0  0  0  0  0  0  0  0  0  0
  149.9205  135.5786  160.5437 H   0  0  0  0  0  0  0  0  0  0  0  0
  149.8119  133.9750  158.9528 H   0  0  0  0  0  0  0  0  0  0  0  0
  149.1703  132.3572  159.1368 H   0  0  0  0  0  0  0  0  0  0  0  0
  148.4014  132.4412  156.7154 H   0  0  0  0  0  0  0  0  0  0  0  0
  150.2385  134.9131  154.8868 H   0  0  0  0  0  0  0  0  0  0  0  0
  150.7045  135.9715  158.6193 H   0  0  0  0  0  0  0  0  0  0  0  0
  150.3504  141.5420  156.8100 H   0  0  0  0  0  0  0  0  0  0  0  0
  152.9783  141.5702  160.3440 H   0  0  0  0  0  0  0  0  0  0  0  0
  152.9705  143.7369  161.5384 H   0  0  0  0  0  0  0  0  0  0  0  0
  152.1179  145.7853  160.4119 H   0  0  0  0  0  0  0  0  0  0  0  0
  151.2763  145.6580  158.0743 H   0  0  0  0  0  0  0  0  0  0  0  0
  151.2780  143.5055  156.8652 H   0  0  0  0  0  0  0  0  0  0  0  0
  150.4070  138.9348  152.9160 H   0  0  0  0  0  0  0  0  0  0  0  0
  152.2032  133.8589  155.8249 H   0  0  0  0  0  0  0  0  0  0  0  0
  151.6871  134.2329  157.4861 H   0  0  0  0  0  0  0  0  0  0  0  0
  150.4749  132.1705  155.6025 H   0  0  0  0  0  0  0  0  0  0  0  0
  151.3170  130.8684  156.9798 H   0  0  0  0  0  0  0  0  0  0  0  0
  1  2  1  0  0  0  0
  1 34  1  0  0  0  0
  1 35  1  0  0  0  0
  1 36  1  0  0  0  0
  2  3  1  0  0  0  0
  2  4  1  0  0  0  0
  2  5  1  0  0  0  0
  3 37  1  0  0  0  0
  3 38  1  0  0  0  0
  3 39  1  0  0  0  0
  4 40  1  0  0  0  0
  4 41  1  0  0  0  0
  4 42  1  0  0  0  0
  5  6  1  0  0  0  0
  5  7  1  0  0  0  0
  5  8  1  0  0  0  0
  6 43  1  0  0  0  0
  6 44  1  0  0  0  0
  6 45  1  0  0  0  0
  7 46  1  0  0  0  0
  7 47  1  0  0  0  0
  7 48  1  0  0  0  0
  8  9  1  0  0  0  0
  9 10  1  0  0  0  0
  9 49  1  0  0  0  0
  9 50  1  0  0  0  0
 10 32  1  0  0  0  0
 10 11  1  0  0  0  0
 10 51  1  0  0  0  0
 11 12  1  0  0  0  0
 12 13  1  0  0  0  0
 12 31  1  0  0  0  0
 12 52  1  0  0  0  0
 13 30  1  0  0  0  0
 13 14  1  0  0  0  0
 14 15  2  0  0  0  0
 14 53  1  0  0  0  0
 15 16  1  0  0  0  0
 16 30  2  0  0  0  0
 16 17  1  0  0  0  0
 17 18  1  0  0  0  0
 17 27  2  0  0  0  0
 18 19  1  0  0  0  0
 18 54  1  0  0  0  0
 19 20  2  0  0  0  0
 19 21  1  0  0  0  0
 21 26  1  0  0  0  0
 21 22  2  0  0  0  0
 22 23  1  0  0  0  0
 22 55  1  0  0  0  0
 23 24  2  0  0  0  0
 23 56  1  0  0  0  0
 24 25  1  0  0  0  0
 24 57  1  0  0  0  0
 25 26  2  0  0  0  0
 25 58  1  0  0  0  0
 26 59  1  0  0  0  0
 27 28  1  0  0  0  0
 28 29  2  0  0  0  0
 28 60  1  0  0  0  0
 29 30  1  0  0  0  0
 31 32  1  0  0  0  0
 31 61  1  0  0  0  0
 31 62  1  0  0  0  0
 32 33  1  0  0  0  0
 32 63  1  0  0  0  0
 33 64  1  0  0  0  0
M  END
> <s_m_source_file>
AV-unprocessed.smi

> <i_m_source_file_index>
36

> <i_lp_mmshare_version>
43012

> <i_f3d_flags>
0

> <s_epik_input>
W0NIM11DKFtDSDNdKShbQ0gzXSlbU2ldKFtDSDNdKShbQ0gzXSlPW0NIMl1bQ0BASF0xT1tDQEhdKFtDSDJdW0NASF0xW09IXSluKFtjSF1uMiljKGMyMyluW2NIXW5jM1tOSF1DKD1PKWM0W2NIXVtjSF1bY0hdW2NIXVtjSF00

> <s_epik_cmdline>
J2VwaWtfcHl0aG9uJywgJy1waCcsICc3LjAnLCAnLXRuJywgJzgnLCAnLW1hJywgJzIwMCcsICctbWV0YWxfYmluZGluZycsICctaW1hZScsICc8aW5maWxlLm1hZT4nLCAnLW9tYWUnLCAnPG91dGZpbGUubWFlPic=

> <r_lp_tautomer_probability>
1

> <r_epik_Ionization_Penalty>
0.00150433

> <r_epik_Ionization_Penalty_Charging>
0

> <r_epik_Ionization_Penalty_Neutral>
0.00150433

> <r_epik_State_Penalty>
0.00724046

> <r_epik_Charging_Adjusted_Penalty>
0.00724046

> <i_epik_Tot_Q>
0

> <i_epik_Tot_abs_Q>
0

> <r_epik_Metal_State_Penalty>
0.323355

> <b_epik_Metal_Only>
0

> <s_epik_Chemistry_Notes>
This compound contains an acetal/aminal-like group ( X-CH(R)-Y where X, Y are N, S, or O) that may be acid/base labile, releasing an aldehyde.

> <s_lp_Force_Field>
OPLS_2005

> <r_lp_Energy>
33.9603

> <b_lp_Chiralities_Consistent>
1

> <s_lp_Variant>
AV-unprocessed.smi:36-2

> <Gold.Version>
5.8.1

> <Gold.Id.Protein>
6NUR|6NUR_protein|mol2

> <Gold.PLP.Fitness>
56.4412

> <Gold.PLP.PLP>
-50.6389

> <Gold.PLP.part.hbond>
-2.0000

> <Gold.PLP.part.metal>
0.0000

> <Gold.PLP.part.buried>
-6.9463

> <Gold.PLP.part.nonpolar>
-41.7666

> <Gold.PLP.part.repulsive>
0.3842

> <Gold.PLP.ligand.clash>
0.0000

> <Gold.PLP.ligand.torsion>
1.6388

> <Gold.PLP.Chemscore.Hbond>
1.9989

> <Gold.PLP.Chemscore.CHOScore>
1.0000

> <Gold.PLP.Chemscore.Metal>
0.0000

> <Gold.Chemscore.Hbonds>
donor molecule, donor type, donor heavy atom, donor atom, acceptor molecule, acceptor atom, score
      P1  H  7989  7998       L1    27  0.95
      P1  H  7997  8010       L1    20  0.96
      L1  C    28    60       P1  7957  1.00

> <Gold.PLP.Chemscore.Internal.Correction>
0.0834

> <Gold.Rescore>
     Score         DG    S(hbond)    S(metal)    S(lipo)     H(rot)  DE(clash)    DE(int)     intcor
     16.46     -18.39       1.69        0.00     121.36       2.70       0.26       1.67       ----

> <Gold.Chemscore.Fitness>
16.4585

> <Gold.Chemscore.DG>
-18.3861

> <Gold.Chemscore.ZeroCoef>
-5.4800

> <Gold.Chemscore.Hbond>
1.6856

> <Gold.Chemscore.Metal>
0.0000

> <Gold.Chemscore.Lipo>
121.3573

> <Gold.Chemscore.Internal_Hbond>
0.0000

> <Gold.Chemscore.DEClash>
0.2600

> <Gold.Chemscore.DEInternal>
1.6676

> <Gold.Chemscore.Rot>
2.7041

> <Gold.Chemscore.Internal.Correction>
   9.000000E+99

> <Gold.Chemscore.Hbonds>
donor molecule, donor type, donor heavy atom, donor atom, acceptor molecule, acceptor atom, score
      P1  H  7989  7998       L1    27  0.22
      P1  H  7997  8010       L1    20  0.92

> <Gold.Chemscore.Hbond.Weighted>
-5.6298

> <Gold.Chemscore.Metal.Weighted>
-0.0000

> <Gold.Chemscore.Lipo.Weighted>
-14.1988

> <Gold.Chemscore.Internal_Hbond.Weighted>
0.0000

> <Gold.Chemscore.DEClash.Weighted>
0.2600

> <Gold.Chemscore.DEInternal.Weighted>
1.6676

> <Gold.Chemscore.Rot.Weighted>
6.9225

> <Gold.Chemscore.Internal.Correction.Weighted>
   9.000000E+99

> <Gold.Protein.RotatedTorsions>
[ 6907 6896 6895 6894 ] final -144.79 input  -60.11 | X-H torsion
[ 7974 7965 7964 7962 ] final  117.63 input  175.53 | X-H torsion
[ 8008 7997 7996 7995 ] final   38.82 input   59.86 | X-H torsion
[ 10167 10162 10161 10158 ] final   35.70 input  -65.29 | X-H torsion
[ 10718 10713 10712 10709 ] final -137.62 input   66.30 | X-H torsion
[ 10763 10752 10751 10750 ] final -131.46 input  -60.55 | X-H torsion
[ 11005 11000 10999 10996 ] final -102.19 input  -57.11 | X-H torsion

> <Gold.Protein.ActiveResidues>
 VAL166  LYS551  ARG553  GLY616  TRP617  ASP618  TYR619  PRO620  LYS621  CYS622 
 ASP623  PHE694  ASN695  SER759  ASP760  ASP761  ALA762  ILE779  LEU786  VAL792 
 PHE793  MET794  SER795  GLU796  ALA797  LYS798  CYS799  TRP800  GLU811  SER814 

> <Gold.Protein.RotatedAtoms>
  151.1188  133.5119  159.2602 H   0  0  0  0  0  0  0  0  0  0  0  0  # atno 6907 bound_to 6896
  151.1884  135.0391  159.8832 H   0  0  0  0  0  0  0  0  0  0  0  0  # atno 6908 bound_to 6896
  152.5454  134.1032  159.8380 H   0  0  0  0  0  0  0  0  0  0  0  0  # atno 6909 bound_to 6896
  145.1650  139.3133  143.4497 H   0  0  0  0  0  0  0  0  0  0  0  0  # atno 7974 bound_to 7965
  155.2264  140.3335  155.4309 H   0  0  0  0  0  0  0  0  0  0  0  0  # atno 8008 bound_to 7997
  156.2313  140.1852  156.7283 H   0  0  0  0  0  0  0  0  0  0  0  0  # atno 8009 bound_to 7997
  154.5982  140.0627  156.9318 H   0  0  0  0  0  0  0  0  0  0  0  0  # atno 8010 bound_to 7997
  140.4197  144.1477  150.6146 H   0  0  0  0  0  0  0  0  0  0  0  0  # atno 10167 bound_to 10162
  156.2901  130.7370  151.1393 H   0  0  0  0  0  0  0  0  0  0  0  0  # atno 10718 bound_to 10713
  154.8750  135.3829  154.4251 H   0  0  0  0  0  0  0  0  0  0  0  0  # atno 10763 bound_to 10752
  153.4950  135.7030  153.5868 H   0  0  0  0  0  0  0  0  0  0  0  0  # atno 10764 bound_to 10752
  153.4225  135.3898  155.2087 H   0  0  0  0  0  0  0  0  0  0  0  0  # atno 10765 bound_to 10752
  141.1199  133.8539  157.1328 H   0  0  0  0  0  0  0  0  0  0  0  0  # atno 11005 bound_to 11000
  146.3477  140.1775  142.8589 LP  0  0  0  0  0  0  0  0  0  0  0  0  # atno 17320 bound_to 7965
  145.0291  140.8856  143.5120 LP  0  0  0  0  0  0  0  0  0  0  0  0  # atno 17321 bound_to 7965
  140.4547  143.2472  151.9300 LP  0  0  0  0  0  0  0  0  0  0  0  0  # atno 17342 bound_to 10162
  139.4782  144.5527  151.8361 LP  0  0  0  0  0  0  0  0  0  0  0  0  # atno 17343 bound_to 10162
  157.7340  131.0586  150.5548 LP  0  0  0  0  0  0  0  0  0  0  0  0  # atno 17370 bound_to 10713
  156.5663  130.4268  149.6040 LP  0  0  0  0  0  0  0  0  0  0  0  0  # atno 17371 bound_to 10713
  140.0149  134.9972  157.0472 LP  0  0  0  0  0  0  0  0  0  0  0  0  # atno 17394 bound_to 11000
  140.4537  134.1556  155.7184 LP  0  0  0  0  0  0  0  0  0  0  0  0  # atno 17395 bound_to 11000

$$$$
