AV-unprocessed.smi:1383|AV-procd|sdf|5624|dock3
  -GOLD-   22720 5233D 1   1.00000     0.00000
 Structure written by MMmdl.
 30 30  0  0  0  0  0  0  0  0  2 V2000
  147.2258  135.0847  163.1014 C   0  0  0  0  0  0  0  0  0  0  0  0
  146.4080  135.2495  161.8108 C   0  0  0  0  0  0  0  0  0  0  0  0
  147.2001  134.9595  160.5159 C   0  0  2  0  0  0  0  0  0  0  0  0
  147.9298  133.6079  160.6017 C   0  0  0  0  0  0  0  0  0  0  0  0
  148.2064  136.0809  160.1933 C   0  0  0  0  0  0  0  0  0  0  0  0
  148.1965  137.1122  160.8684 O   0  0  0  0  0  0  0  0  0  0  0  0
  149.0101  135.7624  159.1497 N   0  5  0  0  0  0  0  0  0  0  0  0
  149.3967  136.7216  158.2949 C   0  0  0  0  0  0  0  0  0  0  0  0
  149.9740  136.4574  157.1178 N   0  0  0  0  0  0  0  0  0  0  0  0
  150.3096  137.6019  156.3882 C   0  0  0  0  0  0  0  0  0  0  0  0
  150.9636  137.4686  155.0430 C   0  0  0  0  0  0  0  0  0  0  0  0
  150.6473  138.6816  154.1646 C   0  0  0  0  0  0  0  0  0  0  0  0
  149.8637  138.4806  153.1012 N   0  0  0  0  0  0  0  0  0  0  0  0
  151.0950  139.7907  154.4492 O   0  0  0  0  0  0  0  0  0  0  0  0
  149.9748  138.7653  157.0324 C   0  0  0  0  0  0  0  0  0  0  0  0
  149.2384  138.4562  158.5787 S   0  0  0  0  0  0  0  0  0  0  0  0
  146.6312  135.3592  163.9728 H   0  0  0  0  0  0  0  0  0  0  0  0
  148.1110  135.7212  163.0888 H   0  0  0  0  0  0  0  0  0  0  0  0
  147.5558  134.0550  163.2411 H   0  0  0  0  0  0  0  0  0  0  0  0
  145.5243  134.6116  161.8601 H   0  0  0  0  0  0  0  0  0  0  0  0
  146.0331  136.2728  161.7731 H   0  0  0  0  0  0  0  0  0  0  0  0
  146.4742  134.8743  159.7040 H   0  0  0  0  0  0  0  0  0  0  0  0
  148.4965  133.4054  159.6920 H   0  0  0  0  0  0  0  0  0  0  0  0
  147.2210  132.7898  160.7323 H   0  0  0  0  0  0  0  0  0  0  0  0
  148.6253  133.5801  161.4414 H   0  0  0  0  0  0  0  0  0  0  0  0
  152.0457  137.3746  155.1426 H   0  0  0  0  0  0  0  0  0  0  0  0
  150.6218  136.5618  154.5425 H   0  0  0  0  0  0  0  0  0  0  0  0
  149.6153  139.2598  152.5079 H   0  0  0  0  0  0  0  0  0  0  0  0
  149.5068  137.5569  152.9059 H   0  0  0  0  0  0  0  0  0  0  0  0
  150.1207  139.7805  156.6955 H   0  0  0  0  0  0  0  0  0  0  0  0
  1  2  1  0  0  0  0
  1 17  1  0  0  0  0
  1 18  1  0  0  0  0
  1 19  1  0  0  0  0
  2  3  1  0  0  0  0
  2 20  1  0  0  0  0
  2 21  1  0  0  0  0
  3  4  1  0  0  0  0
  3  5  1  0  0  0  0
  3 22  1  0  0  0  0
  4 23  1  0  0  0  0
  4 24  1  0  0  0  0
  4 25  1  0  0  0  0
  5  6  2  0  0  0  0
  5  7  1  0  0  0  0
  7  8  1  0  0  0  0
  8 16  1  0  0  0  0
  8  9  2  0  0  0  0
  9 10  1  0  0  0  0
 10 11  1  0  0  0  0
 10 15  2  0  0  0  0
 11 12  1  0  0  0  0
 11 26  1  0  0  0  0
 11 27  1  0  0  0  0
 12 13  1  0  0  0  0
 12 14  2  0  0  0  0
 13 28  1  0  0  0  0
 13 29  1  0  0  0  0
 15 16  1  0  0  0  0
 15 30  1  0  0  0  0
M  CHG  1   7  -1
M  END
> <s_m_source_file>
AV-unprocessed.smi

> <i_m_source_file_index>
1383

> <i_lp_mmshare_version>
43012

> <i_f3d_flags>
0

> <s_epik_input>
W0NIM11bQ0gyXVtDQEhdKFtDSDNdKUMoPU8pW05IXWMxbmMoW2NIXXMxKVtDSDJdQyg9TylbTkgyXQ==

> <s_epik_cmdline>
J2VwaWtfcHl0aG9uJywgJy1waCcsICc3LjAnLCAnLXRuJywgJzgnLCAnLW1hJywgJzIwMCcsICctbWV0YWxfYmluZGluZycsICctaW1hZScsICc8aW5maWxlLm1hZT4nLCAnLW9tYWUnLCAnPG91dGZpbGUubWFlPic=

> <r_lp_tautomer_probability>
1

> <r_epik_Ionization_Penalty>
5.3563

> <r_epik_Ionization_Penalty_Charging>
4.90463

> <r_epik_Ionization_Penalty_Neutral>
0.451677

> <r_epik_State_Penalty>
4.90447

> <r_epik_Charging_Adjusted_Penalty>
9.8091

> <i_epik_Tot_Q>
-1

> <i_epik_Tot_abs_Q>
1

> <r_epik_Metal_State_Penalty>
1.05508

> <b_epik_Metal_Only>
1

> <s_lp_Force_Field>
OPLS_2005

> <r_lp_Energy>
-0.655456

> <b_lp_Chiralities_Consistent>
1

> <s_lp_Variant>
AV-unprocessed.smi:1383-3

> <Gold.Version>
5.8.1

> <Gold.Id.Protein>
6NUR|6NUR_protein|mol2

> <Gold.PLP.Fitness>
41.7392

> <Gold.PLP.PLP>
-24.6689

> <Gold.PLP.part.hbond>
-6.1344

> <Gold.PLP.part.metal>
0.0000

> <Gold.PLP.part.buried>
-1.9319

> <Gold.PLP.part.nonpolar>
-16.3117

> <Gold.PLP.part.repulsive>
0.2156

> <Gold.PLP.ligand.clash>
0.0000

> <Gold.PLP.ligand.torsion>
0.9468

> <Gold.PLP.Chemscore.Hbond>
6.2544

> <Gold.PLP.Chemscore.CHOScore>
0.0000

> <Gold.PLP.Chemscore.Metal>
0.0000

> <Gold.Chemscore.Hbonds>
donor molecule, donor type, donor heavy atom, donor atom, acceptor molecule, acceptor atom, score
      L1  H    13    28       P1  7957  1.00
      L1  H    13    29       P1  7948  1.00
      P1  H  6896  6908       L1     7  1.62
      P1  H  6931  6943       L1     6  0.94
      P1  H  6934  6947       L1     6  0.46
      P1  H  7989  7998       L1    14  1.00

> <Gold.PLP.Chemscore.Internal.Correction>
0.2008

> <Gold.Rescore>
     Score         DG    S(hbond)    S(metal)    S(lipo)     H(rot)  DE(clash)    DE(int)     intcor
     17.60     -21.02       4.76        0.00      43.99       2.15       0.17       3.25       ----

> <Gold.Chemscore.Fitness>
17.5968

> <Gold.Chemscore.DG>
-21.0193

> <Gold.Chemscore.ZeroCoef>
-5.4800

> <Gold.Chemscore.Hbond>
4.7617

> <Gold.Chemscore.Metal>
0.0000

> <Gold.Chemscore.Lipo>
43.9949

> <Gold.Chemscore.Internal_Hbond>
0.0000

> <Gold.Chemscore.DEClash>
0.1691

> <Gold.Chemscore.DEInternal>
3.2534

> <Gold.Chemscore.Rot>
2.1532

> <Gold.Chemscore.Internal.Correction>
   9.000000E+99

> <Gold.Chemscore.Hbonds>
donor molecule, donor type, donor heavy atom, donor atom, acceptor molecule, acceptor atom, score
      L1  H    13    28       P1  7957  0.89
      L1  H    13    29       P1  7948  0.77
      P1  H  6896  6908       L1     7  0.54
      P1  H  6931  6943       L1     6  0.91
      P1  H  6934  6947       L1     6  0.47
      P1  H  7989  7998       L1    14  0.93

> <Gold.Chemscore.Hbond.Weighted>
-15.9042

> <Gold.Chemscore.Metal.Weighted>
-0.0000

> <Gold.Chemscore.Lipo.Weighted>
-5.1474

> <Gold.Chemscore.Internal_Hbond.Weighted>
0.0000

> <Gold.Chemscore.DEClash.Weighted>
0.1691

> <Gold.Chemscore.DEInternal.Weighted>
3.2534

> <Gold.Chemscore.Rot.Weighted>
5.5123

> <Gold.Chemscore.Internal.Correction.Weighted>
   9.000000E+99

> <Gold.Protein.RotatedTorsions>
[ 6907 6896 6895 6894 ] final  163.15 input  -60.11 | X-H torsion
[ 7974 7965 7964 7962 ] final  118.08 input  175.53 | X-H torsion
[ 8008 7997 7996 7995 ] final -154.08 input   59.86 | X-H torsion
[ 10167 10162 10161 10158 ] final  -54.63 input  -65.29 | X-H torsion
[ 10718 10713 10712 10709 ] final   79.15 input   66.30 | X-H torsion
[ 10763 10752 10751 10750 ] final  -43.56 input  -60.55 | X-H torsion
[ 11005 11000 10999 10996 ] final   -2.16 input  -57.11 | X-H torsion

> <Gold.Protein.ActiveResidues>
 VAL166  LYS551  ARG553  GLY616  TRP617  ASP618  TYR619  PRO620  LYS621  CYS622 
 ASP623  PHE694  ASN695  SER759  ASP760  ASP761  ALA762  ILE779  LEU786  VAL792 
 PHE793  MET794  SER795  GLU796  ALA797  LYS798  CYS799  TRP800  GLU811  SER814 

> <Gold.Protein.RotatedAtoms>
  151.9296  133.3607  159.3925 H   0  0  0  0  0  0  0  0  0  0  0  0  # atno 6907 bound_to 6896
  150.7020  134.4551  159.5364 H   0  0  0  0  0  0  0  0  0  0  0  0  # atno 6908 bound_to 6896
  152.2189  134.8431  160.0539 H   0  0  0  0  0  0  0  0  0  0  0  0  # atno 6909 bound_to 6896
  145.1596  139.3163  143.4524 H   0  0  0  0  0  0  0  0  0  0  0  0  # atno 7974 bound_to 7965
  155.6809  140.0744  157.2485 H   0  0  0  0  0  0  0  0  0  0  0  0  # atno 8008 bound_to 7997
  154.4106  140.1682  156.2033 H   0  0  0  0  0  0  0  0  0  0  0  0  # atno 8009 bound_to 7997
  155.9536  140.3375  155.6432 H   0  0  0  0  0  0  0  0  0  0  0  0  # atno 8010 bound_to 7997
  140.6419  143.2513  151.4964 H   0  0  0  0  0  0  0  0  0  0  0  0  # atno 10167 bound_to 10162
  157.6768  130.9901  150.1891 H   0  0  0  0  0  0  0  0  0  0  0  0  # atno 10718 bound_to 10713
  153.9976  135.6697  153.4757 H   0  0  0  0  0  0  0  0  0  0  0  0  # atno 10763 bound_to 10752
  153.0677  135.4992  154.8232 H   0  0  0  0  0  0  0  0  0  0  0  0  # atno 10764 bound_to 10752
  154.7072  135.3090  154.9215 H   0  0  0  0  0  0  0  0  0  0  0  0  # atno 10765 bound_to 10752
  140.6553  133.9368  155.8404 H   0  0  0  0  0  0  0  0  0  0  0  0  # atno 11005 bound_to 11000
  146.3484  140.1701  142.8590 LP  0  0  0  0  0  0  0  0  0  0  0  0  # atno 17320 bound_to 7965
  145.0345  140.8897  143.5089 LP  0  0  0  0  0  0  0  0  0  0  0  0  # atno 17321 bound_to 7965
  139.5629  144.2113  152.1719 LP  0  0  0  0  0  0  0  0  0  0  0  0  # atno 17342 bound_to 10162
  140.1386  144.5223  150.6758 LP  0  0  0  0  0  0  0  0  0  0  0  0  # atno 17343 bound_to 10162
  156.2606  130.3710  149.8134 LP  0  0  0  0  0  0  0  0  0  0  0  0  # atno 17370 bound_to 10713
  156.5880  130.8494  151.3401 LP  0  0  0  0  0  0  0  0  0  0  0  0  # atno 17371 bound_to 10713
  141.0506  134.0490  157.3788 LP  0  0  0  0  0  0  0  0  0  0  0  0  # atno 17394 bound_to 11000
  139.9031  135.0171  156.7364 LP  0  0  0  0  0  0  0  0  0  0  0  0  # atno 17395 bound_to 11000

$$$$
