AV-unprocessed.smi:103|AV-procd|sdf|982|dock9
  -GOLD-   2262017543D 1   1.00000     0.00000
 Structure written by MMmdl.
 53 55  0  0  0  0  0  0  0  0  1 V2000
  151.1027  141.5110  156.2548 C   0  0  0  0  0  0  0  0  0  0  0  0
  150.3031  140.4033  155.5819 C   0  0  0  0  0  0  0  0  0  0  0  0
  150.8279  139.6315  154.7790 O   0  0  0  0  0  0  0  0  0  0  0  0
  149.0177  140.3911  155.9712 O   0  0  0  0  0  0  0  0  0  0  0  0
  148.2582  139.1951  155.8835 C   0  0  0  0  0  0  0  0  0  0  0  0
  147.5574  138.9370  157.2284 C   0  0  1  0  0  0  0  0  0  0  0  0
  146.4374  138.0913  156.9616 O   0  0  0  0  0  0  0  0  0  0  0  0
  146.5094  136.9383  157.7337 C   0  0  1  0  0  0  0  0  0  0  0  0
  145.9794  135.7848  156.9435 N   0  0  0  0  0  0  0  0  0  0  0  0
  144.7594  135.1432  157.0259 C   0  0  0  0  0  0  0  0  0  0  0  0
  143.4037  135.5668  158.1136 S   0  0  0  0  0  0  0  0  0  0  0  0
  144.2937  136.1517  159.6123 C   0  0  0  0  0  0  0  0  0  0  0  0
  142.6939  136.6981  157.4964 O   0  0  0  0  0  0  0  0  0  0  0  0
  142.6896  134.3203  158.4284 O   0  0  0  0  0  0  0  0  0  0  0  0
  144.5338  134.2004  156.1514 N   0  0  0  0  0  0  0  0  0  0  0  0
  145.7239  134.1383  155.4408 C   0  0  0  0  0  0  0  0  0  0  0  0
  146.1910  133.3381  154.3678 C   0  0  0  0  0  0  0  0  0  0  0  0
  145.4501  132.3805  153.7929 N   0  0  0  0  0  0  0  0  0  0  0  0
  147.4428  133.5512  153.8991 N   0  0  0  0  0  0  0  0  0  0  0  0
  148.2011  134.5019  154.4543 C   0  0  0  0  0  0  0  0  0  0  0  0
  147.9005  135.3274  155.4598 N   0  0  0  0  0  0  0  0  0  0  0  0
  146.6378  135.1141  155.9320 C   0  0  0  0  0  0  0  0  0  0  0  0
  147.9751  136.7342  158.0842 C   0  0  2  0  0  0  0  0  0  0  0  0
  148.0823  135.9988  159.2939 O   0  0  0  0  0  0  0  0  0  0  0  0
  147.3889  136.3764  160.3790 C   0  0  0  0  0  0  0  0  0  0  0  0
  147.5943  135.4303  161.5541 C   0  0  0  0  0  0  0  0  0  0  0  0
  146.6556  137.3612  160.4655 O   0  0  0  0  0  0  0  0  0  0  0  0
  148.4172  138.1746  158.2589 C   0  0  1  0  0  0  0  0  0  0  0  0
  149.8172  138.2781  158.0285 O   0  0  0  0  0  0  0  0  0  0  0  0
  150.6863  137.6760  158.8569 C   0  0  0  0  0  0  0  0  0  0  0  0
  152.1190  138.1376  158.6275 C   0  0  0  0  0  0  0  0  0  0  0  0
  150.4072  136.8471  159.7229 O   0  0  0  0  0  0  0  0  0  0  0  0
  150.4996  142.4139  156.3527 H   0  0  0  0  0  0  0  0  0  0  0  0
  151.9895  141.7514  155.6681 H   0  0  0  0  0  0  0  0  0  0  0  0
  151.4202  141.1958  157.2488 H   0  0  0  0  0  0  0  0  0  0  0  0
  147.5187  139.2393  155.0839 H   0  0  0  0  0  0  0  0  0  0  0  0
  148.9403  138.3792  155.6440 H   0  0  0  0  0  0  0  0  0  0  0  0
  147.2182  139.8807  157.6566 H   0  0  0  0  0  0  0  0  0  0  0  0
  145.8589  137.0555  158.5989 H   0  0  0  0  0  0  0  0  0  0  0  0
  143.5697  136.4539  160.3686 H   0  0  0  0  0  0  0  0  0  0  0  0
  144.9222  137.0029  159.3508 H   0  0  0  0  0  0  0  0  0  0  0  0
  144.9171  135.3493  160.0053 H   0  0  0  0  0  0  0  0  0  0  0  0
  144.5123  132.2037  154.1237 H   0  0  0  0  0  0  0  0  0  0  0  0
  145.8309  131.8370  153.0320 H   0  0  0  0  0  0  0  0  0  0  0  0
  149.1881  134.6211  154.0318 H   0  0  0  0  0  0  0  0  0  0  0  0
  148.4801  136.2617  157.2397 H   0  0  0  0  0  0  0  0  0  0  0  0
  148.6542  135.2107  161.6846 H   0  0  0  0  0  0  0  0  0  0  0  0
  147.0644  134.4935  161.3816 H   0  0  0  0  0  0  0  0  0  0  0  0
  147.2184  135.8763  162.4751 H   0  0  0  0  0  0  0  0  0  0  0  0
  148.1494  138.5002  159.2661 H   0  0  0  0  0  0  0  0  0  0  0  0
  152.3449  138.1632  157.5614 H   0  0  0  0  0  0  0  0  0  0  0  0
  152.8217  137.4602  159.1130 H   0  0  0  0  0  0  0  0  0  0  0  0
  152.2628  139.1376  159.0366 H   0  0  0  0  0  0  0  0  0  0  0  0
  1  2  1  0  0  0  0
  1 33  1  0  0  0  0
  1 34  1  0  0  0  0
  1 35  1  0  0  0  0
  2  3  2  0  0  0  0
  2  4  1  0  0  0  0
  4  5  1  0  0  0  0
  5  6  1  0  0  0  0
  5 36  1  0  0  0  0
  5 37  1  0  0  0  0
  6 28  1  0  0  0  0
  6  7  1  0  0  0  0
  6 38  1  0  0  0  0
  7  8  1  0  0  0  0
  8  9  1  0  0  0  0
  8 23  1  0  0  0  0
  8 39  1  0  0  0  0
  9 22  1  0  0  0  0
  9 10  1  0  0  0  0
 10 11  1  0  0  0  0
 10 15  2  0  0  0  0
 11 12  1  0  0  0  0
 11 13  2  0  0  0  0
 11 14  2  0  0  0  0
 12 40  1  0  0  0  0
 12 41  1  0  0  0  0
 12 42  1  0  0  0  0
 15 16  1  0  0  0  0
 16 22  2  0  0  0  0
 16 17  1  0  0  0  0
 17 18  1  0  0  0  0
 17 19  2  0  0  0  0
 18 43  1  0  0  0  0
 18 44  1  0  0  0  0
 19 20  1  0  0  0  0
 20 21  2  0  0  0  0
 20 45  1  0  0  0  0
 21 22  1  0  0  0  0
 23 24  1  0  0  0  0
 23 28  1  0  0  0  0
 23 46  1  0  0  0  0
 24 25  1  0  0  0  0
 25 26  1  0  0  0  0
 25 27  2  0  0  0  0
 26 47  1  0  0  0  0
 26 48  1  0  0  0  0
 26 49  1  0  0  0  0
 28 29  1  0  0  0  0
 28 50  1  0  0  0  0
 29 30  1  0  0  0  0
 30 31  1  0  0  0  0
 30 32  2  0  0  0  0
 31 51  1  0  0  0  0
 31 52  1  0  0  0  0
 31 53  1  0  0  0  0
M  END
> <s_m_source_file>
AV-unprocessed.smi

> <i_m_source_file_index>
103

> <i_lp_mmshare_version>
43012

> <i_f3d_flags>
0

> <s_epik_input>
W0NIM11DKD1PKU9bQ0gyXVtDQEBIXTFPW0NASF0oW0NAQEhdKE9DKD1PKVtDSDNdKVtDQEhdMU9DKD1PKVtDSDNdKW4oYyhuMilTKD1PKSg9TylbQ0gzXSljKGMyMyluW2NIXW5jM1tOSDJd

> <s_epik_cmdline>
J2VwaWtfcHl0aG9uJywgJy1waCcsICc3LjAnLCAnLXRuJywgJzgnLCAnLW1hJywgJzIwMCcsICctbWV0YWxfYmluZGluZycsICctaW1hZScsICc8aW5maWxlLm1hZT4nLCAnLW9tYWUnLCAnPG91dGZpbGUubWFlPic=

> <r_lp_tautomer_probability>
1

> <r_epik_Ionization_Penalty>
1.51338e-05

> <r_epik_Ionization_Penalty_Charging>
0

> <r_epik_Ionization_Penalty_Neutral>
1.51338e-05

> <r_epik_State_Penalty>
-0

> <r_epik_Charging_Adjusted_Penalty>
0

> <i_epik_Tot_Q>
0

> <i_epik_Tot_abs_Q>
0

> <r_epik_Metal_State_Penalty>
-0

> <b_epik_Metal_Only>
0

> <s_epik_Chemistry_Notes>
This compound has an ester and may undergo hydrolysis at high or low pH. This compound contains an acetal/aminal-like group ( X-CH(R)-Y where X, Y are N, S, or O) that may be acid/base labile, releasing an aldehyde.

> <s_lp_Force_Field>
OPLS_2005

> <r_lp_Energy>
15.9567

> <b_lp_Chiralities_Consistent>
1

> <s_lp_Variant>
AV-unprocessed.smi:103-6

> <Gold.Version>
5.8.1

> <Gold.Id.Protein>
6NUR|6NUR_protein|mol2

> <Gold.PLP.Fitness>
36.0106

> <Gold.PLP.PLP>
-22.5982

> <Gold.PLP.part.hbond>
-4.9827

> <Gold.PLP.part.metal>
0.0000

> <Gold.PLP.part.buried>
-5.1292

> <Gold.PLP.part.nonpolar>
-12.8141

> <Gold.PLP.part.repulsive>
0.3763

> <Gold.PLP.ligand.clash>
0.0000

> <Gold.PLP.ligand.torsion>
2.7879

> <Gold.PLP.Chemscore.Hbond>
5.0000

> <Gold.PLP.Chemscore.CHOScore>
0.6022

> <Gold.PLP.Chemscore.Metal>
0.0000

> <Gold.Chemscore.Hbonds>
donor molecule, donor type, donor heavy atom, donor atom, acceptor molecule, acceptor atom, score
      L1  H    18    43       P1 10957  1.00
      P1  H  6896  6909       L1    32  1.00
      P1  H  6934  6947       L1    27  1.00
      P1  H  7989  7998       L1     3  1.00
      P1  H 11000 11005       L1    14  1.00
      L1  C    20    45       P1  7948  0.35

> <Gold.PLP.Chemscore.Internal.Correction>
2.1817

> <Gold.Rescore>
     Score         DG    S(hbond)    S(metal)    S(lipo)     H(rot)  DE(clash)    DE(int)     intcor
      4.46     -13.81       4.83        0.00      26.10       4.25       0.05       9.30       ----

> <Gold.Chemscore.Fitness>
4.4575

> <Gold.Chemscore.DG>
-13.8086

> <Gold.Chemscore.ZeroCoef>
-5.4800

> <Gold.Chemscore.Hbond>
4.8335

> <Gold.Chemscore.Metal>
0.0000

> <Gold.Chemscore.Lipo>
26.0968

> <Gold.Chemscore.Internal_Hbond>
0.0000

> <Gold.Chemscore.DEClash>
0.0515

> <Gold.Chemscore.DEInternal>
9.2996

> <Gold.Chemscore.Rot>
4.2456

> <Gold.Chemscore.Internal.Correction>
   9.000000E+99

> <Gold.Chemscore.Hbonds>
donor molecule, donor type, donor heavy atom, donor atom, acceptor molecule, acceptor atom, score
      L1  H    18    43       P1 10957  0.25
      P1  H  6896  6909       L1    32  1.00
      P1  H  6934  6947       L1    27  1.00
      P1  H  7989  7998       L1     3  0.34
      P1  H 11000 11005       L1    14  0.84

> <Gold.Chemscore.Hbond.Weighted>
-16.1439

> <Gold.Chemscore.Metal.Weighted>
-0.0000

> <Gold.Chemscore.Lipo.Weighted>
-3.0533

> <Gold.Chemscore.Internal_Hbond.Weighted>
0.0000

> <Gold.Chemscore.DEClash.Weighted>
0.0515

> <Gold.Chemscore.DEInternal.Weighted>
9.2996

> <Gold.Chemscore.Rot.Weighted>
10.8687

> <Gold.Chemscore.Internal.Correction.Weighted>
   9.000000E+99

> <Gold.Protein.RotatedTorsions>
[ 6907 6896 6895 6894 ] final   89.51 input  -60.11 | X-H torsion
[ 7974 7965 7964 7962 ] final -120.81 input  175.53 | X-H torsion
[ 8008 7997 7996 7995 ] final  166.03 input   59.86 | X-H torsion
[ 10167 10162 10161 10158 ] final  -32.69 input  -65.29 | X-H torsion
[ 10718 10713 10712 10709 ] final  -46.53 input   66.30 | X-H torsion
[ 10763 10752 10751 10750 ] final  -24.55 input  -60.55 | X-H torsion
[ 11005 11000 10999 10996 ] final -128.14 input  -57.11 | X-H torsion

> <Gold.Protein.ActiveResidues>
 VAL166  LYS551  ARG553  GLY616  TRP617  ASP618  TYR619  PRO620  LYS621  CYS622 
 ASP623  PHE694  ASN695  SER759  ASP760  ASP761  ALA762  ILE779  LEU786  VAL792 
 PHE793  MET794  SER795  GLU796  ALA797  LYS798  CYS799  TRP800  GLU811  SER814 

> <Gold.Protein.RotatedAtoms>
  152.5437  134.1955  159.8690 H   0  0  0  0  0  0  0  0  0  0  0  0  # atno 6907 bound_to 6896
  151.1947  133.4639  159.2603 H   0  0  0  0  0  0  0  0  0  0  0  0  # atno 6908 bound_to 6896
  151.1048  135.0005  159.8521 H   0  0  0  0  0  0  0  0  0  0  0  0  # atno 6909 bound_to 6896
  145.0473  140.8191  143.4230 H   0  0  0  0  0  0  0  0  0  0  0  0  # atno 7974 bound_to 7965
  156.1752  140.1654  156.8376 H   0  0  0  0  0  0  0  0  0  0  0  0  # atno 8008 bound_to 7997
  154.5299  140.0759  156.8360 H   0  0  0  0  0  0  0  0  0  0  0  0  # atno 8009 bound_to 7997
  155.3428  140.3385  155.4241 H   0  0  0  0  0  0  0  0  0  0  0  0  # atno 8010 bound_to 7997
  140.7217  143.3676  151.1841 H   0  0  0  0  0  0  0  0  0  0  0  0  # atno 10167 bound_to 10162
  156.2173  130.4164  149.9037 H   0  0  0  0  0  0  0  0  0  0  0  0  # atno 10718 bound_to 10713
  153.6856  135.6964  153.5105 H   0  0  0  0  0  0  0  0  0  0  0  0  # atno 10763 bound_to 10752
  153.2452  135.4293  155.0739 H   0  0  0  0  0  0  0  0  0  0  0  0  # atno 10764 bound_to 10752
  154.8387  135.3517  154.6399 H   0  0  0  0  0  0  0  0  0  0  0  0  # atno 10765 bound_to 10752
  140.9541  134.1026  157.4034 H   0  0  0  0  0  0  0  0  0  0  0  0  # atno 11005 bound_to 11000
  145.1571  139.2480  143.5410 LP  0  0  0  0  0  0  0  0  0  0  0  0  # atno 17320 bound_to 7965
  146.3515  140.1289  142.8598 LP  0  0  0  0  0  0  0  0  0  0  0  0  # atno 17321 bound_to 7965
  139.7241  143.9177  152.2996 LP  0  0  0  0  0  0  0  0  0  0  0  0  # atno 17342 bound_to 10162
  139.8944  144.6947  150.8735 LP  0  0  0  0  0  0  0  0  0  0  0  0  # atno 17343 bound_to 10162
  156.6695  130.8814  151.3560 LP  0  0  0  0  0  0  0  0  0  0  0  0  # atno 17370 bound_to 10713
  157.7070  130.9396  150.0963 LP  0  0  0  0  0  0  0  0  0  0  0  0  # atno 17371 bound_to 10713
  139.8856  135.0074  156.6448 LP  0  0  0  0  0  0  0  0  0  0  0  0  # atno 17394 bound_to 11000
  140.7561  133.8856  155.8383 LP  0  0  0  0  0  0  0  0  0  0  0  0  # atno 17395 bound_to 11000

$$$$
