AV-unprocessed.smi:235|AV-procd|sdf|1804|dock2
  -GOLD-   2262020383D 1   1.00000     0.00000
 Structure written by MMmdl.
 54 58  0  0  0  0  0  0  0  0  1 V2000
  148.7328  133.9674  158.7695 O   0  0  0  0  0  0  0  0  0  0  0  0
  148.0890  133.5745  159.7437 C   0  0  0  0  0  0  0  0  0  0  0  0
  148.0958  132.3035  160.1707 N   0  0  0  0  0  0  0  0  0  0  0  0
  148.8263  131.2329  159.5742 C   0  0  0  0  0  0  0  0  0  0  0  0
  148.0399  130.0473  159.0583 C   0  0  0  0  0  0  0  0  0  0  0  0
  148.8610  129.9113  160.3108 C   0  0  0  0  0  0  0  0  0  0  0  0
  147.2227  134.5546  160.5509 C   0  0  1  0  0  0  0  0  0  0  0  0
  146.9802  134.0469  161.9819 C   0  0  0  0  0  0  0  0  0  0  0  0
  146.7913  135.3244  162.7937 C   0  0  0  0  0  0  0  0  0  0  0  0
  147.7482  136.3096  162.1247 C   0  0  0  0  0  0  0  0  0  0  0  0
  147.8851  135.8470  160.7493 N   0  0  0  0  0  0  0  0  0  0  0  0
  148.0419  136.7515  159.7455 C   0  0  0  0  0  0  0  0  0  0  0  0
  146.9678  137.0988  158.9870 N   0  0  0  0  0  0  0  0  0  0  0  0
  147.0943  137.9834  157.9943 C   0  0  0  0  0  0  0  0  0  0  0  0
  148.1872  138.6315  157.5899 N   0  0  0  0  0  0  0  0  0  0  0  0
  149.2717  138.2847  158.3402 C   0  0  0  0  0  0  0  0  0  0  0  0
  149.2893  137.3622  159.4254 C   0  0  0  0  0  0  0  0  0  0  0  0
  150.5807  137.2587  159.9310 N   0  0  0  0  0  0  0  0  0  0  0  0
  151.2820  138.0741  159.1924 C   0  0  0  0  0  0  0  0  0  0  0  0
  150.5732  138.7374  158.2171 N   0  0  0  0  0  0  0  0  0  0  0  0
  151.0973  139.6974  157.2587 C   0  0  0  0  0  0  0  0  0  0  0  0
  150.6942  141.1587  157.5562 C   0  0  1  0  0  0  0  0  0  0  0  0
  149.2903  141.2855  157.4438 O   0  0  0  0  0  0  0  0  0  0  0  0
  151.1187  141.6527  158.9540 C   0  0  2  0  0  0  0  0  0  0  0  0
  151.0019  143.1647  159.1568 C   0  0  0  0  0  0  0  0  0  0  0  0
  152.0462  143.4706  160.2206 C   0  0  0  0  0  0  0  0  0  0  0  0
  152.8822  142.1908  160.3039 C   0  0  0  0  0  0  0  0  0  0  0  0
  152.5055  141.4351  159.1628 O   0  0  0  0  0  0  0  0  0  0  0  0
  147.5339  132.0755  160.9780 H   0  0  0  0  0  0  0  0  0  0  0  0
  149.7254  131.4903  159.0156 H   0  0  0  0  0  0  0  0  0  0  0  0
  146.9571  130.0686  159.1674 H   0  0  0  0  0  0  0  0  0  0  0  0
  148.4075  129.5547  158.1605 H   0  0  0  0  0  0  0  0  0  0  0  0
  149.7774  129.3276  160.2503 H   0  0  0  0  0  0  0  0  0  0  0  0
  148.3258  129.8403  161.2559 H   0  0  0  0  0  0  0  0  0  0  0  0
  146.2601  134.7136  160.0605 H   0  0  0  0  0  0  0  0  0  0  0  0
  146.1184  133.3821  162.0483 H   0  0  0  0  0  0  0  0  0  0  0  0
  147.8479  133.5047  162.3626 H   0  0  0  0  0  0  0  0  0  0  0  0
  145.7645  135.6768  162.6861 H   0  0  0  0  0  0  0  0  0  0  0  0
  146.9924  135.1908  163.8569 H   0  0  0  0  0  0  0  0  0  0  0  0
  147.3668  137.3296  162.1933 H   0  0  0  0  0  0  0  0  0  0  0  0
  148.7280  136.2780  162.6027 H   0  0  0  0  0  0  0  0  0  0  0  0
  146.1906  138.2016  157.4449 H   0  0  0  0  0  0  0  0  0  0  0  0
  152.3419  138.2200  159.3431 H   0  0  0  0  0  0  0  0  0  0  0  0
  152.1842  139.6071  157.2489 H   0  0  0  0  0  0  0  0  0  0  0  0
  150.7625  139.4098  156.2612 H   0  0  0  0  0  0  0  0  0  0  0  0
  151.1455  141.7980  156.7966 H   0  0  0  0  0  0  0  0  0  0  0  0
  148.9702  140.5970  156.8812 H   0  0  0  0  0  0  0  0  0  0  0  0
  150.5597  141.1361  159.7367 H   0  0  0  0  0  0  0  0  0  0  0  0
  151.2564  143.6923  158.2367 H   0  0  0  0  0  0  0  0  0  0  0  0
  149.9968  143.4694  159.4502 H   0  0  0  0  0  0  0  0  0  0  0  0
  152.6547  144.3266  159.9263 H   0  0  0  0  0  0  0  0  0  0  0  0
  151.5885  143.6984  161.1839 H   0  0  0  0  0  0  0  0  0  0  0  0
  153.9543  142.3883  160.3110 H   0  0  0  0  0  0  0  0  0  0  0  0
  152.6331  141.6276  161.2042 H   0  0  0  0  0  0  0  0  0  0  0  0
  1  2  2  0  0  0  0
  2  3  1  0  0  0  0
  2  7  1  0  0  0  0
  3  4  1  0  0  0  0
  3 29  1  0  0  0  0
  4  6  1  0  0  0  0
  4  5  1  0  0  0  0
  4 30  1  0  0  0  0
  5  6  1  0  0  0  0
  5 31  1  0  0  0  0
  5 32  1  0  0  0  0
  6 33  1  0  0  0  0
  6 34  1  0  0  0  0
  7 11  1  0  0  0  0
  7  8  1  0  0  0  0
  7 35  1  0  0  0  0
  8  9  1  0  0  0  0
  8 36  1  0  0  0  0
  8 37  1  0  0  0  0
  9 10  1  0  0  0  0
  9 38  1  0  0  0  0
  9 39  1  0  0  0  0
 10 11  1  0  0  0  0
 10 40  1  0  0  0  0
 10 41  1  0  0  0  0
 11 12  1  0  0  0  0
 12 17  1  0  0  0  0
 12 13  2  0  0  0  0
 13 14  1  0  0  0  0
 14 15  2  0  0  0  0
 14 42  1  0  0  0  0
 15 16  1  0  0  0  0
 16 20  1  0  0  0  0
 16 17  2  0  0  0  0
 17 18  1  0  0  0  0
 18 19  2  0  0  0  0
 19 20  1  0  0  0  0
 19 43  1  0  0  0  0
 20 21  1  0  0  0  0
 21 22  1  0  0  0  0
 21 44  1  0  0  0  0
 21 45  1  0  0  0  0
 22 23  1  0  0  0  0
 22 24  1  0  0  0  0
 22 46  1  0  0  0  0
 23 47  1  0  0  0  0
 24 28  1  0  0  0  0
 24 25  1  0  0  0  0
 24 48  1  0  0  0  0
 25 26  1  0  0  0  0
 25 49  1  0  0  0  0
 25 50  1  0  0  0  0
 26 27  1  0  0  0  0
 26 51  1  0  0  0  0
 26 52  1  0  0  0  0
 27 28  1  0  0  0  0
 27 53  1  0  0  0  0
 27 54  1  0  0  0  0
M  END
> <s_m_source_file>
AV-unprocessed.smi

> <i_m_source_file_index>
235

> <i_lp_mmshare_version>
43012

> <i_f3d_flags>
0

> <s_epik_input>
W0NIMl0xW0NIMl1bQ0hdMVtOSF1DKD1PKVtDQEBIXTJbQ0gyXVtDSDJdW0NIMl1OMmMobltjSF1uMyljKGMzNCluW2NIXW40W0NIMl1bQ0BIXShbT0hdKVtDQEBIXTVbQ0gyXVtDSDJdW0NIMl1PNQ==

> <s_epik_cmdline>
J2VwaWtfcHl0aG9uJywgJy1waCcsICc3LjAnLCAnLXRuJywgJzgnLCAnLW1hJywgJzIwMCcsICctbWV0YWxfYmluZGluZycsICctaW1hZScsICc8aW5maWxlLm1hZT4nLCAnLW9tYWUnLCAnPG91dGZpbGUubWFlPic=

> <r_lp_tautomer_probability>
1

> <r_epik_Ionization_Penalty>
0.000526714

> <r_epik_Ionization_Penalty_Charging>
0

> <r_epik_Ionization_Penalty_Neutral>
0.000526714

> <r_epik_State_Penalty>
0.000272704

> <r_epik_Charging_Adjusted_Penalty>
0.000272704

> <i_epik_Tot_Q>
0

> <i_epik_Tot_abs_Q>
0

> <r_epik_Metal_State_Penalty>
-0

> <b_epik_Metal_Only>
0

> <s_lp_Force_Field>
OPLS_2005

> <r_lp_Energy>
57.0845

> <b_lp_Chiralities_Consistent>
1

> <s_lp_Variant>
AV-unprocessed.smi:235-4

> <Gold.Version>
5.8.1

> <Gold.Id.Protein>
6NUR|6NUR_protein|mol2

> <Gold.PLP.Fitness>
45.5679

> <Gold.PLP.PLP>
-43.2237

> <Gold.PLP.part.hbond>
-2.2063

> <Gold.PLP.part.metal>
0.0000

> <Gold.PLP.part.buried>
-5.1403

> <Gold.PLP.part.nonpolar>
-36.5559

> <Gold.PLP.part.repulsive>
0.0589

> <Gold.PLP.ligand.clash>
0.0000

> <Gold.PLP.ligand.torsion>
2.0482

> <Gold.PLP.Chemscore.Hbond>
2.0000

> <Gold.PLP.Chemscore.CHOScore>
0.0000

> <Gold.PLP.Chemscore.Metal>
0.0000

> <Gold.Chemscore.Hbonds>
donor molecule, donor type, donor heavy atom, donor atom, acceptor molecule, acceptor atom, score
      P1  H  6896  6907       L1     1  0.89
      P1  H  6896  6908       L1    18  0.23

> <Gold.PLP.Chemscore.Internal.Correction>
0.4407

> <Gold.Rescore>
     Score         DG    S(hbond)    S(metal)    S(lipo)     H(rot)  DE(clash)    DE(int)     intcor
     11.46     -13.19       0.94        0.00      97.53       2.68       0.17       1.56       ----

> <Gold.Chemscore.Fitness>
11.4620

> <Gold.Chemscore.DG>
-13.1922

> <Gold.Chemscore.ZeroCoef>
-5.4800

> <Gold.Chemscore.Hbond>
0.9436

> <Gold.Chemscore.Metal>
0.0000

> <Gold.Chemscore.Lipo>
97.5321

> <Gold.Chemscore.Internal_Hbond>
0.0000

> <Gold.Chemscore.DEClash>
0.1720

> <Gold.Chemscore.DEInternal>
1.5582

> <Gold.Chemscore.Rot>
2.6760

> <Gold.Chemscore.Internal.Correction>
   9.000000E+99

> <Gold.Chemscore.Hbonds>
donor molecule, donor type, donor heavy atom, donor atom, acceptor molecule, acceptor atom, score
      P1  H  6896  6907       L1     1  0.48
      P1  H  6896  6908       L1    18  0.17

> <Gold.Chemscore.Hbond.Weighted>
-3.1515

> <Gold.Chemscore.Metal.Weighted>
-0.0000

> <Gold.Chemscore.Lipo.Weighted>
-11.4113

> <Gold.Chemscore.Internal_Hbond.Weighted>
0.0000

> <Gold.Chemscore.DEClash.Weighted>
0.1720

> <Gold.Chemscore.DEInternal.Weighted>
1.5582

> <Gold.Chemscore.Rot.Weighted>
6.8506

> <Gold.Chemscore.Internal.Correction.Weighted>
   9.000000E+99

> <Gold.Protein.RotatedTorsions>
[ 6907 6896 6895 6894 ] final -116.05 input  -60.11 | X-H torsion
[ 7974 7965 7964 7962 ] final   46.11 input  175.53 | X-H torsion
[ 8008 7997 7996 7995 ] final   37.33 input   59.86 | X-H torsion
[ 10167 10162 10161 10158 ] final  -86.33 input  -65.29 | X-H torsion
[ 10718 10713 10712 10709 ] final   27.73 input   66.30 | X-H torsion
[ 10763 10752 10751 10750 ] final  -98.60 input  -60.55 | X-H torsion
[ 11005 11000 10999 10996 ] final  -98.17 input  -57.11 | X-H torsion

> <Gold.Protein.ActiveResidues>
 VAL166  LYS551  ARG553  GLY616  TRP617  ASP618  TYR619  PRO620  LYS621  CYS622 
 ASP623  PHE694  ASN695  SER759  ASP760  ASP761  ALA762  ILE779  LEU786  VAL792 
 PHE793  MET794  SER795  GLU796  ALA797  LYS798  CYS799  TRP800  GLU811  SER814 

> <Gold.Protein.RotatedAtoms>
  150.8025  133.8572  159.3221 H   0  0  0  0  0  0  0  0  0  0  0  0  # atno 6907 bound_to 6896
  151.6380  135.1014  160.0145 H   0  0  0  0  0  0  0  0  0  0  0  0  # atno 6908 bound_to 6896
  152.4113  133.6929  159.6435 H   0  0  0  0  0  0  0  0  0  0  0  0  # atno 6909 bound_to 6896
  146.0419  139.4891  142.9773 H   0  0  0  0  0  0  0  0  0  0  0  0  # atno 7974 bound_to 7965
  155.2020  140.3316  155.4342 H   0  0  0  0  0  0  0  0  0  0  0  0  # atno 8008 bound_to 7997
  156.2403  140.1892  156.7056 H   0  0  0  0  0  0  0  0  0  0  0  0  # atno 8009 bound_to 7997
  154.6135  140.0605  156.9510 H   0  0  0  0  0  0  0  0  0  0  0  0  # atno 8010 bound_to 7997
  140.3952  143.2687  151.9214 H   0  0  0  0  0  0  0  0  0  0  0  0  # atno 10167 bound_to 10162
  157.2241  130.6993  149.6283 H   0  0  0  0  0  0  0  0  0  0  0  0  # atno 10718 bound_to 10713
  154.7428  135.5003  153.9152 H   0  0  0  0  0  0  0  0  0  0  0  0  # atno 10763 bound_to 10752
  153.1060  135.6697  153.9593 H   0  0  0  0  0  0  0  0  0  0  0  0  # atno 10764 bound_to 10752
  153.9366  135.3072  155.3423 H   0  0  0  0  0  0  0  0  0  0  0  0  # atno 10765 bound_to 10752
  141.1354  133.8225  157.0803 H   0  0  0  0  0  0  0  0  0  0  0  0  # atno 11005 bound_to 11000
  145.6870  141.0175  143.1576 LP  0  0  0  0  0  0  0  0  0  0  0  0  # atno 17320 bound_to 7965
  144.7079  139.8488  143.7424 LP  0  0  0  0  0  0  0  0  0  0  0  0  # atno 17321 bound_to 7965
  139.4787  144.5689  151.8121 LP  0  0  0  0  0  0  0  0  0  0  0  0  # atno 17342 bound_to 10162
  140.4798  144.1466  150.5931 LP  0  0  0  0  0  0  0  0  0  0  0  0  # atno 17343 bound_to 10162
  155.9680  130.4510  150.5719 LP  0  0  0  0  0  0  0  0  0  0  0  0  # atno 17370 bound_to 10713
  157.3546  131.0739  151.1686 LP  0  0  0  0  0  0  0  0  0  0  0  0  # atno 17371 bound_to 10713
  140.0456  134.9832  157.1042 LP  0  0  0  0  0  0  0  0  0  0  0  0  # atno 17394 bound_to 11000
  140.4069  134.2023  155.7163 LP  0  0  0  0  0  0  0  0  0  0  0  0  # atno 17395 bound_to 11000

$$$$
