AV-unprocessed.smi:1421|AV-procd|sdf|5790|dock2
  -GOLD-   22720 5433D 1   1.00000     0.00000
 Structure written by MMmdl.
 45 46  0  0  0  0  0  0  0  0  1 V2000
  145.6264  135.6951  151.1098 C   0  0  0  0  0  0  0  0  0  0  0  0
  146.0359  133.9797  151.6262 S   0  0  0  0  0  0  0  0  0  0  0  0
  144.9227  133.4602  152.4348 O   0  0  0  0  0  0  0  0  0  0  0  0
  146.5114  133.2276  150.4554 O   0  0  0  0  0  0  0  0  0  0  0  0
  147.3903  134.2218  152.6696 N   0  0  0  0  0  0  0  0  0  0  0  0
  148.1073  133.0527  153.1821 C   0  0  0  0  0  0  0  0  0  0  0  0
  149.5116  133.4401  153.6825 C   0  0  0  0  0  0  0  0  0  0  0  0
  149.4765  134.4787  154.8074 C   0  0  0  0  0  0  0  0  0  0  0  0
  149.8054  134.1682  155.9524 O   0  0  0  0  0  0  0  0  0  0  0  0
  149.0880  135.7156  154.4597 N   0  0  0  0  0  0  0  0  0  0  0  0
  149.0346  136.8748  155.3459 C   0  0  0  0  0  0  0  0  0  0  0  0
  150.2636  137.7654  155.2130 C   0  0  0  0  0  0  0  0  0  0  0  0
  151.5421  137.2256  155.4706 C   0  0  0  0  0  0  0  0  0  0  0  0
  152.6741  138.0534  155.3598 C   0  0  0  0  0  0  0  0  0  0  0  0
  152.4829  139.3980  154.9938 C   0  0  0  0  0  0  0  0  0  0  0  0
  151.2688  139.9294  154.7426 N   0  0  0  0  0  0  0  0  0  0  0  0
  150.1753  139.1352  154.8486 C   0  0  0  0  0  0  0  0  0  0  0  0
  148.9282  139.7126  154.5573 N   0  0  0  0  0  0  0  0  0  0  0  0
  148.9079  141.1673  154.4607 C   0  0  0  0  0  0  0  0  0  0  0  0
  147.4574  141.6586  154.3206 C   0  0  0  0  0  0  0  0  0  0  0  0
  146.8532  141.0357  153.1906 O   0  0  0  0  0  0  0  0  0  0  0  0
  146.8112  139.6167  153.3180 C   0  0  0  0  0  0  0  0  0  0  0  0
  148.2402  139.0610  153.4512 C   0  0  0  0  0  0  0  0  0  0  0  0
  144.7719  135.6754  150.4337 H   0  0  0  0  0  0  0  0  0  0  0  0
  146.4811  136.1375  150.5990 H   0  0  0  0  0  0  0  0  0  0  0  0
  145.3790  136.2914  151.9877 H   0  0  0  0  0  0  0  0  0  0  0  0
  148.0410  134.8951  152.2653 H   0  0  0  0  0  0  0  0  0  0  0  0
  147.5204  132.5863  153.9749 H   0  0  0  0  0  0  0  0  0  0  0  0
  148.1856  132.3241  152.3746 H   0  0  0  0  0  0  0  0  0  0  0  0
  150.0297  132.5556  154.0545 H   0  0  0  0  0  0  0  0  0  0  0  0
  150.1115  133.8285  152.8594 H   0  0  0  0  0  0  0  0  0  0  0  0
  148.8329  135.8736  153.4956 H   0  0  0  0  0  0  0  0  0  0  0  0
  148.1391  137.4444  155.0963 H   0  0  0  0  0  0  0  0  0  0  0  0
  148.9201  136.5856  156.3914 H   0  0  0  0  0  0  0  0  0  0  0  0
  151.6578  136.1896  155.7536 H   0  0  0  0  0  0  0  0  0  0  0  0
  153.6641  137.6674  155.5526 H   0  0  0  0  0  0  0  0  0  0  0  0
  153.3272  140.0649  154.8993 H   0  0  0  0  0  0  0  0  0  0  0  0
  149.3677  141.6019  155.3488 H   0  0  0  0  0  0  0  0  0  0  0  0
  149.4916  141.4919  153.5981 H   0  0  0  0  0  0  0  0  0  0  0  0
  146.8825  141.4404  155.2223 H   0  0  0  0  0  0  0  0  0  0  0  0
  147.4380  142.7397  154.1832 H   0  0  0  0  0  0  0  0  0  0  0  0
  146.2026  139.3387  154.1794 H   0  0  0  0  0  0  0  0  0  0  0  0
  146.3253  139.1952  152.4381 H   0  0  0  0  0  0  0  0  0  0  0  0
  148.7958  139.2340  152.5286 H   0  0  0  0  0  0  0  0  0  0  0  0
  148.2086  137.9827  153.6111 H   0  0  0  0  0  0  0  0  0  0  0  0
  1  2  1  0  0  0  0
  1 24  1  0  0  0  0
  1 25  1  0  0  0  0
  1 26  1  0  0  0  0
  2  3  2  0  0  0  0
  2  4  2  0  0  0  0
  2  5  1  0  0  0  0
  5  6  1  0  0  0  0
  5 27  1  0  0  0  0
  6  7  1  0  0  0  0
  6 28  1  0  0  0  0
  6 29  1  0  0  0  0
  7  8  1  0  0  0  0
  7 30  1  0  0  0  0
  7 31  1  0  0  0  0
  8  9  2  0  0  0  0
  8 10  1  0  0  0  0
 10 11  1  0  0  0  0
 10 32  1  0  0  0  0
 11 12  1  0  0  0  0
 11 33  1  0  0  0  0
 11 34  1  0  0  0  0
 12 17  1  0  0  0  0
 12 13  2  0  0  0  0
 13 14  1  0  0  0  0
 13 35  1  0  0  0  0
 14 15  2  0  0  0  0
 14 36  1  0  0  0  0
 15 16  1  0  0  0  0
 15 37  1  0  0  0  0
 16 17  2  0  0  0  0
 17 18  1  0  0  0  0
 18 23  1  0  0  0  0
 18 19  1  0  0  0  0
 19 20  1  0  0  0  0
 19 38  1  0  0  0  0
 19 39  1  0  0  0  0
 20 21  1  0  0  0  0
 20 40  1  0  0  0  0
 20 41  1  0  0  0  0
 21 22  1  0  0  0  0
 22 23  1  0  0  0  0
 22 42  1  0  0  0  0
 22 43  1  0  0  0  0
 23 44  1  0  0  0  0
 23 45  1  0  0  0  0
M  END
> <s_m_source_file>
AV-unprocessed.smi

> <i_m_source_file_index>
1421

> <i_lp_mmshare_version>
43012

> <i_f3d_flags>
0

> <s_epik_input>
W0NIM11TKD1PKSg9TylbTkhdW0NIMl1bQ0gyXUMoPU8pW05IXVtDSDJdYzFbY0hdW2NIXVtjSF1uYzFOMltDSDJdW0NIMl1PW0NIMl1bQ0gyXTI=

> <s_epik_cmdline>
J2VwaWtfcHl0aG9uJywgJy1waCcsICc3LjAnLCAnLXRuJywgJzgnLCAnLW1hJywgJzIwMCcsICctbWV0YWxfYmluZGluZycsICctaW1hZScsICc8aW5maWxlLm1hZT4nLCAnLW9tYWUnLCAnPG91dGZpbGUubWFlPic=

> <r_lp_tautomer_probability>
1

> <r_epik_Ionization_Penalty>
0.00479902

> <r_epik_Ionization_Penalty_Charging>
0

> <r_epik_Ionization_Penalty_Neutral>
0.00479902

> <r_epik_State_Penalty>
0.00346804

> <r_epik_Charging_Adjusted_Penalty>
0.00346804

> <i_epik_Tot_Q>
0

> <i_epik_Tot_abs_Q>
0

> <r_epik_Metal_State_Penalty>
0.0135183

> <b_epik_Metal_Only>
0

> <s_lp_Force_Field>
OPLS_2005

> <r_lp_Energy>
16.2215

> <b_lp_Chiralities_Consistent>
1

> <s_lp_Variant>
AV-unprocessed.smi:1421-1

> <Gold.Version>
5.8.1

> <Gold.Id.Protein>
6NUR|6NUR_protein|mol2

> <Gold.PLP.Fitness>
44.6604

> <Gold.PLP.PLP>
-36.4257

> <Gold.PLP.part.hbond>
-3.0000

> <Gold.PLP.part.metal>
0.0000

> <Gold.PLP.part.buried>
-2.8227

> <Gold.PLP.part.nonpolar>
-32.0296

> <Gold.PLP.part.repulsive>
0.7050

> <Gold.PLP.ligand.clash>
0.0000

> <Gold.PLP.ligand.torsion>
0.5527

> <Gold.PLP.Chemscore.Hbond>
3.0000

> <Gold.PLP.Chemscore.CHOScore>
0.0000

> <Gold.PLP.Chemscore.Metal>
0.0000

> <Gold.Chemscore.Hbonds>
donor molecule, donor type, donor heavy atom, donor atom, acceptor molecule, acceptor atom, score
      L1  H     5    27       P1  7948  1.00
      L1  H    10    32       P1  7948  1.00
      P1  H  7989  7998       L1    16  0.95

> <Gold.PLP.Chemscore.Internal.Correction>
0.3401

> <Gold.Rescore>
     Score         DG    S(hbond)    S(metal)    S(lipo)     H(rot)  DE(clash)    DE(int)     intcor
     12.47     -14.54       2.49        0.00      69.84       2.90       0.41       1.66       ----

> <Gold.Chemscore.Fitness>
12.4685

> <Gold.Chemscore.DG>
-14.5354

> <Gold.Chemscore.ZeroCoef>
-5.4800

> <Gold.Chemscore.Hbond>
2.4887

> <Gold.Chemscore.Metal>
0.0000

> <Gold.Chemscore.Lipo>
69.8388

> <Gold.Chemscore.Internal_Hbond>
0.0000

> <Gold.Chemscore.DEClash>
0.4116

> <Gold.Chemscore.DEInternal>
1.6552

> <Gold.Chemscore.Rot>
2.9015

> <Gold.Chemscore.Internal.Correction>
   9.000000E+99

> <Gold.Chemscore.Hbonds>
donor molecule, donor type, donor heavy atom, donor atom, acceptor molecule, acceptor atom, score
      L1  H     5    27       P1  7948  0.60
      L1  H    10    32       P1  7948  0.97
      P1  H  7989  7998       L1    16  0.21

> <Gold.Chemscore.Hbond.Weighted>
-8.3121

> <Gold.Chemscore.Metal.Weighted>
-0.0000

> <Gold.Chemscore.Lipo.Weighted>
-8.1711

> <Gold.Chemscore.Internal_Hbond.Weighted>
0.0000

> <Gold.Chemscore.DEClash.Weighted>
0.4116

> <Gold.Chemscore.DEInternal.Weighted>
1.6552

> <Gold.Chemscore.Rot.Weighted>
7.4278

> <Gold.Chemscore.Internal.Correction.Weighted>
   9.000000E+99

> <Gold.Protein.RotatedTorsions>
[ 6907 6896 6895 6894 ] final  -53.69 input  -60.11 | X-H torsion
[ 7974 7965 7964 7962 ] final  148.53 input  175.53 | X-H torsion
[ 8008 7997 7996 7995 ] final -133.13 input   59.86 | X-H torsion
[ 10167 10162 10161 10158 ] final   35.26 input  -65.29 | X-H torsion
[ 10718 10713 10712 10709 ] final   98.98 input   66.30 | X-H torsion
[ 10763 10752 10751 10750 ] final  167.58 input  -60.55 | X-H torsion
[ 11005 11000 10999 10996 ] final   -4.24 input  -57.11 | X-H torsion

> <Gold.Protein.ActiveResidues>
 VAL166  LYS551  ARG553  GLY616  TRP617  ASP618  TYR619  PRO620  LYS621  CYS622 
 ASP623  PHE694  ASN695  SER759  ASP760  ASP761  ALA762  ILE779  LEU786  VAL792 
 PHE793  MET794  SER795  GLU796  ALA797  LYS798  CYS799  TRP800  GLU811  SER814 

> <Gold.Protein.RotatedAtoms>
  150.8404  134.7694  159.6927 H   0  0  0  0  0  0  0  0  0  0  0  0  # atno 6907 bound_to 6896
  152.4493  134.5425  159.9853 H   0  0  0  0  0  0  0  0  0  0  0  0  # atno 6908 bound_to 6896
  151.5566  133.3371  159.2999 H   0  0  0  0  0  0  0  0  0  0  0  0  # atno 6909 bound_to 6896
  144.8506  139.6166  143.5975 H   0  0  0  0  0  0  0  0  0  0  0  0  # atno 7974 bound_to 7965
  155.3404  140.0472  157.3045 H   0  0  0  0  0  0  0  0  0  0  0  0  # atno 8008 bound_to 7997
  154.5280  140.2247  155.8820 H   0  0  0  0  0  0  0  0  0  0  0  0  # atno 8009 bound_to 7997
  156.1759  140.3085  155.9065 H   0  0  0  0  0  0  0  0  0  0  0  0  # atno 8010 bound_to 7997
  140.4239  144.1421  150.6151 H   0  0  0  0  0  0  0  0  0  0  0  0  # atno 10167 bound_to 10162
  157.6885  131.0656  150.4878 H   0  0  0  0  0  0  0  0  0  0  0  0  # atno 10718 bound_to 10713
  154.3559  135.2753  155.2346 H   0  0  0  0  0  0  0  0  0  0  0  0  # atno 10763 bound_to 10752
  154.4556  135.5920  153.6224 H   0  0  0  0  0  0  0  0  0  0  0  0  # atno 10764 bound_to 10752
  152.9846  135.6052  154.3774 H   0  0  0  0  0  0  0  0  0  0  0  0  # atno 10765 bound_to 10752
  140.6781  133.9177  155.8537 H   0  0  0  0  0  0  0  0  0  0  0  0  # atno 11005 bound_to 11000
  146.2782  139.6807  142.9248 LP  0  0  0  0  0  0  0  0  0  0  0  0  # atno 17320 bound_to 7965
  145.4507  141.0428  143.2806 LP  0  0  0  0  0  0  0  0  0  0  0  0  # atno 17321 bound_to 7965
  140.4503  143.2489  151.9356 LP  0  0  0  0  0  0  0  0  0  0  0  0  # atno 17342 bound_to 10162
  139.4783  144.5568  151.8301 LP  0  0  0  0  0  0  0  0  0  0  0  0  # atno 17343 bound_to 10162
  156.5206  130.4161  149.6252 LP  0  0  0  0  0  0  0  0  0  0  0  0  # atno 17370 bound_to 10713
  156.3158  130.7253  151.2155 LP  0  0  0  0  0  0  0  0  0  0  0  0  # atno 17371 bound_to 10713
  141.0339  134.0717  157.3982 LP  0  0  0  0  0  0  0  0  0  0  0  0  # atno 17394 bound_to 11000
  139.8960  135.0144  156.7031 LP  0  0  0  0  0  0  0  0  0  0  0  0  # atno 17395 bound_to 11000

$$$$
