AV-unprocessed.smi:763|AV-procd|sdf|3641|dock7
  -GOLD-   22720 1 43D 1   1.00000     0.00000
 Structure written by MMmdl.
 43 44  0  0  0  0  0  0  0  0  2 V2000
  147.6639  136.3199  162.7996 C   0  0  0  0  0  0  0  0  0  0  0  0
  148.3531  136.8189  161.6670 O   0  0  0  0  0  0  0  0  0  0  0  0
  147.6836  136.5251  160.4520 C   0  0  0  0  0  0  0  0  0  0  0  0
  148.6323  135.7554  159.5293 C   0  0  0  0  0  0  0  0  0  0  0  0
  149.3240  136.6926  158.7109 O   0  0  0  0  0  0  0  0  0  0  0  0
  149.7854  136.2877  157.4715 C   0  0  0  0  0  0  0  0  0  0  0  0
  149.4968  135.0246  157.0667 N   0  0  0  0  0  0  0  0  0  0  0  0
  149.9405  134.6182  155.8618 C   0  0  0  0  0  0  0  0  0  0  0  0
  150.6887  135.4412  155.0042 C   0  0  0  0  0  0  0  0  0  0  0  0
  150.9850  136.7490  155.4282 C   0  0  0  0  0  0  0  0  0  0  0  0
  150.5325  137.2056  156.6906 C   0  0  0  0  0  0  0  0  0  0  0  0
  150.7812  138.4411  157.1566 N   0  5  0  0  0  0  0  0  0  0  0  0
  151.6082  139.6099  156.4011 S   0  0  0  0  0  0  0  0  0  0  0  0
  153.0505  139.3209  156.3753 O   0  0  0  0  0  0  0  0  0  0  0  0
  150.9764  139.9795  155.1251 O   0  0  0  0  0  0  0  0  0  0  0  0
  151.3668  141.0540  157.5504 C   0  0  1  0  0  0  0  0  0  0  0  0
  152.5020  141.1013  158.5954 C   0  0  0  0  0  0  0  0  0  0  0  0
  152.3433  142.2873  159.5585 C   0  0  0  0  0  0  0  0  0  0  0  0
  152.2489  143.6127  158.7895 C   0  0  0  0  0  0  0  0  0  0  0  0
  151.0872  143.5816  157.7862 C   0  0  0  0  0  0  0  0  0  0  0  0
  151.2169  142.4038  156.8021 C   0  0  2  0  0  0  0  0  0  0  0  0
  150.0639  142.4048  155.9852 O   0  0  0  0  0  0  0  0  0  0  0  0
  148.2170  136.5693  163.7051 H   0  0  0  0  0  0  0  0  0  0  0  0
  147.5646  135.2345  162.7543 H   0  0  0  0  0  0  0  0  0  0  0  0
  146.6688  136.7593  162.8810 H   0  0  0  0  0  0  0  0  0  0  0  0
  146.7927  135.9269  160.6506 H   0  0  0  0  0  0  0  0  0  0  0  0
  147.3606  137.4480  159.9675 H   0  0  0  0  0  0  0  0  0  0  0  0
  149.3379  135.1761  160.1267 H   0  0  0  0  0  0  0  0  0  0  0  0
  148.0604  135.0619  158.9105 H   0  0  0  0  0  0  0  0  0  0  0  0
  149.6918  133.6076  155.5733 H   0  0  0  0  0  0  0  0  0  0  0  0
  151.0278  135.0804  154.0446 H   0  0  0  0  0  0  0  0  0  0  0  0
  151.5591  137.3879  154.7736 H   0  0  0  0  0  0  0  0  0  0  0  0
  150.4375  140.8543  158.0850 H   0  0  0  0  0  0  0  0  0  0  0  0
  152.5277  140.1725  159.1654 H   0  0  0  0  0  0  0  0  0  0  0  0
  153.4663  141.1783  158.0922 H   0  0  0  0  0  0  0  0  0  0  0  0
  151.4475  142.1498  160.1656 H   0  0  0  0  0  0  0  0  0  0  0  0
  153.1851  142.3182  160.2508 H   0  0  0  0  0  0  0  0  0  0  0  0
  152.1143  144.4391  159.4878 H   0  0  0  0  0  0  0  0  0  0  0  0
  153.1851  143.7999  158.2621 H   0  0  0  0  0  0  0  0  0  0  0  0
  150.1456  143.5049  158.3320 H   0  0  0  0  0  0  0  0  0  0  0  0
  151.0498  144.5236  157.2377 H   0  0  0  0  0  0  0  0  0  0  0  0
  152.0854  142.5744  156.1656 H   0  0  0  0  0  0  0  0  0  0  0  0
  149.5766  143.1966  156.1612 H   0  0  0  0  0  0  0  0  0  0  0  0
  1  2  1  0  0  0  0
  1 23  1  0  0  0  0
  1 24  1  0  0  0  0
  1 25  1  0  0  0  0
  2  3  1  0  0  0  0
  3  4  1  0  0  0  0
  3 26  1  0  0  0  0
  3 27  1  0  0  0  0
  4  5  1  0  0  0  0
  4 28  1  0  0  0  0
  4 29  1  0  0  0  0
  5  6  1  0  0  0  0
  6 11  1  0  0  0  0
  6  7  2  0  0  0  0
  7  8  1  0  0  0  0
  8  9  2  0  0  0  0
  8 30  1  0  0  0  0
  9 10  1  0  0  0  0
  9 31  1  0  0  0  0
 10 11  2  0  0  0  0
 10 32  1  0  0  0  0
 11 12  1  0  0  0  0
 12 13  1  0  0  0  0
 13 14  2  0  0  0  0
 13 15  2  0  0  0  0
 13 16  1  0  0  0  0
 16 21  1  0  0  0  0
 16 17  1  0  0  0  0
 16 33  1  0  0  0  0
 17 18  1  0  0  0  0
 17 34  1  0  0  0  0
 17 35  1  0  0  0  0
 18 19  1  0  0  0  0
 18 36  1  0  0  0  0
 18 37  1  0  0  0  0
 19 20  1  0  0  0  0
 19 38  1  0  0  0  0
 19 39  1  0  0  0  0
 20 21  1  0  0  0  0
 20 40  1  0  0  0  0
 20 41  1  0  0  0  0
 21 22  1  0  0  0  0
 21 42  1  0  0  0  0
 22 43  1  0  0  0  0
M  CHG  1  12  -1
M  END
> <s_m_source_file>
AV-unprocessed.smi

> <i_m_source_file_index>
763

> <i_lp_mmshare_version>
43012

> <i_f3d_flags>
0

> <s_epik_input>
W0NIM11PW0NIMl1bQ0gyXU9jMW5bY0hdW2NIXVtjSF1jMVtOSF1TKD1PKSg9TylbQ0BASF0yW0NIMl1bQ0gyXVtDSDJdW0NIMl1bQ0BIXTJbT0hd

> <s_epik_cmdline>
J2VwaWtfcHl0aG9uJywgJy1waCcsICc3LjAnLCAnLXRuJywgJzgnLCAnLW1hJywgJzIwMCcsICctbWV0YWxfYmluZGluZycsICctaW1hZScsICc8aW5maWxlLm1hZT4nLCAnLW9tYWUnLCAnPG91dGZpbGUubWFlPic=

> <r_epik_Ionization_Penalty>
0.985866

> <r_epik_Ionization_Penalty_Charging>
0.984689

> <r_epik_Ionization_Penalty_Neutral>
0.00117669

> <r_epik_State_Penalty>
1.03185

> <r_epik_Charging_Adjusted_Penalty>
2.01654

> <i_epik_Tot_Q>
-1

> <i_epik_Tot_abs_Q>
1

> <r_epik_Metal_State_Penalty>
0.379327

> <b_epik_Metal_Only>
0

> <s_lp_Force_Field>
OPLS_2005

> <r_lp_Energy>
12.3321

> <b_lp_Chiralities_Consistent>
1

> <s_lp_Variant>
AV-unprocessed.smi:763-8

> <Gold.Version>
5.8.1

> <Gold.Id.Protein>
6NUR|6NUR_protein|mol2

> <Gold.PLP.Fitness>
46.3532

> <Gold.PLP.PLP>
-37.8716

> <Gold.PLP.part.hbond>
-4.1180

> <Gold.PLP.part.metal>
0.0000

> <Gold.PLP.part.buried>
-6.9493

> <Gold.PLP.part.nonpolar>
-27.5367

> <Gold.PLP.part.repulsive>
0.0406

> <Gold.PLP.ligand.clash>
0.0000

> <Gold.PLP.ligand.torsion>
2.4165

> <Gold.PLP.Chemscore.Hbond>
4.0000

> <Gold.PLP.Chemscore.CHOScore>
0.0000

> <Gold.PLP.Chemscore.Metal>
0.0000

> <Gold.Chemscore.Hbonds>
donor molecule, donor type, donor heavy atom, donor atom, acceptor molecule, acceptor atom, score
      L1  H    22    43       P1  8028  1.00
      P1  H  6931  6943       L1     2  1.00
      P1  H  7989  7998       L1    15  1.00
      P1  H  7997  8008       L1    14  1.00

> <Gold.PLP.Chemscore.Internal.Correction>
1.3147

> <Gold.Rescore>
     Score         DG    S(hbond)    S(metal)    S(lipo)     H(rot)  DE(clash)    DE(int)     intcor
     20.98     -23.45       3.86        0.00      94.82       2.35       0.13       2.34       ----

> <Gold.Chemscore.Fitness>
20.9800

> <Gold.Chemscore.DG>
-23.4489

> <Gold.Chemscore.ZeroCoef>
-5.4800

> <Gold.Chemscore.Hbond>
3.8604

> <Gold.Chemscore.Metal>
0.0000

> <Gold.Chemscore.Lipo>
94.8158

> <Gold.Chemscore.Internal_Hbond>
0.0000

> <Gold.Chemscore.DEClash>
0.1263

> <Gold.Chemscore.DEInternal>
2.3426

> <Gold.Chemscore.Rot>
2.3509

> <Gold.Chemscore.Internal.Correction>
   9.000000E+99

> <Gold.Chemscore.Hbonds>
donor molecule, donor type, donor heavy atom, donor atom, acceptor molecule, acceptor atom, score
      L1  H    22    43       P1  8028  0.96
      P1  H  6931  6943       L1     2  0.83
      P1  H  7989  7998       L1    15  0.98
      P1  H  7997  8008       L1    14  0.94

> <Gold.Chemscore.Hbond.Weighted>
-12.8937

> <Gold.Chemscore.Metal.Weighted>
-0.0000

> <Gold.Chemscore.Lipo.Weighted>
-11.0934

> <Gold.Chemscore.Internal_Hbond.Weighted>
0.0000

> <Gold.Chemscore.DEClash.Weighted>
0.1263

> <Gold.Chemscore.DEInternal.Weighted>
2.3426

> <Gold.Chemscore.Rot.Weighted>
6.0182

> <Gold.Chemscore.Internal.Correction.Weighted>
   9.000000E+99

> <Gold.Protein.RotatedTorsions>
[ 6907 6896 6895 6894 ] final   -1.82 input  -60.11 | X-H torsion
[ 7974 7965 7964 7962 ] final -128.28 input  175.53 | X-H torsion
[ 8008 7997 7996 7995 ] final  -64.37 input   59.86 | X-H torsion
[ 10167 10162 10161 10158 ] final  -73.65 input  -65.29 | X-H torsion
[ 10718 10713 10712 10709 ] final  -98.69 input   66.30 | X-H torsion
[ 10763 10752 10751 10750 ] final   97.53 input  -60.55 | X-H torsion
[ 11005 11000 10999 10996 ] final  112.26 input  -57.11 | X-H torsion

> <Gold.Protein.ActiveResidues>
 VAL166  LYS551  ARG553  GLY616  TRP617  ASP618  TYR619  PRO620  LYS621  CYS622 
 ASP623  PHE694  ASN695  SER759  ASP760  ASP761  ALA762  ILE779  LEU786  VAL792 
 PHE793  MET794  SER795  GLU796  ALA797  LYS798  CYS799  TRP800  GLU811  SER814 

> <Gold.Protein.RotatedAtoms>
  151.5398  135.1068  159.9923 H   0  0  0  0  0  0  0  0  0  0  0  0  # atno 6907 bound_to 6896
  152.4540  133.7682  159.6795 H   0  0  0  0  0  0  0  0  0  0  0  0  # atno 6908 bound_to 6896
  150.8478  133.7768  159.3061 H   0  0  0  0  0  0  0  0  0  0  0  0  # atno 6909 bound_to 6896
  144.9687  140.7522  143.4684 H   0  0  0  0  0  0  0  0  0  0  0  0  # atno 7974 bound_to 7965
  154.4608  140.0955  156.6887 H   0  0  0  0  0  0  0  0  0  0  0  0  # atno 8008 bound_to 7997
  155.5000  140.3473  155.4351 H   0  0  0  0  0  0  0  0  0  0  0  0  # atno 8009 bound_to 7997
  156.0866  140.1386  156.9634 H   0  0  0  0  0  0  0  0  0  0  0  0  # atno 8010 bound_to 7997
  140.5093  143.2347  151.7621 H   0  0  0  0  0  0  0  0  0  0  0  0  # atno 10167 bound_to 10162
  156.0114  130.5249  150.6559 H   0  0  0  0  0  0  0  0  0  0  0  0  # atno 10718 bound_to 10713
  153.2780  135.4180  155.1052 H   0  0  0  0  0  0  0  0  0  0  0  0  # atno 10763 bound_to 10752
  154.8479  135.3488  154.6151 H   0  0  0  0  0  0  0  0  0  0  0  0  # atno 10764 bound_to 10752
  153.6572  135.7050  153.5247 H   0  0  0  0  0  0  0  0  0  0  0  0  # atno 10765 bound_to 10752
  139.8923  134.9526  156.6558 H   0  0  0  0  0  0  0  0  0  0  0  0  # atno 11005 bound_to 11000
  145.2591  139.1999  143.4901 LP  0  0  0  0  0  0  0  0  0  0  0  0  # atno 17320 bound_to 7965
  146.3375  140.2518  142.8599 LP  0  0  0  0  0  0  0  0  0  0  0  0  # atno 17321 bound_to 7965
  139.4892  144.4413  151.9761 LP  0  0  0  0  0  0  0  0  0  0  0  0  # atno 17342 bound_to 10162
  140.3505  144.3094  150.5950 LP  0  0  0  0  0  0  0  0  0  0  0  0  # atno 17343 bound_to 10162
  157.4311  131.0849  151.1037 LP  0  0  0  0  0  0  0  0  0  0  0  0  # atno 17370 bound_to 10713
  157.1610  130.6225  149.5610 LP  0  0  0  0  0  0  0  0  0  0  0  0  # atno 17371 bound_to 10713
  140.7485  133.8917  155.8330 LP  0  0  0  0  0  0  0  0  0  0  0  0  # atno 17394 bound_to 11000
  141.0020  134.1138  157.4308 LP  0  0  0  0  0  0  0  0  0  0  0  0  # atno 17395 bound_to 11000

$$$$
