#       Name:                AV-unprocessed.smi:1911
#       Creating user name   scv26
#       Creation time:       Fri Mar 27 09:48:15 2020


#       File generated by GOLD software.
#

@<TRIPOS>MOLECULE
AV-unprocessed.smi:1911
    58    60     1
SMALL
NO_CHARGES


@<TRIPOS>ATOM
      1 ****        -3.8269  -6.9872  -1.2748 N.am           1 S1                 0.0000
      2 ****        -4.2920  -5.7644  -1.0093 C.2            1 S1                 0.0000
      3 ****        -5.2438  -5.2787  -1.6180 O.2            1 S1                 0.0000
      4 ****        -3.5951  -4.9887   0.1134 C.3            1 S1                 0.0000
      5 ****        -3.8455  -3.5253   0.0534 N.4            1 S1                 1.0000
      6 ****        -3.0445  -2.8390  -0.9954 C.3            1 S1                 0.0000
      7 ****        -3.4398  -1.3569  -1.1143 C.3            1 S1                 0.0000
      8 ****        -3.3168  -0.6164   0.2324 C.3            1 S1                 0.0000
      9 ****        -1.9208  -0.4341   0.6302 N.am           1 S1                 0.0000
     10 ****        -1.0882   0.4925   0.1336 C.2            1 S1                 0.0000
     11 ****        -1.4108   1.2937  -0.7428 O.2            1 S1                 0.0000
     12 ****         0.1276   0.4092   0.7005 N.am           1 S1                 0.0000
     13 ****         1.2750   1.2093   0.4503 C.ar           1 S1                 0.0000
     14 ****         1.2266   2.5186  -0.0902 C.ar           1 S1                 0.0000
     15 ****         2.4257   3.2356  -0.2815 C.ar           1 S1                 0.0000
     16 ****         3.6592   2.6376   0.0678 C.ar           1 S1                 0.0000
     17 ****         4.9039   3.2723  -0.0626 N.3            1 S1                 0.0000
     18 ****         5.1677   3.9593  -1.3257 C.3            1 S1                 0.0000
     19 ****         5.8825   5.2631  -0.9663 C.3            1 S1                 0.0000
     20 ****         5.3642   5.5648   0.4339 C.3            1 S1                 0.0000
     21 ****         5.2129   4.1716   1.0432 C.3            1 S1                 0.0000
     22 ****         3.6570   1.3970   0.6027 N.pl3          1 S1                 1.0000
     23 ****         2.5325   0.6773   0.8043 C.ar           1 S1                 0.0000
     24 ****        -4.0907  -1.3848   1.3177 C.3            1 S1                 0.0000
     25 ****        -3.6879  -2.8700   1.3770 C.3            1 S1                 0.0000
     26 ****        -4.2564  -7.5387  -2.0043 H              1 S1                 0.0000
     27 ****        -3.0515  -7.3625  -0.7477 H              1 S1                 0.0000
     28 ****        -3.9806  -5.3886   1.0522 H              1 S1                 0.0000
     29 ****        -2.5215  -5.1853   0.1070 H              1 S1                 0.0000
     30 ****        -1.9822  -2.9289  -0.7631 H              1 S1                 0.0000
     31 ****        -3.1949  -3.3242  -1.9602 H              1 S1                 0.0000
     32 ****        -2.8359  -0.8689  -1.8801 H              1 S1                 0.0000
     33 ****        -4.4716  -1.2928  -1.4624 H              1 S1                 0.0000
     34 ****        -3.7684   0.3724   0.1326 H              1 S1                 0.0000
     35 ****        -1.5686  -1.0490   1.3493 H              1 S1                 0.0000
     36 ****         0.2649  -0.3532   1.3478 H              1 S1                 0.0000
     37 ****         0.2935   2.9965  -0.3452 H              1 S1                 0.0000
     38 ****         2.3867   4.2393  -0.6788 H              1 S1                 0.0000
     39 ****         5.7891   3.3385  -1.9716 H              1 S1                 0.0000
     40 ****         4.2508   4.1748  -1.8735 H              1 S1                 0.0000
     41 ****         6.9606   5.0988  -0.9325 H              1 S1                 0.0000
     42 ****         5.6853   6.0655  -1.6777 H              1 S1                 0.0000
     43 ****         6.0302   6.2094   1.0081 H              1 S1                 0.0000
     44 ****         4.3901   6.0518   0.3717 H              1 S1                 0.0000
     45 ****         4.4550   4.1598   1.8283 H              1 S1                 0.0000
     46 ****         6.1536   3.8491   1.4904 H              1 S1                 0.0000
     47 ****         2.6755  -0.3020   1.2380 H              1 S1                 0.0000
     48 ****        -3.9432  -0.9169   2.2920 H              1 S1                 0.0000
     49 ****        -5.1593  -1.3164   1.1090 H              1 S1                 0.0000
     50 ****        -4.3122  -3.3764   2.1142 H              1 S1                 0.0000
     51 ****        -2.6554  -2.9724   1.7144 H              1 S1                 0.0000
     52 ****        -4.8175  -3.4196  -0.2021 H              1 S1                 0.0000
     53 ****         4.5512   0.9821   0.8663 H              1 S1                 0.0000
     54 ****        -5.6964  -5.8033  -2.3391 LP             1 S1                 0.0000
     55 ****        -5.5652  -4.3591  -1.3919 LP             1 S1                 0.0000
     56 ****        -2.3360   1.2745  -1.1218 LP             1 S1                 0.0000
     57 ****        -0.7478   1.9641  -1.0761 LP             1 S1                 0.0000
     58 ****         5.5188   2.4839  -0.0466 LP             1 S1                 0.0000
@<TRIPOS>BOND
    1    1    2 am    
    2    1   26 1     
    3    1   27 1     
    4    2    3 2     
    5    2    4 1     
    6    4    5 1     
    7    4   28 1     
    8    4   29 1     
    9    5   25 1     
   10    5    6 1     
   11    5   52 1     
   12    6    7 1     
   13    6   30 1     
   14    6   31 1     
   15    7    8 1     
   16    7   32 1     
   17    7   33 1     
   18    8    9 1     
   19    8   24 1     
   20    8   34 1     
   21    9   10 am    
   22    9   35 1     
   23   10   11 2     
   24   10   12 am    
   25   12   13 1     
   26   12   36 1     
   27   13   23 ar    
   28   13   14 ar    
   29   14   15 ar    
   30   14   37 1     
   31   15   16 ar    
   32   15   38 1     
   33   16   17 1     
   34   16   22 ar    
   35   17   21 1     
   36   17   18 1     
   37   18   19 1     
   38   18   39 1     
   39   18   40 1     
   40   19   20 1     
   41   19   41 1     
   42   19   42 1     
   43   20   21 1     
   44   20   43 1     
   45   20   44 1     
   46   21   45 1     
   47   21   46 1     
   48   22   23 ar    
   49   22   53 1     
   50   23   47 1     
   51   24   25 1     
   52   24   48 1     
   53   24   49 1     
   54   25   50 1     
   55   25   51 1     
   56    3   54 1     
   57    3   55 1     
   58   11   56 1     
   59   11   57 1     
   60   17   58 1     
@<TRIPOS>SUBSTRUCTURE
      1 S1             1
@<TRIPOS>SET
LONE_PAIRS      STATIC     ATOMS    <user>   **** ""
5 54 55 56 57 58
DONOR_HYDROGENS      STATIC     ATOMS    <user>   **** ""
6 26 27 52 35 36 53
ATOM$BLUE        STATIC     ATOMS    COLORGROUP SYSTEM
5 54 55 56 57 58
ATOM$RED        STATIC     ATOMS    COLORGROUP SYSTEM
6 26 27 52 35 36 53
