AV-unprocessed.smi:2597|AV-procd|sdf|10177|dock10
  -GOLD-   2272014193D 1   1.00000     0.00000
 Structure written by MMmdl.
 30 31  0  0  0  0  0  0  0  0  1 V2000
  150.8800  143.1145  157.0544 N   0  0  0  0  0  0  0  0  0  0  0  0
  151.7898  143.4402  158.1389 C   0  0  2  0  0  0  0  0  0  0  0  0
  152.2243  142.1558  158.8737 C   0  0  0  0  0  0  0  0  0  0  0  0
  153.1749  142.4798  160.0373 C   0  0  0  0  0  0  0  0  0  0  0  0
  152.5624  143.5039  161.0061 C   0  0  0  0  0  0  0  0  0  0  0  0
  152.1405  144.7898  160.2711 C   0  0  0  0  0  0  0  0  0  0  0  0
  151.1961  144.5292  159.0759 C   0  0  2  0  0  0  0  0  0  0  0  0
  149.8155  144.2951  159.5075 N   0  0  0  0  0  0  0  0  0  0  0  0
  149.0124  145.1521  160.2338 C   0  0  0  0  0  0  0  0  0  0  0  0
  147.8479  144.4560  160.3891 C   0  0  0  0  0  0  0  0  0  0  0  0
  146.5860  144.8618  161.0859 C   0  0  0  0  0  0  0  0  0  0  0  0
  146.7950  146.1704  161.5714 O   0  0  0  0  0  0  0  0  0  0  0  0
  147.9863  143.2152  159.7717 N   0  0  0  0  0  0  0  0  0  0  0  0
  149.1700  143.1291  159.2525 N   0  0  0  0  0  0  0  0  0  0  0  0
  152.6816  143.8630  157.6744 H   0  0  0  0  0  0  0  0  0  0  0  0
  151.1659  145.4538  158.4972 H   0  0  0  0  0  0  0  0  0  0  0  0
  150.2042  142.4321  157.3669 H   0  0  0  0  0  0  0  0  0  0  0  0
  150.3597  143.9372  156.7855 H   0  0  0  0  0  0  0  0  0  0  0  0
  151.3612  141.6049  159.2459 H   0  0  0  0  0  0  0  0  0  0  0  0
  152.7267  141.4841  158.1766 H   0  0  0  0  0  0  0  0  0  0  0  0
  153.4282  141.5656  160.5748 H   0  0  0  0  0  0  0  0  0  0  0  0
  154.1117  142.8731  159.6403 H   0  0  0  0  0  0  0  0  0  0  0  0
  151.7091  143.0626  161.5202 H   0  0  0  0  0  0  0  0  0  0  0  0
  153.2855  143.7490  161.7844 H   0  0  0  0  0  0  0  0  0  0  0  0
  151.6786  145.4864  160.9719 H   0  0  0  0  0  0  0  0  0  0  0  0
  153.0390  145.2873  159.9039 H   0  0  0  0  0  0  0  0  0  0  0  0
  149.3216  146.1346  160.5572 H   0  0  0  0  0  0  0  0  0  0  0  0
  145.7302  144.8525  160.4098 H   0  0  0  0  0  0  0  0  0  0  0  0
  146.3608  144.1943  161.9182 H   0  0  0  0  0  0  0  0  0  0  0  0
  147.6395  146.2020  161.9937 H   0  0  0  0  0  0  0  0  0  0  0  0
  1  2  1  0  0  0  0
  1 17  1  0  0  0  0
  1 18  1  0  0  0  0
  2 15  1  0  0  0  0
  2  7  1  0  0  0  0
  2  3  1  0  0  0  0
  3  4  1  0  0  0  0
  3 19  1  0  0  0  0
  3 20  1  0  0  0  0
  4  5  1  0  0  0  0
  4 21  1  0  0  0  0
  4 22  1  0  0  0  0
  5  6  1  0  0  0  0
  5 23  1  0  0  0  0
  5 24  1  0  0  0  0
  6  7  1  0  0  0  0
  6 25  1  0  0  0  0
  6 26  1  0  0  0  0
  7 16  1  0  0  0  0
  7  8  1  0  0  0  0
  8 14  1  0  0  0  0
  8  9  1  0  0  0  0
  9 10  2  0  0  0  0
  9 27  1  0  0  0  0
 10 11  1  0  0  0  0
 10 13  1  0  0  0  0
 11 12  1  0  0  0  0
 11 28  1  0  0  0  0
 11 29  1  0  0  0  0
 12 30  1  0  0  0  0
 13 14  2  0  0  0  0
M  END
> <s_m_source_file>
AV-unprocessed.smi

> <i_m_source_file_index>
2597

> <i_lp_mmshare_version>
43012

> <i_f3d_flags>
0

> <s_epik_input>
W05IMl1bQ0BIXTFbQ0gyXVtDSDJdW0NIMl1bQ0gyXVtDQEhdMW4yW2NIXWMobm4yKVtDSDJdW09IXQ==

> <s_epik_cmdline>
J2VwaWtfcHl0aG9uJywgJy1waCcsICc3LjAnLCAnLXRuJywgJzgnLCAnLW1hJywgJzIwMCcsICctbWV0YWxfYmluZGluZycsICctaW1hZScsICc8aW5maWxlLm1hZT4nLCAnLW9tYWUnLCAnPG91dGZpbGUubWFlPic=

> <r_lp_tautomer_probability>
1

> <r_epik_Ionization_Penalty>
2.21303

> <r_epik_Ionization_Penalty_Charging>
0

> <r_epik_Ionization_Penalty_Neutral>
2.21303

> <r_epik_State_Penalty>
2.3573

> <r_epik_Charging_Adjusted_Penalty>
2.3573

> <i_epik_Tot_Q>
0

> <i_epik_Tot_abs_Q>
0

> <r_epik_Metal_State_Penalty>
2.35724

> <b_epik_Metal_Only>
0

> <s_lp_Force_Field>
OPLS_2005

> <r_lp_Energy>
16.7408

> <b_lp_Chiralities_Consistent>
1

> <s_lp_Variant>
AV-unprocessed.smi:2597-8

> <Gold.Version>
5.8.1

> <Gold.Id.Protein>
6NUR|6NUR_protein|mol2

> <Gold.PLP.Fitness>
40.7786

> <Gold.PLP.PLP>
-36.8075

> <Gold.PLP.part.hbond>
-6.0000

> <Gold.PLP.part.metal>
0.0000

> <Gold.PLP.part.buried>
-6.7055

> <Gold.PLP.part.nonpolar>
-24.7237

> <Gold.PLP.part.repulsive>
0.2205

> <Gold.PLP.ligand.clash>
0.0000

> <Gold.PLP.ligand.torsion>
0.0549

> <Gold.PLP.Chemscore.Hbond>
1.3400

> <Gold.PLP.Chemscore.CHOScore>
0.0000

> <Gold.PLP.Chemscore.Metal>
0.0000

> <Gold.Chemscore.Hbonds>
donor molecule, donor type, donor heavy atom, donor atom, acceptor molecule, acceptor atom, score
      L1  H     1    18       P1  8028  0.98
      P1  H  6933  6944       L1    13  0.34

> <Gold.PLP.Chemscore.Internal.Correction>
0.0609

> <Gold.Rescore>
     Score         DG    S(hbond)    S(metal)    S(lipo)     H(rot)  DE(clash)    DE(int)     intcor
     12.47     -14.06       0.97        0.00      85.59       1.82       0.12       1.47       ----

> <Gold.Chemscore.Fitness>
12.4653

> <Gold.Chemscore.DG>
-14.0615

> <Gold.Chemscore.ZeroCoef>
-5.4800

> <Gold.Chemscore.Hbond>
0.9677

> <Gold.Chemscore.Metal>
0.0000

> <Gold.Chemscore.Lipo>
85.5915

> <Gold.Chemscore.Internal_Hbond>
0.0000

> <Gold.Chemscore.DEClash>
0.1226

> <Gold.Chemscore.DEInternal>
1.4736

> <Gold.Chemscore.Rot>
1.8222

> <Gold.Chemscore.Internal.Correction>
   9.000000E+99

> <Gold.Chemscore.Hbonds>
donor molecule, donor type, donor heavy atom, donor atom, acceptor molecule, acceptor atom, score
      L1  H     1    18       P1  8028  0.90

> <Gold.Chemscore.Hbond.Weighted>
-3.2323

> <Gold.Chemscore.Metal.Weighted>
-0.0000

> <Gold.Chemscore.Lipo.Weighted>
-10.0142

> <Gold.Chemscore.Internal_Hbond.Weighted>
0.0000

> <Gold.Chemscore.DEClash.Weighted>
0.1226

> <Gold.Chemscore.DEInternal.Weighted>
1.4736

> <Gold.Chemscore.Rot.Weighted>
4.6649

> <Gold.Chemscore.Internal.Correction.Weighted>
   9.000000E+99

> <Gold.Protein.RotatedTorsions>
[ 6907 6896 6895 6894 ] final   12.00 input  -60.11 | X-H torsion
[ 7974 7965 7964 7962 ] final  133.98 input  175.53 | X-H torsion
[ 8008 7997 7996 7995 ] final -126.30 input   59.86 | X-H torsion
[ 10167 10162 10161 10158 ] final -152.70 input  -65.29 | X-H torsion
[ 10718 10713 10712 10709 ] final  -10.71 input   66.30 | X-H torsion
[ 10763 10752 10751 10750 ] final  -35.99 input  -60.55 | X-H torsion
[ 11005 11000 10999 10996 ] final -174.36 input  -57.11 | X-H torsion

> <Gold.Protein.ActiveResidues>
 VAL166  LYS551  ARG553  GLY616  TRP617  ASP618  TYR619  PRO620  LYS621  CYS622 
 ASP623  PHE694  ASN695  SER759  ASP760  ASP761  ALA762  ILE779  LEU786  VAL792 
 PHE793  MET794  SER795  GLU796  ALA797  LYS798  CYS799  TRP800  GLU811  SER814 

> <Gold.Protein.RotatedAtoms>
  151.7633  135.0805  160.0348 H   0  0  0  0  0  0  0  0  0  0  0  0  # atno 6907 bound_to 6896
  152.3338  133.5984  159.5837 H   0  0  0  0  0  0  0  0  0  0  0  0  # atno 6908 bound_to 6896
  150.7438  133.9743  159.3597 H   0  0  0  0  0  0  0  0  0  0  0  0  # atno 6909 bound_to 6896
  144.9810  139.4505  143.5386 H   0  0  0  0  0  0  0  0  0  0  0  0  # atno 7974 bound_to 7965
  155.2274  140.0424  157.2957 H   0  0  0  0  0  0  0  0  0  0  0  0  # atno 8008 bound_to 7997
  154.5910  140.2427  155.7891 H   0  0  0  0  0  0  0  0  0  0  0  0  # atno 8009 bound_to 7997
  156.2259  140.2954  156.0074 H   0  0  0  0  0  0  0  0  0  0  0  0  # atno 8010 bound_to 7997
  139.7159  143.9034  152.2486 H   0  0  0  0  0  0  0  0  0  0  0  0  # atno 10167 bound_to 10162
  156.6695  130.5005  149.6005 H   0  0  0  0  0  0  0  0  0  0  0  0  # atno 10718 bound_to 10713
  153.8724  135.6829  153.4773 H   0  0  0  0  0  0  0  0  0  0  0  0  # atno 10763 bound_to 10752
  153.1280  135.4710  154.9301 H   0  0  0  0  0  0  0  0  0  0  0  0  # atno 10764 bound_to 10752
  154.7708  135.3238  154.8144 H   0  0  0  0  0  0  0  0  0  0  0  0  # atno 10765 bound_to 10752
  140.4754  134.6126  157.4899 H   0  0  0  0  0  0  0  0  0  0  0  0  # atno 11005 bound_to 11000
  146.3408  139.9082  142.8784 LP  0  0  0  0  0  0  0  0  0  0  0  0  # atno 17320 bound_to 7965
  145.2421  141.0013  143.3930 LP  0  0  0  0  0  0  0  0  0  0  0  0  # atno 17321 bound_to 7965
  139.8916  144.6962  150.8764 LP  0  0  0  0  0  0  0  0  0  0  0  0  # atno 17342 bound_to 10162
  140.7743  143.3582  151.1880 LP  0  0  0  0  0  0  0  0  0  0  0  0  # atno 17343 bound_to 10162
  156.1949  130.6583  151.1103 LP  0  0  0  0  0  0  0  0  0  0  0  0  # atno 17370 bound_to 10713
  157.7082  131.0746  150.6594 LP  0  0  0  0  0  0  0  0  0  0  0  0  # atno 17371 bound_to 10713
  139.9859  134.7062  155.9775 LP  0  0  0  0  0  0  0  0  0  0  0  0  # atno 17394 bound_to 11000
  141.1557  133.6543  156.4153 LP  0  0  0  0  0  0  0  0  0  0  0  0  # atno 17395 bound_to 11000

$$$$
