AV-unprocessed.smi:1829|AV-procd|sdf|7428|dock5
  -GOLD-   22720 9113D 1   1.00000     0.00000
 Structure written by MMmdl.
 45 47  0  0  0  0  0  0  0  0  1 V2000
  145.3272  145.1170  153.2700 C   0  0  0  0  0  0  0  0  0  0  0  0
  144.7713  144.2563  154.4156 C   0  0  0  0  0  0  0  0  0  0  0  0
  144.0370  145.1097  155.4612 C   0  0  0  0  0  0  0  0  0  0  0  0
  145.8558  143.3999  155.0579 C   0  0  0  0  0  0  0  0  0  0  0  0
  146.7610  142.6811  154.2482 C   0  0  0  0  0  0  0  0  0  0  0  0
  147.7583  141.8786  154.8354 C   0  0  0  0  0  0  0  0  0  0  0  0
  147.8633  141.7838  156.2388 C   0  0  0  0  0  0  0  0  0  0  0  0
  148.9494  140.9179  156.8584 C   0  0  2  0  0  0  0  0  0  0  0  0
  148.9406  140.9693  158.2724 O   0  0  0  0  0  0  0  0  0  0  0  0
  150.3425  141.3041  156.3210 C   0  0  0  0  0  0  0  0  0  0  0  0
  151.4314  140.7479  157.1135 N   0  0  0  0  0  0  0  0  0  0  0  0
  152.1183  139.5967  156.9028 C   0  0  0  0  0  0  0  0  0  0  0  0
  151.8282  138.6907  155.7453 C   0  0  0  0  0  0  0  0  0  0  0  0
  151.9019  139.3546  154.5020 O   0  0  0  0  0  0  0  0  0  0  0  0
  153.0771  139.3226  157.7883 N   0  0  0  0  0  0  0  0  0  0  0  0
  153.0083  140.3975  158.6529 C   0  0  0  0  0  0  0  0  0  0  0  0
  153.7676  140.6976  159.8066 C   0  0  0  0  0  0  0  0  0  0  0  0
  153.5128  141.8729  160.5433 C   0  0  0  0  0  0  0  0  0  0  0  0
  152.4975  142.7634  160.1383 C   0  0  0  0  0  0  0  0  0  0  0  0
  151.7299  142.4836  158.9913 C   0  0  0  0  0  0  0  0  0  0  0  0
  151.9884  141.3091  158.2590 C   0  0  0  0  0  0  0  0  0  0  0  0
  146.9643  142.5099  157.0497 C   0  0  0  0  0  0  0  0  0  0  0  0
  145.9655  143.3101  156.4627 C   0  0  0  0  0  0  0  0  0  0  0  0
  145.7980  144.4961  152.5073 H   0  0  0  0  0  0  0  0  0  0  0  0
  146.0709  145.8304  153.6255 H   0  0  0  0  0  0  0  0  0  0  0  0
  144.5322  145.6854  152.7862 H   0  0  0  0  0  0  0  0  0  0  0  0
  144.0333  143.5828  153.9776 H   0  0  0  0  0  0  0  0  0  0  0  0
  143.6002  144.4839  156.2400 H   0  0  0  0  0  0  0  0  0  0  0  0
  143.2271  145.6785  155.0043 H   0  0  0  0  0  0  0  0  0  0  0  0
  144.7081  145.8210  155.9431 H   0  0  0  0  0  0  0  0  0  0  0  0
  146.6944  142.7396  153.1716 H   0  0  0  0  0  0  0  0  0  0  0  0
  148.4444  141.3353  154.2021 H   0  0  0  0  0  0  0  0  0  0  0  0
  148.7410  139.8815  156.5929 H   0  0  0  0  0  0  0  0  0  0  0  0
  148.0638  140.7856  158.5730 H   0  0  0  0  0  0  0  0  0  0  0  0
  150.4547  140.9704  155.2891 H   0  0  0  0  0  0  0  0  0  0  0  0
  150.4501  142.3892  156.2974 H   0  0  0  0  0  0  0  0  0  0  0  0
  152.5447  137.8685  155.7437 H   0  0  0  0  0  0  0  0  0  0  0  0
  150.8412  138.2439  155.8589 H   0  0  0  0  0  0  0  0  0  0  0  0
  151.7718  138.7196  153.8145 H   0  0  0  0  0  0  0  0  0  0  0  0
  154.5474  140.0219  160.1250 H   0  0  0  0  0  0  0  0  0  0  0  0
  154.0990  142.0919  161.4238 H   0  0  0  0  0  0  0  0  0  0  0  0
  152.3070  143.6606  160.7089 H   0  0  0  0  0  0  0  0  0  0  0  0
  150.9486  143.1609  158.6797 H   0  0  0  0  0  0  0  0  0  0  0  0
  147.0362  142.4568  158.1262 H   0  0  0  0  0  0  0  0  0  0  0  0
  145.2827  143.8546  157.0979 H   0  0  0  0  0  0  0  0  0  0  0  0
  1  2  1  0  0  0  0
  1 24  1  0  0  0  0
  1 25  1  0  0  0  0
  1 26  1  0  0  0  0
  2  3  1  0  0  0  0
  2  4  1  0  0  0  0
  2 27  1  0  0  0  0
  3 28  1  0  0  0  0
  3 29  1  0  0  0  0
  3 30  1  0  0  0  0
  4 23  1  0  0  0  0
  4  5  2  0  0  0  0
  5  6  1  0  0  0  0
  5 31  1  0  0  0  0
  6  7  2  0  0  0  0
  6 32  1  0  0  0  0
  7  8  1  0  0  0  0
  7 22  1  0  0  0  0
  8  9  1  0  0  0  0
  8 10  1  0  0  0  0
  8 33  1  0  0  0  0
  9 34  1  0  0  0  0
 10 11  1  0  0  0  0
 10 35  1  0  0  0  0
 10 36  1  0  0  0  0
 11 21  1  0  0  0  0
 11 12  1  0  0  0  0
 12 13  1  0  0  0  0
 12 15  2  0  0  0  0
 13 14  1  0  0  0  0
 13 37  1  0  0  0  0
 13 38  1  0  0  0  0
 14 39  1  0  0  0  0
 15 16  1  0  0  0  0
 16 21  2  0  0  0  0
 16 17  1  0  0  0  0
 17 18  2  0  0  0  0
 17 40  1  0  0  0  0
 18 19  1  0  0  0  0
 18 41  1  0  0  0  0
 19 20  2  0  0  0  0
 19 42  1  0  0  0  0
 20 21  1  0  0  0  0
 20 43  1  0  0  0  0
 22 23  2  0  0  0  0
 22 44  1  0  0  0  0
 23 45  1  0  0  0  0
M  END
> <s_m_source_file>
AV-unprocessed.smi

> <i_m_source_file_index>
1829

> <i_lp_mmshare_version>
43012

> <i_f3d_flags>
0

> <s_epik_input>
W0NIM11bQ0hdKFtDSDNdKWMxW2NIXVtjSF1jKFtjSF1bY0hdMSlbQ0BIXShbT0hdKVtDSDJdbihjKG4yKVtDSDJdW09IXSljKGMyMylbY0hdW2NIXVtjSF1bY0hdMw==

> <s_epik_cmdline>
J2VwaWtfcHl0aG9uJywgJy1waCcsICc3LjAnLCAnLXRuJywgJzgnLCAnLW1hJywgJzIwMCcsICctbWV0YWxfYmluZGluZycsICctaW1hZScsICc8aW5maWxlLm1hZT4nLCAnLW9tYWUnLCAnPG91dGZpbGUubWFlPic=

> <r_epik_Ionization_Penalty>
0.0634718

> <r_epik_Ionization_Penalty_Charging>
0

> <r_epik_Ionization_Penalty_Neutral>
0.0634718

> <r_epik_State_Penalty>
0.0551572

> <r_epik_Charging_Adjusted_Penalty>
0.0551572

> <i_epik_Tot_Q>
0

> <i_epik_Tot_abs_Q>
0

> <r_epik_Metal_State_Penalty>
5.78034e-05

> <b_epik_Metal_Only>
0

> <s_lp_Force_Field>
OPLS_2005

> <r_lp_Energy>
12.4565

> <b_lp_Chiralities_Consistent>
1

> <s_lp_Variant>
AV-unprocessed.smi:1829-1

> <Gold.Version>
5.8.1

> <Gold.Id.Protein>
6NUR|6NUR_protein|mol2

> <Gold.PLP.Fitness>
50.8332

> <Gold.PLP.PLP>
-47.3927

> <Gold.PLP.part.hbond>
-2.3489

> <Gold.PLP.part.metal>
0.0000

> <Gold.PLP.part.buried>
-4.0114

> <Gold.PLP.part.nonpolar>
-40.4393

> <Gold.PLP.part.repulsive>
0.0000

> <Gold.PLP.ligand.clash>
0.0000

> <Gold.PLP.ligand.torsion>
0.7971

> <Gold.PLP.Chemscore.Hbond>
1.6564

> <Gold.PLP.Chemscore.CHOScore>
0.0000

> <Gold.PLP.Chemscore.Metal>
0.0000

> <Gold.Chemscore.Hbonds>
donor molecule, donor type, donor heavy atom, donor atom, acceptor molecule, acceptor atom, score
      P1  H  7989  7998       L1    14  0.80
      P1  H  7997  8010       L1    15  0.55

> <Gold.PLP.Chemscore.Internal.Correction>
0.0656

> <Gold.Rescore>
     Score         DG    S(hbond)    S(metal)    S(lipo)     H(rot)  DE(clash)    DE(int)     intcor
     14.01     -14.85       0.49        0.00     124.71       2.68       0.30       0.53       ----

> <Gold.Chemscore.Fitness>
14.0095

> <Gold.Chemscore.DG>
-14.8486

> <Gold.Chemscore.ZeroCoef>
-5.4800

> <Gold.Chemscore.Hbond>
0.4876

> <Gold.Chemscore.Metal>
0.0000

> <Gold.Chemscore.Lipo>
124.7075

> <Gold.Chemscore.Internal_Hbond>
0.0000

> <Gold.Chemscore.DEClash>
0.3044

> <Gold.Chemscore.DEInternal>
0.5347

> <Gold.Chemscore.Rot>
2.6761

> <Gold.Chemscore.Internal.Correction>
   9.000000E+99

> <Gold.Chemscore.Hbonds>
donor molecule, donor type, donor heavy atom, donor atom, acceptor molecule, acceptor atom, score
      P1  H  7989  7998       L1    14  0.13
      P1  H  7997  8010       L1    15  0.01

> <Gold.Chemscore.Hbond.Weighted>
-1.6286

> <Gold.Chemscore.Metal.Weighted>
-0.0000

> <Gold.Chemscore.Lipo.Weighted>
-14.5908

> <Gold.Chemscore.Internal_Hbond.Weighted>
0.0000

> <Gold.Chemscore.DEClash.Weighted>
0.3044

> <Gold.Chemscore.DEInternal.Weighted>
0.5347

> <Gold.Chemscore.Rot.Weighted>
6.8507

> <Gold.Chemscore.Internal.Correction.Weighted>
   9.000000E+99

> <Gold.Protein.RotatedTorsions>
[ 6907 6896 6895 6894 ] final  -97.91 input  -60.11 | X-H torsion
[ 7974 7965 7964 7962 ] final  126.23 input  175.53 | X-H torsion
[ 8008 7997 7996 7995 ] final   39.82 input   59.86 | X-H torsion
[ 10167 10162 10161 10158 ] final  172.48 input  -65.29 | X-H torsion
[ 10718 10713 10712 10709 ] final  173.75 input   66.30 | X-H torsion
[ 10763 10752 10751 10750 ] final  -63.57 input  -60.55 | X-H torsion
[ 11005 11000 10999 10996 ] final   96.74 input  -57.11 | X-H torsion

> <Gold.Protein.ActiveResidues>
 VAL166  LYS551  ARG553  GLY616  TRP617  ASP618  TYR619  PRO620  LYS621  CYS622 
 ASP623  PHE694  ASN695  SER759  ASP760  ASP761  ALA762  ILE779  LEU786  VAL792 
 PHE793  MET794  SER795  GLU796  ALA797  LYS798  CYS799  TRP800  GLU811  SER814 

> <Gold.Protein.RotatedAtoms>
  150.7030  134.1275  159.4057 H   0  0  0  0  0  0  0  0  0  0  0  0  # atno 6907 bound_to 6896
  151.9261  135.0274  160.0535 H   0  0  0  0  0  0  0  0  0  0  0  0  # atno 6908 bound_to 6896
  152.2215  133.4952  159.5202 H   0  0  0  0  0  0  0  0  0  0  0  0  # atno 6909 bound_to 6896
  145.0641  139.3782  143.4991 H   0  0  0  0  0  0  0  0  0  0  0  0  # atno 7974 bound_to 7965
  155.2429  140.3347  155.4290 H   0  0  0  0  0  0  0  0  0  0  0  0  # atno 8008 bound_to 7997
  156.2248  140.1824  156.7434 H   0  0  0  0  0  0  0  0  0  0  0  0  # atno 8009 bound_to 7997
  154.5882  140.0642  156.9186 H   0  0  0  0  0  0  0  0  0  0  0  0  # atno 8010 bound_to 7997
  139.5078  144.3369  152.0056 H   0  0  0  0  0  0  0  0  0  0  0  0  # atno 10167 bound_to 10162
  156.9598  131.0057  151.2930 H   0  0  0  0  0  0  0  0  0  0  0  0  # atno 10718 bound_to 10713
  154.3171  135.6204  153.5491 H   0  0  0  0  0  0  0  0  0  0  0  0  # atno 10763 bound_to 10752
  152.9823  135.5715  154.5112 H   0  0  0  0  0  0  0  0  0  0  0  0  # atno 10764 bound_to 10752
  154.4773  135.2861  155.1574 H   0  0  0  0  0  0  0  0  0  0  0  0  # atno 10765 bound_to 10752
  139.8780  134.8966  156.4203 H   0  0  0  0  0  0  0  0  0  0  0  0  # atno 11005 bound_to 11000
  146.3526  140.0353  142.8647 LP  0  0  0  0  0  0  0  0  0  0  0  0  # atno 17320 bound_to 7965
  145.1373  140.9551  143.4509 LP  0  0  0  0  0  0  0  0  0  0  0  0  # atno 17321 bound_to 7965
  140.2808  144.3862  150.6120 LP  0  0  0  0  0  0  0  0  0  0  0  0  # atno 17342 bound_to 10162
  140.6020  143.2167  151.7054 LP  0  0  0  0  0  0  0  0  0  0  0  0  # atno 17343 bound_to 10162
  157.5666  130.8281  149.8335 LP  0  0  0  0  0  0  0  0  0  0  0  0  # atno 17370 bound_to 10713
  156.0327  130.3760  150.1643 LP  0  0  0  0  0  0  0  0  0  0  0  0  # atno 17371 bound_to 10713
  140.9138  133.7693  155.9824 LP  0  0  0  0  0  0  0  0  0  0  0  0  # atno 17394 bound_to 11000
  140.8516  134.2947  157.5273 LP  0  0  0  0  0  0  0  0  0  0  0  0  # atno 17395 bound_to 11000

$$$$
