#       Name:                AV-unprocessed.smi:244
#       Creating user name   scv26
#       Creation time:       Thu Mar 26 20:51:06 2020


#       File generated by GOLD software.
#

@<TRIPOS>MOLECULE
AV-unprocessed.smi:244
    67    71     1
SMALL
NO_CHARGES


@<TRIPOS>ATOM
      1 ****        -2.3251   0.2050   3.2501 C.3            1 S1                 0.0000
      2 ****        -3.0086   0.5767   1.9925 N.4            1 S1                 1.0000
      3 ****        -4.3941   0.0478   1.9265 C.3            1 S1                 0.0000
      4 ****        -5.1158   0.5419   0.6621 C.3            1 S1                 0.0000
      5 ****        -4.3181   0.1635  -0.5916 C.3            1 S1                 0.0000
      6 ****        -4.9682   0.6790  -1.7478 O.3            1 S1                 0.0000
      7 ****        -4.2963   0.2968  -2.9437 C.3            1 S1                 0.0000
      8 ****        -2.8637   0.8546  -2.9273 C.3            1 S1                 0.0000
      9 ****        -2.1592   0.4187  -1.7245 N.3            1 S1                 0.0000
     10 ****        -0.8602   0.7931  -1.7265 C.ar           1 S1                 0.0000
     11 ****        -0.5294   2.1113  -1.7296 N.ar           1 S1                 0.0000
     12 ****         0.7569   2.4743  -1.7089 C.ar           1 S1                 0.0000
     13 ****         1.8429   1.6986  -1.6714 N.ar           1 S1                 0.0000
     14 ****         1.5089   0.3758  -1.6585 C.ar           1 S1                 0.0000
     15 ****         0.1912  -0.1581  -1.6881 C.ar           1 S1                 0.0000
     16 ****         0.2345  -1.5454  -1.6617 N.2            1 S1                 0.0000
     17 ****         1.5107  -1.8184  -1.6249 C.2            1 S1                 0.0000
     18 ****         2.3470  -0.7239  -1.6011 N.pl3          1 S1                 0.0000
     19 ****         3.8008  -0.7389  -1.5503 C.3            1 S1                 0.0000
     20 ****         4.3934  -0.7620  -0.1180 C.3            1 S1                 0.0000
     21 ****         5.7985  -0.7709  -0.2959 O.3            1 S1                 0.0000
     22 ****         4.0150   0.4837   0.7123 C.3            1 S1                 0.0000
     23 ****         4.5392   0.3912   2.1568 C.3            1 S1                 0.0000
     24 ****         4.0620  -0.7998   2.7721 O.3            1 S1                 0.0000
     25 ****         4.5215  -1.9803   2.1240 C.3            1 S1                 0.0000
     26 ****         3.9967  -2.0249   0.6775 C.3            1 S1                 0.0000
     27 ****        -2.8915   0.7457  -0.4986 C.3            1 S1                 0.0000
     28 ****        -2.2110   0.2243   0.7904 C.3            1 S1                 0.0000
     29 ****        -2.1977  -0.8759   3.3221 H              1 S1                 0.0000
     30 ****        -2.9000   0.5403   4.1139 H              1 S1                 0.0000
     31 ****        -1.3406   0.6703   3.3066 H              1 S1                 0.0000
     32 ****        -4.3696  -1.0431   1.9424 H              1 S1                 0.0000
     33 ****        -4.9493   0.3657   2.8099 H              1 S1                 0.0000
     34 ****        -6.1170   0.1129   0.6122 H              1 S1                 0.0000
     35 ****        -5.2425   1.6244   0.7085 H              1 S1                 0.0000
     36 ****        -4.2744  -0.9254  -0.6639 H              1 S1                 0.0000
     37 ****        -4.2902  -0.7899  -3.0418 H              1 S1                 0.0000
     38 ****        -4.8433   0.6907  -3.8003 H              1 S1                 0.0000
     39 ****        -2.3246   0.5199  -3.8147 H              1 S1                 0.0000
     40 ****        -2.8983   1.9445  -2.9631 H              1 S1                 0.0000
     41 ****         0.9427   3.5383  -1.7206 H              1 S1                 0.0000
     42 ****         1.8804  -2.8334  -1.6022 H              1 S1                 0.0000
     43 ****         4.1455  -1.6090  -2.1113 H              1 S1                 0.0000
     44 ****         4.1667   0.1338  -2.0938 H              1 S1                 0.0000
     45 ****         6.2097  -0.7786   0.5550 H              1 S1                 0.0000
     46 ****         4.3858   1.3913   0.2344 H              1 S1                 0.0000
     47 ****         2.9306   0.5818   0.7591 H              1 S1                 0.0000
     48 ****         5.6296   0.4174   2.1842 H              1 S1                 0.0000
     49 ****         4.1898   1.2467   2.7349 H              1 S1                 0.0000
     50 ****         5.6114  -2.0245   2.1513 H              1 S1                 0.0000
     51 ****         4.1581  -2.8461   2.6778 H              1 S1                 0.0000
     52 ****         2.9113  -2.1090   0.7225 H              1 S1                 0.0000
     53 ****         4.3547  -2.9242   0.1746 H              1 S1                 0.0000
     54 ****        -2.9652   1.8329  -0.4339 H              1 S1                 0.0000
     55 ****        -1.2180   0.6618   0.9008 H              1 S1                 0.0000
     56 ****        -2.0781  -0.8578   0.7404 H              1 S1                 0.0000
     57 ****        -3.0867   1.5839   1.9975 H              1 S1                 0.0000
     58 ****        -4.9867   1.6772  -1.6912 LP             1 S1                 0.0000
     59 ****        -5.9046   0.3293  -1.7761 LP             1 S1                 0.0000
     60 ****        -2.1324  -0.5808  -1.7392 LP             1 S1                 0.0000
     61 ****        -1.2465   2.8080  -1.7473 LP             1 S1                 0.0000
     62 ****         2.7815   2.0432  -1.6548 LP             1 S1                 0.0000
     63 ****        -0.5330  -2.1863  -1.6691 LP             1 S1                 0.0000
     64 ****         6.0797   0.0465  -0.7987 LP             1 S1                 0.0000
     65 ****         6.0682  -1.5864  -0.8079 LP             1 S1                 0.0000
     66 ****         3.0623  -0.7920   2.7497 LP             1 S1                 0.0000
     67 ****         4.3740  -0.8153   3.7221 LP             1 S1                 0.0000
@<TRIPOS>BOND
    1    1    2 1     
    2    1   29 1     
    3    1   30 1     
    4    1   31 1     
    5    2   28 1     
    6    2    3 1     
    7    2   57 1     
    8    3    4 1     
    9    3   32 1     
   10    3   33 1     
   11    4    5 1     
   12    4   34 1     
   13    4   35 1     
   14    5   27 1     
   15    5    6 1     
   16    5   36 1     
   17    6    7 1     
   18    7    8 1     
   19    7   37 1     
   20    7   38 1     
   21    8    9 1     
   22    8   39 1     
   23    8   40 1     
   24    9   10 1     
   25    9   27 1     
   26   10   15 ar    
   27   10   11 ar    
   28   11   12 ar    
   29   12   13 ar    
   30   12   41 1     
   31   13   14 ar    
   32   14   18 1     
   33   14   15 ar    
   34   15   16 1     
   35   16   17 2     
   36   17   18 1     
   37   17   42 1     
   38   18   19 1     
   39   19   20 1     
   40   19   43 1     
   41   19   44 1     
   42   20   26 1     
   43   20   21 1     
   44   20   22 1     
   45   21   45 1     
   46   22   23 1     
   47   22   46 1     
   48   22   47 1     
   49   23   24 1     
   50   23   48 1     
   51   23   49 1     
   52   24   25 1     
   53   25   26 1     
   54   25   50 1     
   55   25   51 1     
   56   26   52 1     
   57   26   53 1     
   58   27   28 1     
   59   27   54 1     
   60   28   55 1     
   61   28   56 1     
   62    6   58 1     
   63    6   59 1     
   64    9   60 1     
   65   11   61 1     
   66   13   62 1     
   67   16   63 1     
   68   21   64 1     
   69   21   65 1     
   70   24   66 1     
   71   24   67 1     
@<TRIPOS>SUBSTRUCTURE
      1 S1             1
@<TRIPOS>SET
LONE_PAIRS      STATIC     ATOMS    <user>   **** ""
10 58 59 60 61 62 63 64 65 66 67
DONOR_HYDROGENS      STATIC     ATOMS    <user>   **** ""
2 57 45
ATOM$BLUE        STATIC     ATOMS    COLORGROUP SYSTEM
10 58 59 60 61 62 63 64 65 66 67
ATOM$RED        STATIC     ATOMS    COLORGROUP SYSTEM
2 57 45
