AV-unprocessed.smi:2138|AV-procd|sdf|8710|dock9
  -GOLD-   2272011473D 1   1.00000     0.00000
 Structure written by MMmdl.
 46 47  0  0  0  0  0  0  0  0  1 V2000
  149.2051  131.2990  153.9106 C   0  0  0  0  0  0  0  0  0  0  0  0
  149.6821  132.2709  154.8242 O   0  0  0  0  0  0  0  0  0  0  0  0
  149.4808  133.5962  154.3626 C   0  0  0  0  0  0  0  0  0  0  0  0
  150.2189  134.5664  155.2898 C   0  0  0  0  0  0  0  0  0  0  0  0
  150.3516  135.8164  154.6275 O   0  0  0  0  0  0  0  0  0  0  0  0
  150.9986  136.8362  155.2898 C   0  0  0  0  0  0  0  0  0  0  0  0
  151.1979  138.1375  154.7653 C   0  0  0  0  0  0  0  0  0  0  0  0
  151.8793  139.0854  155.5523 C   0  0  0  0  0  0  0  0  0  0  0  0
  152.3514  138.7134  156.8263 C   0  0  0  0  0  0  0  0  0  0  0  0
  153.0204  139.6945  157.6063 N   0  0  0  0  0  0  0  0  0  0  0  0
  153.0640  139.8078  158.9465 C   0  0  0  0  0  0  0  0  0  0  0  0
  152.5267  139.0251  159.7304 O   0  0  0  0  0  0  0  0  0  0  0  0
  153.8707  140.9967  159.4934 C   0  0  2  0  0  0  0  0  0  0  0  0
  153.7020  141.1410  161.0175 C   0  0  0  0  0  0  0  0  0  0  0  0
  152.9763  142.4641  161.1877 C   0  0  0  0  0  0  0  0  0  0  0  0
  152.6147  142.8811  162.2872 O   0  0  0  0  0  0  0  0  0  0  0  0
  152.8030  143.0834  160.0126 N   0  0  0  0  0  0  0  0  0  0  0  0
  152.1778  144.4025  159.8360 C   0  0  0  0  0  0  0  0  0  0  0  0
  150.7533  144.4724  160.4140 C   0  0  0  0  0  0  0  0  0  0  0  0
  152.2172  144.8203  158.3576 C   0  0  0  0  0  0  0  0  0  0  0  0
  153.4012  142.3455  158.9057 C   0  0  0  0  0  0  0  0  0  0  0  0
  152.0896  137.3933  157.2646 C   0  0  0  0  0  0  0  0  0  0  0  0
  151.4353  136.4799  156.5169 N   0  0  0  0  0  0  0  0  0  0  0  0
  149.3825  130.3011  154.3116 H   0  0  0  0  0  0  0  0  0  0  0  0
  149.7205  131.3729  152.9522 H   0  0  0  0  0  0  0  0  0  0  0  0
  148.1330  131.4083  153.7414 H   0  0  0  0  0  0  0  0  0  0  0  0
  149.8284  133.7111  153.3348 H   0  0  0  0  0  0  0  0  0  0  0  0
  148.4134  133.8212  154.3751 H   0  0  0  0  0  0  0  0  0  0  0  0
  149.6378  134.7020  156.2033 H   0  0  0  0  0  0  0  0  0  0  0  0
  151.1920  134.1560  155.5641 H   0  0  0  0  0  0  0  0  0  0  0  0
  150.8454  138.4251  153.7866 H   0  0  0  0  0  0  0  0  0  0  0  0
  152.0410  140.0849  155.1754 H   0  0  0  0  0  0  0  0  0  0  0  0
  153.5825  140.3533  157.0870 H   0  0  0  0  0  0  0  0  0  0  0  0
  154.9263  140.8508  159.2571 H   0  0  0  0  0  0  0  0  0  0  0  0
  153.1283  140.3335  161.4757 H   0  0  0  0  0  0  0  0  0  0  0  0
  154.6700  141.1899  161.5171 H   0  0  0  0  0  0  0  0  0  0  0  0
  152.7707  145.1272  160.3968 H   0  0  0  0  0  0  0  0  0  0  0  0
  150.3622  145.4886  160.3566 H   0  0  0  0  0  0  0  0  0  0  0  0
  150.7386  144.1769  161.4636 H   0  0  0  0  0  0  0  0  0  0  0  0
  150.0626  143.8276  159.8698 H   0  0  0  0  0  0  0  0  0  0  0  0
  151.8060  145.8210  158.2227 H   0  0  0  0  0  0  0  0  0  0  0  0
  151.6372  144.1362  157.7374 H   0  0  0  0  0  0  0  0  0  0  0  0
  153.2383  144.8318  157.9753 H   0  0  0  0  0  0  0  0  0  0  0  0
  154.2477  142.9098  158.5123 H   0  0  0  0  0  0  0  0  0  0  0  0
  152.6907  142.2118  158.0888 H   0  0  0  0  0  0  0  0  0  0  0  0
  152.3843  137.0474  158.2431 H   0  0  0  0  0  0  0  0  0  0  0  0
  1  2  1  0  0  0  0
  1 24  1  0  0  0  0
  1 25  1  0  0  0  0
  1 26  1  0  0  0  0
  2  3  1  0  0  0  0
  3  4  1  0  0  0  0
  3 27  1  0  0  0  0
  3 28  1  0  0  0  0
  4  5  1  0  0  0  0
  4 29  1  0  0  0  0
  4 30  1  0  0  0  0
  5  6  1  0  0  0  0
  6 23  1  0  0  0  0
  6  7  2  0  0  0  0
  7  8  1  0  0  0  0
  7 31  1  0  0  0  0
  8  9  2  0  0  0  0
  8 32  1  0  0  0  0
  9 10  1  0  0  0  0
  9 22  1  0  0  0  0
 10 11  1  0  0  0  0
 10 33  1  0  0  0  0
 11 12  2  0  0  0  0
 11 13  1  0  0  0  0
 13 21  1  0  0  0  0
 13 14  1  0  0  0  0
 13 34  1  0  0  0  0
 14 15  1  0  0  0  0
 14 35  1  0  0  0  0
 14 36  1  0  0  0  0
 15 16  2  0  0  0  0
 15 17  1  0  0  0  0
 17 18  1  0  0  0  0
 17 21  1  0  0  0  0
 18 19  1  0  0  0  0
 18 20  1  0  0  0  0
 18 37  1  0  0  0  0
 19 38  1  0  0  0  0
 19 39  1  0  0  0  0
 19 40  1  0  0  0  0
 20 41  1  0  0  0  0
 20 42  1  0  0  0  0
 20 43  1  0  0  0  0
 21 44  1  0  0  0  0
 21 45  1  0  0  0  0
 22 23  2  0  0  0  0
 22 46  1  0  0  0  0
M  END
> <s_m_source_file>
AV-unprocessed.smi

> <i_m_source_file_index>
2138

> <i_lp_mmshare_version>
43012

> <i_f3d_flags>
0

> <s_epik_input>
W0NIM11PW0NIMl1bQ0gyXU9jMVtjSF1bY0hdYyhbY0hdbjEpW05IXUMoPU8pW0NAQEhdMltDSDJdQyg9TylOKFtDSDJdMilbQ0hdKFtDSDNdKVtDSDNd

> <s_epik_cmdline>
J2VwaWtfcHl0aG9uJywgJy1waCcsICc3LjAnLCAnLXRuJywgJzgnLCAnLW1hJywgJzIwMCcsICctbWV0YWxfYmluZGluZycsICctaW1hZScsICc8aW5maWxlLm1hZT4nLCAnLW9tYWUnLCAnPG91dGZpbGUubWFlPic=

> <r_lp_tautomer_probability>
1

> <r_epik_Ionization_Penalty>
1.72652e-05

> <r_epik_Ionization_Penalty_Charging>
0

> <r_epik_Ionization_Penalty_Neutral>
1.72652e-05

> <r_epik_State_Penalty>
-0

> <r_epik_Charging_Adjusted_Penalty>
0

> <i_epik_Tot_Q>
0

> <i_epik_Tot_abs_Q>
0

> <r_epik_Metal_State_Penalty>
-0

> <b_epik_Metal_Only>
0

> <s_lp_Force_Field>
OPLS_2005

> <r_lp_Energy>
27.6576

> <b_lp_Chiralities_Consistent>
1

> <s_lp_Variant>
AV-unprocessed.smi:2138-1

> <Gold.Version>
5.8.1

> <Gold.Id.Protein>
6NUR|6NUR_protein|mol2

> <Gold.PLP.Fitness>
42.2269

> <Gold.PLP.PLP>
-42.9021

> <Gold.PLP.part.hbond>
0.0000

> <Gold.PLP.part.metal>
0.0000

> <Gold.PLP.part.buried>
-7.7567

> <Gold.PLP.part.nonpolar>
-38.3833

> <Gold.PLP.part.repulsive>
3.6343

> <Gold.PLP.ligand.clash>
0.0000

> <Gold.PLP.ligand.torsion>
0.4092

> <Gold.PLP.Chemscore.Hbond>
0.0000

> <Gold.PLP.Chemscore.CHOScore>
0.0000

> <Gold.PLP.Chemscore.Metal>
0.0000

> <Gold.PLP.Chemscore.Internal.Correction>
0.1432

> <Gold.Rescore>
     Score         DG    S(hbond)    S(metal)    S(lipo)     H(rot)  DE(clash)    DE(int)     intcor
      9.40     -12.97       0.00        0.00     107.86       2.00       1.44       2.13       ----

> <Gold.Chemscore.Fitness>
9.4034

> <Gold.Chemscore.DG>
-12.9702

> <Gold.Chemscore.ZeroCoef>
-5.4800

> <Gold.Chemscore.Hbond>
0.0000

> <Gold.Chemscore.Metal>
0.0000

> <Gold.Chemscore.Lipo>
107.8570

> <Gold.Chemscore.Internal_Hbond>
0.0000

> <Gold.Chemscore.DEClash>
1.4398

> <Gold.Chemscore.DEInternal>
2.1270

> <Gold.Chemscore.Rot>
2.0035

> <Gold.Chemscore.Internal.Correction>
   9.000000E+99

> <Gold.Chemscore.Hbond.Weighted>
-0.0000

> <Gold.Chemscore.Metal.Weighted>
-0.0000

> <Gold.Chemscore.Lipo.Weighted>
-12.6193

> <Gold.Chemscore.Internal_Hbond.Weighted>
0.0000

> <Gold.Chemscore.DEClash.Weighted>
1.4398

> <Gold.Chemscore.DEInternal.Weighted>
2.1270

> <Gold.Chemscore.Rot.Weighted>
5.1290

> <Gold.Chemscore.Internal.Correction.Weighted>
   9.000000E+99

> <Gold.Protein.RotatedTorsions>
[ 6907 6896 6895 6894 ] final -164.64 input  -60.11 | X-H torsion
[ 7974 7965 7964 7962 ] final   32.83 input  175.53 | X-H torsion
[ 8008 7997 7996 7995 ] final  156.77 input   59.86 | X-H torsion
[ 10167 10162 10161 10158 ] final  140.66 input  -65.29 | X-H torsion
[ 10718 10713 10712 10709 ] final  130.89 input   66.30 | X-H torsion
[ 10763 10752 10751 10750 ] final  -27.23 input  -60.55 | X-H torsion
[ 11005 11000 10999 10996 ] final  139.48 input  -57.11 | X-H torsion

> <Gold.Protein.ActiveResidues>
 VAL166  LYS551  ARG553  GLY616  TRP617  ASP618  TYR619  PRO620  LYS621  CYS622 
 ASP623  PHE694  ASN695  SER759  ASP760  ASP761  ALA762  ILE779  LEU786  VAL792 
 PHE793  MET794  SER795  GLU796  ALA797  LYS798  CYS799  TRP800  GLU811  SER814 

> <Gold.Protein.RotatedAtoms>
  151.4150  133.3716  159.2748 H   0  0  0  0  0  0  0  0  0  0  0  0  # atno 6907 bound_to 6896
  150.9335  134.8750  159.7577 H   0  0  0  0  0  0  0  0  0  0  0  0  # atno 6908 bound_to 6896
  152.5039  134.4096  159.9496 H   0  0  0  0  0  0  0  0  0  0  0  0  # atno 6909 bound_to 6896
  146.1461  139.6475  142.9130 H   0  0  0  0  0  0  0  0  0  0  0  0  # atno 7974 bound_to 7965
  156.2403  140.1903  156.7006 H   0  0  0  0  0  0  0  0  0  0  0  0  # atno 8008 bound_to 7997
  154.6185  140.0612  156.9611 H   0  0  0  0  0  0  0  0  0  0  0  0  # atno 8009 bound_to 7997
  155.1901  140.3283  155.4363 H   0  0  0  0  0  0  0  0  0  0  0  0  # atno 8010 bound_to 7997
  139.5042  144.6220  151.6027 H   0  0  0  0  0  0  0  0  0  0  0  0  # atno 10167 bound_to 10162
  157.5019  131.1094  150.9415 H   0  0  0  0  0  0  0  0  0  0  0  0  # atno 10718 bound_to 10713
  153.7288  135.6940  153.4994 H   0  0  0  0  0  0  0  0  0  0  0  0  # atno 10763 bound_to 10752
  153.2151  135.4389  155.0424 H   0  0  0  0  0  0  0  0  0  0  0  0  # atno 10764 bound_to 10752
  154.8260  135.3446  154.6818 H   0  0  0  0  0  0  0  0  0  0  0  0  # atno 10765 bound_to 10752
  140.0258  134.9375  157.0565 H   0  0  0  0  0  0  0  0  0  0  0  0  # atno 11005 bound_to 11000
  145.4935  141.0438  143.2580 LP  0  0  0  0  0  0  0  0  0  0  0  0  # atno 17320 bound_to 7965
  144.7847  139.6451  143.7139 LP  0  0  0  0  0  0  0  0  0  0  0  0  # atno 17321 bound_to 7965
  140.5926  143.9753  150.6334 LP  0  0  0  0  0  0  0  0  0  0  0  0  # atno 17342 bound_to 10162
  140.2939  143.3306  152.1037 LP  0  0  0  0  0  0  0  0  0  0  0  0  # atno 17343 bound_to 10162
  157.0083  130.5627  149.5318 LP  0  0  0  0  0  0  0  0  0  0  0  0  # atno 17370 bound_to 10713
  156.0234  130.5329  150.8340 LP  0  0  0  0  0  0  0  0  0  0  0  0  # atno 17371 bound_to 10713
  140.4309  134.1781  155.7168 LP  0  0  0  0  0  0  0  0  0  0  0  0  # atno 17394 bound_to 11000
  141.1802  133.8430  157.1285 LP  0  0  0  0  0  0  0  0  0  0  0  0  # atno 17395 bound_to 11000

$$$$
