AV-unprocessed.smi:3099|AV-procd|sdf|11802|dock4
  -GOLD-   2272017173D 1   1.00000     0.00000
 Structure written by MMmdl.
 33 34  0  0  0  0  0  0  0  0  2 V2000
  149.9032  141.0581  154.6768 C   0  0  0  0  0  0  0  0  0  0  0  0
  150.7143  139.8563  154.4701 N   0  0  0  0  0  0  0  0  0  0  0  0
  150.4141  138.9480  153.5333 C   0  0  0  0  0  0  0  0  0  0  0  0
  151.3430  137.9928  153.6096 N   0  3  0  0  0  0  0  0  0  0  0  0
  152.2405  138.2899  154.5979 C   0  0  0  0  0  0  0  0  0  0  0  0
  151.8470  139.4827  155.1573 C   0  0  0  0  0  0  0  0  0  0  0  0
  152.4248  140.3028  156.2706 C   0  0  0  0  0  0  0  0  0  0  0  0
  151.5084  140.3643  157.5058 C   0  0  0  0  0  0  0  0  0  0  0  0
  152.0790  141.2007  158.5550 N   0  0  0  0  0  0  0  0  0  0  0  0
  153.2102  140.9307  159.2241 C   0  0  0  0  0  0  0  0  0  0  0  0
  153.8944  139.9288  159.0127 O   0  0  0  0  0  0  0  0  0  0  0  0
  153.6257  141.9504  160.2886 C   0  0  0  0  0  0  0  0  0  0  0  0
  152.5340  142.2297  161.3083 C   0  0  0  0  0  0  0  0  0  0  0  0
  152.1565  143.6492  161.6712 C   0  0  0  0  0  0  0  0  0  0  0  0
  152.8690  142.7791  162.6766 C   0  0  0  0  0  0  0  0  0  0  0  0
  149.0446  141.0542  154.0039 H   0  0  0  0  0  0  0  0  0  0  0  0
  150.5143  141.9390  154.4786 H   0  0  0  0  0  0  0  0  0  0  0  0
  149.5522  141.0804  155.7089 H   0  0  0  0  0  0  0  0  0  0  0  0
  149.5848  138.9780  152.8490 H   0  0  0  0  0  0  0  0  0  0  0  0
  153.0755  137.6437  154.8266 H   0  0  0  0  0  0  0  0  0  0  0  0
  153.3923  139.8829  156.5484 H   0  0  0  0  0  0  0  0  0  0  0  0
  152.6135  141.3091  155.8945 H   0  0  0  0  0  0  0  0  0  0  0  0
  150.5191  140.7368  157.2338 H   0  0  0  0  0  0  0  0  0  0  0  0
  151.3650  139.3642  157.9153 H   0  0  0  0  0  0  0  0  0  0  0  0
  151.5804  142.0473  158.7889 H   0  0  0  0  0  0  0  0  0  0  0  0
  154.5122  141.5859  160.8082 H   0  0  0  0  0  0  0  0  0  0  0  0
  153.9050  142.8853  159.7997 H   0  0  0  0  0  0  0  0  0  0  0  0
  151.7101  141.5188  161.2715 H   0  0  0  0  0  0  0  0  0  0  0  0
  152.7245  144.4572  161.2143 H   0  0  0  0  0  0  0  0  0  0  0  0
  151.1029  143.8593  161.8433 H   0  0  0  0  0  0  0  0  0  0  0  0
  152.2904  142.4086  163.5203 H   0  0  0  0  0  0  0  0  0  0  0  0
  153.9100  143.0121  162.8923 H   0  0  0  0  0  0  0  0  0  0  0  0
  151.3753  137.1696  153.0212 H   0  0  0  0  0  0  0  0  0  0  0  0
  1  2  1  0  0  0  0
  1 16  1  0  0  0  0
  1 17  1  0  0  0  0
  1 18  1  0  0  0  0
  2  6  1  0  0  0  0
  2  3  1  0  0  0  0
  3  4  2  0  0  0  0
  3 19  1  0  0  0  0
  4  5  1  0  0  0  0
  4 33  1  0  0  0  0
  5  6  2  0  0  0  0
  5 20  1  0  0  0  0
  6  7  1  0  0  0  0
  7  8  1  0  0  0  0
  7 21  1  0  0  0  0
  7 22  1  0  0  0  0
  8  9  1  0  0  0  0
  8 23  1  0  0  0  0
  8 24  1  0  0  0  0
  9 10  1  0  0  0  0
  9 25  1  0  0  0  0
 10 11  2  0  0  0  0
 10 12  1  0  0  0  0
 12 13  1  0  0  0  0
 12 26  1  0  0  0  0
 12 27  1  0  0  0  0
 13 15  1  0  0  0  0
 13 14  1  0  0  0  0
 13 28  1  0  0  0  0
 14 15  1  0  0  0  0
 14 29  1  0  0  0  0
 14 30  1  0  0  0  0
 15 31  1  0  0  0  0
 15 32  1  0  0  0  0
M  CHG  1   4   1
M  END
> <s_m_source_file>
AV-unprocessed.smi

> <i_m_source_file_index>
3099

> <i_lp_mmshare_version>
43012

> <i_f3d_flags>
0

> <s_epik_input>
W0NIM11uMVtjSF1uW2NIXWMxW0NIMl1bQ0gyXVtOSF1DKD1PKVtDSDJdW0NIXTJbQ0gyXVtDSDJdMg==

> <s_epik_cmdline>
J2VwaWtfcHl0aG9uJywgJy1waCcsICc3LjAnLCAnLXRuJywgJzgnLCAnLW1hJywgJzIwMCcsICctbWV0YWxfYmluZGluZycsICctaW1hZScsICc8aW5maWxlLm1hZT4nLCAnLW9tYWUnLCAnPG91dGZpbGUubWFlPic=

> <r_lp_tautomer_probability>
1

> <r_epik_Ionization_Penalty>
0.156092

> <r_epik_Ionization_Penalty_Charging>
0

> <r_epik_Ionization_Penalty_Neutral>
0.156092

> <r_epik_State_Penalty>
0.145389

> <r_epik_Charging_Adjusted_Penalty>
0.145389

> <i_epik_Tot_Q>
1

> <i_epik_Tot_abs_Q>
1

> <r_epik_Metal_State_Penalty>
0.466304

> <b_epik_Metal_Only>
0

> <s_lp_Force_Field>
OPLS_2005

> <r_lp_Energy>
10.1208

> <b_lp_Chiralities_Consistent>
1

> <s_lp_Variant>
AV-unprocessed.smi:3099-1

> <Gold.Version>
5.8.1

> <Gold.Id.Protein>
6NUR|6NUR_protein|mol2

> <Gold.PLP.Fitness>
49.1051

> <Gold.PLP.PLP>
-37.9744

> <Gold.PLP.part.hbond>
-2.5715

> <Gold.PLP.part.metal>
0.0000

> <Gold.PLP.part.buried>
0.0649

> <Gold.PLP.part.nonpolar>
-33.4757

> <Gold.PLP.part.repulsive>
0.2192

> <Gold.PLP.ligand.clash>
0.0000

> <Gold.PLP.ligand.torsion>
0.5496

> <Gold.PLP.Chemscore.Hbond>
3.0000

> <Gold.PLP.Chemscore.CHOScore>
0.8970

> <Gold.PLP.Chemscore.Metal>
0.0000

> <Gold.Chemscore.Hbonds>
donor molecule, donor type, donor heavy atom, donor atom, acceptor molecule, acceptor atom, score
      L1  H     4    33       P1  7949  2.00
      P1  H  7997  8010       L1    11  0.99
      L1  C     3    19       P1  7957  0.76

> <Gold.PLP.Chemscore.Internal.Correction>
0.5388

> <Gold.Rescore>
     Score         DG    S(hbond)    S(metal)    S(lipo)     H(rot)  DE(clash)    DE(int)     intcor
     14.82     -15.36       1.80        0.00      76.62       1.99       0.02       0.52       ----

> <Gold.Chemscore.Fitness>
14.8193

> <Gold.Chemscore.DG>
-15.3623

> <Gold.Chemscore.ZeroCoef>
-5.4800

> <Gold.Chemscore.Hbond>
1.8004

> <Gold.Chemscore.Metal>
0.0000

> <Gold.Chemscore.Lipo>
76.6208

> <Gold.Chemscore.Internal_Hbond>
0.0000

> <Gold.Chemscore.DEClash>
0.0234

> <Gold.Chemscore.DEInternal>
0.5196

> <Gold.Chemscore.Rot>
1.9905

> <Gold.Chemscore.Internal.Correction>
   9.000000E+99

> <Gold.Chemscore.Hbonds>
donor molecule, donor type, donor heavy atom, donor atom, acceptor molecule, acceptor atom, score
      L1  H     4    33       P1  7949  0.78
      P1  H  7997  8010       L1    11  0.78

> <Gold.Chemscore.Hbond.Weighted>
-6.0133

> <Gold.Chemscore.Metal.Weighted>
-0.0000

> <Gold.Chemscore.Lipo.Weighted>
-8.9646

> <Gold.Chemscore.Internal_Hbond.Weighted>
0.0000

> <Gold.Chemscore.DEClash.Weighted>
0.0234

> <Gold.Chemscore.DEInternal.Weighted>
0.5196

> <Gold.Chemscore.Rot.Weighted>
5.0957

> <Gold.Chemscore.Internal.Correction.Weighted>
   9.000000E+99

> <Gold.Protein.RotatedTorsions>
[ 6907 6896 6895 6894 ] final  123.99 input  -60.11 | X-H torsion
[ 7974 7965 7964 7962 ] final  105.90 input  175.53 | X-H torsion
[ 8008 7997 7996 7995 ] final    5.94 input   59.86 | X-H torsion
[ 10167 10162 10161 10158 ] final -126.27 input  -65.29 | X-H torsion
[ 10718 10713 10712 10709 ] final   98.07 input   66.30 | X-H torsion
[ 10763 10752 10751 10750 ] final  -25.97 input  -60.55 | X-H torsion
[ 11005 11000 10999 10996 ] final -115.73 input  -57.11 | X-H torsion

> <Gold.Protein.ActiveResidues>
 VAL166  LYS551  ARG553  GLY616  TRP617  ASP618  TYR619  PRO620  LYS621  CYS622 
 ASP623  PHE694  ASN695  SER759  ASP760  ASP761  ALA762  ILE779  LEU786  VAL792 
 PHE793  MET794  SER795  GLU796  ALA797  LYS798  CYS799  TRP800  GLU811  SER814 

> <Gold.Protein.RotatedAtoms>
  152.4116  133.6972  159.6402 H   0  0  0  0  0  0  0  0  0  0  0  0  # atno 6907 bound_to 6896
  150.7996  133.8614  159.3242 H   0  0  0  0  0  0  0  0  0  0  0  0  # atno 6908 bound_to 6896
  151.6355  135.1020  160.0182 H   0  0  0  0  0  0  0  0  0  0  0  0  # atno 6909 bound_to 6896
  145.3136  139.2533  143.3749 H   0  0  0  0  0  0  0  0  0  0  0  0  # atno 7974 bound_to 7965
  154.7347  140.2737  155.6425 H   0  0  0  0  0  0  0  0  0  0  0  0  # atno 8008 bound_to 7997
  156.2859  140.2709  156.1983 H   0  0  0  0  0  0  0  0  0  0  0  0  # atno 8009 bound_to 7997
  155.0335  140.0371  157.2473 H   0  0  0  0  0  0  0  0  0  0  0  0  # atno 8010 bound_to 7997
  139.9733  143.5822  152.2405 H   0  0  0  0  0  0  0  0  0  0  0  0  # atno 10167 bound_to 10162
  157.6902  131.0629  150.4740 H   0  0  0  0  0  0  0  0  0  0  0  0  # atno 10718 bound_to 10713
  153.7083  135.6952  153.5044 H   0  0  0  0  0  0  0  0  0  0  0  0  # atno 10763 bound_to 10752
  153.2291  135.4343  155.0574 H   0  0  0  0  0  0  0  0  0  0  0  0  # atno 10764 bound_to 10752
  154.8323  135.3479  154.6621 H   0  0  0  0  0  0  0  0  0  0  0  0  # atno 10765 bound_to 10752
  141.0469  133.9749  157.2903 H   0  0  0  0  0  0  0  0  0  0  0  0  # atno 11005 bound_to 11000
  146.3108  140.3678  142.8671 LP  0  0  0  0  0  0  0  0  0  0  0  0  # atno 17320 bound_to 7965
  144.8995  140.7625  143.5875 LP  0  0  0  0  0  0  0  0  0  0  0  0  # atno 17321 bound_to 7965
  139.6465  144.7658  151.2234 LP  0  0  0  0  0  0  0  0  0  0  0  0  # atno 17342 bound_to 10162
  140.7514  143.6231  150.8494 LP  0  0  0  0  0  0  0  0  0  0  0  0  # atno 17343 bound_to 10162
  156.5076  130.4132  149.6318 LP  0  0  0  0  0  0  0  0  0  0  0  0  # atno 17370 bound_to 10713
  156.3270  130.7311  151.2234 LP  0  0  0  0  0  0  0  0  0  0  0  0  # atno 17371 bound_to 10713
  139.9319  135.0199  156.8427 LP  0  0  0  0  0  0  0  0  0  0  0  0  # atno 17394 bound_to 11000
  140.6130  134.0064  155.7585 LP  0  0  0  0  0  0  0  0  0  0  0  0  # atno 17395 bound_to 11000

$$$$
