#       Name:                AV-unprocessed.smi:3303
#       Creating user name   scv26
#       Creation time:       Fri Mar 27 19:02:36 2020


#       File generated by GOLD software.
#

@<TRIPOS>MOLECULE
AV-unprocessed.smi:3303
    46    47     1
SMALL
NO_CHARGES


@<TRIPOS>ATOM
      1 ****        -1.0335  -0.0703   2.4486 C.3            1 S1                 0.0000
      2 ****        -1.6102  -0.7670   1.2047 C.3            1 S1                 0.0000
      3 ****        -1.3021  -2.2757   1.1886 C.3            1 S1                 0.0000
      4 ****        -1.9545  -2.9606   0.0428 N.4            1 S1                 1.0000
      5 ****        -1.7904  -4.4313   0.1426 C.3            1 S1                 0.0000
      6 ****        -1.5273  -2.3877  -1.2686 C.3            1 S1                 0.0000
      7 ****        -2.2128  -3.0714  -2.4680 C.3            1 S1                 0.0000
      8 ****        -1.8072  -0.8685  -1.3168 C.3            1 S1                 0.0000
      9 ****        -1.2096  -0.0959  -0.1286 C.3            1 S1                 0.0000
     10 ****         0.2389   0.0010  -0.2949 N.3            1 S1                 0.0000
     11 ****         0.7052   1.3680  -0.1133 C.3            1 S1                 0.0000
     12 ****         2.2339   1.4182  -0.2318 C.3            1 S1                 0.0000
     13 ****         2.7666   2.8297  -0.0747 C.ar           1 S1                 0.0000
     14 ****         3.2732   3.2758   1.1647 C.ar           1 S1                 0.0000
     15 ****         3.7421   4.6006   1.2597 C.ar           1 S1                 0.0000
     16 ****         3.6859   5.4237   0.1185 C.ar           1 S1                 0.0000
     17 ****         3.1600   4.8836  -1.0720 C.ar           1 S1                 0.0000
     18 ****         2.7063   3.6155  -1.1736 N.ar           1 S1                 0.0000
     19 ****         0.0532  -0.1509   2.4887 H              1 S1                 0.0000
     20 ****        -1.4277  -0.5136   3.3634 H              1 S1                 0.0000
     21 ****        -1.2929   0.9885   2.4605 H              1 S1                 0.0000
     22 ****        -2.6944  -0.6722   1.2835 H              1 S1                 0.0000
     23 ****        -0.2246  -2.4454   1.1522 H              1 S1                 0.0000
     24 ****        -1.6569  -2.7193   2.1201 H              1 S1                 0.0000
     25 ****        -0.7583  -4.7247  -0.0532 H              1 S1                 0.0000
     26 ****        -2.4403  -4.9553  -0.5576 H              1 S1                 0.0000
     27 ****        -2.0595  -4.7845   1.1387 H              1 S1                 0.0000
     28 ****        -0.4516  -2.5437  -1.3665 H              1 S1                 0.0000
     29 ****        -1.9544  -2.5683  -3.4004 H              1 S1                 0.0000
     30 ****        -3.2988  -3.0485  -2.3727 H              1 S1                 0.0000
     31 ****        -1.9032  -4.1101  -2.5820 H              1 S1                 0.0000
     32 ****        -1.4446  -0.4457  -2.2551 H              1 S1                 0.0000
     33 ****        -2.8867  -0.7107  -1.3196 H              1 S1                 0.0000
     34 ****        -1.6361   0.9087  -0.1523 H              1 S1                 0.0000
     35 ****         0.4946  -0.3017  -1.2243 H              1 S1                 0.0000
     36 ****         0.2509   2.0090  -0.8702 H              1 S1                 0.0000
     37 ****         0.3973   1.7450   0.8621 H              1 S1                 0.0000
     38 ****         2.6902   0.7770   0.5237 H              1 S1                 0.0000
     39 ****         2.5510   1.0264  -1.1996 H              1 S1                 0.0000
     40 ****         3.2996   2.6218   2.0239 H              1 S1                 0.0000
     41 ****         4.1357   4.9790   2.1915 H              1 S1                 0.0000
     42 ****         4.0360   6.4447   0.1544 H              1 S1                 0.0000
     43 ****         3.1004   5.4864  -1.9660 H              1 S1                 0.0000
     44 ****        -2.9442  -2.7787   0.1293 H              1 S1                 0.0000
     45 ****         0.6638  -0.5818   0.3978 LP             1 S1                 0.0000
     46 ****         2.3369   3.2681  -2.0355 LP             1 S1                 0.0000
@<TRIPOS>BOND
    1    1    2 1     
    2    1   19 1     
    3    1   20 1     
    4    1   21 1     
    5    2    9 1     
    6    2    3 1     
    7    2   22 1     
    8    3    4 1     
    9    3   23 1     
   10    3   24 1     
   11    4    5 1     
   12    4    6 1     
   13    4   44 1     
   14    5   25 1     
   15    5   26 1     
   16    5   27 1     
   17    6    7 1     
   18    6    8 1     
   19    6   28 1     
   20    7   29 1     
   21    7   30 1     
   22    7   31 1     
   23    8    9 1     
   24    8   32 1     
   25    8   33 1     
   26    9   10 1     
   27    9   34 1     
   28   10   11 1     
   29   10   35 1     
   30   11   12 1     
   31   11   36 1     
   32   11   37 1     
   33   12   13 1     
   34   12   38 1     
   35   12   39 1     
   36   13   18 ar    
   37   13   14 ar    
   38   14   15 ar    
   39   14   40 1     
   40   15   16 ar    
   41   15   41 1     
   42   16   17 ar    
   43   16   42 1     
   44   17   18 ar    
   45   17   43 1     
   46   10   45 1     
   47   18   46 1     
@<TRIPOS>SUBSTRUCTURE
      1 S1             1
@<TRIPOS>SET
LONE_PAIRS      STATIC     ATOMS    <user>   **** ""
2 45 46
DONOR_HYDROGENS      STATIC     ATOMS    <user>   **** ""
2 44 35
ATOM$BLUE        STATIC     ATOMS    COLORGROUP SYSTEM
2 45 46
ATOM$RED        STATIC     ATOMS    COLORGROUP SYSTEM
2 44 35
