AV-unprocessed.smi:2663|AV-procd|sdf|10325|dock7
  -GOLD-   2272014343D 1   1.00000     0.00000
 Structure written by MMmdl.
 38 39  0  0  0  0  0  0  0  0  2 V2000
  150.0529  138.7239  156.3197 C   0  0  0  0  0  0  0  0  0  0  0  0
  151.1012  138.4438  157.4274 C   0  0  2  0  0  0  0  0  0  0  0  0
  152.4153  137.9506  156.7536 C   0  0  0  0  0  0  0  0  0  0  0  0
  152.2139  136.8009  155.9549 O   0  0  0  0  0  0  0  0  0  0  0  0
  150.6040  137.4000  158.3386 N   0  0  0  0  0  0  0  0  0  0  0  0
  149.4609  137.3429  159.0426 C   0  0  0  0  0  0  0  0  0  0  0  0
  148.6355  138.2558  158.9773 O   0  0  0  0  0  0  0  0  0  0  0  0
  149.3458  136.2181  159.7849 N   0  5  0  0  0  0  0  0  0  0  0  0
  148.4265  136.1476  160.7621 C   0  0  0  0  0  0  0  0  0  0  0  0
  147.8784  137.2436  161.3114 N   0  0  0  0  0  0  0  0  0  0  0  0
  146.9554  136.9525  162.3069 N   0  0  0  0  0  0  0  0  0  0  0  0
  146.8371  135.6377  162.4901 C   0  0  0  0  0  0  0  0  0  0  0  0
  147.8441  134.6361  161.4657 S   0  0  0  0  0  0  0  0  0  0  0  0
  151.3392  139.7378  158.2852 C   0  0  0  0  0  0  0  0  0  0  0  0
  151.3704  141.0439  157.4459 C   0  0  0  0  0  0  0  0  0  0  0  0
  151.5486  142.2952  158.3208 C   0  0  0  0  0  0  0  0  0  0  0  0
  152.8149  142.2000  159.1805 C   0  0  0  0  0  0  0  0  0  0  0  0
  152.7944  140.9261  160.0341 C   0  0  0  0  0  0  0  0  0  0  0  0
  152.6203  139.6729  159.1615 C   0  0  0  0  0  0  0  0  0  0  0  0
  150.2993  139.6274  155.7614 H   0  0  0  0  0  0  0  0  0  0  0  0
  149.0489  138.8474  156.7253 H   0  0  0  0  0  0  0  0  0  0  0  0
  149.9983  137.9120  155.5946 H   0  0  0  0  0  0  0  0  0  0  0  0
  152.8575  138.7306  156.1339 H   0  0  0  0  0  0  0  0  0  0  0  0
  153.1698  137.7008  157.4993 H   0  0  0  0  0  0  0  0  0  0  0  0
  151.2981  136.7526  155.7274 H   0  0  0  0  0  0  0  0  0  0  0  0
  151.2205  136.6091  158.4543 H   0  0  0  0  0  0  0  0  0  0  0  0
  146.1556  135.2557  163.2353 H   0  0  0  0  0  0  0  0  0  0  0  0
  150.5003  139.8285  158.9770 H   0  0  0  0  0  0  0  0  0  0  0  0
  152.1764  141.0015  156.7125 H   0  0  0  0  0  0  0  0  0  0  0  0
  150.4470  141.1633  156.8810 H   0  0  0  0  0  0  0  0  0  0  0  0
  151.5944  143.1844  157.6915 H   0  0  0  0  0  0  0  0  0  0  0  0
  150.6769  142.4178  158.9650 H   0  0  0  0  0  0  0  0  0  0  0  0
  153.6966  142.1986  158.5380 H   0  0  0  0  0  0  0  0  0  0  0  0
  152.8983  143.0780  159.8216 H   0  0  0  0  0  0  0  0  0  0  0  0
  153.7173  140.8513  160.6100 H   0  0  0  0  0  0  0  0  0  0  0  0
  151.9811  140.9825  160.7587 H   0  0  0  0  0  0  0  0  0  0  0  0
  152.5951  138.8070  159.8215 H   0  0  0  0  0  0  0  0  0  0  0  0
  153.5036  139.5548  158.5329 H   0  0  0  0  0  0  0  0  0  0  0  0
  1  2  1  0  0  0  0
  1 20  1  0  0  0  0
  1 21  1  0  0  0  0
  1 22  1  0  0  0  0
  2  3  1  0  0  0  0
  2  5  1  0  0  0  0
  2 14  1  0  0  0  0
  3  4  1  0  0  0  0
  3 23  1  0  0  0  0
  3 24  1  0  0  0  0
  4 25  1  0  0  0  0
  5  6  1  0  0  0  0
  5 26  1  0  0  0  0
  6  7  2  0  0  0  0
  6  8  1  0  0  0  0
  8  9  1  0  0  0  0
  9 13  1  0  0  0  0
  9 10  2  0  0  0  0
 10 11  1  0  0  0  0
 11 12  2  0  0  0  0
 12 13  1  0  0  0  0
 12 27  1  0  0  0  0
 14 19  1  0  0  0  0
 14 15  1  0  0  0  0
 14 28  1  0  0  0  0
 15 16  1  0  0  0  0
 15 29  1  0  0  0  0
 15 30  1  0  0  0  0
 16 17  1  0  0  0  0
 16 31  1  0  0  0  0
 16 32  1  0  0  0  0
 17 18  1  0  0  0  0
 17 33  1  0  0  0  0
 17 34  1  0  0  0  0
 18 19  1  0  0  0  0
 18 35  1  0  0  0  0
 18 36  1  0  0  0  0
 19 37  1  0  0  0  0
 19 38  1  0  0  0  0
M  CHG  1   8  -1
M  END
> <s_m_source_file>
AV-unprocessed.smi

> <i_m_source_file_index>
2663

> <i_lp_mmshare_version>
43012

> <i_f3d_flags>
0

> <s_epik_input>
W0NIMl0xW0NIMl1bQ0gyXVtDSDJdW0NIMl1bQ0hdMVtDQF0oW0NIM10pKFtDSDJdW09IXSlbTkhdQyg9TylbTkhdYzJubltjSF1zMg==

> <s_epik_cmdline>
J2VwaWtfcHl0aG9uJywgJy1waCcsICc3LjAnLCAnLXRuJywgJzgnLCAnLW1hJywgJzIwMCcsICctbWV0YWxfYmluZGluZycsICctaW1hZScsICc8aW5maWxlLm1hZT4nLCAnLW9tYWUnLCAnPG91dGZpbGUubWFlPic=

> <r_lp_tautomer_probability>
1

> <r_epik_Ionization_Penalty>
4.39194

> <r_epik_Ionization_Penalty_Charging>
4.34423

> <r_epik_Ionization_Penalty_Neutral>
0.047714

> <r_epik_State_Penalty>
4.34384

> <r_epik_Charging_Adjusted_Penalty>
8.68806

> <i_epik_Tot_Q>
-1

> <i_epik_Tot_abs_Q>
1

> <r_epik_Metal_State_Penalty>
0.746645

> <b_epik_Metal_Only>
1

> <s_lp_Force_Field>
OPLS_2005

> <r_lp_Energy>
18.1486

> <b_lp_Chiralities_Consistent>
1

> <s_lp_Variant>
AV-unprocessed.smi:2663-4

> <Gold.Version>
5.8.1

> <Gold.Id.Protein>
6NUR|6NUR_protein|mol2

> <Gold.PLP.Fitness>
42.3091

> <Gold.PLP.PLP>
-29.5880

> <Gold.PLP.part.hbond>
-5.0000

> <Gold.PLP.part.metal>
0.0000

> <Gold.PLP.part.buried>
-5.3705

> <Gold.PLP.part.nonpolar>
-20.2146

> <Gold.PLP.part.repulsive>
0.1060

> <Gold.PLP.ligand.clash>
0.0000

> <Gold.PLP.ligand.torsion>
0.6534

> <Gold.PLP.Chemscore.Hbond>
4.6528

> <Gold.PLP.Chemscore.CHOScore>
0.0000

> <Gold.PLP.Chemscore.Metal>
0.0000

> <Gold.Chemscore.Hbonds>
donor molecule, donor type, donor heavy atom, donor atom, acceptor molecule, acceptor atom, score
      P1  H  6896  6907       L1     8  2.00
      P1  H  6931  6943       L1    10  1.00
      P1  H  6934  6947       L1    10  0.58
      P1  H 10752 10765       L1     4  0.96

> <Gold.PLP.Chemscore.Internal.Correction>
0.0694

> <Gold.Rescore>
     Score         DG    S(hbond)    S(metal)    S(lipo)     H(rot)  DE(clash)    DE(int)     intcor
     15.57     -17.41       2.83        0.00      68.72       2.18       0.08       1.76       ----

> <Gold.Chemscore.Fitness>
15.5693

> <Gold.Chemscore.DG>
-17.4111

> <Gold.Chemscore.ZeroCoef>
-5.4800

> <Gold.Chemscore.Hbond>
2.8344

> <Gold.Chemscore.Metal>
0.0000

> <Gold.Chemscore.Lipo>
68.7240

> <Gold.Chemscore.Internal_Hbond>
0.0000

> <Gold.Chemscore.DEClash>
0.0811

> <Gold.Chemscore.DEInternal>
1.7607

> <Gold.Chemscore.Rot>
2.1783

> <Gold.Chemscore.Internal.Correction>
   9.000000E+99

> <Gold.Chemscore.Hbonds>
donor molecule, donor type, donor heavy atom, donor atom, acceptor molecule, acceptor atom, score
      P1  H  6896  6907       L1     8  0.89
      P1  H  6931  6943       L1    10  0.55
      P1  H  6934  6947       L1    10  0.08
      P1  H 10752 10765       L1     4  0.41

> <Gold.Chemscore.Hbond.Weighted>
-9.4668

> <Gold.Chemscore.Metal.Weighted>
-0.0000

> <Gold.Chemscore.Lipo.Weighted>
-8.0407

> <Gold.Chemscore.Internal_Hbond.Weighted>
0.0000

> <Gold.Chemscore.DEClash.Weighted>
0.0811

> <Gold.Chemscore.DEInternal.Weighted>
1.7607

> <Gold.Chemscore.Rot.Weighted>
5.5765

> <Gold.Chemscore.Internal.Correction.Weighted>
   9.000000E+99

> <Gold.Protein.RotatedTorsions>
[ 6907 6896 6895 6894 ] final  -53.89 input  -60.11 | X-H torsion
[ 7974 7965 7964 7962 ] final   82.41 input  175.53 | X-H torsion
[ 8008 7997 7996 7995 ] final   86.74 input   59.86 | X-H torsion
[ 10167 10162 10161 10158 ] final  176.95 input  -65.29 | X-H torsion
[ 10718 10713 10712 10709 ] final   89.74 input   66.30 | X-H torsion
[ 10763 10752 10751 10750 ] final -168.23 input  -60.55 | X-H torsion
[ 11005 11000 10999 10996 ] final  141.49 input  -57.11 | X-H torsion

> <Gold.Protein.ActiveResidues>
 VAL166  LYS551  ARG553  GLY616  TRP617  ASP618  TYR619  PRO620  LYS621  CYS622 
 ASP623  PHE694  ASN695  SER759  ASP760  ASP761  ALA762  ILE779  LEU786  VAL792 
 PHE793  MET794  SER795  GLU796  ALA797  LYS798  CYS799  TRP800  GLU811  SER814 

> <Gold.Protein.RotatedAtoms>
  150.8387  134.7670  159.6913 H   0  0  0  0  0  0  0  0  0  0  0  0  # atno 6907 bound_to 6896
  152.4478  134.5454  159.9861 H   0  0  0  0  0  0  0  0  0  0  0  0  # atno 6908 bound_to 6896
  151.5598  133.3367  159.3005 H   0  0  0  0  0  0  0  0  0  0  0  0  # atno 6909 bound_to 6896
  145.6254  139.2394  143.2115 H   0  0  0  0  0  0  0  0  0  0  0  0  # atno 7974 bound_to 7965
  155.9666  140.3389  155.6538 H   0  0  0  0  0  0  0  0  0  0  0  0  # atno 8008 bound_to 7997
  155.6729  140.0729  157.2531 H   0  0  0  0  0  0  0  0  0  0  0  0  # atno 8009 bound_to 7997
  154.4156  140.1688  156.1886 H   0  0  0  0  0  0  0  0  0  0  0  0  # atno 8010 bound_to 7997
  139.5234  144.2856  152.0509 H   0  0  0  0  0  0  0  0  0  0  0  0  # atno 10167 bound_to 10162
  157.6956  131.0344  150.3472 H   0  0  0  0  0  0  0  0  0  0  0  0  # atno 10718 bound_to 10713
  154.6650  135.2930  154.9818 H   0  0  0  0  0  0  0  0  0  0  0  0  # atno 10763 bound_to 10752
  154.0864  135.6597  153.4849 H   0  0  0  0  0  0  0  0  0  0  0  0  # atno 10764 bound_to 10752
  153.0452  135.5209  154.7618 H   0  0  0  0  0  0  0  0  0  0  0  0  # atno 10765 bound_to 10752
  140.0405  134.9307  157.0834 H   0  0  0  0  0  0  0  0  0  0  0  0  # atno 11005 bound_to 11000
  146.1398  140.7073  142.9372 LP  0  0  0  0  0  0  0  0  0  0  0  0  # atno 17320 bound_to 7965
  144.7214  140.4386  143.7005 LP  0  0  0  0  0  0  0  0  0  0  0  0  # atno 17321 bound_to 7965
  140.2309  144.4369  150.6300 LP  0  0  0  0  0  0  0  0  0  0  0  0  # atno 17342 bound_to 10162
  140.6356  143.2194  151.6402 LP  0  0  0  0  0  0  0  0  0  0  0  0  # atno 17343 bound_to 10162
  156.3925  130.3900  149.7019 LP  0  0  0  0  0  0  0  0  0  0  0  0  # atno 17370 bound_to 10713
  156.4364  130.7840  151.2861 LP  0  0  0  0  0  0  0  0  0  0  0  0  # atno 17371 bound_to 10713
  140.4077  134.2014  155.7163 LP  0  0  0  0  0  0  0  0  0  0  0  0  # atno 17394 bound_to 11000
  141.1880  133.8269  157.1010 LP  0  0  0  0  0  0  0  0  0  0  0  0  # atno 17395 bound_to 11000

$$$$
