AV-unprocessed.smi:1235|AV-procd|sdf|5177|dock8
  -GOLD-   22720 4253D 1   1.00000     0.00000
 Structure written by MMmdl.
 50 51  0  0  0  0  0  0  0  0  2 V2000
  152.2316  142.2676  159.3435 C   0  0  0  0  0  0  0  0  0  0  0  0
  151.3029  142.0345  158.2990 O   0  0  0  0  0  0  0  0  0  0  0  0
  151.3959  140.7223  157.7717 C   0  0  0  0  0  0  0  0  0  0  0  0
  150.2948  140.5323  156.7174 C   0  0  0  0  0  0  0  0  0  0  0  0
  150.5040  139.3095  155.9356 N   0  0  0  0  0  0  0  0  0  0  0  0
  149.4320  138.4331  155.9623 N   0  0  0  0  0  0  0  0  0  0  0  0
  149.4957  137.3089  155.3250 C   0  0  0  0  0  0  0  0  0  0  0  0
  148.3666  136.3371  155.3325 C   0  0  0  0  0  0  0  0  0  0  0  0
  147.5675  136.2740  156.2681 O   0  0  0  0  0  0  0  0  0  0  0  0
  148.2830  135.5404  154.2515 N   0  0  0  0  0  0  0  0  0  0  0  0
  147.2534  134.5327  154.0276 C   0  0  0  0  0  0  0  0  0  0  0  0
  146.1726  135.0289  153.0459 C   0  0  0  0  0  0  0  0  0  0  0  0
  145.4966  133.9278  152.3075 N   0  3  2  0  0  0  0  0  0  0  0  0
  146.4689  133.0597  151.5890 C   0  0  0  0  0  0  0  0  0  0  0  0
  145.7876  131.8066  151.0164 C   0  0  0  0  0  0  0  0  0  0  0  0
  144.6151  132.1837  150.1047 C   0  0  0  0  0  0  0  0  0  0  0  0
  143.6381  133.0926  150.8625 C   0  0  0  0  0  0  0  0  0  0  0  0
  144.3356  134.3360  151.4545 C   0  0  2  0  0  0  0  0  0  0  0  0
  144.6986  135.3721  150.3689 C   0  0  0  0  0  0  0  0  0  0  0  0
  150.6836  136.9469  154.5707 C   0  0  0  0  0  0  0  0  0  0  0  0
  151.7216  137.8117  154.5551 C   0  0  0  0  0  0  0  0  0  0  0  0
  151.6785  139.0871  155.2721 C   0  0  0  0  0  0  0  0  0  0  0  0
  152.6146  139.8859  155.2821 O   0  0  0  0  0  0  0  0  0  0  0  0
  152.1145  143.2849  159.7167 H   0  0  0  0  0  0  0  0  0  0  0  0
  153.2576  142.1547  158.9911 H   0  0  0  0  0  0  0  0  0  0  0  0
  152.0698  141.5824  160.1766 H   0  0  0  0  0  0  0  0  0  0  0  0
  152.3797  140.5688  157.3257 H   0  0  0  0  0  0  0  0  0  0  0  0
  151.2791  139.9910  158.5733 H   0  0  0  0  0  0  0  0  0  0  0  0
  149.3226  140.4939  157.2123 H   0  0  0  0  0  0  0  0  0  0  0  0
  150.2507  141.4033  156.0610 H   0  0  0  0  0  0  0  0  0  0  0  0
  148.9772  135.6558  153.5267 H   0  0  0  0  0  0  0  0  0  0  0  0
  147.7095  133.6096  153.6657 H   0  0  0  0  0  0  0  0  0  0  0  0
  146.8195  134.3094  155.0016 H   0  0  0  0  0  0  0  0  0  0  0  0
  145.4397  135.6513  153.5596 H   0  0  0  0  0  0  0  0  0  0  0  0
  146.6501  135.6795  152.3122 H   0  0  0  0  0  0  0  0  0  0  0  0
  146.9597  133.6233  150.7949 H   0  0  0  0  0  0  0  0  0  0  0  0
  147.2557  132.7449  152.2756 H   0  0  0  0  0  0  0  0  0  0  0  0
  146.5122  131.2081  150.4634 H   0  0  0  0  0  0  0  0  0  0  0  0
  145.4289  131.1797  151.8339 H   0  0  0  0  0  0  0  0  0  0  0  0
  144.9846  132.6882  149.2116 H   0  0  0  0  0  0  0  0  0  0  0  0
  144.1019  131.2845  149.7622 H   0  0  0  0  0  0  0  0  0  0  0  0
  142.8208  133.3922  150.2053 H   0  0  0  0  0  0  0  0  0  0  0  0
  143.1790  132.5214  151.6710 H   0  0  0  0  0  0  0  0  0  0  0  0
  143.5949  134.8040  152.1019 H   0  0  0  0  0  0  0  0  0  0  0  0
  143.8264  135.6118  149.7600 H   0  0  0  0  0  0  0  0  0  0  0  0
  145.4747  135.0131  149.6936 H   0  0  0  0  0  0  0  0  0  0  0  0
  145.0422  136.3105  150.8030 H   0  0  0  0  0  0  0  0  0  0  0  0
  150.7436  136.0120  154.0327 H   0  0  0  0  0  0  0  0  0  0  0  0
  152.6109  137.5554  153.9980 H   0  0  0  0  0  0  0  0  0  0  0  0
  145.1027  133.3348  153.0242 H   0  0  0  0  0  0  0  0  0  0  0  0
  1  2  1  0  0  0  0
  1 24  1  0  0  0  0
  1 25  1  0  0  0  0
  1 26  1  0  0  0  0
  2  3  1  0  0  0  0
  3  4  1  0  0  0  0
  3 27  1  0  0  0  0
  3 28  1  0  0  0  0
  4  5  1  0  0  0  0
  4 29  1  0  0  0  0
  4 30  1  0  0  0  0
  5 22  1  0  0  0  0
  5  6  1  0  0  0  0
  6  7  2  0  0  0  0
  7  8  1  0  0  0  0
  7 20  1  0  0  0  0
  8  9  2  0  0  0  0
  8 10  1  0  0  0  0
 10 11  1  0  0  0  0
 10 31  1  0  0  0  0
 11 12  1  0  0  0  0
 11 32  1  0  0  0  0
 11 33  1  0  0  0  0
 12 13  1  0  0  0  0
 12 34  1  0  0  0  0
 12 35  1  0  0  0  0
 13 18  1  0  0  0  0
 13 14  1  0  0  0  0
 13 50  1  0  0  0  0
 14 15  1  0  0  0  0
 14 36  1  0  0  0  0
 14 37  1  0  0  0  0
 15 16  1  0  0  0  0
 15 38  1  0  0  0  0
 15 39  1  0  0  0  0
 16 17  1  0  0  0  0
 16 40  1  0  0  0  0
 16 41  1  0  0  0  0
 17 18  1  0  0  0  0
 17 42  1  0  0  0  0
 17 43  1  0  0  0  0
 18 19  1  0  0  0  0
 18 44  1  0  0  0  0
 19 45  1  0  0  0  0
 19 46  1  0  0  0  0
 19 47  1  0  0  0  0
 20 21  2  0  0  0  0
 20 48  1  0  0  0  0
 21 22  1  0  0  0  0
 21 49  1  0  0  0  0
 22 23  2  0  0  0  0
M  CHG  1  13   1
M  END
> <s_m_source_file>
AV-unprocessed.smi

> <i_m_source_file_index>
1235

> <i_lp_mmshare_version>
43012

> <i_f3d_flags>
0

> <s_epik_input>
W0NIM11PW0NIMl1bQ0gyXW4xbmMoW2NIXVtjSF1jMT1PKUMoPU8pW05IXVtDSDJdW0NIMl1OMltDSDJdW0NIMl1bQ0gyXVtDSDJdW0NASF0yW0NIM10=

> <s_epik_cmdline>
J2VwaWtfcHl0aG9uJywgJy1waCcsICc3LjAnLCAnLXRuJywgJzgnLCAnLW1hJywgJzIwMCcsICctbWV0YWxfYmluZGluZycsICctaW1hZScsICc8aW5maWxlLm1hZT4nLCAnLW9tYWUnLCAnPG91dGZpbGUubWFlPic=

> <r_lp_tautomer_probability>
1

> <r_epik_Ionization_Penalty>
0.00271975

> <r_epik_Ionization_Penalty_Charging>
0.00271407

> <r_epik_Ionization_Penalty_Neutral>
5.6803e-06

> <r_epik_State_Penalty>
0.00189271

> <r_epik_Charging_Adjusted_Penalty>
0.00460678

> <i_epik_Tot_Q>
1

> <i_epik_Tot_abs_Q>
1

> <r_epik_Metal_State_Penalty>
-0

> <b_epik_Metal_Only>
0

> <s_lp_Force_Field>
OPLS_2005

> <r_lp_Energy>
40.192

> <b_lp_Chiralities_Consistent>
1

> <s_lp_Variant>
AV-unprocessed.smi:1235-3

> <Gold.Version>
5.8.1

> <Gold.Id.Protein>
6NUR|6NUR_protein|mol2

> <Gold.PLP.Fitness>
42.0146

> <Gold.PLP.PLP>
-37.3008

> <Gold.PLP.part.hbond>
-3.0000

> <Gold.PLP.part.metal>
0.0000

> <Gold.PLP.part.buried>
-3.1018

> <Gold.PLP.part.nonpolar>
-32.2364

> <Gold.PLP.part.repulsive>
0.0894

> <Gold.PLP.ligand.clash>
0.0000

> <Gold.PLP.ligand.torsion>
0.6756

> <Gold.PLP.Chemscore.Hbond>
1.9494

> <Gold.PLP.Chemscore.CHOScore>
0.0000

> <Gold.PLP.Chemscore.Metal>
0.0000

> <Gold.Chemscore.Hbonds>
donor molecule, donor type, donor heavy atom, donor atom, acceptor molecule, acceptor atom, score
      L1  H    10    31       P1  7948  0.74
      P1  H  7989  7998       L1    23  0.11
      P1  H  7997  8008       L1    23  1.00

> <Gold.PLP.Chemscore.Internal.Correction>
0.2168

> <Gold.Rescore>
     Score         DG    S(hbond)    S(metal)    S(lipo)     H(rot)  DE(clash)    DE(int)     intcor
     14.89     -16.10       1.67        0.00      86.98       2.00       0.02       1.19       ----

> <Gold.Chemscore.Fitness>
14.8914

> <Gold.Chemscore.DG>
-16.0986

> <Gold.Chemscore.ZeroCoef>
-5.4800

> <Gold.Chemscore.Hbond>
1.6669

> <Gold.Chemscore.Metal>
0.0000

> <Gold.Chemscore.Lipo>
86.9782

> <Gold.Chemscore.Internal_Hbond>
0.0000

> <Gold.Chemscore.DEClash>
0.0174

> <Gold.Chemscore.DEInternal>
1.1897

> <Gold.Chemscore.Rot>
2.0020

> <Gold.Chemscore.Internal.Correction>
   9.000000E+99

> <Gold.Chemscore.Hbonds>
donor molecule, donor type, donor heavy atom, donor atom, acceptor molecule, acceptor atom, score
      L1  H    10    31       P1  7948  0.61
      P1  H  7997  8008       L1    23  0.99

> <Gold.Chemscore.Hbond.Weighted>
-5.5673

> <Gold.Chemscore.Metal.Weighted>
-0.0000

> <Gold.Chemscore.Lipo.Weighted>
-10.1764

> <Gold.Chemscore.Internal_Hbond.Weighted>
0.0000

> <Gold.Chemscore.DEClash.Weighted>
0.0174

> <Gold.Chemscore.DEInternal.Weighted>
1.1897

> <Gold.Chemscore.Rot.Weighted>
5.1252

> <Gold.Chemscore.Internal.Correction.Weighted>
   9.000000E+99

> <Gold.Protein.RotatedTorsions>
[ 6907 6896 6895 6894 ] final  -40.70 input  -60.11 | X-H torsion
[ 7974 7965 7964 7962 ] final  177.46 input  175.53 | X-H torsion
[ 8008 7997 7996 7995 ] final  -20.86 input   59.86 | X-H torsion
[ 10167 10162 10161 10158 ] final  -84.60 input  -65.29 | X-H torsion
[ 10718 10713 10712 10709 ] final -110.23 input   66.30 | X-H torsion
[ 10763 10752 10751 10750 ] final   82.37 input  -60.55 | X-H torsion
[ 11005 11000 10999 10996 ] final   -4.73 input  -57.11 | X-H torsion

> <Gold.Protein.ActiveResidues>
 VAL166  LYS551  ARG553  GLY616  TRP617  ASP618  TYR619  PRO620  LYS621  CYS622 
 ASP623  PHE694  ASN695  SER759  ASP760  ASP761  ALA762  ILE779  LEU786  VAL792 
 PHE793  MET794  SER795  GLU796  ALA797  LYS798  CYS799  TRP800  GLU811  SER814 

> <Gold.Protein.RotatedAtoms>
  150.9754  134.9119  159.7812 H   0  0  0  0  0  0  0  0  0  0  0  0  # atno 6907 bound_to 6896
  152.5204  134.3484  159.9252 H   0  0  0  0  0  0  0  0  0  0  0  0  # atno 6908 bound_to 6896
  151.3492  133.3891  159.2713 H   0  0  0  0  0  0  0  0  0  0  0  0  # atno 6909 bound_to 6896
  144.7169  140.0250  143.6439 H   0  0  0  0  0  0  0  0  0  0  0  0  # atno 7974 bound_to 7965
  154.4743  140.2050  155.9918 H   0  0  0  0  0  0  0  0  0  0  0  0  # atno 8008 bound_to 7997
  156.1062  140.3236  155.7980 H   0  0  0  0  0  0  0  0  0  0  0  0  # atno 8009 bound_to 7997
  155.4713  140.0531  157.2970 H   0  0  0  0  0  0  0  0  0  0  0  0  # atno 8010 bound_to 7997
  140.4117  143.2620  151.9008 H   0  0  0  0  0  0  0  0  0  0  0  0  # atno 10167 bound_to 10162
  156.0579  130.5804  150.8208 H   0  0  0  0  0  0  0  0  0  0  0  0  # atno 10718 bound_to 10713
  153.1197  135.4731  154.9175 H   0  0  0  0  0  0  0  0  0  0  0  0  # atno 10763 bound_to 10752
  154.7563  135.3119  154.8465 H   0  0  0  0  0  0  0  0  0  0  0  0  # atno 10764 bound_to 10752
  153.9033  135.6873  153.4808 H   0  0  0  0  0  0  0  0  0  0  0  0  # atno 10765 bound_to 10752
  140.6834  133.9133  155.8570 H   0  0  0  0  0  0  0  0  0  0  0  0  # atno 11005 bound_to 11000
  146.0149  139.3201  143.0847 LP  0  0  0  0  0  0  0  0  0  0  0  0  # atno 17320 bound_to 7965
  145.8637  140.9460  143.0687 LP  0  0  0  0  0  0  0  0  0  0  0  0  # atno 17321 bound_to 7965
  139.4782  144.5529  151.8357 LP  0  0  0  0  0  0  0  0  0  0  0  0  # atno 17342 bound_to 10162
  140.4630  144.1695  150.5908 LP  0  0  0  0  0  0  0  0  0  0  0  0  # atno 17343 bound_to 10162
  157.5565  131.0945  150.9621 LP  0  0  0  0  0  0  0  0  0  0  0  0  # atno 17370 bound_to 10713
  156.9869  130.5548  149.5300 LP  0  0  0  0  0  0  0  0  0  0  0  0  # atno 17371 bound_to 10713
  141.0299  134.0771  157.4026 LP  0  0  0  0  0  0  0  0  0  0  0  0  # atno 17394 bound_to 11000
  139.8945  135.0136  156.6952 LP  0  0  0  0  0  0  0  0  0  0  0  0  # atno 17395 bound_to 11000

$$$$
