AV-unprocessed.smi:630|AV-procd|sdf|3120|dock8
  -GOLD-   22720 0 43D 1   1.00000     0.00000
 Structure written by MMmdl.
 37 38  0  0  0  0  0  0  0  0  1 V2000
  149.6165  138.6001  153.2434 N   0  0  0  0  0  0  0  0  0  0  0  0
  150.2467  138.7823  154.4069 C   0  0  0  0  0  0  0  0  0  0  0  0
  150.7587  139.8587  154.7077 O   0  0  0  0  0  0  0  0  0  0  0  0
  150.3102  137.5819  155.3713 C   0  0  1  0  0  0  0  0  0  0  0  0
  151.2218  137.9088  156.5806 C   0  0  0  0  0  0  0  0  0  0  0  0
  150.5426  138.5705  157.7918 C   0  0  0  0  0  0  0  0  0  0  0  0
  149.9592  137.5420  158.7734 C   0  0  0  0  0  0  0  0  0  0  0  0
  148.6847  136.8415  158.2826 C   0  0  0  0  0  0  0  0  0  0  0  0
  148.8123  136.1156  156.9307 C   0  0  0  0  0  0  0  0  0  0  0  0
  148.8800  137.0789  155.7254 C   0  0  2  0  0  0  0  0  0  0  0  0
  148.3010  136.4172  154.5518 N   0  0  0  0  0  0  0  0  0  0  0  0
  147.0149  136.0688  154.3911 C   0  0  0  0  0  0  0  0  0  0  0  0
  146.1426  136.2613  155.2382 O   0  0  0  0  0  0  0  0  0  0  0  0
  146.8172  135.4930  153.1922 N   0  0  0  0  0  0  0  0  0  0  0  0
  145.6034  135.0026  152.6427 C   0  0  0  0  0  0  0  0  0  0  0  0
  144.5210  134.6873  153.3633 N   0  0  0  0  0  0  0  0  0  0  0  0
  143.4715  134.2312  152.5617 C   0  0  0  0  0  0  0  0  0  0  0  0
  143.7742  134.2060  151.2231 C   0  0  0  0  0  0  0  0  0  0  0  0
  145.3991  134.7578  150.9142 S   0  0  0  0  0  0  0  0  0  0  0  0
  149.5533  139.3633  152.5854 H   0  0  0  0  0  0  0  0  0  0  0  0
  149.2059  137.7042  153.0255 H   0  0  0  0  0  0  0  0  0  0  0  0
  150.8170  136.7741  154.8390 H   0  0  0  0  0  0  0  0  0  0  0  0
  151.7274  136.9983  156.9047 H   0  0  0  0  0  0  0  0  0  0  0  0
  152.0329  138.5594  156.2486 H   0  0  0  0  0  0  0  0  0  0  0  0
  151.2988  139.1447  158.3283 H   0  0  0  0  0  0  0  0  0  0  0  0
  149.7868  139.2927  157.4820 H   0  0  0  0  0  0  0  0  0  0  0  0
  150.7162  136.7970  159.0210 H   0  0  0  0  0  0  0  0  0  0  0  0
  149.7287  138.0486  159.7113 H   0  0  0  0  0  0  0  0  0  0  0  0
  148.3876  136.1143  159.0389 H   0  0  0  0  0  0  0  0  0  0  0  0
  147.8674  137.5623  158.2351 H   0  0  0  0  0  0  0  0  0  0  0  0
  149.6615  135.4312  156.9326 H   0  0  0  0  0  0  0  0  0  0  0  0
  147.9271  135.4856  156.8301 H   0  0  0  0  0  0  0  0  0  0  0  0
  148.2634  137.9440  155.9764 H   0  0  0  0  0  0  0  0  0  0  0  0
  148.9383  136.2115  153.7967 H   0  0  0  0  0  0  0  0  0  0  0  0
  147.6293  135.3975  152.6007 H   0  0  0  0  0  0  0  0  0  0  0  0
  142.5407  133.9448  153.0286 H   0  0  0  0  0  0  0  0  0  0  0  0
  143.1418  133.8978  150.4037 H   0  0  0  0  0  0  0  0  0  0  0  0
  1  2  1  0  0  0  0
  1 20  1  0  0  0  0
  1 21  1  0  0  0  0
  2  3  2  0  0  0  0
  2  4  1  0  0  0  0
  4 10  1  0  0  0  0
  4  5  1  0  0  0  0
  4 22  1  0  0  0  0
  5  6  1  0  0  0  0
  5 23  1  0  0  0  0
  5 24  1  0  0  0  0
  6  7  1  0  0  0  0
  6 25  1  0  0  0  0
  6 26  1  0  0  0  0
  7  8  1  0  0  0  0
  7 27  1  0  0  0  0
  7 28  1  0  0  0  0
  8  9  1  0  0  0  0
  8 29  1  0  0  0  0
  8 30  1  0  0  0  0
  9 10  1  0  0  0  0
  9 31  1  0  0  0  0
  9 32  1  0  0  0  0
 10 11  1  0  0  0  0
 10 33  1  0  0  0  0
 11 12  1  0  0  0  0
 11 34  1  0  0  0  0
 12 13  2  0  0  0  0
 12 14  1  0  0  0  0
 14 15  1  0  0  0  0
 14 35  1  0  0  0  0
 15 19  1  0  0  0  0
 15 16  2  0  0  0  0
 16 17  1  0  0  0  0
 17 18  2  0  0  0  0
 17 36  1  0  0  0  0
 18 19  1  0  0  0  0
 18 37  1  0  0  0  0
M  END
> <s_m_source_file>
AV-unprocessed.smi

> <i_m_source_file_index>
630

> <i_lp_mmshare_version>
43012

> <i_f3d_flags>
0

> <s_epik_input>
W05IMl1DKD1PKVtDQEBIXTFbQ0gyXVtDSDJdW0NIMl1bQ0gyXVtDSDJdW0NASF0xW05IXUMoPU8pW05IXWMybltjSF1bY0hdczI=

> <s_epik_cmdline>
J2VwaWtfcHl0aG9uJywgJy1waCcsICc3LjAnLCAnLXRuJywgJzgnLCAnLW1hJywgJzIwMCcsICctbWV0YWxfYmluZGluZycsICctaW1hZScsICc8aW5maWxlLm1hZT4nLCAnLW9tYWUnLCAnPG91dGZpbGUubWFlPic=

> <r_lp_tautomer_probability>
0.999

> <r_epik_Ionization_Penalty>
0.000342689

> <r_epik_Ionization_Penalty_Charging>
0

> <r_epik_Ionization_Penalty_Neutral>
0.000342689

> <r_epik_State_Penalty>
0.000177984

> <r_epik_Charging_Adjusted_Penalty>
0.000177984

> <i_epik_Tot_Q>
0

> <i_epik_Tot_abs_Q>
0

> <r_epik_Metal_State_Penalty>
0.00743087

> <b_epik_Metal_Only>
0

> <s_lp_Force_Field>
OPLS_2005

> <r_lp_Energy>
11.5905

> <b_lp_Chiralities_Consistent>
1

> <s_lp_Variant>
AV-unprocessed.smi:630-4

> <Gold.Version>
5.8.1

> <Gold.Id.Protein>
6NUR|6NUR_protein|mol2

> <Gold.PLP.Fitness>
41.1257

> <Gold.PLP.PLP>
-21.6385

> <Gold.PLP.part.hbond>
-4.9222

> <Gold.PLP.part.metal>
0.0000

> <Gold.PLP.part.buried>
-3.6297

> <Gold.PLP.part.nonpolar>
-13.6463

> <Gold.PLP.part.repulsive>
0.2782

> <Gold.PLP.ligand.clash>
0.0000

> <Gold.PLP.ligand.torsion>
0.2338

> <Gold.PLP.Chemscore.Hbond>
4.7520

> <Gold.PLP.Chemscore.CHOScore>
1.8639

> <Gold.PLP.Chemscore.Metal>
0.0000

> <Gold.Chemscore.Hbonds>
donor molecule, donor type, donor heavy atom, donor atom, acceptor molecule, acceptor atom, score
      L1  H     1    20       P1  7957  1.00
      L1  H     1    21       P1  7948  0.99
      L1  H    11    34       P1  7948  0.80
      L1  H    14    35       P1  7948  0.93
      P1  H  7989  7998       L1     3  1.00
      L1  C    17    36       P1 10957  0.26
      L1  C    18    37       P1 10186  1.00

> <Gold.PLP.Chemscore.Internal.Correction>
0.1069

> <Gold.Rescore>
     Score         DG    S(hbond)    S(metal)    S(lipo)     H(rot)  DE(clash)    DE(int)     intcor
     19.17     -21.97       4.71        0.00      39.86       1.52       0.01       2.79       ----

> <Gold.Chemscore.Fitness>
19.1726

> <Gold.Chemscore.DG>
-21.9717

> <Gold.Chemscore.ZeroCoef>
-5.4800

> <Gold.Chemscore.Hbond>
4.7053

> <Gold.Chemscore.Metal>
0.0000

> <Gold.Chemscore.Lipo>
39.8568

> <Gold.Chemscore.Internal_Hbond>
0.0000

> <Gold.Chemscore.DEClash>
0.0057

> <Gold.Chemscore.DEInternal>
2.7934

> <Gold.Chemscore.Rot>
1.5184

> <Gold.Chemscore.Internal.Correction>
   9.000000E+99

> <Gold.Chemscore.Hbonds>
donor molecule, donor type, donor heavy atom, donor atom, acceptor molecule, acceptor atom, score
      L1  H     1    20       P1  7957  0.94
      L1  H     1    21       P1  7948  0.93
      L1  H    11    34       P1  7948  0.79
      L1  H    14    35       P1  7948  0.91
      P1  H  7989  7998       L1     3  0.99

> <Gold.Chemscore.Hbond.Weighted>
-15.7157

> <Gold.Chemscore.Metal.Weighted>
-0.0000

> <Gold.Chemscore.Lipo.Weighted>
-4.6632

> <Gold.Chemscore.Internal_Hbond.Weighted>
0.0000

> <Gold.Chemscore.DEClash.Weighted>
0.0057

> <Gold.Chemscore.DEInternal.Weighted>
2.7934

> <Gold.Chemscore.Rot.Weighted>
3.8872

> <Gold.Chemscore.Internal.Correction.Weighted>
   9.000000E+99

> <Gold.Protein.RotatedTorsions>
[ 6907 6896 6895 6894 ] final   73.96 input  -60.11 | X-H torsion
[ 7974 7965 7964 7962 ] final  -51.80 input  175.53 | X-H torsion
[ 8008 7997 7996 7995 ] final  -28.92 input   59.86 | X-H torsion
[ 10167 10162 10161 10158 ] final  -31.11 input  -65.29 | X-H torsion
[ 10718 10713 10712 10709 ] final  120.61 input   66.30 | X-H torsion
[ 10763 10752 10751 10750 ] final  -75.02 input  -60.55 | X-H torsion
[ 11005 11000 10999 10996 ] final   67.84 input  -57.11 | X-H torsion

> <Gold.Protein.ActiveResidues>
 VAL166  LYS551  ARG553  GLY616  TRP617  ASP618  TYR619  PRO620  LYS621  CYS622 
 ASP623  PHE694  ASN695  SER759  ASP760  ASP761  ALA762  ILE779  LEU786  VAL792 
 PHE793  MET794  SER795  GLU796  ALA797  LYS798  CYS799  TRP800  GLU811  SER814 

> <Gold.Protein.RotatedAtoms>
  152.4951  134.4343  159.9522 H   0  0  0  0  0  0  0  0  0  0  0  0  # atno 6907 bound_to 6896
  151.4323  133.3660  159.2778 H   0  0  0  0  0  0  0  0  0  0  0  0  # atno 6908 bound_to 6896
  150.9145  134.8586  159.7508 H   0  0  0  0  0  0  0  0  0  0  0  0  # atno 6909 bound_to 6896
  145.9150  140.7883  142.9676 H   0  0  0  0  0  0  0  0  0  0  0  0  # atno 7974 bound_to 7965
  154.4312  140.1832  156.1165 H   0  0  0  0  0  0  0  0  0  0  0  0  # atno 8008 bound_to 7997
  156.0177  140.3344  155.6980 H   0  0  0  0  0  0  0  0  0  0  0  0  # atno 8009 bound_to 7997
  155.6021  140.0641  157.2720 H   0  0  0  0  0  0  0  0  0  0  0  0  # atno 8010 bound_to 7997
  140.7240  143.3796  151.1625 H   0  0  0  0  0  0  0  0  0  0  0  0  # atno 10167 bound_to 10162
  157.5878  131.1068  150.8059 H   0  0  0  0  0  0  0  0  0  0  0  0  # atno 10718 bound_to 10713
  154.4809  135.5845  153.6389 H   0  0  0  0  0  0  0  0  0  0  0  0  # atno 10763 bound_to 10752
  152.9847  135.6089  154.3247 H   0  0  0  0  0  0  0  0  0  0  0  0  # atno 10764 bound_to 10752
  154.3138  135.2844  155.2532 H   0  0  0  0  0  0  0  0  0  0  0  0  # atno 10765 bound_to 10752
  139.9746  134.6843  156.0378 H   0  0  0  0  0  0  0  0  0  0  0  0  # atno 11005 bound_to 11000
  144.6747  140.1886  143.7399 LP  0  0  0  0  0  0  0  0  0  0  0  0  # atno 17320 bound_to 7965
  145.8623  139.2229  143.1709 LP  0  0  0  0  0  0  0  0  0  0  0  0  # atno 17321 bound_to 7965
  139.7383  143.8965  152.3042 LP  0  0  0  0  0  0  0  0  0  0  0  0  # atno 17342 bound_to 10162
  139.8777  144.7034  150.8914 LP  0  0  0  0  0  0  0  0  0  0  0  0  # atno 17343 bound_to 10162
  156.8488  130.5073  149.5314 LP  0  0  0  0  0  0  0  0  0  0  0  0  # atno 17370 bound_to 10713
  156.0929  130.5910  150.9764 LP  0  0  0  0  0  0  0  0  0  0  0  0  # atno 17371 bound_to 10713
  141.1424  133.6562  156.3769 LP  0  0  0  0  0  0  0  0  0  0  0  0  # atno 17394 bound_to 11000
  140.5221  134.6294  157.5321 LP  0  0  0  0  0  0  0  0  0  0  0  0  # atno 17395 bound_to 11000

$$$$
