#       Name:                AV-unprocessed.smi:720
#       Creating user name   scv26
#       Creation time:       Fri Mar 27 00:49:08 2020


#       File generated by GOLD software.
#

@<TRIPOS>MOLECULE
AV-unprocessed.smi:720
    50    52     1
SMALL
NO_CHARGES


@<TRIPOS>ATOM
      1 ****        -2.5602   5.6118   2.7443 C.3            1 S1                 0.0000
      2 ****        -2.5541   4.9012   1.4450 N.4            1 S1                 1.0000
      3 ****        -3.9111   4.8283   0.8597 C.3            1 S1                 0.0000
      4 ****        -1.9021   3.5693   1.5053 C.3            1 S1                 0.0000
      5 ****        -0.3732   3.6638   1.6642 C.3            1 S1                 0.0000
      6 ****         0.2549   2.3591   1.5893 N.pl3          1 S1                 0.0000
      7 ****         0.8467   1.6288   2.6006 C.2            1 S1                 0.0000
      8 ****         1.3041   0.4641   2.0522 C.2            1 S1                 0.0000
      9 ****         0.9393   0.5816   0.6828 C.2            1 S1                 0.0000
     10 ****         1.2426  -0.4519  -0.2388 N.am           1 S1                 0.0000
     11 ****         0.9382  -0.5040  -1.5505 C.2            1 S1                 0.0000
     12 ****         0.3386   0.3778  -2.1635 O.2            1 S1                 0.0000
     13 ****         1.3464  -1.6278  -2.1666 N.am           1 S1                 0.0000
     14 ****         1.1751  -1.9943  -3.5754 C.3            1 S1                 0.0000
     15 ****         1.5601  -3.4699  -3.8212 C.3            1 S1                 0.0000
     16 ****         2.6597  -3.3704  -4.8947 C.3            1 S1                 0.0000
     17 ****         3.9445  -2.7986  -4.2664 C.3            1 S1                 0.0000
     18 ****         3.5910  -1.3136  -4.0602 C.3            1 S1                 0.0000
     19 ****         2.1265  -1.2449  -4.5446 C.3            1 S1                 0.0000
     20 ****         2.1694  -2.1981  -5.7339 C.3            1 S1                 0.0000
     21 ****         0.3152   1.7172   0.4030 N.2            1 S1                 0.0000
     22 ****        -3.1048   5.0432   3.4993 H              1 S1                 0.0000
     23 ****        -3.0378   6.5870   2.6450 H              1 S1                 0.0000
     24 ****        -1.5486   5.7857   3.1091 H              1 S1                 0.0000
     25 ****        -4.5717   4.2203   1.4792 H              1 S1                 0.0000
     26 ****        -3.8798   4.3916  -0.1392 H              1 S1                 0.0000
     27 ****        -4.3474   5.8236   0.7688 H              1 S1                 0.0000
     28 ****        -2.3375   2.9766   2.3113 H              1 S1                 0.0000
     29 ****        -2.1198   3.0361   0.5785 H              1 S1                 0.0000
     30 ****         0.0538   4.2947   0.8833 H              1 S1                 0.0000
     31 ****        -0.1040   4.1144   2.6194 H              1 S1                 0.0000
     32 ****         0.8922   1.9937   3.6162 H              1 S1                 0.0000
     33 ****         1.8178  -0.3432   2.5532 H              1 S1                 0.0000
     34 ****         1.7356  -1.2471   0.1400 H              1 S1                 0.0000
     35 ****         1.8350  -2.3022  -1.5952 H              1 S1                 0.0000
     36 ****         0.1359  -1.8458  -3.8747 H              1 S1                 0.0000
     37 ****         1.9126  -3.9814  -2.9242 H              1 S1                 0.0000
     38 ****         0.7023  -4.0274  -4.1996 H              1 S1                 0.0000
     39 ****         2.8175  -4.2981  -5.4451 H              1 S1                 0.0000
     40 ****         4.2036  -3.2982  -3.3324 H              1 S1                 0.0000
     41 ****         4.7910  -2.8997  -4.9469 H              1 S1                 0.0000
     42 ****         3.7272  -0.9869  -3.0294 H              1 S1                 0.0000
     43 ****         4.2269  -0.6845  -4.6846 H              1 S1                 0.0000
     44 ****         1.7980  -0.2337  -4.7861 H              1 S1                 0.0000
     45 ****         2.8756  -1.8940  -6.5090 H              1 S1                 0.0000
     46 ****         1.1916  -2.3687  -6.1879 H              1 S1                 0.0000
     47 ****        -2.0061   5.4606   0.8069 H              1 S1                 0.0000
     48 ****         0.0414   1.2048  -1.6864 LP             1 S1                 0.0000
     49 ****         0.1482   0.2676  -3.1390 LP             1 S1                 0.0000
     50 ****        -0.0311   2.0269  -0.4825 LP             1 S1                 0.0000
@<TRIPOS>BOND
    1    1    2 1     
    2    1   22 1     
    3    1   23 1     
    4    1   24 1     
    5    2    3 1     
    6    2    4 1     
    7    2   47 1     
    8    3   25 1     
    9    3   26 1     
   10    3   27 1     
   11    4    5 1     
   12    4   28 1     
   13    4   29 1     
   14    5    6 1     
   15    5   30 1     
   16    5   31 1     
   17    6   21 1     
   18    6    7 1     
   19    7    8 2     
   20    7   32 1     
   21    8    9 1     
   22    8   33 1     
   23    9   10 1     
   24    9   21 2     
   25   10   11 am    
   26   10   34 1     
   27   11   12 2     
   28   11   13 am    
   29   13   14 1     
   30   13   35 1     
   31   14   19 1     
   32   14   15 1     
   33   14   36 1     
   34   15   16 1     
   35   15   37 1     
   36   15   38 1     
   37   16   20 1     
   38   16   17 1     
   39   16   39 1     
   40   17   18 1     
   41   17   40 1     
   42   17   41 1     
   43   18   19 1     
   44   18   42 1     
   45   18   43 1     
   46   19   20 1     
   47   19   44 1     
   48   20   45 1     
   49   20   46 1     
   50   12   48 1     
   51   12   49 1     
   52   21   50 1     
@<TRIPOS>SUBSTRUCTURE
      1 S1             1
@<TRIPOS>SET
LONE_PAIRS      STATIC     ATOMS    <user>   **** ""
3 48 49 50
DONOR_HYDROGENS      STATIC     ATOMS    <user>   **** ""
3 47 34 35
ATOM$BLUE        STATIC     ATOMS    COLORGROUP SYSTEM
3 48 49 50
ATOM$RED        STATIC     ATOMS    COLORGROUP SYSTEM
3 47 34 35
