AV-unprocessed.smi:1644|AV-procd|sdf|6585|dock3
  -GOLD-   22720 7273D 1   1.00000     0.00000
 Structure written by MMmdl.
 49 51  0  0  0  0  0  0  0  0  1 V2000
  149.6869  132.1924  154.5575 C   0  0  0  0  0  0  0  0  0  0  0  0
  149.6494  133.6929  154.2478 C   0  0  0  0  0  0  0  0  0  0  0  0
  150.5068  134.5158  155.2248 C   0  0  0  0  0  0  0  0  0  0  0  0
  150.7562  135.9730  154.7800 C   0  0  1  0  0  0  0  0  0  0  0  0
  149.5091  136.6649  154.5223 N   0  0  0  0  0  0  0  0  0  0  0  0
  149.3376  137.7365  155.3063 C   0  0  0  0  0  0  0  0  0  0  0  0
  148.3525  138.4729  155.2945 O   0  0  0  0  0  0  0  0  0  0  0  0
  150.4159  137.8561  156.1001 N   0  0  0  0  0  0  0  0  0  0  0  0
  150.5796  138.8939  157.1226 C   0  0  0  0  0  0  0  0  0  0  0  0
  151.0107  140.2380  156.4999 C   0  0  2  0  0  0  0  0  0  0  0  0
  151.3497  140.0240  155.1433 O   0  0  0  0  0  0  0  0  0  0  0  0
  152.2361  140.8377  157.2146 C   0  0  0  0  0  0  0  0  0  0  0  0
  151.8769  141.9502  158.0746 N   0  0  0  0  0  0  0  0  0  0  0  0
  150.9909  142.9313  157.8164 C   0  0  0  0  0  0  0  0  0  0  0  0
  150.8157  143.8555  158.7572 N   0  0  0  0  0  0  0  0  0  0  0  0
  151.6894  143.4221  159.7401 C   0  0  0  0  0  0  0  0  0  0  0  0
  151.9835  143.9639  161.0105 C   0  0  0  0  0  0  0  0  0  0  0  0
  152.9253  143.3438  161.8626 C   0  0  0  0  0  0  0  0  0  0  0  0
  153.2107  143.9606  163.2206 C   0  0  0  0  0  0  0  0  0  0  0  0
  153.5902  142.1620  161.4474 C   0  0  0  0  0  0  0  0  0  0  0  0
  154.6053  141.4780  162.3459 C   0  0  0  0  0  0  0  0  0  0  0  0
  153.3086  141.6078  160.1812 C   0  0  0  0  0  0  0  0  0  0  0  0
  152.3695  142.2341  159.3429 C   0  0  0  0  0  0  0  0  0  0  0  0
  151.3001  136.8748  155.8766 C   0  0  0  0  0  0  0  0  0  0  0  0
  152.3767  136.7039  156.4485 O   0  0  0  0  0  0  0  0  0  0  0  0
  149.0655  131.6357  153.8555 H   0  0  0  0  0  0  0  0  0  0  0  0
  149.3186  131.9873  155.5629 H   0  0  0  0  0  0  0  0  0  0  0  0
  150.7023  131.8009  154.4849 H   0  0  0  0  0  0  0  0  0  0  0  0
  149.9888  133.8450  153.2236 H   0  0  0  0  0  0  0  0  0  0  0  0
  148.6169  134.0420  154.2859 H   0  0  0  0  0  0  0  0  0  0  0  0
  150.0135  134.5266  156.1979 H   0  0  0  0  0  0  0  0  0  0  0  0
  151.4606  134.0086  155.3801 H   0  0  0  0  0  0  0  0  0  0  0  0
  151.3927  136.0206  153.8955 H   0  0  0  0  0  0  0  0  0  0  0  0
  148.8414  136.3515  153.8325 H   0  0  0  0  0  0  0  0  0  0  0  0
  149.6212  139.0158  157.6304 H   0  0  0  0  0  0  0  0  0  0  0  0
  151.2753  138.5805  157.9036 H   0  0  0  0  0  0  0  0  0  0  0  0
  150.1907  140.9560  156.5468 H   0  0  0  0  0  0  0  0  0  0  0  0
  151.1916  139.1162  154.9328 H   0  0  0  0  0  0  0  0  0  0  0  0
  152.7184  140.0807  157.8343 H   0  0  0  0  0  0  0  0  0  0  0  0
  152.9817  141.1722  156.4915 H   0  0  0  0  0  0  0  0  0  0  0  0
  150.4414  142.9669  156.8872 H   0  0  0  0  0  0  0  0  0  0  0  0
  151.4769  144.8639  161.3267 H   0  0  0  0  0  0  0  0  0  0  0  0
  154.2557  144.2632  163.2895 H   0  0  0  0  0  0  0  0  0  0  0  0
  153.0035  143.2457  164.0171 H   0  0  0  0  0  0  0  0  0  0  0  0
  152.5945  144.8429  163.3953 H   0  0  0  0  0  0  0  0  0  0  0  0
  155.0306  140.5960  161.8661 H   0  0  0  0  0  0  0  0  0  0  0  0
  154.1372  141.1592  163.2773 H   0  0  0  0  0  0  0  0  0  0  0  0
  155.4240  142.1570  162.5841 H   0  0  0  0  0  0  0  0  0  0  0  0
  153.8059  140.7073  159.8516 H   0  0  0  0  0  0  0  0  0  0  0  0
  1  2  1  0  0  0  0
  1 26  1  0  0  0  0
  1 27  1  0  0  0  0
  1 28  1  0  0  0  0
  2  3  1  0  0  0  0
  2 29  1  0  0  0  0
  2 30  1  0  0  0  0
  3  4  1  0  0  0  0
  3 31  1  0  0  0  0
  3 32  1  0  0  0  0
  4 24  1  0  0  0  0
  4  5  1  0  0  0  0
  4 33  1  0  0  0  0
  5  6  1  0  0  0  0
  5 34  1  0  0  0  0
  6  7  2  0  0  0  0
  6  8  1  0  0  0  0
  8  9  1  0  0  0  0
  8 24  1  0  0  0  0
  9 10  1  0  0  0  0
  9 35  1  0  0  0  0
  9 36  1  0  0  0  0
 10 11  1  0  0  0  0
 10 12  1  0  0  0  0
 10 37  1  0  0  0  0
 11 38  1  0  0  0  0
 12 13  1  0  0  0  0
 12 39  1  0  0  0  0
 12 40  1  0  0  0  0
 13 23  1  0  0  0  0
 13 14  1  0  0  0  0
 14 15  2  0  0  0  0
 14 41  1  0  0  0  0
 15 16  1  0  0  0  0
 16 23  2  0  0  0  0
 16 17  1  0  0  0  0
 17 18  2  0  0  0  0
 17 42  1  0  0  0  0
 18 19  1  0  0  0  0
 18 20  1  0  0  0  0
 19 43  1  0  0  0  0
 19 44  1  0  0  0  0
 19 45  1  0  0  0  0
 20 21  1  0  0  0  0
 20 22  2  0  0  0  0
 21 46  1  0  0  0  0
 21 47  1  0  0  0  0
 21 48  1  0  0  0  0
 22 23  1  0  0  0  0
 22 49  1  0  0  0  0
 24 25  2  0  0  0  0
M  END
> <s_m_source_file>
AV-unprocessed.smi

> <i_m_source_file_index>
1644

> <i_lp_mmshare_version>
43012

> <i_f3d_flags>
0

> <s_epik_input>
W0NIM11bQ0gyXVtDSDJdW0NAQEhdMVtOSF1DKD1PKU4oQzE9TylbQ0gyXVtDQEhdKFtPSF0pW0NIMl1uKFtjSF1uMiljKGMyMylbY0hdYyhbQ0gzXSljKFtjSF0zKVtDSDNd

> <s_epik_cmdline>
J2VwaWtfcHl0aG9uJywgJy1waCcsICc3LjAnLCAnLXRuJywgJzgnLCAnLW1hJywgJzIwMCcsICctbWV0YWxfYmluZGluZycsICctaW1hZScsICc8aW5maWxlLm1hZT4nLCAnLW9tYWUnLCAnPG91dGZpbGUubWFlPic=

> <r_lp_tautomer_probability>
1

> <r_epik_Ionization_Penalty>
0.10693

> <r_epik_Ionization_Penalty_Charging>
0

> <r_epik_Ionization_Penalty_Neutral>
0.10693

> <r_epik_State_Penalty>
0.096713

> <r_epik_Charging_Adjusted_Penalty>
0.096713

> <i_epik_Tot_Q>
0

> <i_epik_Tot_abs_Q>
0

> <r_epik_Metal_State_Penalty>
0.102757

> <b_epik_Metal_Only>
0

> <s_lp_Force_Field>
OPLS_2005

> <r_lp_Energy>
21.5813

> <b_lp_Chiralities_Consistent>
1

> <s_lp_Variant>
AV-unprocessed.smi:1644-2

> <Gold.Version>
5.8.1

> <Gold.Id.Protein>
6NUR|6NUR_protein|mol2

> <Gold.PLP.Fitness>
53.6412

> <Gold.PLP.PLP>
-47.4508

> <Gold.PLP.part.hbond>
-3.0000

> <Gold.PLP.part.metal>
0.0000

> <Gold.PLP.part.buried>
-2.4597

> <Gold.PLP.part.nonpolar>
-40.0692

> <Gold.PLP.part.repulsive>
0.2120

> <Gold.PLP.ligand.clash>
0.0000

> <Gold.PLP.ligand.torsion>
1.9411

> <Gold.PLP.Chemscore.Hbond>
2.6400

> <Gold.PLP.Chemscore.CHOScore>
0.6655

> <Gold.PLP.Chemscore.Metal>
0.0000

> <Gold.Chemscore.Hbonds>
donor molecule, donor type, donor heavy atom, donor atom, acceptor molecule, acceptor atom, score
      L1  H     5    34       P1  7948  0.61
      P1  H  7989  7998       L1    11  1.00
      P1  H 10752 10765       L1    25  1.00
      L1  C    14    41       P1  8028  0.73

> <Gold.PLP.Chemscore.Internal.Correction>
0.1559

> <Gold.Rescore>
     Score         DG    S(hbond)    S(metal)    S(lipo)     H(rot)  DE(clash)    DE(int)     intcor
     17.70     -20.39       2.21        0.00     123.74       2.72       0.60       2.08       ----

> <Gold.Chemscore.Fitness>
17.7029

> <Gold.Chemscore.DG>
-20.3884

> <Gold.Chemscore.ZeroCoef>
-5.4800

> <Gold.Chemscore.Hbond>
2.2149

> <Gold.Chemscore.Metal>
0.0000

> <Gold.Chemscore.Lipo>
123.7354

> <Gold.Chemscore.Internal_Hbond>
0.0000

> <Gold.Chemscore.DEClash>
0.6036

> <Gold.Chemscore.DEInternal>
2.0819

> <Gold.Chemscore.Rot>
2.7212

> <Gold.Chemscore.Internal.Correction>
   9.000000E+99

> <Gold.Chemscore.Hbonds>
donor molecule, donor type, donor heavy atom, donor atom, acceptor molecule, acceptor atom, score
      L1  H     5    34       P1  7948  0.61
      P1  H  7989  7998       L1    11  0.55
      P1  H 10752 10765       L1    25  0.29

> <Gold.Chemscore.Hbond.Weighted>
-7.3976

> <Gold.Chemscore.Metal.Weighted>
-0.0000

> <Gold.Chemscore.Lipo.Weighted>
-14.4770

> <Gold.Chemscore.Internal_Hbond.Weighted>
0.0000

> <Gold.Chemscore.DEClash.Weighted>
0.6036

> <Gold.Chemscore.DEInternal.Weighted>
2.0819

> <Gold.Chemscore.Rot.Weighted>
6.9663

> <Gold.Chemscore.Internal.Correction.Weighted>
   9.000000E+99

> <Gold.Protein.RotatedTorsions>
[ 6907 6896 6895 6894 ] final    4.16 input  -60.11 | X-H torsion
[ 7974 7965 7964 7962 ] final -123.94 input  175.53 | X-H torsion
[ 8008 7997 7996 7995 ] final  -15.55 input   59.86 | X-H torsion
[ 10167 10162 10161 10158 ] final   69.97 input  -65.29 | X-H torsion
[ 10718 10713 10712 10709 ] final  133.73 input   66.30 | X-H torsion
[ 10763 10752 10751 10750 ] final -139.55 input  -60.55 | X-H torsion
[ 11005 11000 10999 10996 ] final  -47.24 input  -57.11 | X-H torsion

> <Gold.Protein.ActiveResidues>
 VAL166  LYS551  ARG553  GLY616  TRP617  ASP618  TYR619  PRO620  LYS621  CYS622 
 ASP623  PHE694  ASN695  SER759  ASP760  ASP761  ALA762  ILE779  LEU786  VAL792 
 PHE793  MET794  SER795  GLU796  ALA797  LYS798  CYS799  TRP800  GLU811  SER814 

> <Gold.Protein.RotatedAtoms>
  151.6368  135.1017  160.0132 H   0  0  0  0  0  0  0  0  0  0  0  0  # atno 6907 bound_to 6896
  152.4076  133.6909  159.6378 H   0  0  0  0  0  0  0  0  0  0  0  0  # atno 6908 bound_to 6896
  150.7969  133.8598  159.3269 H   0  0  0  0  0  0  0  0  0  0  0  0  # atno 6909 bound_to 6896
  145.0134  140.7925  143.4425 H   0  0  0  0  0  0  0  0  0  0  0  0  # atno 7974 bound_to 7965
  154.5121  140.2193  155.9135 H   0  0  0  0  0  0  0  0  0  0  0  0  # atno 8008 bound_to 7997
  156.1565  140.3151  155.8700 H   0  0  0  0  0  0  0  0  0  0  0  0  # atno 8009 bound_to 7997
  155.3837  140.0474  157.3033 H   0  0  0  0  0  0  0  0  0  0  0  0  # atno 8010 bound_to 7997
  140.0621  144.5224  150.7287 H   0  0  0  0  0  0  0  0  0  0  0  0  # atno 10167 bound_to 10162
  157.4744  131.1082  150.9762 H   0  0  0  0  0  0  0  0  0  0  0  0  # atno 10718 bound_to 10713
  154.8606  135.3579  154.5565 H   0  0  0  0  0  0  0  0  0  0  0  0  # atno 10763 bound_to 10752
  153.6181  135.7007  153.5325 H   0  0  0  0  0  0  0  0  0  0  0  0  # atno 10764 bound_to 10752
  153.3152  135.4167  155.1330 H   0  0  0  0  0  0  0  0  0  0  0  0  # atno 10765 bound_to 10752
  141.0628  133.6703  156.3268 H   0  0  0  0  0  0  0  0  0  0  0  0  # atno 11005 bound_to 11000
  145.1993  139.2260  143.5201 LP  0  0  0  0  0  0  0  0  0  0  0  0  # atno 17320 bound_to 7965
  146.3474  140.1807  142.8589 LP  0  0  0  0  0  0  0  0  0  0  0  0  # atno 17321 bound_to 7965
  140.7167  143.2551  151.4412 LP  0  0  0  0  0  0  0  0  0  0  0  0  # atno 17342 bound_to 10162
  139.5887  144.1546  152.2062 LP  0  0  0  0  0  0  0  0  0  0  0  0  # atno 17343 bound_to 10162
  157.0516  130.5789  149.5371 LP  0  0  0  0  0  0  0  0  0  0  0  0  # atno 17370 bound_to 10713
  156.0089  130.5179  150.7924 LP  0  0  0  0  0  0  0  0  0  0  0  0  # atno 17371 bound_to 10713
  140.5834  134.5723  157.5484 LP  0  0  0  0  0  0  0  0  0  0  0  0  # atno 17394 bound_to 11000
  139.9448  134.7721  156.0588 LP  0  0  0  0  0  0  0  0  0  0  0  0  # atno 17395 bound_to 11000

$$$$
