AV-unprocessed.smi:629|AV-procd|sdf|3115|dock8
  -GOLD-   22720 0 43D 1   1.00000     0.00000
 Structure written by MMmdl.
 31 32  0  0  0  0  0  0  0  0  1 V2000
  147.9754  138.6109  153.9668 C   0  0  0  0  0  0  0  0  0  0  0  0
  149.3078  138.4402  154.5251 N   0  0  0  0  0  0  0  0  0  0  0  0
  150.2379  139.4058  154.5684 C   0  0  0  0  0  0  0  0  0  0  0  0
  150.0477  140.5461  154.1459 O   0  0  0  0  0  0  0  0  0  0  0  0
  151.5861  139.0346  155.1902 C   0  0  0  0  0  0  0  0  0  0  0  0
  151.8449  139.8440  156.4212 C   0  0  0  0  0  0  0  0  0  0  0  0
  152.8860  139.5913  157.2066 N   0  0  0  0  0  0  0  0  0  0  0  0
  152.7656  140.5490  158.2235 O   0  0  0  0  0  0  0  0  0  0  0  0
  151.6633  141.2751  157.9188 C   0  0  0  0  0  0  0  0  0  0  0  0
  151.2333  142.3604  158.8494 C   0  0  0  0  0  0  0  0  0  0  0  0
  152.4022  142.9571  159.6545 C   0  0  2  0  0  0  0  0  0  0  0  0
  153.0326  141.9620  160.5957 C   0  0  0  0  0  0  0  0  0  0  0  0
  153.1101  142.4103  161.8466 C   0  0  0  0  0  0  0  0  0  0  0  0
  152.5442  143.7944  161.9960 C   0  0  0  0  0  0  0  0  0  0  0  0
  151.9655  144.1078  160.5985 C   0  0  0  0  0  0  0  0  0  0  0  0
  151.0370  140.8665  156.8182 N   0  0  0  0  0  0  0  0  0  0  0  0
  147.4185  137.6770  154.0422 H   0  0  0  0  0  0  0  0  0  0  0  0
  148.0284  138.8923  152.9144 H   0  0  0  0  0  0  0  0  0  0  0  0
  147.4240  139.3818  154.5066 H   0  0  0  0  0  0  0  0  0  0  0  0
  149.5421  137.5286  154.8913 H   0  0  0  0  0  0  0  0  0  0  0  0
  151.5964  137.9736  155.4433 H   0  0  0  0  0  0  0  0  0  0  0  0
  152.3845  139.1939  154.4640 H   0  0  0  0  0  0  0  0  0  0  0  0
  150.7706  143.1405  158.2435 H   0  0  0  0  0  0  0  0  0  0  0  0
  150.4533  141.9845  159.5130 H   0  0  0  0  0  0  0  0  0  0  0  0
  153.1717  143.3309  158.9773 H   0  0  0  0  0  0  0  0  0  0  0  0
  153.3907  141.0002  160.2585 H   0  0  0  0  0  0  0  0  0  0  0  0
  153.5384  141.8693  162.6777 H   0  0  0  0  0  0  0  0  0  0  0  0
  151.7754  143.8180  162.7691 H   0  0  0  0  0  0  0  0  0  0  0  0
  153.3377  144.4905  162.2697 H   0  0  0  0  0  0  0  0  0  0  0  0
  152.3089  145.0760  160.2321 H   0  0  0  0  0  0  0  0  0  0  0  0
  150.8778  144.1612  160.6649 H   0  0  0  0  0  0  0  0  0  0  0  0
  1  2  1  0  0  0  0
  1 17  1  0  0  0  0
  1 18  1  0  0  0  0
  1 19  1  0  0  0  0
  2  3  1  0  0  0  0
  2 20  1  0  0  0  0
  3  4  2  0  0  0  0
  3  5  1  0  0  0  0
  5  6  1  0  0  0  0
  5 21  1  0  0  0  0
  5 22  1  0  0  0  0
  6 16  1  0  0  0  0
  6  7  2  0  0  0  0
  7  8  1  0  0  0  0
  8  9  1  0  0  0  0
  9 10  1  0  0  0  0
  9 16  2  0  0  0  0
 10 11  1  0  0  0  0
 10 23  1  0  0  0  0
 10 24  1  0  0  0  0
 11 15  1  0  0  0  0
 11 12  1  0  0  0  0
 11 25  1  0  0  0  0
 12 13  2  0  0  0  0
 12 26  1  0  0  0  0
 13 14  1  0  0  0  0
 13 27  1  0  0  0  0
 14 15  1  0  0  0  0
 14 28  1  0  0  0  0
 14 29  1  0  0  0  0
 15 30  1  0  0  0  0
 15 31  1  0  0  0  0
M  END
> <s_m_source_file>
AV-unprocessed.smi

> <i_m_source_file_index>
629

> <i_lp_mmshare_version>
43012

> <i_f3d_flags>
0

> <s_epik_input>
W0NIM11bTkhdQyg9TylbQ0gyXWMxbm9jKG4xKVtDSDJdW0NAQEhdMltDSF09W0NIXVtDSDJdW0NIMl0y

> <s_epik_cmdline>
J2VwaWtfcHl0aG9uJywgJy1waCcsICc3LjAnLCAnLXRuJywgJzgnLCAnLW1hJywgJzIwMCcsICctbWV0YWxfYmluZGluZycsICctaW1hZScsICc8aW5maWxlLm1hZT4nLCAnLW9tYWUnLCAnPG91dGZpbGUubWFlPic=

> <r_lp_tautomer_probability>
1

> <r_epik_Ionization_Penalty>
1.02915e-07

> <r_epik_Ionization_Penalty_Charging>
0

> <r_epik_Ionization_Penalty_Neutral>
1.02915e-07

> <r_epik_State_Penalty>
-0

> <r_epik_Charging_Adjusted_Penalty>
0

> <i_epik_Tot_Q>
0

> <i_epik_Tot_abs_Q>
0

> <r_epik_Metal_State_Penalty>
-0

> <b_epik_Metal_Only>
0

> <s_lp_Force_Field>
OPLS_2005

> <r_lp_Energy>
15.6926

> <b_lp_Chiralities_Consistent>
1

> <s_lp_Variant>
AV-unprocessed.smi:629-1

> <Gold.Version>
5.8.1

> <Gold.Id.Protein>
6NUR|6NUR_protein|mol2

> <Gold.PLP.Fitness>
40.9263

> <Gold.PLP.PLP>
-36.4840

> <Gold.PLP.part.hbond>
-2.6545

> <Gold.PLP.part.metal>
0.0000

> <Gold.PLP.part.buried>
-3.8398

> <Gold.PLP.part.nonpolar>
-30.4395

> <Gold.PLP.part.repulsive>
0.7500

> <Gold.PLP.ligand.clash>
0.0000

> <Gold.PLP.ligand.torsion>
0.4142

> <Gold.PLP.Chemscore.Hbond>
1.7520

> <Gold.PLP.Chemscore.CHOScore>
0.0000

> <Gold.PLP.Chemscore.Metal>
0.0000

> <Gold.Chemscore.Hbonds>
donor molecule, donor type, donor heavy atom, donor atom, acceptor molecule, acceptor atom, score
      P1  H  7989  7998       L1     4  0.77
      P1  H  7997  8010       L1     7  1.00

> <Gold.PLP.Chemscore.Internal.Correction>
0.0147

> <Gold.Rescore>
     Score         DG    S(hbond)    S(metal)    S(lipo)     H(rot)  DE(clash)    DE(int)     intcor
     10.31     -13.63       1.16        0.00      77.94       1.89       0.29       3.04       ----

> <Gold.Chemscore.Fitness>
10.3068

> <Gold.Chemscore.DG>
-13.6348

> <Gold.Chemscore.ZeroCoef>
-5.4800

> <Gold.Chemscore.Hbond>
1.1580

> <Gold.Chemscore.Metal>
0.0000

> <Gold.Chemscore.Lipo>
77.9444

> <Gold.Chemscore.Internal_Hbond>
0.0000

> <Gold.Chemscore.DEClash>
0.2899

> <Gold.Chemscore.DEInternal>
3.0381

> <Gold.Chemscore.Rot>
1.8877

> <Gold.Chemscore.Internal.Correction>
   9.000000E+99

> <Gold.Chemscore.Hbonds>
donor molecule, donor type, donor heavy atom, donor atom, acceptor molecule, acceptor atom, score
      P1  H  7989  7998       L1     4  0.19
      P1  H  7997  8010       L1     7  0.20

> <Gold.Chemscore.Hbond.Weighted>
-3.8678

> <Gold.Chemscore.Metal.Weighted>
-0.0000

> <Gold.Chemscore.Lipo.Weighted>
-9.1195

> <Gold.Chemscore.Internal_Hbond.Weighted>
0.0000

> <Gold.Chemscore.DEClash.Weighted>
0.2899

> <Gold.Chemscore.DEInternal.Weighted>
3.0381

> <Gold.Chemscore.Rot.Weighted>
4.8325

> <Gold.Chemscore.Internal.Correction.Weighted>
   9.000000E+99

> <Gold.Protein.RotatedTorsions>
[ 6907 6896 6895 6894 ] final  -55.96 input  -60.11 | X-H torsion
[ 7974 7965 7964 7962 ] final  -27.05 input  175.53 | X-H torsion
[ 8008 7997 7996 7995 ] final   74.56 input   59.86 | X-H torsion
[ 10167 10162 10161 10158 ] final  150.91 input  -65.29 | X-H torsion
[ 10718 10713 10712 10709 ] final   -7.76 input   66.30 | X-H torsion
[ 10763 10752 10751 10750 ] final  -24.88 input  -60.55 | X-H torsion
[ 11005 11000 10999 10996 ] final  109.19 input  -57.11 | X-H torsion

> <Gold.Protein.ActiveResidues>
 VAL166  LYS551  ARG553  GLY616  TRP617  ASP618  TYR619  PRO620  LYS621  CYS622 
 ASP623  PHE694  ASN695  SER759  ASP760  ASP761  ALA762  ILE779  LEU786  VAL792 
 PHE793  MET794  SER795  GLU796  ALA797  LYS798  CYS799  TRP800  GLU811  SER814 

> <Gold.Protein.RotatedAtoms>
  150.8208  134.7414  159.6769 H   0  0  0  0  0  0  0  0  0  0  0  0  # atno 6907 bound_to 6896
  152.4323  134.5750  159.9941 H   0  0  0  0  0  0  0  0  0  0  0  0  # atno 6908 bound_to 6896
  151.5935  133.3326  159.3068 H   0  0  0  0  0  0  0  0  0  0  0  0  # atno 6909 bound_to 6896
  146.1384  140.5100  142.8662 H   0  0  0  0  0  0  0  0  0  0  0  0  # atno 7974 bound_to 7965
  155.8002  140.3476  155.5398 H   0  0  0  0  0  0  0  0  0  0  0  0  # atno 8008 bound_to 7997
  155.8546  140.0961  157.1673 H   0  0  0  0  0  0  0  0  0  0  0  0  # atno 8009 bound_to 7997
  154.4009  140.1370  156.3873 H   0  0  0  0  0  0  0  0  0  0  0  0  # atno 8010 bound_to 7997
  139.4845  144.5483  151.7445 H   0  0  0  0  0  0  0  0  0  0  0  0  # atno 10167 bound_to 10162
  156.7125  130.5126  149.5888 H   0  0  0  0  0  0  0  0  0  0  0  0  # atno 10718 bound_to 10713
  153.6908  135.6962  153.5090 H   0  0  0  0  0  0  0  0  0  0  0  0  # atno 10763 bound_to 10752
  153.2414  135.4304  155.0701 H   0  0  0  0  0  0  0  0  0  0  0  0  # atno 10764 bound_to 10752
  154.8373  135.3509  154.6450 H   0  0  0  0  0  0  0  0  0  0  0  0  # atno 10765 bound_to 10752
  139.8857  134.9451  156.6088 H   0  0  0  0  0  0  0  0  0  0  0  0  # atno 11005 bound_to 11000
  144.7765  140.5751  143.6634 LP  0  0  0  0  0  0  0  0  0  0  0  0  # atno 17320 bound_to 7965
  145.5103  139.1479  143.3609 LP  0  0  0  0  0  0  0  0  0  0  0  0  # atno 17321 bound_to 7965
  140.5033  144.1135  150.5976 LP  0  0  0  0  0  0  0  0  0  0  0  0  # atno 17342 bound_to 10162
  140.4036  143.2691  151.9918 LP  0  0  0  0  0  0  0  0  0  0  0  0  # atno 17343 bound_to 10162
  156.1651  130.6400  151.0767 LP  0  0  0  0  0  0  0  0  0  0  0  0  # atno 17370 bound_to 10713
  157.6930  131.0803  150.7051 LP  0  0  0  0  0  0  0  0  0  0  0  0  # atno 17371 bound_to 10713
  140.7828  133.8646  155.8581 LP  0  0  0  0  0  0  0  0  0  0  0  0  # atno 17394 bound_to 11000
  140.9746  134.1486  157.4547 LP  0  0  0  0  0  0  0  0  0  0  0  0  # atno 17395 bound_to 11000

$$$$
