AV-unprocessed.smi:1963|AV-procd|sdf|7926|dock10
  -GOLD-   2272010 93D 1   1.00000     0.00000
 Structure written by MMmdl.
 47 48  0  0  0  0  0  0  0  0  1 V2000
  159.0592  135.8473  161.8658 C   0  0  0  0  0  0  0  0  0  0  0  0
  157.6574  135.2574  161.7599 C   0  0  0  0  0  0  0  0  0  0  0  0
  157.4962  134.1238  161.3082 O   0  0  0  0  0  0  0  0  0  0  0  0
  156.6506  136.0379  162.1831 N   0  0  0  0  0  0  0  0  0  0  0  0
  155.2308  135.6783  162.1595 C   0  0  2  0  0  0  0  0  0  0  0  0
  154.4801  136.6775  161.2572 C   0  0  0  0  0  0  0  0  0  0  0  0
  153.7397  136.2636  160.3640 O   0  0  0  0  0  0  0  0  0  0  0  0
  154.6961  137.9780  161.5277 N   0  0  0  0  0  0  0  0  0  0  0  0
  154.1833  139.1215  160.8588 C   0  0  0  0  0  0  0  0  0  0  0  0
  154.6148  140.3902  161.2940 C   0  0  0  0  0  0  0  0  0  0  0  0
  154.1492  141.5403  160.6292 C   0  0  0  0  0  0  0  0  0  0  0  0
  153.2684  141.3810  159.5352 C   0  0  0  0  0  0  0  0  0  0  0  0
  152.7703  142.4821  158.8257 N   0  0  0  0  0  0  0  0  0  0  0  0
  153.0432  143.7700  159.4513 C   0  0  0  0  0  0  0  0  0  0  0  0
  152.5759  144.9087  158.5286 C   0  0  0  0  0  0  0  0  0  0  0  0
  151.1939  144.7374  158.2258 O   0  0  0  0  0  0  0  0  0  0  0  0
  150.9429  143.5086  157.5486 C   0  0  0  0  0  0  0  0  0  0  0  0
  151.3749  142.3285  158.4371 C   0  0  0  0  0  0  0  0  0  0  0  0
  152.8541  140.1689  159.1078 N   0  0  0  0  0  0  0  0  0  0  0  0
  153.3034  139.0695  159.7504 C   0  0  0  0  0  0  0  0  0  0  0  0
  154.6698  135.7409  163.6112 C   0  0  0  0  0  0  0  0  0  0  0  0
  155.1209  137.0190  164.3457 C   0  0  0  0  0  0  0  0  0  0  0  0
  155.0527  134.5116  164.4620 C   0  0  0  0  0  0  0  0  0  0  0  0
  159.0821  136.8600  161.4617 H   0  0  0  0  0  0  0  0  0  0  0  0
  159.7762  135.2429  161.3095 H   0  0  0  0  0  0  0  0  0  0  0  0
  159.3762  135.8826  162.9082 H   0  0  0  0  0  0  0  0  0  0  0  0
  156.8789  136.9574  162.5327 H   0  0  0  0  0  0  0  0  0  0  0  0
  155.1163  134.6636  161.7715 H   0  0  0  0  0  0  0  0  0  0  0  0
  155.2559  138.1700  162.3460 H   0  0  0  0  0  0  0  0  0  0  0  0
  155.2935  140.4849  162.1292 H   0  0  0  0  0  0  0  0  0  0  0  0
  154.4646  142.5198  160.9566 H   0  0  0  0  0  0  0  0  0  0  0  0
  152.5250  143.8388  160.4085 H   0  0  0  0  0  0  0  0  0  0  0  0
  154.1110  143.8636  159.6533 H   0  0  0  0  0  0  0  0  0  0  0  0
  152.7164  145.8724  159.0181 H   0  0  0  0  0  0  0  0  0  0  0  0
  153.1615  144.9292  157.6080 H   0  0  0  0  0  0  0  0  0  0  0  0
  149.8791  143.4389  157.3215 H   0  0  0  0  0  0  0  0  0  0  0  0
  151.4739  143.4928  156.5953 H   0  0  0  0  0  0  0  0  0  0  0  0
  151.2406  141.3877  157.9018 H   0  0  0  0  0  0  0  0  0  0  0  0
  150.7477  142.2856  159.3288 H   0  0  0  0  0  0  0  0  0  0  0  0
  152.9588  138.1347  159.3370 H   0  0  0  0  0  0  0  0  0  0  0  0
  153.5799  135.7702  163.5600 H   0  0  0  0  0  0  0  0  0  0  0  0
  156.2079  137.0721  164.4126 H   0  0  0  0  0  0  0  0  0  0  0  0
  154.7257  137.0482  165.3614 H   0  0  0  0  0  0  0  0  0  0  0  0
  154.7740  137.9232  163.8457 H   0  0  0  0  0  0  0  0  0  0  0  0
  156.1351  134.3903  164.5146 H   0  0  0  0  0  0  0  0  0  0  0  0
  154.6323  133.5876  164.0652 H   0  0  0  0  0  0  0  0  0  0  0  0
  154.6821  134.6107  165.4826 H   0  0  0  0  0  0  0  0  0  0  0  0
  1  2  1  0  0  0  0
  1 24  1  0  0  0  0
  1 25  1  0  0  0  0
  1 26  1  0  0  0  0
  2  3  2  0  0  0  0
  2  4  1  0  0  0  0
  4  5  1  0  0  0  0
  4 27  1  0  0  0  0
  5  6  1  0  0  0  0
  5 21  1  0  0  0  0
  5 28  1  0  0  0  0
  6  7  2  0  0  0  0
  6  8  1  0  0  0  0
  8  9  1  0  0  0  0
  8 29  1  0  0  0  0
  9 20  1  0  0  0  0
  9 10  2  0  0  0  0
 10 11  1  0  0  0  0
 10 30  1  0  0  0  0
 11 12  2  0  0  0  0
 11 31  1  0  0  0  0
 12 13  1  0  0  0  0
 12 19  1  0  0  0  0
 13 18  1  0  0  0  0
 13 14  1  0  0  0  0
 14 15  1  0  0  0  0
 14 32  1  0  0  0  0
 14 33  1  0  0  0  0
 15 16  1  0  0  0  0
 15 34  1  0  0  0  0
 15 35  1  0  0  0  0
 16 17  1  0  0  0  0
 17 18  1  0  0  0  0
 17 36  1  0  0  0  0
 17 37  1  0  0  0  0
 18 38  1  0  0  0  0
 18 39  1  0  0  0  0
 19 20  2  0  0  0  0
 20 40  1  0  0  0  0
 21 22  1  0  0  0  0
 21 23  1  0  0  0  0
 21 41  1  0  0  0  0
 22 42  1  0  0  0  0
 22 43  1  0  0  0  0
 22 44  1  0  0  0  0
 23 45  1  0  0  0  0
 23 46  1  0  0  0  0
 23 47  1  0  0  0  0
M  END
> <s_m_source_file>
AV-unprocessed.smi

> <i_m_source_file_index>
1963

> <i_lp_mmshare_version>
43012

> <i_f3d_flags>
0

> <s_epik_input>
W0NIM11DKD1PKVtOSF1bQ0BASF0oW0NIXShbQ0gzXSlbQ0gzXSlDKD1PKVtOSF1jMVtjSF1bY0hdYyhuW2NIXTEpTjJbQ0gyXVtDSDJdT1tDSDJdW0NIMl0y

> <s_epik_cmdline>
J2VwaWtfcHl0aG9uJywgJy1waCcsICc3LjAnLCAnLXRuJywgJzgnLCAnLW1hJywgJzIwMCcsICctbWV0YWxfYmluZGluZycsICctaW1hZScsICc8aW5maWxlLm1hZT4nLCAnLW9tYWUnLCAnPG91dGZpbGUubWFlPic=

> <r_lp_tautomer_probability>
1

> <r_epik_Ionization_Penalty>
0.00051446

> <r_epik_Ionization_Penalty_Charging>
0

> <r_epik_Ionization_Penalty_Neutral>
0.00051446

> <r_epik_State_Penalty>
0.00031949

> <r_epik_Charging_Adjusted_Penalty>
0.00031949

> <i_epik_Tot_Q>
0

> <i_epik_Tot_abs_Q>
0

> <r_epik_Metal_State_Penalty>
-0

> <b_epik_Metal_Only>
0

> <s_lp_Force_Field>
OPLS_2005

> <r_lp_Energy>
27.6856

> <b_lp_Chiralities_Consistent>
1

> <s_lp_Variant>
AV-unprocessed.smi:1963-1

> <Gold.Version>
5.8.1

> <Gold.Id.Protein>
6NUR|6NUR_protein|mol2

> <Gold.PLP.Fitness>
41.9267

> <Gold.PLP.PLP>
-40.3930

> <Gold.PLP.part.hbond>
-0.9541

> <Gold.PLP.part.metal>
0.0000

> <Gold.PLP.part.buried>
-4.0584

> <Gold.PLP.part.nonpolar>
-36.4538

> <Gold.PLP.part.repulsive>
0.1630

> <Gold.PLP.ligand.clash>
0.0000

> <Gold.PLP.ligand.torsion>
0.7903

> <Gold.PLP.Chemscore.Hbond>
0.9913

> <Gold.PLP.Chemscore.CHOScore>
0.0000

> <Gold.PLP.Chemscore.Metal>
0.0000

> <Gold.Chemscore.Hbonds>
donor molecule, donor type, donor heavy atom, donor atom, acceptor molecule, acceptor atom, score
      P1  H  6896  6907       L1     7  0.99

> <Gold.PLP.Chemscore.Internal.Correction>
0.1404

> <Gold.Rescore>
     Score         DG    S(hbond)    S(metal)    S(lipo)     H(rot)  DE(clash)    DE(int)     intcor
     15.04     -17.33       0.99        0.00     111.11       1.74       0.07       2.22       ----

> <Gold.Chemscore.Fitness>
15.0442

> <Gold.Chemscore.DG>
-17.3318

> <Gold.Chemscore.ZeroCoef>
-5.4800

> <Gold.Chemscore.Hbond>
0.9893

> <Gold.Chemscore.Metal>
0.0000

> <Gold.Chemscore.Lipo>
111.1130

> <Gold.Chemscore.Internal_Hbond>
0.0000

> <Gold.Chemscore.DEClash>
0.0718

> <Gold.Chemscore.DEInternal>
2.2159

> <Gold.Chemscore.Rot>
1.7394

> <Gold.Chemscore.Internal.Correction>
   9.000000E+99

> <Gold.Chemscore.Hbonds>
donor molecule, donor type, donor heavy atom, donor atom, acceptor molecule, acceptor atom, score
      P1  H  6896  6907       L1     7  0.92

> <Gold.Chemscore.Hbond.Weighted>
-3.3044

> <Gold.Chemscore.Metal.Weighted>
-0.0000

> <Gold.Chemscore.Lipo.Weighted>
-13.0002

> <Gold.Chemscore.Internal_Hbond.Weighted>
0.0000

> <Gold.Chemscore.DEClash.Weighted>
0.0718

> <Gold.Chemscore.DEInternal.Weighted>
2.2159

> <Gold.Chemscore.Rot.Weighted>
4.4528

> <Gold.Chemscore.Internal.Correction.Weighted>
   9.000000E+99

> <Gold.Protein.RotatedTorsions>
[ 6907 6896 6895 6894 ] final   48.41 input  -60.11 | X-H torsion
[ 7974 7965 7964 7962 ] final  110.68 input  175.53 | X-H torsion
[ 8008 7997 7996 7995 ] final -120.19 input   59.86 | X-H torsion
[ 10167 10162 10161 10158 ] final   67.43 input  -65.29 | X-H torsion
[ 10718 10713 10712 10709 ] final  179.71 input   66.30 | X-H torsion
[ 10763 10752 10751 10750 ] final  -11.70 input  -60.55 | X-H torsion
[ 11005 11000 10999 10996 ] final   19.61 input  -57.11 | X-H torsion

> <Gold.Protein.ActiveResidues>
 VAL166  LYS551  ARG553  GLY616  TRP617  ASP618  TYR619  PRO620  LYS621  CYS622 
 ASP623  PHE694  ASN695  SER759  ASP760  ASP761  ALA762  ILE779  LEU786  VAL792 
 PHE793  MET794  SER795  GLU796  ALA797  LYS798  CYS799  TRP800  GLU811  SER814 

> <Gold.Protein.RotatedAtoms>
  152.2792  134.7847  160.0399 H   0  0  0  0  0  0  0  0  0  0  0  0  # atno 6907 bound_to 6896
  151.8433  133.3422  159.3658 H   0  0  0  0  0  0  0  0  0  0  0  0  # atno 6908 bound_to 6896
  150.7183  134.5299  159.5739 H   0  0  0  0  0  0  0  0  0  0  0  0  # atno 6909 bound_to 6896
  145.2519  139.2736  143.4062 H   0  0  0  0  0  0  0  0  0  0  0  0  # atno 7974 bound_to 7965
  155.1279  140.0399  157.2767 H   0  0  0  0  0  0  0  0  0  0  0  0  # atno 8008 bound_to 7997
  154.6565  140.2581  155.7130 H   0  0  0  0  0  0  0  0  0  0  0  0  # atno 8009 bound_to 7997
  156.2600  140.2825  156.1019 H   0  0  0  0  0  0  0  0  0  0  0  0  # atno 8010 bound_to 7997
  140.0896  144.4999  150.7107 H   0  0  0  0  0  0  0  0  0  0  0  0  # atno 10167 bound_to 10162
  156.8718  130.9786  151.3072 H   0  0  0  0  0  0  0  0  0  0  0  0  # atno 10718 bound_to 10713
  153.4876  135.7017  153.5902 H   0  0  0  0  0  0  0  0  0  0  0  0  # atno 10763 bound_to 10752
  153.4089  135.3853  155.2037 H   0  0  0  0  0  0  0  0  0  0  0  0  # atno 10764 bound_to 10752
  154.8718  135.3899  154.4333 H   0  0  0  0  0  0  0  0  0  0  0  0  # atno 10765 bound_to 10752
  140.4118  134.1610  155.7667 H   0  0  0  0  0  0  0  0  0  0  0  0  # atno 11005 bound_to 11000
  146.3300  140.2912  142.8615 LP  0  0  0  0  0  0  0  0  0  0  0  0  # atno 17320 bound_to 7965
  144.9495  140.8163  143.5581 LP  0  0  0  0  0  0  0  0  0  0  0  0  # atno 17321 bound_to 7965
  140.7035  143.2451  151.4795 LP  0  0  0  0  0  0  0  0  0  0  0  0  # atno 17342 bound_to 10162
  139.5732  144.1880  152.1866 LP  0  0  0  0  0  0  0  0  0  0  0  0  # atno 17343 bound_to 10162
  157.6191  130.8641  149.9078 LP  0  0  0  0  0  0  0  0  0  0  0  0  # atno 17370 bound_to 10713
  156.0722  130.3683  150.0751 LP  0  0  0  0  0  0  0  0  0  0  0  0  # atno 17371 bound_to 10713
  141.1818  133.8398  157.1231 LP  0  0  0  0  0  0  0  0  0  0  0  0  # atno 17394 bound_to 11000
  140.0262  134.9923  157.0690 LP  0  0  0  0  0  0  0  0  0  0  0  0  # atno 17395 bound_to 11000

$$$$
