AV-unprocessed.smi:977|AV-procd|sdf|4306|dock7
  -GOLD-   22720 2213D 1   1.00000     0.00000
 Structure written by MMmdl.
 37 38  0  0  0  0  0  0  0  0  1 V2000
  147.8327  141.5529  153.9622 C   0  0  0  0  0  0  0  0  0  0  0  0
  149.0346  140.7179  154.3073 C   0  0  0  0  0  0  0  0  0  0  0  0
  150.0426  141.2769  154.9610 N   0  0  0  0  0  0  0  0  0  0  0  0
  151.0391  140.2958  155.0808 O   0  0  0  0  0  0  0  0  0  0  0  0
  150.6039  139.1522  154.4900 C   0  0  0  0  0  0  0  0  0  0  0  0
  151.5356  137.9877  154.4972 C   0  0  0  0  0  0  0  0  0  0  0  0
  149.3417  139.3563  154.0165 C   0  0  0  0  0  0  0  0  0  0  0  0
  148.5742  138.3934  153.3153 N   0  0  0  0  0  0  0  0  0  0  0  0
  147.2378  138.3654  153.2027 C   0  0  0  0  0  0  0  0  0  0  0  0
  146.4713  139.1533  153.7565 O   0  0  0  0  0  0  0  0  0  0  0  0
  146.8324  137.3523  152.4234 N   0  0  0  0  0  0  0  0  0  0  0  0
  145.4432  137.0436  152.0902 C   0  0  2  0  0  0  0  0  0  0  0  0
  144.6784  136.7719  153.3951 C   0  0  0  0  0  0  0  0  0  0  0  0
  145.3805  135.8479  151.1142 C   0  0  1  0  0  0  0  0  0  0  0  0
  146.1458  134.6069  151.5855 C   0  0  0  0  0  0  0  0  0  0  0  0
  145.3753  133.4856  150.9277 C   0  0  0  0  0  0  0  0  0  0  0  0
  143.9453  133.9911  151.0608 C   0  0  0  0  0  0  0  0  0  0  0  0
  144.0337  135.4056  150.9336 O   0  0  0  0  0  0  0  0  0  0  0  0
  147.3972  141.2440  153.0118 H   0  0  0  0  0  0  0  0  0  0  0  0
  148.0924  142.6081  153.8716 H   0  0  0  0  0  0  0  0  0  0  0  0
  147.0626  141.4668  154.7287 H   0  0  0  0  0  0  0  0  0  0  0  0
  151.1659  137.1845  153.8598 H   0  0  0  0  0  0  0  0  0  0  0  0
  151.6494  137.5929  155.5067 H   0  0  0  0  0  0  0  0  0  0  0  0
  152.5214  138.2790  154.1343 H   0  0  0  0  0  0  0  0  0  0  0  0
  149.0838  137.6136  152.9265 H   0  0  0  0  0  0  0  0  0  0  0  0
  147.5379  136.7561  152.0166 H   0  0  0  0  0  0  0  0  0  0  0  0
  144.9849  137.9118  151.6130 H   0  0  0  0  0  0  0  0  0  0  0  0
  143.6192  136.5963  153.2072 H   0  0  0  0  0  0  0  0  0  0  0  0
  144.7495  137.6215  154.0752 H   0  0  0  0  0  0  0  0  0  0  0  0
  145.0741  135.8972  153.9124 H   0  0  0  0  0  0  0  0  0  0  0  0
  145.7557  136.1442  150.1333 H   0  0  0  0  0  0  0  0  0  0  0  0
  147.1986  134.6235  151.3022 H   0  0  0  0  0  0  0  0  0  0  0  0
  146.0862  134.5053  152.6701 H   0  0  0  0  0  0  0  0  0  0  0  0
  145.6524  133.4029  149.8759 H   0  0  0  0  0  0  0  0  0  0  0  0
  145.5319  132.5177  151.4042 H   0  0  0  0  0  0  0  0  0  0  0  0
  143.2752  133.5624  150.3155 H   0  0  0  0  0  0  0  0  0  0  0  0
  143.5496  133.7564  152.0496 H   0  0  0  0  0  0  0  0  0  0  0  0
  1  2  1  0  0  0  0
  1 19  1  0  0  0  0
  1 20  1  0  0  0  0
  1 21  1  0  0  0  0
  2  7  1  0  0  0  0
  2  3  2  0  0  0  0
  3  4  1  0  0  0  0
  4  5  1  0  0  0  0
  5  6  1  0  0  0  0
  5  7  2  0  0  0  0
  6 22  1  0  0  0  0
  6 23  1  0  0  0  0
  6 24  1  0  0  0  0
  7  8  1  0  0  0  0
  8  9  1  0  0  0  0
  8 25  1  0  0  0  0
  9 10  2  0  0  0  0
  9 11  1  0  0  0  0
 11 12  1  0  0  0  0
 11 26  1  0  0  0  0
 12 13  1  0  0  0  0
 12 14  1  0  0  0  0
 12 27  1  0  0  0  0
 13 28  1  0  0  0  0
 13 29  1  0  0  0  0
 13 30  1  0  0  0  0
 14 18  1  0  0  0  0
 14 15  1  0  0  0  0
 14 31  1  0  0  0  0
 15 16  1  0  0  0  0
 15 32  1  0  0  0  0
 15 33  1  0  0  0  0
 16 17  1  0  0  0  0
 16 34  1  0  0  0  0
 16 35  1  0  0  0  0
 17 18  1  0  0  0  0
 17 36  1  0  0  0  0
 17 37  1  0  0  0  0
M  END
> <s_m_source_file>
AV-unprocessed.smi

> <i_m_source_file_index>
977

> <i_lp_mmshare_version>
43012

> <i_f3d_flags>
0

> <s_epik_input>
W0NIM11jMW5vYyhbQ0gzXSljMVtOSF1DKD1PKVtOSF1bQ0BIXShbQ0gzXSlbQ0BASF0yW0NIMl1bQ0gyXVtDSDJdTzI=

> <s_epik_cmdline>
J2VwaWtfcHl0aG9uJywgJy1waCcsICc3LjAnLCAnLXRuJywgJzgnLCAnLW1hJywgJzIwMCcsICctbWV0YWxfYmluZGluZycsICctaW1hZScsICc8aW5maWxlLm1hZT4nLCAnLW9tYWUnLCAnPG91dGZpbGUubWFlPic=

> <r_lp_tautomer_probability>
1

> <r_epik_Ionization_Penalty>
3.41601e-05

> <r_epik_Ionization_Penalty_Charging>
0

> <r_epik_Ionization_Penalty_Neutral>
3.41601e-05

> <r_epik_State_Penalty>
-0

> <r_epik_Charging_Adjusted_Penalty>
0

> <i_epik_Tot_Q>
0

> <i_epik_Tot_abs_Q>
0

> <r_epik_Metal_State_Penalty>
-0

> <b_epik_Metal_Only>
0

> <s_lp_Force_Field>
OPLS_2005

> <r_lp_Energy>
19.7512

> <b_lp_Chiralities_Consistent>
1

> <s_lp_Variant>
AV-unprocessed.smi:977-3

> <Gold.Version>
5.8.1

> <Gold.Id.Protein>
6NUR|6NUR_protein|mol2

> <Gold.PLP.Fitness>
38.2549

> <Gold.PLP.PLP>
-31.8940

> <Gold.PLP.part.hbond>
-4.9600

> <Gold.PLP.part.metal>
0.0000

> <Gold.PLP.part.buried>
-2.5844

> <Gold.PLP.part.nonpolar>
-24.9644

> <Gold.PLP.part.repulsive>
0.6163

> <Gold.PLP.ligand.clash>
0.0000

> <Gold.PLP.ligand.torsion>
0.2105

> <Gold.PLP.Chemscore.Hbond>
2.1755

> <Gold.PLP.Chemscore.CHOScore>
0.0000

> <Gold.PLP.Chemscore.Metal>
0.0000

> <Gold.Chemscore.Hbonds>
donor molecule, donor type, donor heavy atom, donor atom, acceptor molecule, acceptor atom, score
      L1  H     8    25       P1  7948  0.90
      L1  H    11    26       P1  7948  0.93
      P1  H  7989  7998       L1     4  0.15

> <Gold.PLP.Chemscore.Internal.Correction>
0.2553

> <Gold.Rescore>
     Score         DG    S(hbond)    S(metal)    S(lipo)     H(rot)  DE(clash)    DE(int)     intcor
     15.15     -16.70       1.90        0.00      68.25       1.22       0.09       1.46       ----

> <Gold.Chemscore.Fitness>
15.1491

> <Gold.Chemscore.DG>
-16.7009

> <Gold.Chemscore.ZeroCoef>
-5.4800

> <Gold.Chemscore.Hbond>
1.9038

> <Gold.Chemscore.Metal>
0.0000

> <Gold.Chemscore.Lipo>
68.2523

> <Gold.Chemscore.Internal_Hbond>
0.0000

> <Gold.Chemscore.DEClash>
0.0907

> <Gold.Chemscore.DEInternal>
1.4611

> <Gold.Chemscore.Rot>
1.2200

> <Gold.Chemscore.Internal.Correction>
   9.000000E+99

> <Gold.Chemscore.Hbonds>
donor molecule, donor type, donor heavy atom, donor atom, acceptor molecule, acceptor atom, score
      L1  H     8    25       P1  7948  0.88
      L1  H    11    26       P1  7948  0.87

> <Gold.Chemscore.Hbond.Weighted>
-6.3585

> <Gold.Chemscore.Metal.Weighted>
-0.0000

> <Gold.Chemscore.Lipo.Weighted>
-7.9855

> <Gold.Chemscore.Internal_Hbond.Weighted>
0.0000

> <Gold.Chemscore.DEClash.Weighted>
0.0907

> <Gold.Chemscore.DEInternal.Weighted>
1.4611

> <Gold.Chemscore.Rot.Weighted>
3.1232

> <Gold.Chemscore.Internal.Correction.Weighted>
   9.000000E+99

> <Gold.Protein.RotatedTorsions>
[ 6907 6896 6895 6894 ] final -153.89 input  -60.11 | X-H torsion
[ 7974 7965 7964 7962 ] final  -68.56 input  175.53 | X-H torsion
[ 8008 7997 7996 7995 ] final  179.79 input   59.86 | X-H torsion
[ 10167 10162 10161 10158 ] final -104.00 input  -65.29 | X-H torsion
[ 10718 10713 10712 10709 ] final -174.44 input   66.30 | X-H torsion
[ 10763 10752 10751 10750 ] final -140.85 input  -60.55 | X-H torsion
[ 11005 11000 10999 10996 ] final   84.11 input  -57.11 | X-H torsion

> <Gold.Protein.ActiveResidues>
 VAL166  LYS551  ARG553  GLY616  TRP617  ASP618  TYR619  PRO620  LYS621  CYS622 
 ASP623  PHE694  ASN695  SER759  ASP760  ASP761  ALA762  ILE779  LEU786  VAL792 
 PHE793  MET794  SER795  GLU796  ALA797  LYS798  CYS799  TRP800  GLU811  SER814 

> <Gold.Protein.RotatedAtoms>
  151.2493  133.4358  159.2610 H   0  0  0  0  0  0  0  0  0  0  0  0  # atno 6907 bound_to 6896
  151.0632  134.9750  159.8281 H   0  0  0  0  0  0  0  0  0  0  0  0  # atno 6908 bound_to 6896
  152.5401  134.2442  159.8926 H   0  0  0  0  0  0  0  0  0  0  0  0  # atno 6909 bound_to 6896
  145.7149  140.9063  143.0661 H   0  0  0  0  0  0  0  0  0  0  0  0  # atno 7974 bound_to 7965
  156.0394  140.1300  157.0172 H   0  0  0  0  0  0  0  0  0  0  0  0  # atno 8008 bound_to 7997
  154.4384  140.1033  156.6285 H   0  0  0  0  0  0  0  0  0  0  0  0  # atno 8009 bound_to 7997
  155.5690  140.3466  155.4512 H   0  0  0  0  0  0  0  0  0  0  0  0  # atno 8010 bound_to 7997
  140.2140  143.3725  152.1026 H   0  0  0  0  0  0  0  0  0  0  0  0  # atno 10167 bound_to 10162
  156.7851  130.9497  151.3120 H   0  0  0  0  0  0  0  0  0  0  0  0  # atno 10718 bound_to 10713
  154.8565  135.3541  154.5773 H   0  0  0  0  0  0  0  0  0  0  0  0  # atno 10763 bound_to 10752
  153.6385  135.6999  153.5255 H   0  0  0  0  0  0  0  0  0  0  0  0  # atno 10764 bound_to 10752
  153.2991  135.4212  155.1195 H   0  0  0  0  0  0  0  0  0  0  0  0  # atno 10765 bound_to 10752
  139.9010  134.8193  156.2400 H   0  0  0  0  0  0  0  0  0  0  0  0  # atno 11005 bound_to 11000
  144.6932  139.9124  143.7464 LP  0  0  0  0  0  0  0  0  0  0  0  0  # atno 17320 bound_to 7965
  146.0678  139.3668  143.0541 LP  0  0  0  0  0  0  0  0  0  0  0  0  # atno 17321 bound_to 7965
  139.5169  144.6984  151.5564 LP  0  0  0  0  0  0  0  0  0  0  0  0  # atno 17342 bound_to 10162
  140.6303  143.9089  150.6600 LP  0  0  0  0  0  0  0  0  0  0  0  0  # atno 17343 bound_to 10162
  157.6628  130.8981  149.9866 LP  0  0  0  0  0  0  0  0  0  0  0  0  # atno 17370 bound_to 10713
  156.1194  130.3646  149.9913 LP  0  0  0  0  0  0  0  0  0  0  0  0  # atno 17371 bound_to 10713
  141.0291  133.6999  156.1399 LP  0  0  0  0  0  0  0  0  0  0  0  0  # atno 17394 bound_to 11000
  140.7123  134.4448  157.5581 LP  0  0  0  0  0  0  0  0  0  0  0  0  # atno 17395 bound_to 11000

$$$$
