AV-unprocessed.smi:1233|AV-procd|sdf|5171|dock2
  -GOLD-   22720 4243D 1   1.00000     0.00000
 Structure written by MMmdl.
 38 39  0  0  0  0  0  0  0  0  1 V2000
  152.4808  143.9715  161.8895 C   0  0  0  0  0  0  0  0  0  0  0  0
  152.1861  143.2109  160.7231 O   0  0  0  0  0  0  0  0  0  0  0  0
  152.8329  142.0031  160.5420 C   0  0  0  0  0  0  0  0  0  0  0  0
  153.7099  141.5920  161.4924 N   0  0  0  0  0  0  0  0  0  0  0  0
  154.3447  140.4151  161.3152 C   0  0  0  0  0  0  0  0  0  0  0  0
  154.1489  139.5964  160.1878 C   0  0  0  0  0  0  0  0  0  0  0  0
  153.2399  140.0205  159.2009 C   0  0  0  0  0  0  0  0  0  0  0  0
  152.5528  141.2452  159.3811 C   0  0  0  0  0  0  0  0  0  0  0  0
  151.6290  141.7739  158.4382 N   0  0  0  0  0  0  0  0  0  0  0  0
  150.8084  141.1073  157.6090 C   0  0  0  0  0  0  0  0  0  0  0  0
  150.7264  139.8821  157.5208 O   0  0  0  0  0  0  0  0  0  0  0  0
  150.0559  141.9539  156.8902 N   0  0  0  0  0  0  0  0  0  0  0  0
  149.0061  141.5664  155.9460 C   0  0  2  0  0  0  0  0  0  0  0  0
  147.9769  140.6914  156.7056 C   0  0  0  0  0  0  0  0  0  0  0  0
  147.0169  139.8468  155.8377 C   0  0  0  0  0  0  0  0  0  0  0  0
  146.4119  140.5809  154.6237 C   0  0  0  0  0  0  0  0  0  0  0  0
  147.4096  141.1047  153.5582 C   0  0  0  0  0  0  0  0  0  0  0  0
  148.7738  140.5922  153.6869 N   0  0  0  0  0  0  0  0  0  0  0  0
  149.5789  140.7782  154.7466 C   0  0  0  0  0  0  0  0  0  0  0  0
  150.7191  140.3158  154.7743 O   0  0  0  0  0  0  0  0  0  0  0  0
  151.8867  144.8853  161.8831 H   0  0  0  0  0  0  0  0  0  0  0  0
  153.5322  144.2605  161.9208 H   0  0  0  0  0  0  0  0  0  0  0  0
  152.2321  143.4224  162.7987 H   0  0  0  0  0  0  0  0  0  0  0  0
  155.0345  140.1209  162.0922 H   0  0  0  0  0  0  0  0  0  0  0  0
  154.6871  138.6662  160.0800 H   0  0  0  0  0  0  0  0  0  0  0  0
  153.0990  139.4092  158.3230 H   0  0  0  0  0  0  0  0  0  0  0  0
  151.5173  142.7771  158.4613 H   0  0  0  0  0  0  0  0  0  0  0  0
  150.1887  142.9439  157.0350 H   0  0  0  0  0  0  0  0  0  0  0  0
  148.5150  142.4713  155.5853 H   0  0  0  0  0  0  0  0  0  0  0  0
  148.4949  140.0120  157.3848 H   0  0  0  0  0  0  0  0  0  0  0  0
  147.3830  141.3464  157.3443 H   0  0  0  0  0  0  0  0  0  0  0  0
  147.5293  138.9476  155.4930 H   0  0  0  0  0  0  0  0  0  0  0  0
  146.2071  139.4829  156.4706 H   0  0  0  0  0  0  0  0  0  0  0  0
  145.7211  139.8940  154.1334 H   0  0  0  0  0  0  0  0  0  0  0  0
  145.7949  141.4097  154.9721 H   0  0  0  0  0  0  0  0  0  0  0  0
  147.0449  140.8506  152.5626 H   0  0  0  0  0  0  0  0  0  0  0  0
  147.4427  142.1949  153.5836 H   0  0  0  0  0  0  0  0  0  0  0  0
  149.1391  140.0662  152.9061 H   0  0  0  0  0  0  0  0  0  0  0  0
  1  2  1  0  0  0  0
  1 21  1  0  0  0  0
  1 22  1  0  0  0  0
  1 23  1  0  0  0  0
  2  3  1  0  0  0  0
  3  8  1  0  0  0  0
  3  4  2  0  0  0  0
  4  5  1  0  0  0  0
  5  6  2  0  0  0  0
  5 24  1  0  0  0  0
  6  7  1  0  0  0  0
  6 25  1  0  0  0  0
  7  8  2  0  0  0  0
  7 26  1  0  0  0  0
  8  9  1  0  0  0  0
  9 10  1  0  0  0  0
  9 27  1  0  0  0  0
 10 11  2  0  0  0  0
 10 12  1  0  0  0  0
 12 13  1  0  0  0  0
 12 28  1  0  0  0  0
 13 19  1  0  0  0  0
 13 14  1  0  0  0  0
 13 29  1  0  0  0  0
 14 15  1  0  0  0  0
 14 30  1  0  0  0  0
 14 31  1  0  0  0  0
 15 16  1  0  0  0  0
 15 32  1  0  0  0  0
 15 33  1  0  0  0  0
 16 17  1  0  0  0  0
 16 34  1  0  0  0  0
 16 35  1  0  0  0  0
 17 18  1  0  0  0  0
 17 36  1  0  0  0  0
 17 37  1  0  0  0  0
 18 19  1  0  0  0  0
 18 38  1  0  0  0  0
 19 20  2  0  0  0  0
M  END
> <s_m_source_file>
AV-unprocessed.smi

> <i_m_source_file_index>
1233

> <i_lp_mmshare_version>
43012

> <i_f3d_flags>
0

> <s_epik_input>
W0NIM11PYzFuW2NIXVtjSF1bY0hdYzFbTkhdQyg9TylbTkhdW0NAQEhdMltDSDJdW0NIMl1bQ0gyXVtDSDJdW05IXUMyPU8=

> <s_epik_cmdline>
J2VwaWtfcHl0aG9uJywgJy1waCcsICc3LjAnLCAnLXRuJywgJzgnLCAnLW1hJywgJzIwMCcsICctbWV0YWxfYmluZGluZycsICctaW1hZScsICc8aW5maWxlLm1hZT4nLCAnLW9tYWUnLCAnPG91dGZpbGUubWFlPic=

> <r_lp_tautomer_probability>
1

> <r_epik_Ionization_Penalty>
8.308e-05

> <r_epik_Ionization_Penalty_Charging>
0

> <r_epik_Ionization_Penalty_Neutral>
8.308e-05

> <r_epik_State_Penalty>
-0

> <r_epik_Charging_Adjusted_Penalty>
0

> <i_epik_Tot_Q>
0

> <i_epik_Tot_abs_Q>
0

> <r_epik_Metal_State_Penalty>
-0

> <b_epik_Metal_Only>
0

> <s_lp_Force_Field>
OPLS_2005

> <r_lp_Energy>
19.4298

> <b_lp_Chiralities_Consistent>
1

> <s_lp_Variant>
AV-unprocessed.smi:1233-1

> <Gold.Version>
5.8.1

> <Gold.Id.Protein>
6NUR|6NUR_protein|mol2

> <Gold.PLP.Fitness>
37.5206

> <Gold.PLP.PLP>
-31.9444

> <Gold.PLP.part.hbond>
-2.3338

> <Gold.PLP.part.metal>
0.0000

> <Gold.PLP.part.buried>
-6.0068

> <Gold.PLP.part.nonpolar>
-23.2903

> <Gold.PLP.part.repulsive>
0.4175

> <Gold.PLP.ligand.clash>
0.0000

> <Gold.PLP.ligand.torsion>
0.2132

> <Gold.PLP.Chemscore.Hbond>
2.0000

> <Gold.PLP.Chemscore.CHOScore>
0.0000

> <Gold.PLP.Chemscore.Metal>
0.0000

> <Gold.Chemscore.Hbonds>
donor molecule, donor type, donor heavy atom, donor atom, acceptor molecule, acceptor atom, score
      L1  H    18    38       P1  7957  0.96
      P1  H  7989  7998       L1    20  1.00

> <Gold.PLP.Chemscore.Internal.Correction>
0.0027

> <Gold.Rescore>
     Score         DG    S(hbond)    S(metal)    S(lipo)     H(rot)  DE(clash)    DE(int)     intcor
     13.17     -18.05       2.44        0.00      66.55       1.31       0.16       4.72       ----

> <Gold.Chemscore.Fitness>
13.1708

> <Gold.Chemscore.DG>
-18.0487

> <Gold.Chemscore.ZeroCoef>
-5.4800

> <Gold.Chemscore.Hbond>
2.4350

> <Gold.Chemscore.Metal>
0.0000

> <Gold.Chemscore.Lipo>
66.5533

> <Gold.Chemscore.Internal_Hbond>
0.0000

> <Gold.Chemscore.DEClash>
0.1568

> <Gold.Chemscore.DEInternal>
4.7211

> <Gold.Chemscore.Rot>
1.3090

> <Gold.Chemscore.Internal.Correction>
   9.000000E+99

> <Gold.Chemscore.Hbonds>
donor molecule, donor type, donor heavy atom, donor atom, acceptor molecule, acceptor atom, score
      L1  H    18    38       P1  7957  0.92
      P1  H  7989  7998       L1    20  0.78

> <Gold.Chemscore.Hbond.Weighted>
-8.1329

> <Gold.Chemscore.Metal.Weighted>
-0.0000

> <Gold.Chemscore.Lipo.Weighted>
-7.7867

> <Gold.Chemscore.Internal_Hbond.Weighted>
0.0000

> <Gold.Chemscore.DEClash.Weighted>
0.1568

> <Gold.Chemscore.DEInternal.Weighted>
4.7211

> <Gold.Chemscore.Rot.Weighted>
3.3509

> <Gold.Chemscore.Internal.Correction.Weighted>
   9.000000E+99

> <Gold.Protein.RotatedTorsions>
[ 6907 6896 6895 6894 ] final  103.77 input  -60.11 | X-H torsion
[ 7974 7965 7964 7962 ] final  177.03 input  175.53 | X-H torsion
[ 8008 7997 7996 7995 ] final -144.96 input   59.86 | X-H torsion
[ 10167 10162 10161 10158 ] final  100.42 input  -65.29 | X-H torsion
[ 10718 10713 10712 10709 ] final  172.38 input   66.30 | X-H torsion
[ 10763 10752 10751 10750 ] final  -56.02 input  -60.55 | X-H torsion
[ 11005 11000 10999 10996 ] final   -5.33 input  -57.11 | X-H torsion

> <Gold.Protein.ActiveResidues>
 VAL166  LYS551  ARG553  GLY616  TRP617  ASP618  TYR619  PRO620  LYS621  CYS622 
 ASP623  PHE694  ASN695  SER759  ASP760  ASP761  ALA762  ILE779  LEU786  VAL792 
 PHE793  MET794  SER795  GLU796  ALA797  LYS798  CYS799  TRP800  GLU811  SER814 

> <Gold.Protein.RotatedAtoms>
  152.5285  133.9776  159.7791 H   0  0  0  0  0  0  0  0  0  0  0  0  # atno 6907 bound_to 6896
  151.0036  133.6024  159.2699 H   0  0  0  0  0  0  0  0  0  0  0  0  # atno 6908 bound_to 6896
  151.3124  135.0804  159.9330 H   0  0  0  0  0  0  0  0  0  0  0  0  # atno 6909 bound_to 6896
  144.7175  140.0185  143.6440 H   0  0  0  0  0  0  0  0  0  0  0  0  # atno 7974 bound_to 7965
  155.5355  140.0603  157.2880 H   0  0  0  0  0  0  0  0  0  0  0  0  # atno 8008 bound_to 7997
  154.4470  140.1928  156.0582 H   0  0  0  0  0  0  0  0  0  0  0  0  # atno 8009 bound_to 7997
  156.0622  140.3271  155.7479 H   0  0  0  0  0  0  0  0  0  0  0  0  # atno 8010 bound_to 7997
  139.7529  144.6978  151.0406 H   0  0  0  0  0  0  0  0  0  0  0  0  # atno 10167 bound_to 10162
  156.9798  131.0115  151.2884 H   0  0  0  0  0  0  0  0  0  0  0  0  # atno 10718 bound_to 10713
  154.2000  135.6412  153.5084 H   0  0  0  0  0  0  0  0  0  0  0  0  # atno 10763 bound_to 10752
  153.0014  135.5449  154.6325 H   0  0  0  0  0  0  0  0  0  0  0  0  # atno 10764 bound_to 10752
  154.5736  135.2919  155.0776 H   0  0  0  0  0  0  0  0  0  0  0  0  # atno 10765 bound_to 10752
  140.6900  133.9079  155.8612 H   0  0  0  0  0  0  0  0  0  0  0  0  # atno 11005 bound_to 11000
  146.0200  139.3243  143.0819 LP  0  0  0  0  0  0  0  0  0  0  0  0  # atno 17320 bound_to 7965
  145.8580  140.9491  143.0715 LP  0  0  0  0  0  0  0  0  0  0  0  0  # atno 17321 bound_to 7965
  140.7799  143.4788  151.0046 LP  0  0  0  0  0  0  0  0  0  0  0  0  # atno 17342 bound_to 10162
  139.8475  143.7482  152.3179 LP  0  0  0  0  0  0  0  0  0  0  0  0  # atno 17343 bound_to 10162
  157.5534  130.8197  149.8173 LP  0  0  0  0  0  0  0  0  0  0  0  0  # atno 17370 bound_to 10713
  156.0249  130.3783  150.1853 LP  0  0  0  0  0  0  0  0  0  0  0  0  # atno 17371 bound_to 10713
  141.0249  134.0838  157.4080 LP  0  0  0  0  0  0  0  0  0  0  0  0  # atno 17394 bound_to 11000
  139.8926  135.0126  156.6855 LP  0  0  0  0  0  0  0  0  0  0  0  0  # atno 17395 bound_to 11000

$$$$
