AV-unprocessed.smi:1571|AV-procd|sdf|6326|dock7
  -GOLD-   22720 6533D 1   1.00000     0.00000
 Structure written by MMmdl.
 37 38  0  0  0  0  0  0  0  0  1 V2000
  147.3088  132.7451  160.4487 C   0  0  0  0  0  0  0  0  0  0  0  0
  147.3023  133.8671  161.4471 C   0  0  0  0  0  0  0  0  0  0  0  0
  147.4170  133.5833  162.7333 N   0  0  0  0  0  0  0  0  0  0  0  0
  147.3722  134.8099  163.4021 O   0  0  0  0  0  0  0  0  0  0  0  0
  147.2316  135.7966  162.4816 C   0  0  0  0  0  0  0  0  0  0  0  0
  147.1573  137.1894  163.0095 C   0  0  0  0  0  0  0  0  0  0  0  0
  147.1833  135.2692  161.2198 C   0  0  0  0  0  0  0  0  0  0  0  0
  147.0342  135.9920  159.9024 C   0  0  0  0  0  0  0  0  0  0  0  0
  148.2802  136.8176  159.5575 C   0  0  0  0  0  0  0  0  0  0  0  0
  149.0914  137.1439  160.4255 O   0  0  0  0  0  0  0  0  0  0  0  0
  148.4139  137.1447  158.2627 N   0  0  0  0  0  0  0  0  0  0  0  0
  149.5104  137.9097  157.6742 C   0  0  0  0  0  0  0  0  0  0  0  0
  149.2569  138.0849  156.1644 C   0  0  0  0  0  0  0  0  0  0  0  0
  150.3138  138.9624  155.4788 C   0  0  0  0  0  0  0  0  0  0  0  0
  151.9904  138.2274  155.6652 S   0  0  0  0  0  0  0  0  0  0  0  0
  151.9744  136.8976  155.0364 O   0  0  0  0  0  0  0  0  0  0  0  0
  152.9974  139.2227  155.2679 O   0  0  0  0  0  0  0  0  0  0  0  0
  152.0664  137.9913  157.4883 C   0  0  0  0  0  0  0  0  0  0  0  0
  150.8453  137.2053  157.9853 C   0  0  0  0  0  0  0  0  0  0  0  0
  147.1715  133.1113  159.4316 H   0  0  0  0  0  0  0  0  0  0  0  0
  146.5064  132.0357  160.6525 H   0  0  0  0  0  0  0  0  0  0  0  0
  148.2519  132.1990  160.4793 H   0  0  0  0  0  0  0  0  0  0  0  0
  147.0246  137.9103  162.2030 H   0  0  0  0  0  0  0  0  0  0  0  0
  148.0700  137.4477  163.5465 H   0  0  0  0  0  0  0  0  0  0  0  0
  146.3175  137.2964  163.6961 H   0  0  0  0  0  0  0  0  0  0  0  0
  146.8555  135.2874  159.0897 H   0  0  0  0  0  0  0  0  0  0  0  0
  146.1703  136.6570  159.9159 H   0  0  0  0  0  0  0  0  0  0  0  0
  147.6946  136.8310  157.6271 H   0  0  0  0  0  0  0  0  0  0  0  0
  149.5468  138.9043  158.1224 H   0  0  0  0  0  0  0  0  0  0  0  0
  149.2218  137.1093  155.6776 H   0  0  0  0  0  0  0  0  0  0  0  0
  148.2761  138.5368  156.0114 H   0  0  0  0  0  0  0  0  0  0  0  0
  150.1041  139.0682  154.4145 H   0  0  0  0  0  0  0  0  0  0  0  0
  150.3287  139.9616  155.9142 H   0  0  0  0  0  0  0  0  0  0  0  0
  152.9922  137.4672  157.7261 H   0  0  0  0  0  0  0  0  0  0  0  0
  152.1122  138.9738  157.9584 H   0  0  0  0  0  0  0  0  0  0  0  0
  150.9373  137.0625  159.0626 H   0  0  0  0  0  0  0  0  0  0  0  0
  150.8501  136.2073  157.5448 H   0  0  0  0  0  0  0  0  0  0  0  0
  1  2  1  0  0  0  0
  1 20  1  0  0  0  0
  1 21  1  0  0  0  0
  1 22  1  0  0  0  0
  2  7  1  0  0  0  0
  2  3  2  0  0  0  0
  3  4  1  0  0  0  0
  4  5  1  0  0  0  0
  5  6  1  0  0  0  0
  5  7  2  0  0  0  0
  6 23  1  0  0  0  0
  6 24  1  0  0  0  0
  6 25  1  0  0  0  0
  7  8  1  0  0  0  0
  8  9  1  0  0  0  0
  8 26  1  0  0  0  0
  8 27  1  0  0  0  0
  9 10  2  0  0  0  0
  9 11  1  0  0  0  0
 11 12  1  0  0  0  0
 11 28  1  0  0  0  0
 12 19  1  0  0  0  0
 12 13  1  0  0  0  0
 12 29  1  0  0  0  0
 13 14  1  0  0  0  0
 13 30  1  0  0  0  0
 13 31  1  0  0  0  0
 14 15  1  0  0  0  0
 14 32  1  0  0  0  0
 14 33  1  0  0  0  0
 15 16  2  0  0  0  0
 15 17  2  0  0  0  0
 15 18  1  0  0  0  0
 18 19  1  0  0  0  0
 18 34  1  0  0  0  0
 18 35  1  0  0  0  0
 19 36  1  0  0  0  0
 19 37  1  0  0  0  0
M  END
> <s_m_source_file>
AV-unprocessed.smi

> <i_m_source_file_index>
1571

> <i_lp_mmshare_version>
43012

> <i_f3d_flags>
0

> <s_epik_input>
W0NIM11jMW5vYyhbQ0gzXSljMVtDSDJdQyg9TylbTkhdW0NIXShbQ0gyXVtDSDJdMilbQ0gyXVtDSDJdUzIoPU8pPU8=

> <s_epik_cmdline>
J2VwaWtfcHl0aG9uJywgJy1waCcsICc3LjAnLCAnLXRuJywgJzgnLCAnLW1hJywgJzIwMCcsICctbWV0YWxfYmluZGluZycsICctaW1hZScsICc8aW5maWxlLm1hZT4nLCAnLW9tYWUnLCAnPG91dGZpbGUubWFlPic=

> <r_lp_tautomer_probability>
1

> <r_epik_Ionization_Penalty>
4.0065e-08

> <r_epik_Ionization_Penalty_Charging>
0

> <r_epik_Ionization_Penalty_Neutral>
4.0065e-08

> <r_epik_State_Penalty>
-0

> <r_epik_Charging_Adjusted_Penalty>
0

> <i_epik_Tot_Q>
0

> <i_epik_Tot_abs_Q>
0

> <r_epik_Metal_State_Penalty>
-0

> <b_epik_Metal_Only>
0

> <s_lp_Force_Field>
OPLS_2005

> <r_lp_Energy>
-11.0004

> <b_lp_Chiralities_Consistent>
1

> <s_lp_Variant>
AV-unprocessed.smi:1571-1

> <Gold.Version>
5.8.1

> <Gold.Id.Protein>
6NUR|6NUR_protein|mol2

> <Gold.PLP.Fitness>
34.8839

> <Gold.PLP.PLP>
-27.8557

> <Gold.PLP.part.hbond>
-4.3283

> <Gold.PLP.part.metal>
0.0000

> <Gold.PLP.part.buried>
-5.2986

> <Gold.PLP.part.nonpolar>
-18.7498

> <Gold.PLP.part.repulsive>
0.2424

> <Gold.PLP.ligand.clash>
0.0000

> <Gold.PLP.ligand.torsion>
0.3547

> <Gold.PLP.Chemscore.Hbond>
2.5760

> <Gold.PLP.Chemscore.CHOScore>
0.0000

> <Gold.PLP.Chemscore.Metal>
0.0000

> <Gold.Chemscore.Hbonds>
donor molecule, donor type, donor heavy atom, donor atom, acceptor molecule, acceptor atom, score
      P1  H  6931  6943       L1    10  0.59
      P1  H  7997  8008       L1    17  1.00
      P1  H 10752 10764       L1    16  1.00

> <Gold.PLP.Chemscore.Internal.Correction>
0.0096

> <Gold.Rescore>
     Score         DG    S(hbond)    S(metal)    S(lipo)     H(rot)  DE(clash)    DE(int)     intcor
     16.56     -16.98       2.54        0.00      57.62       1.46       0.02       0.40       ----

> <Gold.Chemscore.Fitness>
16.5561

> <Gold.Chemscore.DG>
-16.9806

> <Gold.Chemscore.ZeroCoef>
-5.4800

> <Gold.Chemscore.Hbond>
2.5440

> <Gold.Chemscore.Metal>
0.0000

> <Gold.Chemscore.Lipo>
57.6194

> <Gold.Chemscore.Internal_Hbond>
0.0000

> <Gold.Chemscore.DEClash>
0.0202

> <Gold.Chemscore.DEInternal>
0.4043

> <Gold.Chemscore.Rot>
1.4601

> <Gold.Chemscore.Internal.Correction>
   9.000000E+99

> <Gold.Chemscore.Hbonds>
donor molecule, donor type, donor heavy atom, donor atom, acceptor molecule, acceptor atom, score
      P1  H  6931  6943       L1    10  0.58
      P1  H  7997  8008       L1    17  0.95
      P1  H 10752 10764       L1    16  0.96

> <Gold.Chemscore.Hbond.Weighted>
-8.4970

> <Gold.Chemscore.Metal.Weighted>
-0.0000

> <Gold.Chemscore.Lipo.Weighted>
-6.7415

> <Gold.Chemscore.Internal_Hbond.Weighted>
0.0000

> <Gold.Chemscore.DEClash.Weighted>
0.0202

> <Gold.Chemscore.DEInternal.Weighted>
0.4043

> <Gold.Chemscore.Rot.Weighted>
3.7379

> <Gold.Chemscore.Internal.Correction.Weighted>
   9.000000E+99

> <Gold.Protein.RotatedTorsions>
[ 6907 6896 6895 6894 ] final  133.28 input  -60.11 | X-H torsion
[ 7974 7965 7964 7962 ] final   79.06 input  175.53 | X-H torsion
[ 8008 7997 7996 7995 ] final   -3.67 input   59.86 | X-H torsion
[ 10167 10162 10161 10158 ] final    6.07 input  -65.29 | X-H torsion
[ 10718 10713 10712 10709 ] final -164.32 input   66.30 | X-H torsion
[ 10763 10752 10751 10750 ] final  -58.59 input  -60.55 | X-H torsion
[ 11005 11000 10999 10996 ] final  -97.71 input  -57.11 | X-H torsion

> <Gold.Protein.ActiveResidues>
 VAL166  LYS551  ARG553  GLY616  TRP617  ASP618  TYR619  PRO620  LYS621  CYS622 
 ASP623  PHE694  ASN695  SER759  ASP760  ASP761  ALA762  ILE779  LEU786  VAL792 
 PHE793  MET794  SER795  GLU796  ALA797  LYS798  CYS799  TRP800  GLU811  SER814 

> <Gold.Protein.RotatedAtoms>
  152.3236  133.5880  159.5761 H   0  0  0  0  0  0  0  0  0  0  0  0  # atno 6907 bound_to 6896
  150.7384  133.9974  159.3636 H   0  0  0  0  0  0  0  0  0  0  0  0  # atno 6908 bound_to 6896
  151.7856  135.0750  160.0431 H   0  0  0  0  0  0  0  0  0  0  0  0  # atno 6909 bound_to 6896
  145.6690  139.2492  143.1879 H   0  0  0  0  0  0  0  0  0  0  0  0  # atno 7974 bound_to 7965
  154.6224  140.2503  155.7532 H   0  0  0  0  0  0  0  0  0  0  0  0  # atno 8008 bound_to 7997
  156.2434  140.2924  156.0458 H   0  0  0  0  0  0  0  0  0  0  0  0  # atno 8009 bound_to 7997
  155.1875  140.0390  157.2884 H   0  0  0  0  0  0  0  0  0  0  0  0  # atno 8010 bound_to 7997
  140.6448  143.7689  150.7481 H   0  0  0  0  0  0  0  0  0  0  0  0  # atno 10167 bound_to 10162
  156.6373  130.8954  151.2989 H   0  0  0  0  0  0  0  0  0  0  0  0  # atno 10718 bound_to 10713
  154.2406  135.6344  153.5206 H   0  0  0  0  0  0  0  0  0  0  0  0  # atno 10763 bound_to 10752
  152.9931  135.5541  154.5915 H   0  0  0  0  0  0  0  0  0  0  0  0  # atno 10764 bound_to 10752
  154.5419  135.2895  155.1062 H   0  0  0  0  0  0  0  0  0  0  0  0  # atno 10765 bound_to 10752
  141.1370  133.8191  157.0742 H   0  0  0  0  0  0  0  0  0  0  0  0  # atno 11005 bound_to 11000
  146.1061  140.7485  142.9526 LP  0  0  0  0  0  0  0  0  0  0  0  0  # atno 17320 bound_to 7965
  144.7063  140.3864  143.7115 LP  0  0  0  0  0  0  0  0  0  0  0  0  # atno 17321 bound_to 7965
  140.1328  143.4511  152.2243 LP  0  0  0  0  0  0  0  0  0  0  0  0  # atno 17342 bound_to 10162
  139.5658  144.7434  151.4027 LP  0  0  0  0  0  0  0  0  0  0  0  0  # atno 17343 bound_to 10162
  157.7182  130.9524  150.1334 LP  0  0  0  0  0  0  0  0  0  0  0  0  # atno 17370 bound_to 10713
  156.2187  130.3672  149.8582 LP  0  0  0  0  0  0  0  0  0  0  0  0  # atno 17371 bound_to 10713
  140.0492  134.9814  157.1105 LP  0  0  0  0  0  0  0  0  0  0  0  0  # atno 17394 bound_to 11000
  140.4016  134.2077  155.7163 LP  0  0  0  0  0  0  0  0  0  0  0  0  # atno 17395 bound_to 11000

$$$$
