#       Name:                AV-unprocessed.smi:319
#       Creating user name   scv26
#       Creation time:       Thu Mar 26 22:23:39 2020


#       File generated by GOLD software.
#

@<TRIPOS>MOLECULE
AV-unprocessed.smi:319
    41    42     1
SMALL
NO_CHARGES


@<TRIPOS>ATOM
      1 ****        -6.0841   3.0101   0.4521 C.3            1 S1                 0.0000
      2 ****        -6.0490   1.3343  -0.2444 S.3            1 S1                 0.0000
      3 ****        -4.3508   1.1992  -0.7127 C.2            1 S1                 0.0000
      4 ****        -3.8548   0.1361  -1.3471 N.2            1 S1                 0.0000
      5 ****        -2.4875   0.2480  -1.6149 C.2            1 S1                 0.0000
      6 ****        -1.7839  -0.8712  -2.3210 C.3            1 S1                 0.0000
      7 ****        -1.9355   1.4264  -1.1668 C.2            1 S1                 0.0000
      8 ****        -0.5140   1.8827  -1.2710 C.3            1 S1                 0.0000
      9 ****         0.3136   1.3473  -0.1029 C.2            1 S1                 0.0000
     10 ****         0.3734   1.9807   0.9506 O.2            1 S1                 0.0000
     11 ****         0.9392   0.1770  -0.3018 N.am           1 S1                 0.0000
     12 ****         1.7499  -0.5284   0.6851 C.3            1 S1                 0.0000
     13 ****         3.1880   0.0300   0.7087 C.3            1 S1                 0.0000
     14 ****         4.0804  -0.7560   1.6831 C.3            1 S1                 0.0000
     15 ****         4.0773  -2.2576   1.3561 C.3            1 S1                 0.0000
     16 ****         2.6464  -2.8177   1.3392 C.3            1 S1                 0.0000
     17 ****         1.7527  -2.0350   0.3636 C.3            1 S1                 0.0000
     18 ****        -3.1339   2.4335  -0.3948 S.3            1 S1                 0.0000
     19 ****        -7.0957   3.2521   0.7774 H              1 S1                 0.0000
     20 ****        -5.7836   3.7462  -0.2935 H              1 S1                 0.0000
     21 ****        -5.4243   3.0860   1.3165 H              1 S1                 0.0000
     22 ****        -1.1554  -0.4970  -3.1290 H              1 S1                 0.0000
     23 ****        -2.4894  -1.5784  -2.7584 H              1 S1                 0.0000
     24 ****        -1.1456  -1.4276  -1.6346 H              1 S1                 0.0000
     25 ****        -0.0779   1.5592  -2.2169 H              1 S1                 0.0000
     26 ****        -0.4678   2.9723  -1.2696 H              1 S1                 0.0000
     27 ****         0.8315  -0.2679  -1.2016 H              1 S1                 0.0000
     28 ****         1.3032  -0.3947   1.6724 H              1 S1                 0.0000
     29 ****         3.6189  -0.0165  -0.2925 H              1 S1                 0.0000
     30 ****         3.1794   1.0831   0.9921 H              1 S1                 0.0000
     31 ****         5.0994  -0.3697   1.6478 H              1 S1                 0.0000
     32 ****         3.7275  -0.6036   2.7040 H              1 S1                 0.0000
     33 ****         4.5460  -2.4214   0.3850 H              1 S1                 0.0000
     34 ****         4.6802  -2.7988   2.0858 H              1 S1                 0.0000
     35 ****         2.6632  -3.8723   1.0627 H              1 S1                 0.0000
     36 ****         2.2225  -2.7679   2.3430 H              1 S1                 0.0000
     37 ****         0.7357  -2.4273   0.4030 H              1 S1                 0.0000
     38 ****         2.1061  -2.1956  -0.6560 H              1 S1                 0.0000
     39 ****        -4.4043  -0.6588  -1.6045 LP             1 S1                 0.0000
     40 ****        -0.1196   2.8459   1.0425 LP             1 S1                 0.0000
     41 ****         0.9149   1.6302   1.7147 LP             1 S1                 0.0000
@<TRIPOS>BOND
    1    1    2 1     
    2    1   19 1     
    3    1   20 1     
    4    1   21 1     
    5    2    3 1     
    6    3   18 1     
    7    3    4 2     
    8    4    5 1     
    9    5    6 1     
   10    5    7 2     
   11    6   22 1     
   12    6   23 1     
   13    6   24 1     
   14    7    8 1     
   15    7   18 1     
   16    8    9 1     
   17    8   25 1     
   18    8   26 1     
   19    9   10 2     
   20    9   11 am    
   21   11   12 1     
   22   11   27 1     
   23   12   17 1     
   24   12   13 1     
   25   12   28 1     
   26   13   14 1     
   27   13   29 1     
   28   13   30 1     
   29   14   15 1     
   30   14   31 1     
   31   14   32 1     
   32   15   16 1     
   33   15   33 1     
   34   15   34 1     
   35   16   17 1     
   36   16   35 1     
   37   16   36 1     
   38   17   37 1     
   39   17   38 1     
   40    4   39 1     
   41   10   40 1     
   42   10   41 1     
@<TRIPOS>SUBSTRUCTURE
      1 S1             1
@<TRIPOS>SET
LONE_PAIRS      STATIC     ATOMS    <user>   **** ""
3 39 40 41
DONOR_HYDROGENS      STATIC     ATOMS    <user>   **** ""
1 27
ATOM$BLUE        STATIC     ATOMS    COLORGROUP SYSTEM
3 39 40 41
ATOM$RED        STATIC     ATOMS    COLORGROUP SYSTEM
1 27
