#       Name:                AV-unprocessed.smi:37
#       Creating user name   scv26
#       Creation time:       Thu Mar 26 16:14:34 2020


#       File generated by GOLD software.
#

@<TRIPOS>MOLECULE
AV-unprocessed.smi:37
    54    55     1
SMALL
NO_CHARGES


@<TRIPOS>ATOM
      1 ****        -3.3447   2.8947  -1.8885 C.3            1 S1                 0.0000
      2 ****        -3.5387   2.1138  -0.5815 C.3            1 S1                 0.0000
      3 ****        -3.0590   0.6675  -0.6874 C.2            1 S1                 0.0000
      4 ****        -3.8206  -0.2781  -0.4844 O.2            1 S1                 0.0000
      5 ****        -1.7565   0.5769  -0.9939 O.3            1 S1                 0.0000
      6 ****        -1.1326  -0.6935  -1.0665 C.3            1 S1                 0.0000
      7 ****         0.3728  -0.5040  -1.2946 C.3            1 S1                 0.0000
      8 ****         0.9774  -1.7240  -1.7288 O.3            1 S1                 0.0000
      9 ****         2.1993  -1.9322  -1.0762 C.3            1 S1                 0.0000
     10 ****         2.0601  -3.0599  -0.0700 N.am           1 S1                 0.0000
     11 ****         0.8206  -3.5561   0.3019 C.2            1 S1                 0.0000
     12 ****         0.7062  -4.5544   1.2013 C.2            1 S1                 0.0000
     13 ****        -0.5110  -5.0118   1.5413 F              1 S1                 0.0000
     14 ****         1.9084  -5.1325   1.7976 C.2            1 S1                 0.0000
     15 ****         1.7976  -6.0369   2.6238 O.2            1 S1                 0.0000
     16 ****         3.1165  -4.6360   1.4039 N.pl3          1 S1                -1.0000
     17 ****         3.2373  -3.6267   0.4927 C.2            1 S1                 0.0000
     18 ****         4.3238  -3.1739   0.1320 O.2            1 S1                 0.0000
     19 ****         2.5432  -0.6215  -0.3614 C.3            1 S1                 0.0000
     20 ****         3.5189   0.5697  -1.6320 Br             1 S1                 0.0000
     21 ****         1.1615  -0.0752  -0.0525 C.3            1 S1                 0.0000
     22 ****         1.2004   1.3351   0.1342 O.3            1 S1                 0.0000
     23 ****         0.3964   1.9304   1.0324 C.2            1 S1                 0.0000
     24 ****        -0.4138   1.3596   1.7648 O.2            1 S1                 0.0000
     25 ****         0.5857   3.4482   1.0490 C.3            1 S1                 0.0000
     26 ****        -0.4174   4.1818   1.9515 C.3            1 S1                 0.0000
     27 ****        -3.7487   3.9028  -1.7954 H              1 S1                 0.0000
     28 ****        -3.8552   2.4094  -2.7209 H              1 S1                 0.0000
     29 ****        -2.2892   2.9874  -2.1466 H              1 S1                 0.0000
     30 ****        -3.0001   2.6038   0.2300 H              1 S1                 0.0000
     31 ****        -4.5935   2.1140  -0.3056 H              1 S1                 0.0000
     32 ****        -1.3161  -1.2642  -0.1554 H              1 S1                 0.0000
     33 ****        -1.5667  -1.2500  -1.8980 H              1 S1                 0.0000
     34 ****         0.5333   0.2152  -2.0995 H              1 S1                 0.0000
     35 ****         2.9579  -2.2733  -1.7827 H              1 S1                 0.0000
     36 ****        -0.0826  -3.1523  -0.1260 H              1 S1                 0.0000
     37 ****         3.1680  -0.7658   0.5201 H              1 S1                 0.0000
     38 ****         0.7771  -0.5956   0.8264 H              1 S1                 0.0000
     39 ****         1.6025   3.6649   1.3768 H              1 S1                 0.0000
     40 ****         0.4977   3.8189   0.0275 H              1 S1                 0.0000
     41 ****        -0.2349   5.2561   1.9337 H              1 S1                 0.0000
     42 ****        -0.3383   3.8519   2.9879 H              1 S1                 0.0000
     43 ****        -1.4432   4.0165   1.6202 H              1 S1                 0.0000
     44 ****        -4.7763  -0.1078  -0.2443 LP             1 S1                 0.0000
     45 ****        -3.4836  -1.2166  -0.5597 LP             1 S1                 0.0000
     46 ****         1.1358  -1.6787  -2.7152 LP             1 S1                 0.0000
     47 ****         0.3625  -2.4857  -1.5246 LP             1 S1                 0.0000
     48 ****         0.8907  -6.3701   2.8818 LP             1 S1                 0.0000
     49 ****         2.6144  -6.4390   3.0375 LP             1 S1                 0.0000
     50 ****         3.9476  -5.0274   1.7989 LP             1 S1                 0.0000
     51 ****         4.3588  -2.4310  -0.5365 LP             1 S1                 0.0000
     52 ****         5.1713  -3.5491   0.5074 LP             1 S1                 0.0000
     53 ****        -0.5147   0.3657   1.7198 LP             1 S1                 0.0000
     54 ****        -0.9703   1.8903   2.4040 LP             1 S1                 0.0000
@<TRIPOS>BOND
    1    1    2 1     
    2    1   27 1     
    3    1   28 1     
    4    1   29 1     
    5    2    3 1     
    6    2   30 1     
    7    2   31 1     
    8    3    4 2     
    9    3    5 1     
   10    5    6 1     
   11    6    7 1     
   12    6   32 1     
   13    6   33 1     
   14    7   21 1     
   15    7    8 1     
   16    7   34 1     
   17    8    9 1     
   18    9   10 1     
   19    9   19 1     
   20    9   35 1     
   21   10   17 am    
   22   10   11 1     
   23   11   12 2     
   24   11   36 1     
   25   12   13 1     
   26   12   14 1     
   27   14   15 2     
   28   14   16 1     
   29   16   17 1     
   30   17   18 2     
   31   19   20 1     
   32   19   21 1     
   33   19   37 1     
   34   21   22 1     
   35   21   38 1     
   36   22   23 1     
   37   23   24 2     
   38   23   25 1     
   39   25   26 1     
   40   25   39 1     
   41   25   40 1     
   42   26   41 1     
   43   26   42 1     
   44   26   43 1     
   45    4   44 1     
   46    4   45 1     
   47    8   46 1     
   48    8   47 1     
   49   15   48 1     
   50   15   49 1     
   51   16   50 1     
   52   18   51 1     
   53   18   52 1     
   54   24   53 1     
   55   24   54 1     
@<TRIPOS>SUBSTRUCTURE
      1 S1             1
@<TRIPOS>SET
LONE_PAIRS      STATIC     ATOMS    <user>   **** ""
11 44 45 46 47 48 49 50 51 52 53 54
ATOM$BLUE        STATIC     ATOMS    COLORGROUP SYSTEM
11 44 45 46 47 48 49 50 51 52 53 54
