#       Name:                AV-unprocessed.smi:1285
#       Creating user name   scv26
#       Creation time:       Fri Mar 27 04:51:53 2020


#       File generated by GOLD software.
#

@<TRIPOS>MOLECULE
AV-unprocessed.smi:1285
    53    54     1
SMALL
NO_CHARGES


@<TRIPOS>ATOM
      1 ****        -1.0121  -0.6129   4.0144 C.3            1 S1                 0.0000
      2 ****        -1.3652  -1.2354   2.6515 C.3            1 S1                 0.0000
      3 ****        -1.0005  -0.3853   1.3963 C.3            1 S1                 0.0000
      4 ****        -1.6805   1.0042   1.5083 C.3            1 S1                 0.0000
      5 ****         0.5432  -0.1542   1.3532 C.3            1 S1                 0.0000
      6 ****         1.0317   0.3523   0.0699 N.am           1 S1                 0.0000
      7 ****         1.2365   1.6433  -0.2374 C.2            1 S1                 0.0000
      8 ****         1.0104   2.5647   0.5471 O.2            1 S1                 0.0000
      9 ****         1.7748   1.9283  -1.6483 C.3            1 S1                 0.0000
     10 ****         1.3853   3.3289  -2.1623 C.3            1 S1                 0.0000
     11 ****         3.2146   1.7076  -1.6945 N.pl3          1 S1                 0.0000
     12 ****         3.9088   0.6659  -2.1578 C.2            1 S1                 0.0000
     13 ****         5.2202   0.7805  -2.0034 N.2            1 S1                 0.0000
     14 ****         5.2716   1.9984  -1.3866 C.2            1 S1                 0.0000
     15 ****         4.0984   2.5925  -1.1696 N.2            1 S1                 0.0000
     16 ****        -1.4542  -1.0694   0.1290 N.4            1 S1                 1.0000
     17 ****        -0.8681  -2.4159  -0.1236 C.3            1 S1                 0.0000
     18 ****        -1.2246  -2.8980  -1.5387 C.3            1 S1                 0.0000
     19 ****        -2.6374  -2.9396  -1.6825 O.3            1 S1                 0.0000
     20 ****        -3.2223  -1.6550  -1.5203 C.3            1 S1                 0.0000
     21 ****        -2.9249  -1.1172  -0.1100 C.3            1 S1                 0.0000
     22 ****        -1.2926  -1.2883   4.8227 H              1 S1                 0.0000
     23 ****        -1.5405   0.3249   4.1846 H              1 S1                 0.0000
     24 ****         0.0565  -0.4240   4.1126 H              1 S1                 0.0000
     25 ****        -0.8675  -2.2036   2.6037 H              1 S1                 0.0000
     26 ****        -2.4333  -1.4507   2.6566 H              1 S1                 0.0000
     27 ****        -1.1998   1.6309   2.2598 H              1 S1                 0.0000
     28 ****        -2.7285   0.9261   1.7987 H              1 S1                 0.0000
     29 ****        -1.6377   1.5516   0.5663 H              1 S1                 0.0000
     30 ****         0.8612   0.5114   2.1571 H              1 S1                 0.0000
     31 ****         1.0708  -1.0879   1.5479 H              1 S1                 0.0000
     32 ****         1.2615  -0.3373  -0.6308 H              1 S1                 0.0000
     33 ****         1.3185   1.2017  -2.3229 H              1 S1                 0.0000
     34 ****         0.3027   3.4611  -2.1624 H              1 S1                 0.0000
     35 ****         1.7315   3.4768  -3.1855 H              1 S1                 0.0000
     36 ****         1.8148   4.1241  -1.5517 H              1 S1                 0.0000
     37 ****         3.4456  -0.1963  -2.6145 H              1 S1                 0.0000
     38 ****         6.2007   2.4573  -1.0822 H              1 S1                 0.0000
     39 ****         0.2162  -2.4052  -0.0280 H              1 S1                 0.0000
     40 ****        -1.2473  -3.1359   0.6021 H              1 S1                 0.0000
     41 ****        -0.7847  -2.2470  -2.2960 H              1 S1                 0.0000
     42 ****        -0.8244  -3.8981  -1.7067 H              1 S1                 0.0000
     43 ****        -2.8463  -0.9719  -2.2838 H              1 S1                 0.0000
     44 ****        -4.2990  -1.7369  -1.6707 H              1 S1                 0.0000
     45 ****        -3.4084  -1.7517   0.6329 H              1 S1                 0.0000
     46 ****        -3.3798  -0.1313  -0.0368 H              1 S1                 0.0000
     47 ****        -1.0941  -0.4815  -0.6091 H              1 S1                 0.0000
     48 ****         0.6573   2.3674   1.4617 LP             1 S1                 0.0000
     49 ****         1.1797   3.5104   0.2698 LP             1 S1                 0.0000
     50 ****         5.9575   0.1568  -2.2629 LP             1 S1                 0.0000
     51 ****         3.9153   3.4715  -0.7294 LP             1 S1                 0.0000
     52 ****        -3.0150  -3.5567  -0.9921 LP             1 S1                 0.0000
     53 ****        -2.8600  -3.2838  -2.5946 LP             1 S1                 0.0000
@<TRIPOS>BOND
    1    1    2 1     
    2    1   22 1     
    3    1   23 1     
    4    1   24 1     
    5    2    3 1     
    6    2   25 1     
    7    2   26 1     
    8    3    4 1     
    9    3    5 1     
   10    3   16 1     
   11    4   27 1     
   12    4   28 1     
   13    4   29 1     
   14    5    6 1     
   15    5   30 1     
   16    5   31 1     
   17    6    7 am    
   18    6   32 1     
   19    7    8 2     
   20    7    9 1     
   21    9   10 1     
   22    9   11 1     
   23    9   33 1     
   24   10   34 1     
   25   10   35 1     
   26   10   36 1     
   27   11   15 1     
   28   11   12 1     
   29   12   13 2     
   30   12   37 1     
   31   13   14 1     
   32   14   15 2     
   33   14   38 1     
   34   16   21 1     
   35   16   17 1     
   36   16   47 1     
   37   17   18 1     
   38   17   39 1     
   39   17   40 1     
   40   18   19 1     
   41   18   41 1     
   42   18   42 1     
   43   19   20 1     
   44   20   21 1     
   45   20   43 1     
   46   20   44 1     
   47   21   45 1     
   48   21   46 1     
   49    8   48 1     
   50    8   49 1     
   51   13   50 1     
   52   15   51 1     
   53   19   52 1     
   54   19   53 1     
@<TRIPOS>SUBSTRUCTURE
      1 S1             1
@<TRIPOS>SET
LONE_PAIRS      STATIC     ATOMS    <user>   **** ""
6 48 49 50 51 52 53
DONOR_HYDROGENS      STATIC     ATOMS    <user>   **** ""
2 32 47
ATOM$BLUE        STATIC     ATOMS    COLORGROUP SYSTEM
6 48 49 50 51 52 53
ATOM$RED        STATIC     ATOMS    COLORGROUP SYSTEM
2 32 47
