AV-unprocessed.smi:154|AV-procd|sdf|1266|dock1
  -GOLD-   2262018523D 1   1.00000     0.00000
 Structure written by MMmdl.
 53 57  0  0  0  0  0  0  0  0  1 V2000
  145.1602  134.4132  153.3067 O   0  0  0  0  0  0  0  0  0  0  0  0
  144.6451  134.8107  152.0473 C   0  0  0  0  0  0  0  0  0  0  0  0
  144.2551  136.3064  152.1495 C   0  0  0  0  0  0  0  0  0  0  0  0
  145.3080  137.1539  152.6892 N   0  0  0  0  0  0  0  0  0  0  0  0
  146.1371  137.9890  151.9802 C   0  0  0  0  0  0  0  0  0  0  0  0
  147.0079  138.6410  152.6983 N   0  0  0  0  0  0  0  0  0  0  0  0
  146.7667  138.2372  154.0088 C   0  0  0  0  0  0  0  0  0  0  0  0
  147.3428  138.5346  155.2858 C   0  0  0  0  0  0  0  0  0  0  0  0
  148.3731  139.3989  155.5295 N   0  0  0  0  0  0  0  0  0  0  0  0
  149.0721  139.3525  156.8173 C   0  0  2  0  0  0  0  0  0  0  0  0
  149.4222  140.7876  157.2745 C   0  0  0  0  0  0  0  0  0  0  0  0
  150.1129  141.6559  156.2044 C   0  0  0  0  0  0  0  0  0  0  0  0
  149.5582  141.4170  154.7867 C   0  0  0  0  0  0  0  0  0  0  0  0
  149.2165  139.9432  154.4669 C   0  0  1  0  0  0  0  0  0  0  0  0
  150.4337  139.0112  154.2300 C   0  0  0  0  0  0  0  0  0  0  0  0
  151.1931  138.6035  155.5135 C   0  0  0  0  0  0  0  0  0  0  0  0
  151.8578  137.4744  155.2670 F   0  0  0  0  0  0  0  0  0  0  0  0
  152.1098  139.5162  155.8194 F   0  0  0  0  0  0  0  0  0  0  0  0
  150.2567  138.3624  156.7186 C   0  0  0  0  0  0  0  0  0  0  0  0
  146.7925  137.9074  156.3599 N   0  0  0  0  0  0  0  0  0  0  0  0
  145.7774  137.0530  156.2178 C   0  0  0  0  0  0  0  0  0  0  0  0
  145.1559  136.6797  155.1010 N   0  0  0  0  0  0  0  0  0  0  0  0
  145.6885  137.3014  154.0117 C   0  0  0  0  0  0  0  0  0  0  0  0
  145.7466  134.6116  150.9865 C   0  0  0  0  0  0  0  0  0  0  0  0
  146.0469  133.1235  150.7330 C   0  0  0  0  0  0  0  0  0  0  0  0
  144.8526  132.4413  150.3703 O   0  0  0  0  0  0  0  0  0  0  0  0
  143.8765  132.4566  151.4047 C   0  0  0  0  0  0  0  0  0  0  0  0
  143.4433  133.9028  151.7041 C   0  0  0  0  0  0  0  0  0  0  0  0
  144.6138  133.7233  153.6507 H   0  0  0  0  0  0  0  0  0  0  0  0
  143.9725  136.6941  151.1697 H   0  0  0  0  0  0  0  0  0  0  0  0
  143.3741  136.4190  152.7827 H   0  0  0  0  0  0  0  0  0  0  0  0
  146.0806  138.0946  150.9067 H   0  0  0  0  0  0  0  0  0  0  0  0
  148.4222  138.9600  157.5985 H   0  0  0  0  0  0  0  0  0  0  0  0
  148.4891  141.2810  157.5495 H   0  0  0  0  0  0  0  0  0  0  0  0
  150.0228  140.7632  158.1841 H   0  0  0  0  0  0  0  0  0  0  0  0
  149.9885  142.7076  156.4639 H   0  0  0  0  0  0  0  0  0  0  0  0
  151.1875  141.5106  156.2241 H   0  0  0  0  0  0  0  0  0  0  0  0
  148.6399  141.9975  154.6877 H   0  0  0  0  0  0  0  0  0  0  0  0
  150.2443  141.8207  154.0416 H   0  0  0  0  0  0  0  0  0  0  0  0
  148.6487  139.9941  153.5404 H   0  0  0  0  0  0  0  0  0  0  0  0
  150.0680  138.0960  153.7659 H   0  0  0  0  0  0  0  0  0  0  0  0
  151.1188  139.4494  153.5037 H   0  0  0  0  0  0  0  0  0  0  0  0
  150.8267  138.3475  157.6481 H   0  0  0  0  0  0  0  0  0  0  0  0
  149.8319  137.3622  156.6189 H   0  0  0  0  0  0  0  0  0  0  0  0
  145.4114  136.6053  157.1298 H   0  0  0  0  0  0  0  0  0  0  0  0
  145.4264  135.0610  150.0456 H   0  0  0  0  0  0  0  0  0  0  0  0
  146.6593  135.1333  151.2775 H   0  0  0  0  0  0  0  0  0  0  0  0
  146.7668  133.0233  149.9208 H   0  0  0  0  0  0  0  0  0  0  0  0
  146.4959  132.6561  151.6108 H   0  0  0  0  0  0  0  0  0  0  0  0
  143.0158  131.8707  151.0821 H   0  0  0  0  0  0  0  0  0  0  0  0
  144.2700  131.9714  152.2992 H   0  0  0  0  0  0  0  0  0  0  0  0
  142.7100  133.9040  152.5115 H   0  0  0  0  0  0  0  0  0  0  0  0
  142.9330  134.2999  150.8258 H   0  0  0  0  0  0  0  0  0  0  0  0
  1  2  1  0  0  0  0
  1 29  1  0  0  0  0
  2 28  1  0  0  0  0
  2  3  1  0  0  0  0
  2 24  1  0  0  0  0
  3  4  1  0  0  0  0
  3 30  1  0  0  0  0
  3 31  1  0  0  0  0
  4 23  1  0  0  0  0
  4  5  1  0  0  0  0
  5  6  2  0  0  0  0
  5 32  1  0  0  0  0
  6  7  1  0  0  0  0
  7 23  2  0  0  0  0
  7  8  1  0  0  0  0
  8  9  1  0  0  0  0
  8 20  2  0  0  0  0
  9 14  1  0  0  0  0
  9 10  1  0  0  0  0
 10 19  1  0  0  0  0
 10 11  1  0  0  0  0
 10 33  1  0  0  0  0
 11 12  1  0  0  0  0
 11 34  1  0  0  0  0
 11 35  1  0  0  0  0
 12 13  1  0  0  0  0
 12 36  1  0  0  0  0
 12 37  1  0  0  0  0
 13 14  1  0  0  0  0
 13 38  1  0  0  0  0
 13 39  1  0  0  0  0
 14 15  1  0  0  0  0
 14 40  1  0  0  0  0
 15 16  1  0  0  0  0
 15 41  1  0  0  0  0
 15 42  1  0  0  0  0
 16 17  1  0  0  0  0
 16 18  1  0  0  0  0
 16 19  1  0  0  0  0
 19 43  1  0  0  0  0
 19 44  1  0  0  0  0
 20 21  1  0  0  0  0
 21 22  2  0  0  0  0
 21 45  1  0  0  0  0
 22 23  1  0  0  0  0
 24 25  1  0  0  0  0
 24 46  1  0  0  0  0
 24 47  1  0  0  0  0
 25 26  1  0  0  0  0
 25 48  1  0  0  0  0
 25 49  1  0  0  0  0
 26 27  1  0  0  0  0
 27 28  1  0  0  0  0
 27 50  1  0  0  0  0
 27 51  1  0  0  0  0
 28 52  1  0  0  0  0
 28 53  1  0  0  0  0
M  END
> <s_m_source_file>
AV-unprocessed.smi

> <i_m_source_file_index>
154

> <i_lp_mmshare_version>
43012

> <i_f3d_flags>
0

> <s_epik_input>
W0NIMl0xW0NIMl1PW0NIMl1bQ0gyXUMxKFtPSF0pW0NIMl1uKFtjSF1uMiljKGMyMyluW2NIXW5jM04oW0NAQEhdNDUpW0NIXShbQ0gyXVtDSDJdW0NIMl00KVtDSDJdQyhGKShGKVtDSDJdNQ==

> <s_epik_cmdline>
J2VwaWtfcHl0aG9uJywgJy1waCcsICc3LjAnLCAnLXRuJywgJzgnLCAnLW1hJywgJzIwMCcsICctbWV0YWxfYmluZGluZycsICctaW1hZScsICc8aW5maWxlLm1hZT4nLCAnLW9tYWUnLCAnPG91dGZpbGUubWFlPic=

> <r_lp_tautomer_probability>
1

> <r_epik_Ionization_Penalty>
0.00333769

> <r_epik_Ionization_Penalty_Charging>
0

> <r_epik_Ionization_Penalty_Neutral>
0.00333769

> <r_epik_State_Penalty>
0.0022021

> <r_epik_Charging_Adjusted_Penalty>
0.0022021

> <i_epik_Tot_Q>
0

> <i_epik_Tot_abs_Q>
0

> <r_epik_Metal_State_Penalty>
-0

> <b_epik_Metal_Only>
0

> <s_lp_Force_Field>
OPLS_2005

> <r_lp_Energy>
50.9218

> <b_lp_Chiralities_Consistent>
1

> <s_lp_Variant>
AV-unprocessed.smi:154-1

> <Gold.Version>
5.8.1

> <Gold.Id.Protein>
6NUR|6NUR_protein|mol2

> <Gold.PLP.Fitness>
39.2570

> <Gold.PLP.PLP>
-37.0495

> <Gold.PLP.part.hbond>
0.0000

> <Gold.PLP.part.metal>
0.0000

> <Gold.PLP.part.buried>
-2.2045

> <Gold.PLP.part.nonpolar>
-35.1285

> <Gold.PLP.part.repulsive>
0.4342

> <Gold.PLP.ligand.clash>
0.0000

> <Gold.PLP.ligand.torsion>
0.3866

> <Gold.PLP.Chemscore.Hbond>
0.0000

> <Gold.PLP.Chemscore.CHOScore>
0.9239

> <Gold.PLP.Chemscore.Metal>
0.0000

> <Gold.Chemscore.Hbonds>
donor molecule, donor type, donor heavy atom, donor atom, acceptor molecule, acceptor atom, score
      L1  C     5    32       P1 10171  0.81

> <Gold.PLP.Chemscore.Internal.Correction>
0.2090

> <Gold.Rescore>
     Score         DG    S(hbond)    S(metal)    S(lipo)     H(rot)  DE(clash)    DE(int)     intcor
      9.25     -10.87       0.00        0.00      85.09       1.78       0.12       1.50       ----

> <Gold.Chemscore.Fitness>
9.2456

> <Gold.Chemscore.DG>
-10.8669

> <Gold.Chemscore.ZeroCoef>
-5.4800

> <Gold.Chemscore.Hbond>
0.0000

> <Gold.Chemscore.Metal>
0.0000

> <Gold.Chemscore.Lipo>
85.0885

> <Gold.Chemscore.Internal_Hbond>
0.0000

> <Gold.Chemscore.DEClash>
0.1197

> <Gold.Chemscore.DEInternal>
1.5016

> <Gold.Chemscore.Rot>
1.7845

> <Gold.Chemscore.Internal.Correction>
   9.000000E+99

> <Gold.Chemscore.Hbond.Weighted>
-0.0000

> <Gold.Chemscore.Metal.Weighted>
-0.0000

> <Gold.Chemscore.Lipo.Weighted>
-9.9554

> <Gold.Chemscore.Internal_Hbond.Weighted>
0.0000

> <Gold.Chemscore.DEClash.Weighted>
0.1197

> <Gold.Chemscore.DEInternal.Weighted>
1.5016

> <Gold.Chemscore.Rot.Weighted>
4.5684

> <Gold.Chemscore.Internal.Correction.Weighted>
   9.000000E+99

> <Gold.Protein.RotatedTorsions>
[ 6907 6896 6895 6894 ] final   24.60 input  -60.11 | X-H torsion
[ 7974 7965 7964 7962 ] final  121.38 input  175.53 | X-H torsion
[ 8008 7997 7996 7995 ] final   -8.53 input   59.86 | X-H torsion
[ 10167 10162 10161 10158 ] final   77.29 input  -65.29 | X-H torsion
[ 10718 10713 10712 10709 ] final   45.34 input   66.30 | X-H torsion
[ 10763 10752 10751 10750 ] final -148.78 input  -60.55 | X-H torsion
[ 11005 11000 10999 10996 ] final  154.50 input  -57.11 | X-H torsion

> <Gold.Protein.ActiveResidues>
 VAL166  LYS551  ARG553  GLY616  TRP617  ASP618  TYR619  PRO620  LYS621  CYS622 
 ASP623  PHE694  ASN695  SER759  ASP760  ASP761  ALA762  ILE779  LEU786  VAL792 
 PHE793  MET794  SER795  GLU796  ALA797  LYS798  CYS799  TRP800  GLU811  SER814 

> <Gold.Protein.RotatedAtoms>
  151.9600  135.0128  160.0546 H   0  0  0  0  0  0  0  0  0  0  0  0  # atno 6907 bound_to 6896
  152.1877  133.4747  159.5000 H   0  0  0  0  0  0  0  0  0  0  0  0  # atno 6908 bound_to 6896
  150.6929  134.1669  159.4240 H   0  0  0  0  0  0  0  0  0  0  0  0  # atno 6909 bound_to 6896
  145.1200  139.3395  143.4719 H   0  0  0  0  0  0  0  0  0  0  0  0  # atno 7974 bound_to 7965
  154.5732  140.2378  155.8161 H   0  0  0  0  0  0  0  0  0  0  0  0  # atno 8008 bound_to 7997
  156.2123  140.3022  155.9717 H   0  0  0  0  0  0  0  0  0  0  0  0  # atno 8009 bound_to 7997
  155.2674  140.0417  157.2994 H   0  0  0  0  0  0  0  0  0  0  0  0  # atno 8010 bound_to 7997
  139.9831  144.5812  150.7883 H   0  0  0  0  0  0  0  0  0  0  0  0  # atno 10167 bound_to 10162
  157.4365  130.8056  149.7653 H   0  0  0  0  0  0  0  0  0  0  0  0  # atno 10718 bound_to 10713
  154.8214  135.3326  154.7026 H   0  0  0  0  0  0  0  0  0  0  0  0  # atno 10763 bound_to 10752
  153.7658  135.6929  153.4920 H   0  0  0  0  0  0  0  0  0  0  0  0  # atno 10764 bound_to 10752
  153.2078  135.4493  155.0293 H   0  0  0  0  0  0  0  0  0  0  0  0  # atno 10765 bound_to 10752
  140.1495  134.8684  157.2436 H   0  0  0  0  0  0  0  0  0  0  0  0  # atno 11005 bound_to 11000
  146.3521  140.1156  142.8602 LP  0  0  0  0  0  0  0  0  0  0  0  0  # atno 17320 bound_to 7965
  145.0751  140.9182  143.4859 LP  0  0  0  0  0  0  0  0  0  0  0  0  # atno 17321 bound_to 7965
  140.7482  143.2918  151.3310 LP  0  0  0  0  0  0  0  0  0  0  0  0  # atno 17342 bound_to 10162
  139.6395  144.0566  152.2543 LP  0  0  0  0  0  0  0  0  0  0  0  0  # atno 17343 bound_to 10162
  155.9932  130.3925  150.2908 LP  0  0  0  0  0  0  0  0  0  0  0  0  # atno 17370 bound_to 10713
  157.1069  131.0211  151.3063 LP  0  0  0  0  0  0  0  0  0  0  0  0  # atno 17371 bound_to 10713
  140.2622  134.3557  155.7402 LP  0  0  0  0  0  0  0  0  0  0  0  0  # atno 17394 bound_to 11000
  141.2197  133.7376  156.9098 LP  0  0  0  0  0  0  0  0  0  0  0  0  # atno 17395 bound_to 11000

$$$$
