#       Name:                AV-unprocessed.smi:1849
#       Creating user name   scv26
#       Creation time:       Fri Mar 27 09:23:01 2020


#       File generated by GOLD software.
#

@<TRIPOS>MOLECULE
AV-unprocessed.smi:1849
    43    44     1
SMALL
NO_CHARGES


@<TRIPOS>ATOM
      1 ****        -2.6241   3.5638  -1.2044 C.3            1 S1                 0.0000
      2 ****        -2.6916   4.0750   0.1513 N.pl3          1 S1                 0.0000
      3 ****        -3.2449   5.2878   0.5401 C.2            1 S1                 0.0000
      4 ****        -3.0873   5.3740   1.9023 C.2            1 S1                 0.0000
      5 ****        -2.4439   4.2314   2.3658 N.2            1 S1                 0.0000
      6 ****        -2.2418   3.4920   1.2793 C.2            1 S1                 0.0000
      7 ****        -1.5511   2.1644   1.2937 C.3            1 S1                 0.0000
      8 ****        -0.0252   2.2973   1.1633 C.3            1 S1                 0.0000
      9 ****         0.6296   0.9948   1.1729 N.am           1 S1                 0.0000
     10 ****         0.7121   0.1730   0.1173 C.2            1 S1                 0.0000
     11 ****         0.2409   0.4263  -0.9919 O.2            1 S1                 0.0000
     12 ****         1.3651  -0.9583   0.4176 N.am           1 S1                 0.0000
     13 ****         1.6202  -2.0558  -0.5106 C.3            1 S1                 0.0000
     14 ****         0.3862  -2.9761  -0.6192 C.3            1 S1                 0.0000
     15 ****         0.6631  -4.1845  -1.5282 C.3            1 S1                 0.0000
     16 ****         1.8964  -4.9692  -1.0543 C.3            1 S1                 0.0000
     17 ****         3.1285  -4.0561  -0.9552 C.3            1 S1                 0.0000
     18 ****         2.8548  -2.8498  -0.0427 C.3            1 S1                 0.0000
     19 ****        -2.9533   4.3262  -1.9109 H              1 S1                 0.0000
     20 ****        -3.2690   2.6902  -1.3010 H              1 S1                 0.0000
     21 ****        -1.5989   3.2814  -1.4452 H              1 S1                 0.0000
     22 ****        -3.6902   5.9726  -0.1663 H              1 S1                 0.0000
     23 ****        -3.3828   6.1629   2.5781 H              1 S1                 0.0000
     24 ****        -1.7983   1.6578   2.2275 H              1 S1                 0.0000
     25 ****        -1.9534   1.5398   0.4957 H              1 S1                 0.0000
     26 ****         0.2365   2.8371   0.2517 H              1 S1                 0.0000
     27 ****         0.3688   2.8834   1.9940 H              1 S1                 0.0000
     28 ****         1.0460   0.6993   2.0438 H              1 S1                 0.0000
     29 ****         1.7126  -1.0703   1.3587 H              1 S1                 0.0000
     30 ****         1.8386  -1.6419  -1.4971 H              1 S1                 0.0000
     31 ****         0.0995  -3.3284   0.3727 H              1 S1                 0.0000
     32 ****        -0.4676  -2.4190  -1.0065 H              1 S1                 0.0000
     33 ****        -0.2082  -4.8397  -1.5515 H              1 S1                 0.0000
     34 ****         0.8198  -3.8421  -2.5518 H              1 S1                 0.0000
     35 ****         1.6934  -5.4169  -0.0805 H              1 S1                 0.0000
     36 ****         2.0976  -5.7940  -1.7385 H              1 S1                 0.0000
     37 ****         3.9813  -4.6214  -0.5779 H              1 S1                 0.0000
     38 ****         3.4055  -3.7063  -1.9506 H              1 S1                 0.0000
     39 ****         3.7311  -2.2007  -0.0209 H              1 S1                 0.0000
     40 ****         2.7041  -3.1999   0.9797 H              1 S1                 0.0000
     41 ****        -2.1895   4.0139   3.3081 LP             1 S1                 0.0000
     42 ****        -0.2386   1.2902  -1.1461 LP             1 S1                 0.0000
     43 ****         0.3377  -0.2319  -1.7385 LP             1 S1                 0.0000
@<TRIPOS>BOND
    1    1    2 1     
    2    1   19 1     
    3    1   20 1     
    4    1   21 1     
    5    2    6 1     
    6    2    3 1     
    7    3    4 2     
    8    3   22 1     
    9    4    5 1     
   10    4   23 1     
   11    5    6 2     
   12    6    7 1     
   13    7    8 1     
   14    7   24 1     
   15    7   25 1     
   16    8    9 1     
   17    8   26 1     
   18    8   27 1     
   19    9   10 am    
   20    9   28 1     
   21   10   11 2     
   22   10   12 am    
   23   12   13 1     
   24   12   29 1     
   25   13   18 1     
   26   13   14 1     
   27   13   30 1     
   28   14   15 1     
   29   14   31 1     
   30   14   32 1     
   31   15   16 1     
   32   15   33 1     
   33   15   34 1     
   34   16   17 1     
   35   16   35 1     
   36   16   36 1     
   37   17   18 1     
   38   17   37 1     
   39   17   38 1     
   40   18   39 1     
   41   18   40 1     
   42    5   41 1     
   43   11   42 1     
   44   11   43 1     
@<TRIPOS>SUBSTRUCTURE
      1 S1             1
@<TRIPOS>SET
LONE_PAIRS      STATIC     ATOMS    <user>   **** ""
3 41 42 43
DONOR_HYDROGENS      STATIC     ATOMS    <user>   **** ""
2 28 29
ATOM$BLUE        STATIC     ATOMS    COLORGROUP SYSTEM
3 41 42 43
ATOM$RED        STATIC     ATOMS    COLORGROUP SYSTEM
2 28 29
