AV-unprocessed.smi:83|AV-procd|sdf|802|dock5
  -GOLD-   2262017193D 1   1.00000     0.00000
 Structure written by MMmdl.
 56 59  0  0  0  0  0  0  0  0  1 V2000
  154.0444  139.1015  160.6312 C   0  0  0  0  0  0  0  0  0  0  0  0
  154.2439  140.6158  160.5523 C   0  0  0  0  0  0  0  0  0  0  0  0
  155.3500  141.0855  160.8173 O   0  0  0  0  0  0  0  0  0  0  0  0
  153.1963  141.3855  160.1934 N   0  0  0  0  0  0  0  0  0  0  0  0
  153.2546  142.8408  160.0865 C   0  0  0  0  0  0  0  0  0  0  0  0
  151.8317  143.2817  159.7291 C   0  0  0  0  0  0  0  0  0  0  0  0
  151.2189  142.0652  159.0362 C   0  0  1  0  0  0  0  0  0  0  0  0
  151.5407  142.0970  157.5216 C   0  0  0  0  0  0  0  0  0  0  0  0
  151.1736  140.8760  156.8021 N   0  0  0  0  0  0  0  0  0  0  0  0
  152.1723  139.8093  156.7540 C   0  0  0  0  0  0  0  0  0  0  0  0
  150.1392  140.8523  155.9073 C   0  0  0  0  0  0  0  0  0  0  0  0
  150.3649  140.2943  154.6859 N   0  0  0  0  0  0  0  0  0  0  0  0
  149.4163  140.2764  153.7471 C   0  0  0  0  0  0  0  0  0  0  0  0
  148.1763  140.7585  153.8087 N   0  0  0  0  0  0  0  0  0  0  0  0
  147.9238  141.3074  155.0292 C   0  0  0  0  0  0  0  0  0  0  0  0
  148.8300  141.3890  156.1290 C   0  0  0  0  0  0  0  0  0  0  0  0
  148.1863  142.0081  157.1969 N   0  0  0  0  0  0  0  0  0  0  0  0
  146.9963  142.2971  156.7514 C   0  0  0  0  0  0  0  0  0  0  0  0
  146.7559  141.9155  155.4545 N   0  0  0  0  0  0  0  0  0  0  0  0
  145.5275  142.1245  154.7090 C   0  0  0  0  0  0  0  0  0  0  0  0
  145.3843  143.5787  154.2189 C   0  0  1  0  0  0  0  0  0  0  0  0
  145.3637  143.5923  152.8045 O   0  0  0  0  0  0  0  0  0  0  0  0
  144.0989  144.2467  154.7395 C   0  0  2  0  0  0  0  0  0  0  0  0
  143.8765  145.6744  154.2359 C   0  0  0  0  0  0  0  0  0  0  0  0
  143.0159  146.3095  155.3172 C   0  0  0  0  0  0  0  0  0  0  0  0
  143.1346  145.3470  156.5015 C   0  0  0  0  0  0  0  0  0  0  0  0
  144.1722  144.4458  156.1429 O   0  0  0  0  0  0  0  0  0  0  0  0
  151.8709  140.9070  159.8081 C   0  0  0  0  0  0  0  0  0  0  0  0
  153.2277  138.8537  161.3096 H   0  0  0  0  0  0  0  0  0  0  0  0
  154.9474  138.6116  160.9967 H   0  0  0  0  0  0  0  0  0  0  0  0
  153.8177  138.6921  159.6474 H   0  0  0  0  0  0  0  0  0  0  0  0
  153.5961  143.3037  161.0133 H   0  0  0  0  0  0  0  0  0  0  0  0
  153.9522  143.1131  159.2929 H   0  0  0  0  0  0  0  0  0  0  0  0
  151.2783  143.4930  160.6452 H   0  0  0  0  0  0  0  0  0  0  0  0
  151.8107  144.1859  159.1197 H   0  0  0  0  0  0  0  0  0  0  0  0
  150.1364  142.0525  159.1695 H   0  0  0  0  0  0  0  0  0  0  0  0
  150.9671  142.9092  157.0738 H   0  0  0  0  0  0  0  0  0  0  0  0
  152.5706  142.3885  157.3482 H   0  0  0  0  0  0  0  0  0  0  0  0
  151.6991  138.8302  156.8362 H   0  0  0  0  0  0  0  0  0  0  0  0
  152.8835  139.9003  157.5753 H   0  0  0  0  0  0  0  0  0  0  0  0
  152.7341  139.8490  155.8202 H   0  0  0  0  0  0  0  0  0  0  0  0
  149.6935  139.8159  152.8102 H   0  0  0  0  0  0  0  0  0  0  0  0
  146.2605  142.8053  157.3578 H   0  0  0  0  0  0  0  0  0  0  0  0
  145.4979  141.4279  153.8700 H   0  0  0  0  0  0  0  0  0  0  0  0
  144.6926  141.8613  155.3596 H   0  0  0  0  0  0  0  0  0  0  0  0
  146.2486  144.1567  154.5492 H   0  0  0  0  0  0  0  0  0  0  0  0
  144.5460  143.2186  152.5133 H   0  0  0  0  0  0  0  0  0  0  0  0
  143.2262  143.6302  154.5138 H   0  0  0  0  0  0  0  0  0  0  0  0
  144.8280  146.2039  154.1709 H   0  0  0  0  0  0  0  0  0  0  0  0
  143.4088  145.7038  153.2514 H   0  0  0  0  0  0  0  0  0  0  0  0
  143.3809  147.3059  155.5682 H   0  0  0  0  0  0  0  0  0  0  0  0
  141.9768  146.4023  154.9996 H   0  0  0  0  0  0  0  0  0  0  0  0
  143.3646  145.8583  157.4364 H   0  0  0  0  0  0  0  0  0  0  0  0
  142.2066  144.7895  156.6371 H   0  0  0  0  0  0  0  0  0  0  0  0
  151.8915  139.9783  159.2435 H   0  0  0  0  0  0  0  0  0  0  0  0
  151.3082  140.7074  160.7211 H   0  0  0  0  0  0  0  0  0  0  0  0
  1  2  1  0  0  0  0
  1 29  1  0  0  0  0
  1 30  1  0  0  0  0
  1 31  1  0  0  0  0
  2  3  2  0  0  0  0
  2  4  1  0  0  0  0
  4 28  1  0  0  0  0
  4  5  1  0  0  0  0
  5  6  1  0  0  0  0
  5 32  1  0  0  0  0
  5 33  1  0  0  0  0
  6  7  1  0  0  0  0
  6 34  1  0  0  0  0
  6 35  1  0  0  0  0
  7  8  1  0  0  0  0
  7 28  1  0  0  0  0
  7 36  1  0  0  0  0
  8  9  1  0  0  0  0
  8 37  1  0  0  0  0
  8 38  1  0  0  0  0
  9 10  1  0  0  0  0
  9 11  1  0  0  0  0
 10 39  1  0  0  0  0
 10 40  1  0  0  0  0
 10 41  1  0  0  0  0
 11 16  1  0  0  0  0
 11 12  2  0  0  0  0
 12 13  1  0  0  0  0
 13 14  2  0  0  0  0
 13 42  1  0  0  0  0
 14 15  1  0  0  0  0
 15 19  1  0  0  0  0
 15 16  2  0  0  0  0
 16 17  1  0  0  0  0
 17 18  2  0  0  0  0
 18 19  1  0  0  0  0
 18 43  1  0  0  0  0
 19 20  1  0  0  0  0
 20 21  1  0  0  0  0
 20 44  1  0  0  0  0
 20 45  1  0  0  0  0
 21 22  1  0  0  0  0
 21 23  1  0  0  0  0
 21 46  1  0  0  0  0
 22 47  1  0  0  0  0
 23 27  1  0  0  0  0
 23 24  1  0  0  0  0
 23 48  1  0  0  0  0
 24 25  1  0  0  0  0
 24 49  1  0  0  0  0
 24 50  1  0  0  0  0
 25 26  1  0  0  0  0
 25 51  1  0  0  0  0
 25 52  1  0  0  0  0
 26 27  1  0  0  0  0
 26 53  1  0  0  0  0
 26 54  1  0  0  0  0
 28 55  1  0  0  0  0
 28 56  1  0  0  0  0
M  END
> <s_m_source_file>
AV-unprocessed.smi

> <i_m_source_file_index>
83

> <i_lp_mmshare_version>
43012

> <i_f3d_flags>
0

> <s_epik_input>
W0NIM11DKD1PKU4xW0NIMl1bQ0gyXVtDQEhdKFtDSDJdMSlbQ0gyXU4oW0NIM10pYyhuW2NIXW4yKWMoYzIzKW5bY0hdbjNbQ0gyXVtDQEhdKFtPSF0pW0NAQEhdNFtDSDJdW0NIMl1bQ0gyXU80

> <s_epik_cmdline>
J2VwaWtfcHl0aG9uJywgJy1waCcsICc3LjAnLCAnLXRuJywgJzgnLCAnLW1hJywgJzIwMCcsICctbWV0YWxfYmluZGluZycsICctaW1hZScsICc8aW5maWxlLm1hZT4nLCAnLW9tYWUnLCAnPG91dGZpbGUubWFlPic=

> <r_lp_tautomer_probability>
1

> <r_epik_Ionization_Penalty>
0.00109752

> <r_epik_Ionization_Penalty_Charging>
0

> <r_epik_Ionization_Penalty_Neutral>
0.00109752

> <r_epik_State_Penalty>
0.000634803

> <r_epik_Charging_Adjusted_Penalty>
0.000634803

> <i_epik_Tot_Q>
0

> <i_epik_Tot_abs_Q>
0

> <r_epik_Metal_State_Penalty>
-0

> <b_epik_Metal_Only>
0

> <s_lp_Force_Field>
OPLS_2005

> <r_lp_Energy>
53.2546

> <b_lp_Chiralities_Consistent>
1

> <s_lp_Variant>
AV-unprocessed.smi:83-3

> <Gold.Version>
5.8.1

> <Gold.Id.Protein>
6NUR|6NUR_protein|mol2

> <Gold.PLP.Fitness>
49.8121

> <Gold.PLP.PLP>
-46.6210

> <Gold.PLP.part.hbond>
-3.0000

> <Gold.PLP.part.metal>
0.0000

> <Gold.PLP.part.buried>
-2.0713

> <Gold.PLP.part.nonpolar>
-41.5599

> <Gold.PLP.part.repulsive>
1.3280

> <Gold.PLP.ligand.clash>
0.0000

> <Gold.PLP.ligand.torsion>
1.8690

> <Gold.PLP.Chemscore.Hbond>
1.8299

> <Gold.PLP.Chemscore.CHOScore>
0.3333

> <Gold.PLP.Chemscore.Metal>
0.0000

> <Gold.Chemscore.Hbonds>
donor molecule, donor type, donor heavy atom, donor atom, acceptor molecule, acceptor atom, score
      L1  H    22    47       P1 10174  0.10
      P1  H  7989  7998       L1    12  0.60
      L1  C    13    42       P1  7957  0.09

> <Gold.PLP.Chemscore.Internal.Correction>
0.4395

> <Gold.Rescore>
     Score         DG    S(hbond)    S(metal)    S(lipo)     H(rot)  DE(clash)    DE(int)     intcor
      8.59     -12.03       0.53        0.00      98.04       2.62       1.69       1.75       ----

> <Gold.Chemscore.Fitness>
8.5867

> <Gold.Chemscore.DG>
-12.0267

> <Gold.Chemscore.ZeroCoef>
-5.4800

> <Gold.Chemscore.Hbond>
0.5300

> <Gold.Chemscore.Metal>
0.0000

> <Gold.Chemscore.Lipo>
98.0449

> <Gold.Chemscore.Internal_Hbond>
0.0000

> <Gold.Chemscore.DEClash>
1.6927

> <Gold.Chemscore.DEInternal>
1.7473

> <Gold.Chemscore.Rot>
2.6152

> <Gold.Chemscore.Internal.Correction>
   9.000000E+99

> <Gold.Chemscore.Hbonds>
donor molecule, donor type, donor heavy atom, donor atom, acceptor molecule, acceptor atom, score
      P1  H  7989  7998       L1    12  0.04

> <Gold.Chemscore.Hbond.Weighted>
-1.7703

> <Gold.Chemscore.Metal.Weighted>
-0.0000

> <Gold.Chemscore.Lipo.Weighted>
-11.4713

> <Gold.Chemscore.Internal_Hbond.Weighted>
0.0000

> <Gold.Chemscore.DEClash.Weighted>
1.6927

> <Gold.Chemscore.DEInternal.Weighted>
1.7473

> <Gold.Chemscore.Rot.Weighted>
6.6949

> <Gold.Chemscore.Internal.Correction.Weighted>
   9.000000E+99

> <Gold.Protein.RotatedTorsions>
[ 6907 6896 6895 6894 ] final -130.92 input  -60.11 | X-H torsion
[ 7974 7965 7964 7962 ] final   90.89 input  175.53 | X-H torsion
[ 8008 7997 7996 7995 ] final    3.80 input   59.86 | X-H torsion
[ 10167 10162 10161 10158 ] final -104.01 input  -65.29 | X-H torsion
[ 10718 10713 10712 10709 ] final   28.96 input   66.30 | X-H torsion
[ 10763 10752 10751 10750 ] final -159.12 input  -60.55 | X-H torsion
[ 11005 11000 10999 10996 ] final  140.38 input  -57.11 | X-H torsion

> <Gold.Protein.ActiveResidues>
 VAL166  LYS551  ARG553  GLY616  TRP617  ASP618  TYR619  PRO620  LYS621  CYS622 
 ASP623  PHE694  ASN695  SER759  ASP760  ASP761  ALA762  ILE779  LEU786  VAL792 
 PHE793  MET794  SER795  GLU796  ALA797  LYS798  CYS799  TRP800  GLU811  SER814 

> <Gold.Protein.RotatedAtoms>
  150.9451  133.6612  159.2782 H   0  0  0  0  0  0  0  0  0  0  0  0  # atno 6907 bound_to 6896
  151.3987  135.0966  159.9559 H   0  0  0  0  0  0  0  0  0  0  0  0  # atno 6908 bound_to 6896
  152.5086  133.8950  159.7467 H   0  0  0  0  0  0  0  0  0  0  0  0  # atno 6909 bound_to 6896
  145.5130  139.2277  143.2714 H   0  0  0  0  0  0  0  0  0  0  0  0  # atno 7974 bound_to 7965
  154.7081  140.2687  155.6655 H   0  0  0  0  0  0  0  0  0  0  0  0  # atno 8008 bound_to 7997
  156.2786  140.2759  156.1637 H   0  0  0  0  0  0  0  0  0  0  0  0  # atno 8009 bound_to 7997
  155.0673  140.0372  157.2587 H   0  0  0  0  0  0  0  0  0  0  0  0  # atno 8010 bound_to 7997
  140.2138  143.3726  152.1028 H   0  0  0  0  0  0  0  0  0  0  0  0  # atno 10167 bound_to 10162
  157.2403  130.7066  149.6355 H   0  0  0  0  0  0  0  0  0  0  0  0  # atno 10718 bound_to 10713
  154.7501  135.3090  154.8573 H   0  0  0  0  0  0  0  0  0  0  0  0  # atno 10763 bound_to 10752
  153.9363  135.6779  153.4749 H   0  0  0  0  0  0  0  0  0  0  0  0  # atno 10764 bound_to 10752
  153.1097  135.4872  154.8941 H   0  0  0  0  0  0  0  0  0  0  0  0  # atno 10765 bound_to 10752
  140.0323  134.9346  157.0686 H   0  0  0  0  0  0  0  0  0  0  0  0  # atno 11005 bound_to 11000
  146.2154  140.5938  142.9040 LP  0  0  0  0  0  0  0  0  0  0  0  0  # atno 17320 bound_to 7965
  144.7717  140.5652  143.6665 LP  0  0  0  0  0  0  0  0  0  0  0  0  # atno 17321 bound_to 7965
  139.5170  144.6985  151.5561 LP  0  0  0  0  0  0  0  0  0  0  0  0  # atno 17342 bound_to 10162
  140.6304  143.9086  150.6601 LP  0  0  0  0  0  0  0  0  0  0  0  0  # atno 17343 bound_to 10162
  155.9670  130.4460  150.5525 LP  0  0  0  0  0  0  0  0  0  0  0  0  # atno 17370 bound_to 10713
  157.3386  131.0712  151.1805 LP  0  0  0  0  0  0  0  0  0  0  0  0  # atno 17371 bound_to 10713
  140.4205  134.1886  155.7164 LP  0  0  0  0  0  0  0  0  0  0  0  0  # atno 17394 bound_to 11000
  141.1838  133.8357  157.1162 LP  0  0  0  0  0  0  0  0  0  0  0  0  # atno 17395 bound_to 11000

$$$$
