#       Name:                AV-unprocessed.smi:479
#       Creating user name   scv26
#       Creation time:       Thu Mar 26 23:09:12 2020


#       File generated by GOLD software.
#

@<TRIPOS>MOLECULE
AV-unprocessed.smi:479
    54    56     1
SMALL
NO_CHARGES


@<TRIPOS>ATOM
      1 ****        -2.4435   3.8424   0.1600 C.3            1 S1                 0.0000
      2 ****        -1.8600   2.5492   0.2243 O.3            1 S1                 0.0000
      3 ****        -2.6952   1.4519   0.2831 C.ar           1 S1                 0.0000
      4 ****        -4.1108   1.5416   0.2953 C.ar           1 S1                 0.0000
      5 ****        -4.9140   0.3794   0.3581 C.ar           1 S1                 0.0000
      6 ****        -6.4035   0.4503   0.3762 C.2            1 S1                 0.0000
      7 ****        -7.0550   1.8324   0.3548 C.3            1 S1                 0.0000
      8 ****        -7.1293  -0.5429   0.4109 O.2            1 S1                 0.0000
      9 ****        -4.2825  -0.8813   0.4030 C.ar           1 S1                 0.0000
     10 ****        -2.8802  -0.9806   0.3921 C.ar           1 S1                 0.0000
     11 ****        -2.0755   0.1833   0.3366 C.ar           1 S1                 0.0000
     12 ****        -0.6959   0.1601   0.3297 O.3            1 S1                 0.0000
     13 ****        -0.0372  -1.0914   0.4732 C.3            1 S1                 0.0000
     14 ****         1.4789  -0.8492   0.5370 C.3            1 S1                 0.0000
     15 ****         1.8041  -0.4175   1.8440 O.3            1 S1                 0.0000
     16 ****         2.2776  -2.1290   0.2199 C.3            1 S1                 0.0000
     17 ****         3.7138  -1.9219   0.2833 N.pl3          1 S1                 0.0000
     18 ****         4.5428  -2.2751   1.2846 C.2            1 S1                 0.0000
     19 ****         5.8341  -1.9932   1.1357 N.2            1 S1                 0.0000
     20 ****         5.8448  -1.3841  -0.1074 C.ar           1 S1                 0.0000
     21 ****         6.9161  -0.8449  -0.8550 C.ar           1 S1                 0.0000
     22 ****         6.6838  -0.2642  -2.1192 C.ar           1 S1                 0.0000
     23 ****         5.3802  -0.2142  -2.6548 C.ar           1 S1                 0.0000
     24 ****         4.2969  -0.7463  -1.9291 C.ar           1 S1                 0.0000
     25 ****         4.5330  -1.3243  -0.6679 C.ar           1 S1                 0.0000
     26 ****        -1.6525   4.5912   0.1221 H              1 S1                 0.0000
     27 ****        -3.0512   4.0514   1.0416 H              1 S1                 0.0000
     28 ****        -3.0526   3.9604  -0.7372 H              1 S1                 0.0000
     29 ****        -4.5871   2.5081   0.2573 H              1 S1                 0.0000
     30 ****        -6.7305   2.4218   1.2126 H              1 S1                 0.0000
     31 ****        -8.1408   1.7430   0.3952 H              1 S1                 0.0000
     32 ****        -6.7913   2.3653  -0.5589 H              1 S1                 0.0000
     33 ****        -4.8671  -1.7891   0.4482 H              1 S1                 0.0000
     34 ****        -2.4456  -1.9679   0.4264 H              1 S1                 0.0000
     35 ****        -0.3764  -1.6293   1.3605 H              1 S1                 0.0000
     36 ****        -0.2706  -1.7036  -0.3994 H              1 S1                 0.0000
     37 ****         1.7569  -0.0697  -0.1739 H              1 S1                 0.0000
     38 ****         1.3296   0.3807   2.0208 H              1 S1                 0.0000
     39 ****         2.0090  -2.9274   0.9134 H              1 S1                 0.0000
     40 ****         2.0320  -2.4898  -0.7795 H              1 S1                 0.0000
     41 ****         4.1764  -2.7658   2.1745 H              1 S1                 0.0000
     42 ****         7.9185  -0.8777  -0.4546 H              1 S1                 0.0000
     43 ****         7.5107   0.1454  -2.6807 H              1 S1                 0.0000
     44 ****         5.2125   0.2335  -3.6233 H              1 S1                 0.0000
     45 ****         3.2969  -0.7095  -2.3349 H              1 S1                 0.0000
     46 ****        -1.2838   2.5256   1.0413 LP             1 S1                 0.0000
     47 ****        -1.2889   2.4422  -0.5896 LP             1 S1                 0.0000
     48 ****        -6.7249  -1.4574   0.4286 LP             1 S1                 0.0000
     49 ****        -8.1235  -0.4356   0.4215 LP             1 S1                 0.0000
     50 ****        -0.3872   0.7438   1.0807 LP             1 S1                 0.0000
     51 ****        -0.3986   0.5519  -0.5409 LP             1 S1                 0.0000
     52 ****         2.7874  -0.2474   1.9088 LP             1 S1                 0.0000
     53 ****         1.5429  -1.1196   2.5065 LP             1 S1                 0.0000
     54 ****         6.5961  -2.1737   1.7576 LP             1 S1                 0.0000
@<TRIPOS>BOND
    1    1    2 1     
    2    1   26 1     
    3    1   27 1     
    4    1   28 1     
    5    2    3 1     
    6    3   11 ar    
    7    3    4 ar    
    8    4    5 ar    
    9    4   29 1     
   10    5    6 1     
   11    5    9 ar    
   12    6    7 1     
   13    6    8 2     
   14    7   30 1     
   15    7   31 1     
   16    7   32 1     
   17    9   10 ar    
   18    9   33 1     
   19   10   11 ar    
   20   10   34 1     
   21   11   12 1     
   22   12   13 1     
   23   13   14 1     
   24   13   35 1     
   25   13   36 1     
   26   14   15 1     
   27   14   16 1     
   28   14   37 1     
   29   15   38 1     
   30   16   17 1     
   31   16   39 1     
   32   16   40 1     
   33   17   25 1     
   34   17   18 1     
   35   18   19 2     
   36   18   41 1     
   37   19   20 1     
   38   20   25 ar    
   39   20   21 ar    
   40   21   22 ar    
   41   21   42 1     
   42   22   23 ar    
   43   22   43 1     
   44   23   24 ar    
   45   23   44 1     
   46   24   25 ar    
   47   24   45 1     
   48    2   46 1     
   49    2   47 1     
   50    8   48 1     
   51    8   49 1     
   52   12   50 1     
   53   12   51 1     
   54   15   52 1     
   55   15   53 1     
   56   19   54 1     
@<TRIPOS>SUBSTRUCTURE
      1 S1             1
@<TRIPOS>SET
LONE_PAIRS      STATIC     ATOMS    <user>   **** ""
9 46 47 48 49 50 51 52 53 54
DONOR_HYDROGENS      STATIC     ATOMS    <user>   **** ""
1 38
ATOM$BLUE        STATIC     ATOMS    COLORGROUP SYSTEM
9 46 47 48 49 50 51 52 53 54
ATOM$RED        STATIC     ATOMS    COLORGROUP SYSTEM
1 38
