AV-unprocessed.smi:612|AV-procd|sdf|3063|dock5
  -GOLD-   2262023583D 1   1.00000     0.00000
 Structure written by MMmdl.
 50 52  0  0  0  0  0  0  0  0  2 V2000
  154.8553  140.6964  160.7456 C   0  0  0  0  0  0  0  0  0  0  0  0
  153.5991  141.2084  160.1918 N   0  0  0  0  0  0  0  0  0  0  0  0
  153.0133  142.3165  160.8264 C   0  0  0  0  0  0  0  0  0  0  0  0
  151.8636  142.8495  160.3908 C   0  0  0  0  0  0  0  0  0  0  0  0
  151.2251  142.2579  159.2397 C   0  0  0  0  0  0  0  0  0  0  0  0
  151.7760  141.1906  158.6073 C   0  0  0  0  0  0  0  0  0  0  0  0
  151.2236  140.5458  157.4856 N   0  0  0  0  0  0  0  0  0  0  0  0
  150.0562  140.7677  156.8531 C   0  0  0  0  0  0  0  0  0  0  0  0
  149.2276  141.6287  157.1468 O   0  0  0  0  0  0  0  0  0  0  0  0
  149.9050  139.9219  155.8232 N   0  0  0  0  0  0  0  0  0  0  0  0
  148.7670  139.8869  154.9076 C   0  0  2  0  0  0  0  0  0  0  0  0
  148.6227  141.2389  154.1869 C   0  0  0  0  0  0  0  0  0  0  0  0
  147.3507  141.2723  153.3170 C   0  0  0  0  0  0  0  0  0  0  0  0
  146.1244  140.9648  154.1050 N   0  3  2  0  0  0  0  0  0  0  0  0
  145.6774  142.0668  155.0094 C   0  0  0  0  0  0  0  0  0  0  0  0
  144.3572  141.7734  155.7353 C   0  0  0  0  0  0  0  0  0  0  0  0
  143.8406  143.1422  156.1864 C   0  0  0  0  0  0  0  0  0  0  0  0
  144.4407  144.1645  155.2121 C   0  0  0  0  0  0  0  0  0  0  0  0
  145.3554  143.3735  154.2700 C   0  0  0  0  0  0  0  0  0  0  0  0
  146.2461  139.6338  154.7627 C   0  0  0  0  0  0  0  0  0  0  0  0
  147.4800  139.5549  155.6814 C   0  0  0  0  0  0  0  0  0  0  0  0
  153.0396  140.6069  159.0999 C   0  0  0  0  0  0  0  0  0  0  0  0
  153.5731  139.6307  158.5663 O   0  0  0  0  0  0  0  0  0  0  0  0
  155.2101  141.2796  161.5961 H   0  0  0  0  0  0  0  0  0  0  0  0
  155.6431  140.7132  159.9910 H   0  0  0  0  0  0  0  0  0  0  0  0
  154.7311  139.6672  161.0857 H   0  0  0  0  0  0  0  0  0  0  0  0
  153.5503  142.7013  161.6812 H   0  0  0  0  0  0  0  0  0  0  0  0
  151.4246  143.7010  160.8894 H   0  0  0  0  0  0  0  0  0  0  0  0
  150.2938  142.6959  158.9217 H   0  0  0  0  0  0  0  0  0  0  0  0
  151.8139  139.8283  157.0902 H   0  0  0  0  0  0  0  0  0  0  0  0
  150.6395  139.2490  155.6578 H   0  0  0  0  0  0  0  0  0  0  0  0
  148.9102  139.1130  154.1513 H   0  0  0  0  0  0  0  0  0  0  0  0
  148.5986  142.0528  154.9126 H   0  0  0  0  0  0  0  0  0  0  0  0
  149.4973  141.4180  153.5604 H   0  0  0  0  0  0  0  0  0  0  0  0
  147.2631  142.2293  152.8042 H   0  0  0  0  0  0  0  0  0  0  0  0
  147.4413  140.5268  152.5258 H   0  0  0  0  0  0  0  0  0  0  0  0
  146.4443  142.2708  155.7574 H   0  0  0  0  0  0  0  0  0  0  0  0
  143.6412  141.3253  155.0444 H   0  0  0  0  0  0  0  0  0  0  0  0
  144.4778  141.0931  156.5789 H   0  0  0  0  0  0  0  0  0  0  0  0
  142.7507  143.1770  156.2002 H   0  0  0  0  0  0  0  0  0  0  0  0
  144.1861  143.3543  157.1990 H   0  0  0  0  0  0  0  0  0  0  0  0
  143.6679  144.6953  154.6549 H   0  0  0  0  0  0  0  0  0  0  0  0
  145.0140  144.9103  155.7640 H   0  0  0  0  0  0  0  0  0  0  0  0
  146.2482  143.9412  154.0062 H   0  0  0  0  0  0  0  0  0  0  0  0
  144.8165  143.1560  153.3465 H   0  0  0  0  0  0  0  0  0  0  0  0
  145.3416  139.3771  155.3124 H   0  0  0  0  0  0  0  0  0  0  0  0
  146.3343  138.8769  153.9822 H   0  0  0  0  0  0  0  0  0  0  0  0
  147.5540  138.5537  156.1078 H   0  0  0  0  0  0  0  0  0  0  0  0
  147.3597  140.2357  156.5249 H   0  0  0  0  0  0  0  0  0  0  0  0
  145.3811  140.8675  153.4278 H   0  0  0  0  0  0  0  0  0  0  0  0
  1  2  1  0  0  0  0
  1 24  1  0  0  0  0
  1 25  1  0  0  0  0
  1 26  1  0  0  0  0
  2 22  1  0  0  0  0
  2  3  1  0  0  0  0
  3  4  2  0  0  0  0
  3 27  1  0  0  0  0
  4  5  1  0  0  0  0
  4 28  1  0  0  0  0
  5  6  2  0  0  0  0
  5 29  1  0  0  0  0
  6  7  1  0  0  0  0
  6 22  1  0  0  0  0
  7  8  1  0  0  0  0
  7 30  1  0  0  0  0
  8  9  2  0  0  0  0
  8 10  1  0  0  0  0
 10 11  1  0  0  0  0
 10 31  1  0  0  0  0
 11 21  1  0  0  0  0
 11 12  1  0  0  0  0
 11 32  1  0  0  0  0
 12 13  1  0  0  0  0
 12 33  1  0  0  0  0
 12 34  1  0  0  0  0
 13 14  1  0  0  0  0
 13 35  1  0  0  0  0
 13 36  1  0  0  0  0
 14 15  1  0  0  0  0
 14 20  1  0  0  0  0
 14 50  1  0  0  0  0
 15 19  1  0  0  0  0
 15 16  1  0  0  0  0
 15 37  1  0  0  0  0
 16 17  1  0  0  0  0
 16 38  1  0  0  0  0
 16 39  1  0  0  0  0
 17 18  1  0  0  0  0
 17 40  1  0  0  0  0
 17 41  1  0  0  0  0
 18 19  1  0  0  0  0
 18 42  1  0  0  0  0
 18 43  1  0  0  0  0
 19 44  1  0  0  0  0
 19 45  1  0  0  0  0
 20 21  1  0  0  0  0
 20 46  1  0  0  0  0
 20 47  1  0  0  0  0
 21 48  1  0  0  0  0
 21 49  1  0  0  0  0
 22 23  2  0  0  0  0
M  CHG  1  14   1
M  END
> <s_m_source_file>
AV-unprocessed.smi

> <i_m_source_file_index>
612

> <i_lp_mmshare_version>
43012

> <i_f3d_flags>
0

> <s_epik_input>
W0NIM11uMVtjSF1bY0hdW2NIXWMoYzE9TylbTkhdQyg9TylbTkhdW0NIXTJbQ0gyXVtDSDJdTihbQ0gyXVtDSDJdMilbQ0hdM1tDSDJdW0NIMl1bQ0gyXVtDSDJdMw==

> <s_epik_cmdline>
J2VwaWtfcHl0aG9uJywgJy1waCcsICc3LjAnLCAnLXRuJywgJzgnLCAnLW1hJywgJzIwMCcsICctbWV0YWxfYmluZGluZycsICctaW1hZScsICc8aW5maWxlLm1hZT4nLCAnLW9tYWUnLCAnPG91dGZpbGUubWFlPic=

> <r_lp_tautomer_probability>
1

> <r_epik_Ionization_Penalty>
0.00200366

> <r_epik_Ionization_Penalty_Charging>
0.00198522

> <r_epik_Ionization_Penalty_Neutral>
1.84356e-05

> <r_epik_State_Penalty>
0.00135242

> <r_epik_Charging_Adjusted_Penalty>
0.00333764

> <i_epik_Tot_Q>
1

> <i_epik_Tot_abs_Q>
1

> <r_epik_Metal_State_Penalty>
-0

> <b_epik_Metal_Only>
0

> <s_lp_Force_Field>
OPLS_2005

> <r_lp_Energy>
52.136

> <b_lp_Chiralities_Consistent>
1

> <s_lp_Variant>
AV-unprocessed.smi:612-2

> <Gold.Version>
5.8.1

> <Gold.Id.Protein>
6NUR|6NUR_protein|mol2

> <Gold.PLP.Fitness>
48.6552

> <Gold.PLP.PLP>
-39.6727

> <Gold.PLP.part.hbond>
-2.0000

> <Gold.PLP.part.metal>
0.0000

> <Gold.PLP.part.buried>
-5.3897

> <Gold.PLP.part.nonpolar>
-31.9861

> <Gold.PLP.part.repulsive>
0.2305

> <Gold.PLP.ligand.clash>
0.0000

> <Gold.PLP.ligand.torsion>
0.0367

> <Gold.PLP.Chemscore.Hbond>
3.0000

> <Gold.PLP.Chemscore.CHOScore>
0.0000

> <Gold.PLP.Chemscore.Metal>
0.0000

> <Gold.Chemscore.Hbonds>
donor molecule, donor type, donor heavy atom, donor atom, acceptor molecule, acceptor atom, score
      L1  H    14    50       P1 10175  2.00
      P1  H  7997  8010       L1    23  1.00

> <Gold.PLP.Chemscore.Internal.Correction>
0.0558

> <Gold.Rescore>
     Score         DG    S(hbond)    S(metal)    S(lipo)     H(rot)  DE(clash)    DE(int)     intcor
     16.50     -19.02       1.95        0.00      86.33       1.21       0.15       2.36       ----

> <Gold.Chemscore.Fitness>
16.5016

> <Gold.Chemscore.DG>
-19.0196

> <Gold.Chemscore.ZeroCoef>
-5.4800

> <Gold.Chemscore.Hbond>
1.9538

> <Gold.Chemscore.Metal>
0.0000

> <Gold.Chemscore.Lipo>
86.3272

> <Gold.Chemscore.Internal_Hbond>
0.0000

> <Gold.Chemscore.DEClash>
0.1549

> <Gold.Chemscore.DEInternal>
2.3631

> <Gold.Chemscore.Rot>
1.2056

> <Gold.Chemscore.Internal.Correction>
   9.000000E+99

> <Gold.Chemscore.Hbonds>
donor molecule, donor type, donor heavy atom, donor atom, acceptor molecule, acceptor atom, score
      L1  H    14    50       P1 10175  0.73
      P1  H  7997  8010       L1    23  0.91

> <Gold.Chemscore.Hbond.Weighted>
-6.5255

> <Gold.Chemscore.Metal.Weighted>
-0.0000

> <Gold.Chemscore.Lipo.Weighted>
-10.1003

> <Gold.Chemscore.Internal_Hbond.Weighted>
0.0000

> <Gold.Chemscore.DEClash.Weighted>
0.1549

> <Gold.Chemscore.DEInternal.Weighted>
2.3631

> <Gold.Chemscore.Rot.Weighted>
3.0862

> <Gold.Chemscore.Internal.Correction.Weighted>
   9.000000E+99

> <Gold.Protein.RotatedTorsions>
[ 6907 6896 6895 6894 ] final  -29.47 input  -60.11 | X-H torsion
[ 7974 7965 7964 7962 ] final  -73.59 input  175.53 | X-H torsion
[ 8008 7997 7996 7995 ] final   23.49 input   59.86 | X-H torsion
[ 10167 10162 10161 10158 ] final -134.05 input  -65.29 | X-H torsion
[ 10718 10713 10712 10709 ] final  144.70 input   66.30 | X-H torsion
[ 10763 10752 10751 10750 ] final -158.17 input  -60.55 | X-H torsion
[ 11005 11000 10999 10996 ] final -106.23 input  -57.11 | X-H torsion

> <Gold.Protein.ActiveResidues>
 VAL166  LYS551  ARG553  GLY616  TRP617  ASP618  TYR619  PRO620  LYS621  CYS622 
 ASP623  PHE694  ASN695  SER759  ASP760  ASP761  ALA762  ILE779  LEU786  VAL792 
 PHE793  MET794  SER795  GLU796  ALA797  LYS798  CYS799  TRP800  GLU811  SER814 

> <Gold.Protein.RotatedAtoms>
  151.1188  135.0068  159.8528 H   0  0  0  0  0  0  0  0  0  0  0  0  # atno 6907 bound_to 6896
  152.5447  134.1748  159.8621 H   0  0  0  0  0  0  0  0  0  0  0  0  # atno 6908 bound_to 6896
  151.1804  133.4684  159.2627 H   0  0  0  0  0  0  0  0  0  0  0  0  # atno 6909 bound_to 6896
  145.6502  140.9285  143.0989 H   0  0  0  0  0  0  0  0  0  0  0  0  # atno 7974 bound_to 7965
  154.9818  140.3103  155.4943 H   0  0  0  0  0  0  0  0  0  0  0  0  # atno 8008 bound_to 7997
  156.2952  140.2265  156.4857 H   0  0  0  0  0  0  0  0  0  0  0  0  # atno 8009 bound_to 7997
  154.7782  140.0447  157.1095 H   0  0  0  0  0  0  0  0  0  0  0  0  # atno 8010 bound_to 7997
  139.8920  143.6711  152.2610 H   0  0  0  0  0  0  0  0  0  0  0  0  # atno 10167 bound_to 10162
  157.3541  131.0955  151.0974 H   0  0  0  0  0  0  0  0  0  0  0  0  # atno 10718 bound_to 10713
  154.7578  135.3109  154.8437 H   0  0  0  0  0  0  0  0  0  0  0  0  # atno 10763 bound_to 10752
  153.9206  135.6796  153.4752 H   0  0  0  0  0  0  0  0  0  0  0  0  # atno 10764 bound_to 10752
  153.1176  135.4837  154.9072 H   0  0  0  0  0  0  0  0  0  0  0  0  # atno 10765 bound_to 10752
  141.1015  133.8876  157.1830 H   0  0  0  0  0  0  0  0  0  0  0  0  # atno 11005 bound_to 11000
  144.7125  139.8317  143.7410 LP  0  0  0  0  0  0  0  0  0  0  0  0  # atno 17320 bound_to 7965
  146.1210  139.4228  143.0228 LP  0  0  0  0  0  0  0  0  0  0  0  0  # atno 17321 bound_to 7965
  139.7101  144.7621  151.1126 LP  0  0  0  0  0  0  0  0  0  0  0  0  # atno 17342 bound_to 10162
  140.7724  143.5342  150.9388 LP  0  0  0  0  0  0  0  0  0  0  0  0  # atno 17343 bound_to 10162
  157.2138  130.6450  149.5784 LP  0  0  0  0  0  0  0  0  0  0  0  0  # atno 17370 bound_to 10713
  155.9726  130.4651  150.6242 LP  0  0  0  0  0  0  0  0  0  0  0  0  # atno 17371 bound_to 10713
  139.9868  135.0079  156.9881 LP  0  0  0  0  0  0  0  0  0  0  0  0  # atno 17394 bound_to 11000
  140.5010  134.1097  155.7250 LP  0  0  0  0  0  0  0  0  0  0  0  0  # atno 17395 bound_to 11000

$$$$
