AV-unprocessed.smi:1703|AV-procd|sdf|6853|dock6
  -GOLD-   22720 8 33D 1   1.00000     0.00000
 Structure written by MMmdl.
 48 50  0  0  0  0  0  0  0  0  1 V2000
  144.1936  142.6119  157.5156 C   0  0  0  0  0  0  0  0  0  0  0  0
  144.1959  142.1891  156.0366 C   0  0  2  0  0  0  0  0  0  0  0  0
  145.5197  141.5352  155.5915 C   0  0  0  0  0  0  0  0  0  0  0  0
  146.6050  142.5029  155.4371 N   0  0  0  0  0  0  0  0  0  0  0  0
  147.8531  141.8878  154.9822 C   0  0  0  0  0  0  0  0  0  0  0  0
  148.8321  141.4615  156.0949 C   0  0  2  0  0  0  0  0  0  0  0  0
  148.6815  142.3399  157.1934 O   0  0  0  0  0  0  0  0  0  0  0  0
  150.2929  141.5068  155.6052 C   0  0  0  0  0  0  0  0  0  0  0  0
  151.2514  141.1426  156.6419 N   0  0  0  0  0  0  0  0  0  0  0  0
  151.9012  139.9620  156.8131 C   0  0  0  0  0  0  0  0  0  0  0  0
  151.6860  138.7888  155.8982 C   0  0  0  0  0  0  0  0  0  0  0  0
  151.7976  139.1137  154.5274 O   0  0  0  0  0  0  0  0  0  0  0  0
  152.7249  139.9051  157.8622 N   0  0  0  0  0  0  0  0  0  0  0  0
  152.6042  141.1631  158.4172 C   0  0  0  0  0  0  0  0  0  0  0  0
  153.2283  141.7291  159.5521 C   0  0  0  0  0  0  0  0  0  0  0  0
  152.9424  143.0552  159.9368 C   0  0  0  0  0  0  0  0  0  0  0  0
  152.0294  143.8321  159.1946 C   0  0  0  0  0  0  0  0  0  0  0  0
  151.3973  143.2874  158.0601 C   0  0  0  0  0  0  0  0  0  0  0  0
  151.6879  141.9633  157.6785 C   0  0  0  0  0  0  0  0  0  0  0  0
  146.1765  143.5487  154.5171 C   0  0  0  0  0  0  0  0  0  0  0  0
  144.8926  144.2488  154.9967 C   0  0  1  0  0  0  0  0  0  0  0  0
  144.3957  145.2927  153.9910 C   0  0  0  0  0  0  0  0  0  0  0  0
  143.8635  143.2771  155.1729 O   0  0  0  0  0  0  0  0  0  0  0  0
  144.3344  141.7476  158.1650 H   0  0  0  0  0  0  0  0  0  0  0  0
  143.2454  143.0769  157.7857 H   0  0  0  0  0  0  0  0  0  0  0  0
  144.9903  143.3205  157.7414 H   0  0  0  0  0  0  0  0  0  0  0  0
  143.4020  141.4512  155.9172 H   0  0  0  0  0  0  0  0  0  0  0  0
  145.7868  140.7662  156.3145 H   0  0  0  0  0  0  0  0  0  0  0  0
  145.3563  141.0220  154.6427 H   0  0  0  0  0  0  0  0  0  0  0  0
  147.6147  141.0206  154.3643 H   0  0  0  0  0  0  0  0  0  0  0  0
  148.3768  142.5819  154.3229 H   0  0  0  0  0  0  0  0  0  0  0  0
  148.6137  140.4511  156.4349 H   0  0  0  0  0  0  0  0  0  0  0  0
  148.6992  143.2285  156.8729 H   0  0  0  0  0  0  0  0  0  0  0  0
  150.4325  140.8475  154.7486 H   0  0  0  0  0  0  0  0  0  0  0  0
  150.5333  142.5077  155.2452 H   0  0  0  0  0  0  0  0  0  0  0  0
  152.4193  138.0184  156.1370 H   0  0  0  0  0  0  0  0  0  0  0  0
  150.6983  138.3577  156.0548 H   0  0  0  0  0  0  0  0  0  0  0  0
  151.4713  138.3873  154.0188 H   0  0  0  0  0  0  0  0  0  0  0  0
  153.9275  141.1410  160.1278 H   0  0  0  0  0  0  0  0  0  0  0  0
  153.4248  143.4781  160.8058 H   0  0  0  0  0  0  0  0  0  0  0  0
  151.8145  144.8464  159.4972 H   0  0  0  0  0  0  0  0  0  0  0  0
  150.6967  143.8814  157.4930 H   0  0  0  0  0  0  0  0  0  0  0  0
  146.9680  144.2915  154.4099 H   0  0  0  0  0  0  0  0  0  0  0  0
  146.0127  143.1233  153.5255 H   0  0  0  0  0  0  0  0  0  0  0  0
  145.0839  144.7508  155.9458 H   0  0  0  0  0  0  0  0  0  0  0  0
  145.1434  146.0698  153.8297 H   0  0  0  0  0  0  0  0  0  0  0  0
  143.4867  145.7762  154.3493 H   0  0  0  0  0  0  0  0  0  0  0  0
  144.1724  144.8366  153.0260 H   0  0  0  0  0  0  0  0  0  0  0  0
  1  2  1  0  0  0  0
  1 24  1  0  0  0  0
  1 25  1  0  0  0  0
  1 26  1  0  0  0  0
  2 23  1  0  0  0  0
  2  3  1  0  0  0  0
  2 27  1  0  0  0  0
  3  4  1  0  0  0  0
  3 28  1  0  0  0  0
  3 29  1  0  0  0  0
  4  5  1  0  0  0  0
  4 20  1  0  0  0  0
  5  6  1  0  0  0  0
  5 30  1  0  0  0  0
  5 31  1  0  0  0  0
  6  7  1  0  0  0  0
  6  8  1  0  0  0  0
  6 32  1  0  0  0  0
  7 33  1  0  0  0  0
  8  9  1  0  0  0  0
  8 34  1  0  0  0  0
  8 35  1  0  0  0  0
  9 19  1  0  0  0  0
  9 10  1  0  0  0  0
 10 11  1  0  0  0  0
 10 13  2  0  0  0  0
 11 12  1  0  0  0  0
 11 36  1  0  0  0  0
 11 37  1  0  0  0  0
 12 38  1  0  0  0  0
 13 14  1  0  0  0  0
 14 19  2  0  0  0  0
 14 15  1  0  0  0  0
 15 16  2  0  0  0  0
 15 39  1  0  0  0  0
 16 17  1  0  0  0  0
 16 40  1  0  0  0  0
 17 18  2  0  0  0  0
 17 41  1  0  0  0  0
 18 19  1  0  0  0  0
 18 42  1  0  0  0  0
 20 21  1  0  0  0  0
 20 43  1  0  0  0  0
 20 44  1  0  0  0  0
 21 22  1  0  0  0  0
 21 23  1  0  0  0  0
 21 45  1  0  0  0  0
 22 46  1  0  0  0  0
 22 47  1  0  0  0  0
 22 48  1  0  0  0  0
M  END
> <s_m_source_file>
AV-unprocessed.smi

> <i_m_source_file_index>
1703

> <i_lp_mmshare_version>
43012

> <i_f3d_flags>
0

> <s_epik_input>
W0NIM11bQ0BASF0xW0NIMl1OKFtDSDJdW0NASF0oTzEpW0NIM10pW0NIMl1bQ0BIXShbT0hdKVtDSDJdbihjKG4yKVtDSDJdW09IXSljKGMyMylbY0hdW2NIXVtjSF1bY0hdMw==

> <s_epik_cmdline>
J2VwaWtfcHl0aG9uJywgJy1waCcsICc3LjAnLCAnLXRuJywgJzgnLCAnLW1hJywgJzIwMCcsICctbWV0YWxfYmluZGluZycsICctaW1hZScsICc8aW5maWxlLm1hZT4nLCAnLW9tYWUnLCAnPG91dGZpbGUubWFlPic=

> <r_epik_Ionization_Penalty>
0.307685

> <r_epik_Ionization_Penalty_Charging>
0

> <r_epik_Ionization_Penalty_Neutral>
0.307685

> <r_epik_State_Penalty>
0.277856

> <r_epik_Charging_Adjusted_Penalty>
0.277856

> <i_epik_Tot_Q>
0

> <i_epik_Tot_abs_Q>
0

> <r_epik_Metal_State_Penalty>
0.238959

> <b_epik_Metal_Only>
0

> <s_lp_Force_Field>
OPLS_2005

> <r_lp_Energy>
33.4043

> <b_lp_Chiralities_Consistent>
1

> <s_lp_Variant>
AV-unprocessed.smi:1703-1

> <Gold.Version>
5.8.1

> <Gold.Id.Protein>
6NUR|6NUR_protein|mol2

> <Gold.PLP.Fitness>
48.1221

> <Gold.PLP.PLP>
-41.9620

> <Gold.PLP.part.hbond>
-3.0000

> <Gold.PLP.part.metal>
0.0000

> <Gold.PLP.part.buried>
-5.1091

> <Gold.PLP.part.nonpolar>
-33.3770

> <Gold.PLP.part.repulsive>
0.4978

> <Gold.PLP.ligand.clash>
0.0000

> <Gold.PLP.ligand.torsion>
1.1679

> <Gold.PLP.Chemscore.Hbond>
2.8088

> <Gold.PLP.Chemscore.CHOScore>
0.0000

> <Gold.PLP.Chemscore.Metal>
0.0000

> <Gold.Chemscore.Hbonds>
donor molecule, donor type, donor heavy atom, donor atom, acceptor molecule, acceptor atom, score
      L1  H     7    33       P1  8028  1.00
      P1  H  7989  7998       L1    12  0.99
      P1  H  7997  8008       L1    13  0.96

> <Gold.PLP.Chemscore.Internal.Correction>
0.0696

> <Gold.Rescore>
     Score         DG    S(hbond)    S(metal)    S(lipo)     H(rot)  DE(clash)    DE(int)     intcor
     14.64     -15.88       1.35        0.00     113.24       2.88       0.19       1.05       ----

> <Gold.Chemscore.Fitness>
14.6354

> <Gold.Chemscore.DG>
-15.8781

> <Gold.Chemscore.ZeroCoef>
-5.4800

> <Gold.Chemscore.Hbond>
1.3522

> <Gold.Chemscore.Metal>
0.0000

> <Gold.Chemscore.Lipo>
113.2379

> <Gold.Chemscore.Internal_Hbond>
0.0000

> <Gold.Chemscore.DEClash>
0.1923

> <Gold.Chemscore.DEInternal>
1.0504

> <Gold.Chemscore.Rot>
2.8778

> <Gold.Chemscore.Internal.Correction>
   9.000000E+99

> <Gold.Chemscore.Hbonds>
donor molecule, donor type, donor heavy atom, donor atom, acceptor molecule, acceptor atom, score
      L1  H     7    33       P1  8028  0.65
      P1  H  7989  7998       L1    12  0.69
      P1  H  7997  8008       L1    13  0.10

> <Gold.Chemscore.Hbond.Weighted>
-4.5163

> <Gold.Chemscore.Metal.Weighted>
-0.0000

> <Gold.Chemscore.Lipo.Weighted>
-13.2488

> <Gold.Chemscore.Internal_Hbond.Weighted>
0.0000

> <Gold.Chemscore.DEClash.Weighted>
0.1923

> <Gold.Chemscore.DEInternal.Weighted>
1.0504

> <Gold.Chemscore.Rot.Weighted>
7.3671

> <Gold.Chemscore.Internal.Correction.Weighted>
   9.000000E+99

> <Gold.Protein.RotatedTorsions>
[ 6907 6896 6895 6894 ] final -160.21 input  -60.11 | X-H torsion
[ 7974 7965 7964 7962 ] final  -93.20 input  175.53 | X-H torsion
[ 8008 7997 7996 7995 ] final  -86.53 input   59.86 | X-H torsion
[ 10167 10162 10161 10158 ] final  137.43 input  -65.29 | X-H torsion
[ 10718 10713 10712 10709 ] final -172.36 input   66.30 | X-H torsion
[ 10763 10752 10751 10750 ] final   21.93 input  -60.55 | X-H torsion
[ 11005 11000 10999 10996 ] final  179.49 input  -57.11 | X-H torsion

> <Gold.Protein.ActiveResidues>
 VAL166  LYS551  ARG553  GLY616  TRP617  ASP618  TYR619  PRO620  LYS621  CYS622 
 ASP623  PHE694  ASN695  SER759  ASP760  ASP761  ALA762  ILE779  LEU786  VAL792 
 PHE793  MET794  SER795  GLU796  ALA797  LYS798  CYS799  TRP800  GLU811  SER814 

> <Gold.Protein.RotatedAtoms>
  151.3455  133.3945  159.2674 H   0  0  0  0  0  0  0  0  0  0  0  0  # atno 6907 bound_to 6896
  150.9843  134.9192  159.7873 H   0  0  0  0  0  0  0  0  0  0  0  0  # atno 6908 bound_to 6896
  152.5227  134.3420  159.9273 H   0  0  0  0  0  0  0  0  0  0  0  0  # atno 6909 bound_to 6896
  145.3896  140.9527  143.2348 H   0  0  0  0  0  0  0  0  0  0  0  0  # atno 7974 bound_to 7965
  154.6529  140.0577  156.9976 H   0  0  0  0  0  0  0  0  0  0  0  0  # atno 8008 bound_to 7997
  155.1343  140.3259  155.4448 H   0  0  0  0  0  0  0  0  0  0  0  0  # atno 8009 bound_to 7997
  156.2584  140.1975  156.6461 H   0  0  0  0  0  0  0  0  0  0  0  0  # atno 8010 bound_to 7997
  139.5144  144.6410  151.5569 H   0  0  0  0  0  0  0  0  0  0  0  0  # atno 10167 bound_to 10162
  156.7545  130.9390  151.3116 H   0  0  0  0  0  0  0  0  0  0  0  0  # atno 10718 bound_to 10713
  153.0956  135.6659  153.9770 H   0  0  0  0  0  0  0  0  0  0  0  0  # atno 10763 bound_to 10752
  153.9355  135.2999  155.3446 H   0  0  0  0  0  0  0  0  0  0  0  0  # atno 10764 bound_to 10752
  154.7374  135.5095  153.9139 H   0  0  0  0  0  0  0  0  0  0  0  0  # atno 10765 bound_to 10752
  140.4068  134.6728  157.4592 H   0  0  0  0  0  0  0  0  0  0  0  0  # atno 11005 bound_to 11000
  144.8449  139.5412  143.6883 LP  0  0  0  0  0  0  0  0  0  0  0  0  # atno 17320 bound_to 7965
  146.2804  139.6861  142.9233 LP  0  0  0  0  0  0  0  0  0  0  0  0  # atno 17321 bound_to 7965
  140.6177  143.9318  150.6501 LP  0  0  0  0  0  0  0  0  0  0  0  0  # atno 17342 bound_to 10162
  140.2581  143.3544  152.1347 LP  0  0  0  0  0  0  0  0  0  0  0  0  # atno 17343 bound_to 10162
  157.6762  130.9097  150.0157 LP  0  0  0  0  0  0  0  0  0  0  0  0  # atno 17370 bound_to 10713
  156.1379  130.3642  149.9627 LP  0  0  0  0  0  0  0  0  0  0  0  0  # atno 17371 bound_to 10713
  140.0296  134.6425  155.9125 LP  0  0  0  0  0  0  0  0  0  0  0  0  # atno 17394 bound_to 11000
  141.1836  133.6551  156.5124 LP  0  0  0  0  0  0  0  0  0  0  0  0  # atno 17395 bound_to 11000

$$$$
