AV-unprocessed.smi:2208|AV-procd|sdf|8946|dock8
  -GOLD-   2272012163D 1   1.00000     0.00000
 Structure written by MMmdl.
 35 36  0  0  0  0  0  0  0  0  1 V2000
  148.6087  138.1034  155.5029 C   0  0  0  0  0  0  0  0  0  0  0  0
  150.0494  137.9466  155.1074 C   0  0  0  0  0  0  0  0  0  0  0  0
  150.4626  136.7784  154.6462 N   0  0  0  0  0  0  0  0  0  0  0  0
  151.8195  136.9392  154.3519 O   0  0  0  0  0  0  0  0  0  0  0  0
  152.1754  138.2136  154.6516 C   0  0  0  0  0  0  0  0  0  0  0  0
  153.5953  138.5856  154.3873 C   0  0  0  0  0  0  0  0  0  0  0  0
  151.1018  138.9078  155.1403 C   0  0  0  0  0  0  0  0  0  0  0  0
  151.0404  140.3466  155.5883 C   0  0  0  0  0  0  0  0  0  0  0  0
  151.7230  140.4795  156.9485 C   0  0  0  0  0  0  0  0  0  0  0  0
  152.5836  139.6680  157.2885 O   0  0  0  0  0  0  0  0  0  0  0  0
  151.3083  141.4915  157.7254 N   0  0  0  0  0  0  0  0  0  0  0  0
  151.7413  141.7295  159.0962 C   0  0  0  0  0  0  0  0  0  0  0  0
  152.3576  143.1300  159.2436 C   0  0  1  0  0  0  0  0  0  0  0  0
  151.8453  144.1425  158.2240 C   0  0  0  0  0  0  0  0  0  0  0  0
  152.1680  145.4497  158.9129 C   0  0  0  0  0  0  0  0  0  0  0  0
  151.9080  145.1197  160.3822 C   0  0  0  0  0  0  0  0  0  0  0  0
  152.0118  143.7025  160.5008 O   0  0  0  0  0  0  0  0  0  0  0  0
  147.9556  138.0296  154.6330 H   0  0  0  0  0  0  0  0  0  0  0  0
  148.4211  139.0686  155.9720 H   0  0  0  0  0  0  0  0  0  0  0  0
  148.3097  137.3303  156.2112 H   0  0  0  0  0  0  0  0  0  0  0  0
  153.7444  138.8019  153.3295 H   0  0  0  0  0  0  0  0  0  0  0  0
  154.2682  137.7745  154.6654 H   0  0  0  0  0  0  0  0  0  0  0  0
  153.8820  139.4703  154.9559 H   0  0  0  0  0  0  0  0  0  0  0  0
  151.5324  141.0141  154.8811 H   0  0  0  0  0  0  0  0  0  0  0  0
  150.0096  140.6967  155.6580 H   0  0  0  0  0  0  0  0  0  0  0  0
  150.5955  142.1069  157.3611 H   0  0  0  0  0  0  0  0  0  0  0  0
  150.9007  141.6102  159.7817 H   0  0  0  0  0  0  0  0  0  0  0  0
  152.4724  140.9664  159.3646 H   0  0  0  0  0  0  0  0  0  0  0  0
  153.4460  143.0792  159.1785 H   0  0  0  0  0  0  0  0  0  0  0  0
  152.3223  144.0433  157.2486 H   0  0  0  0  0  0  0  0  0  0  0  0
  150.7667  144.0454  158.0917 H   0  0  0  0  0  0  0  0  0  0  0  0
  153.2207  145.6957  158.7662 H   0  0  0  0  0  0  0  0  0  0  0  0
  151.5692  146.2857  158.5507 H   0  0  0  0  0  0  0  0  0  0  0  0
  152.6155  145.6214  161.0424 H   0  0  0  0  0  0  0  0  0  0  0  0
  150.9014  145.4193  160.6749 H   0  0  0  0  0  0  0  0  0  0  0  0
  1  2  1  0  0  0  0
  1 18  1  0  0  0  0
  1 19  1  0  0  0  0
  1 20  1  0  0  0  0
  2  7  1  0  0  0  0
  2  3  2  0  0  0  0
  3  4  1  0  0  0  0
  4  5  1  0  0  0  0
  5  6  1  0  0  0  0
  5  7  2  0  0  0  0
  6 21  1  0  0  0  0
  6 22  1  0  0  0  0
  6 23  1  0  0  0  0
  7  8  1  0  0  0  0
  8  9  1  0  0  0  0
  8 24  1  0  0  0  0
  8 25  1  0  0  0  0
  9 10  2  0  0  0  0
  9 11  1  0  0  0  0
 11 12  1  0  0  0  0
 11 26  1  0  0  0  0
 12 13  1  0  0  0  0
 12 27  1  0  0  0  0
 12 28  1  0  0  0  0
 13 17  1  0  0  0  0
 13 14  1  0  0  0  0
 13 29  1  0  0  0  0
 14 15  1  0  0  0  0
 14 30  1  0  0  0  0
 14 31  1  0  0  0  0
 15 16  1  0  0  0  0
 15 32  1  0  0  0  0
 15 33  1  0  0  0  0
 16 17  1  0  0  0  0
 16 34  1  0  0  0  0
 16 35  1  0  0  0  0
M  END
> <s_m_source_file>
AV-unprocessed.smi

> <i_m_source_file_index>
2208

> <i_lp_mmshare_version>
43012

> <i_f3d_flags>
0

> <s_epik_input>
W0NIM11jMW5vYyhbQ0gzXSljMVtDSDJdQyg9TylbTkhdW0NIMl1bQ0BASF0yW0NIMl1bQ0gyXVtDSDJdTzI=

> <s_epik_cmdline>
J2VwaWtfcHl0aG9uJywgJy1waCcsICc3LjAnLCAnLXRuJywgJzgnLCAnLW1hJywgJzIwMCcsICctbWV0YWxfYmluZGluZycsICctaW1hZScsICc8aW5maWxlLm1hZT4nLCAnLW9tYWUnLCAnPG91dGZpbGUubWFlPic=

> <r_lp_tautomer_probability>
1

> <r_epik_Ionization_Penalty>
3.13901e-08

> <r_epik_Ionization_Penalty_Charging>
0

> <r_epik_Ionization_Penalty_Neutral>
3.13901e-08

> <r_epik_State_Penalty>
-0

> <r_epik_Charging_Adjusted_Penalty>
0

> <i_epik_Tot_Q>
0

> <i_epik_Tot_abs_Q>
0

> <r_epik_Metal_State_Penalty>
-0

> <b_epik_Metal_Only>
0

> <s_lp_Force_Field>
OPLS_2005

> <r_lp_Energy>
10.5641

> <b_lp_Chiralities_Consistent>
1

> <s_lp_Variant>
AV-unprocessed.smi:2208-2

> <Gold.Version>
5.8.1

> <Gold.Id.Protein>
6NUR|6NUR_protein|mol2

> <Gold.PLP.Fitness>
40.0041

> <Gold.PLP.PLP>
-36.0490

> <Gold.PLP.part.hbond>
-2.0000

> <Gold.PLP.part.metal>
0.0000

> <Gold.PLP.part.buried>
-4.9676

> <Gold.PLP.part.nonpolar>
-29.8138

> <Gold.PLP.part.repulsive>
0.5260

> <Gold.PLP.ligand.clash>
0.0000

> <Gold.PLP.ligand.torsion>
1.0144

> <Gold.PLP.Chemscore.Hbond>
1.9920

> <Gold.PLP.Chemscore.CHOScore>
0.0000

> <Gold.PLP.Chemscore.Metal>
0.0000

> <Gold.Chemscore.Hbonds>
donor molecule, donor type, donor heavy atom, donor atom, acceptor molecule, acceptor atom, score
      P1  H  7997  8008       L1    10  0.98
      P1  H 10752 10765       L1     4  1.00

> <Gold.PLP.Chemscore.Internal.Correction>
0.0078

> <Gold.Rescore>
     Score         DG    S(hbond)    S(metal)    S(lipo)     H(rot)  DE(clash)    DE(int)     intcor
     17.58     -19.26       1.94        0.00      96.47       1.56       0.05       1.63       ----

> <Gold.Chemscore.Fitness>
17.5803

> <Gold.Chemscore.DG>
-19.2627

> <Gold.Chemscore.ZeroCoef>
-5.4800

> <Gold.Chemscore.Hbond>
1.9390

> <Gold.Chemscore.Metal>
0.0000

> <Gold.Chemscore.Lipo>
96.4725

> <Gold.Chemscore.Internal_Hbond>
0.0000

> <Gold.Chemscore.DEClash>
0.0524

> <Gold.Chemscore.DEInternal>
1.6300

> <Gold.Chemscore.Rot>
1.5551

> <Gold.Chemscore.Internal.Correction>
   9.000000E+99

> <Gold.Chemscore.Hbonds>
donor molecule, donor type, donor heavy atom, donor atom, acceptor molecule, acceptor atom, score
      P1  H  7997  8008       L1    10  0.86
      P1  H 10752 10765       L1     4  0.98

> <Gold.Chemscore.Hbond.Weighted>
-6.4764

> <Gold.Chemscore.Metal.Weighted>
-0.0000

> <Gold.Chemscore.Lipo.Weighted>
-11.2873

> <Gold.Chemscore.Internal_Hbond.Weighted>
0.0000

> <Gold.Chemscore.DEClash.Weighted>
0.0524

> <Gold.Chemscore.DEInternal.Weighted>
1.6300

> <Gold.Chemscore.Rot.Weighted>
3.9809

> <Gold.Chemscore.Internal.Correction.Weighted>
   9.000000E+99

> <Gold.Protein.RotatedTorsions>
[ 6907 6896 6895 6894 ] final  -98.95 input  -60.11 | X-H torsion
[ 7974 7965 7964 7962 ] final -135.93 input  175.53 | X-H torsion
[ 8008 7997 7996 7995 ] final  -83.38 input   59.86 | X-H torsion
[ 10167 10162 10161 10158 ] final  157.64 input  -65.29 | X-H torsion
[ 10718 10713 10712 10709 ] final  -65.96 input   66.30 | X-H torsion
[ 10763 10752 10751 10750 ] final  164.07 input  -60.55 | X-H torsion
[ 11005 11000 10999 10996 ] final   12.47 input  -57.11 | X-H torsion

> <Gold.Protein.ActiveResidues>
 VAL166  LYS551  ARG553  GLY616  TRP617  ASP618  TYR619  PRO620  LYS621  CYS622 
 ASP623  PHE694  ASN695  SER759  ASP760  ASP761  ALA762  ILE779  LEU786  VAL792 
 PHE793  MET794  SER795  GLU796  ALA797  LYS798  CYS799  TRP800  GLU811  SER814 

> <Gold.Protein.RotatedAtoms>
  150.7063  134.1115  159.4001 H   0  0  0  0  0  0  0  0  0  0  0  0  # atno 6907 bound_to 6896
  151.9101  135.0340  160.0523 H   0  0  0  0  0  0  0  0  0  0  0  0  # atno 6908 bound_to 6896
  152.2342  133.5047  159.5270 H   0  0  0  0  0  0  0  0  0  0  0  0  # atno 6909 bound_to 6896
  144.8971  140.6721  143.5109 H   0  0  0  0  0  0  0  0  0  0  0  0  # atno 7974 bound_to 7965
  154.6185  140.0619  156.9585 H   0  0  0  0  0  0  0  0  0  0  0  0  # atno 8008 bound_to 7997
  155.1856  140.3303  155.4349 H   0  0  0  0  0  0  0  0  0  0  0  0  # atno 8009 bound_to 7997
  156.2418  140.1890  156.6950 H   0  0  0  0  0  0  0  0  0  0  0  0  # atno 8010 bound_to 7997
  139.4824  144.4899  151.8324 H   0  0  0  0  0  0  0  0  0  0  0  0  # atno 10167 bound_to 10162
  156.0639  130.4255  150.1640 H   0  0  0  0  0  0  0  0  0  0  0  0  # atno 10718 bound_to 10713
  154.3033  135.2758  155.2600 H   0  0  0  0  0  0  0  0  0  0  0  0  # atno 10763 bound_to 10752
  154.5028  135.5803  153.6547 H   0  0  0  0  0  0  0  0  0  0  0  0  # atno 10764 bound_to 10752
  152.9897  135.6162  154.3206 H   0  0  0  0  0  0  0  0  0  0  0  0  # atno 10765 bound_to 10752
  140.4916  134.0834  155.7772 H   0  0  0  0  0  0  0  0  0  0  0  0  # atno 11005 bound_to 11000
  145.3682  139.1665  143.4346 LP  0  0  0  0  0  0  0  0  0  0  0  0  # atno 17320 bound_to 7965
  146.3087  140.3751  142.8678 LP  0  0  0  0  0  0  0  0  0  0  0  0  # atno 17321 bound_to 7965
  140.4382  144.2023  150.5890 LP  0  0  0  0  0  0  0  0  0  0  0  0  # atno 17342 bound_to 10162
  140.4710  143.2413  151.9088 LP  0  0  0  0  0  0  0  0  0  0  0  0  # atno 17343 bound_to 10162
  156.9703  130.9832  151.3460 LP  0  0  0  0  0  0  0  0  0  0  0  0  # atno 17370 bound_to 10713
  157.5667  130.8283  149.8337 LP  0  0  0  0  0  0  0  0  0  0  0  0  # atno 17371 bound_to 10713
  141.1481  133.9018  157.2166 LP  0  0  0  0  0  0  0  0  0  0  0  0  # atno 17394 bound_to 11000
  139.9766  135.0112  156.9645 LP  0  0  0  0  0  0  0  0  0  0  0  0  # atno 17395 bound_to 11000

$$$$
