AV-unprocessed.smi:34|AV-procd|sdf|232|dock4
  -GOLD-   2262015563D 1   1.00000     0.00000
 Structure written by MMmdl.
 54 58  0  0  0  0  0  0  0  0  2 V2000
  150.5518  142.3413  156.4849 O   0  0  0  0  0  0  0  0  0  0  0  0
  151.5453  142.2338  157.2068 C   0  0  0  0  0  0  0  0  0  0  0  0
  152.4043  141.1862  157.2906 N   0  5  0  0  0  0  0  0  0  0  0  0
  152.6213  140.4098  156.2177 C   0  0  0  0  0  0  0  0  0  0  0  0
  152.6691  140.9556  154.9757 N   0  0  0  0  0  0  0  0  0  0  0  0
  152.8789  140.1810  153.9052 C   0  0  0  0  0  0  0  0  0  0  0  0
  153.0583  138.8584  153.8495 N   0  0  0  0  0  0  0  0  0  0  0  0
  153.0047  138.2935  155.0903 C   0  0  0  0  0  0  0  0  0  0  0  0
  152.7882  139.0003  156.3095 C   0  0  0  0  0  0  0  0  0  0  0  0
  152.7884  138.1304  157.3900 N   0  0  0  0  0  0  0  0  0  0  0  0
  153.0042  136.9608  156.7931 C   0  0  0  0  0  0  0  0  0  0  0  0
  153.1458  136.9616  155.4528 N   0  0  0  0  0  0  0  0  0  0  0  0
  153.3993  135.7718  154.5791 C   0  0  1  0  0  0  0  0  0  0  0  0
  153.7382  134.6670  155.3661 O   0  0  0  0  0  0  0  0  0  0  0  0
  153.0788  133.4832  154.9055 C   0  0  1  0  0  0  0  0  0  0  0  0
  152.0495  133.0443  155.9594 C   0  0  0  0  0  0  0  0  0  0  0  0
  152.4059  133.6017  157.2140 O   0  0  0  0  0  0  0  0  0  0  0  0
  153.2441  132.9387  158.0344 C   0  0  0  0  0  0  0  0  0  0  0  0
  153.8228  131.8957  157.7228 O   0  0  0  0  0  0  0  0  0  0  0  0
  153.3962  133.5983  159.3632 C   0  0  0  0  0  0  0  0  0  0  0  0
  152.8755  134.8993  159.5549 C   0  0  0  0  0  0  0  0  0  0  0  0
  153.0083  135.5491  160.7975 C   0  0  0  0  0  0  0  0  0  0  0  0
  153.6654  134.9064  161.8628 C   0  0  0  0  0  0  0  0  0  0  0  0
  154.1885  133.6124  161.6846 C   0  0  0  0  0  0  0  0  0  0  0  0
  154.0555  132.9605  160.4431 C   0  0  0  0  0  0  0  0  0  0  0  0
  152.4561  133.8933  153.5667 C   0  0  1  0  0  0  0  0  0  0  0  0
  151.3849  133.1870  153.2001 F   0  0  0  0  0  0  0  0  0  0  0  0
  152.1877  135.3781  153.7242 C   0  0  1  0  0  0  0  0  0  0  0  0
  150.9442  135.6453  154.3491 O   0  0  0  0  0  0  0  0  0  0  0  0
  151.8592  143.3407  158.1783 C   0  0  0  0  0  0  0  0  0  0  0  0
  153.1138  143.3661  158.8296 C   0  0  0  0  0  0  0  0  0  0  0  0
  153.4176  144.3781  159.7612 C   0  0  0  0  0  0  0  0  0  0  0  0
  152.4658  145.3707  160.0597 C   0  0  0  0  0  0  0  0  0  0  0  0
  151.2081  145.3484  159.4283 C   0  0  0  0  0  0  0  0  0  0  0  0
  150.9036  144.3370  158.4964 C   0  0  0  0  0  0  0  0  0  0  0  0
  152.9064  140.6942  152.9553 H   0  0  0  0  0  0  0  0  0  0  0  0
  153.0668  136.0472  157.3658 H   0  0  0  0  0  0  0  0  0  0  0  0
  154.2638  136.0482  153.9738 H   0  0  0  0  0  0  0  0  0  0  0  0
  153.8066  132.6853  154.7535 H   0  0  0  0  0  0  0  0  0  0  0  0
  151.0455  133.3555  155.6717 H   0  0  0  0  0  0  0  0  0  0  0  0
  152.0392  131.9574  156.0485 H   0  0  0  0  0  0  0  0  0  0  0  0
  152.3691  135.4131  158.7505 H   0  0  0  0  0  0  0  0  0  0  0  0
  152.6062  136.5422  160.9322 H   0  0  0  0  0  0  0  0  0  0  0  0
  153.7689  135.4053  162.8149 H   0  0  0  0  0  0  0  0  0  0  0  0
  154.6938  133.1183  162.5014 H   0  0  0  0  0  0  0  0  0  0  0  0
  154.4713  131.9689  160.3388 H   0  0  0  0  0  0  0  0  0  0  0  0
  153.1968  133.7524  152.7783 H   0  0  0  0  0  0  0  0  0  0  0  0
  152.2194  135.9068  152.7710 H   0  0  0  0  0  0  0  0  0  0  0  0
  150.3330  135.9401  153.6912 H   0  0  0  0  0  0  0  0  0  0  0  0
  153.8549  142.6100  158.6143 H   0  0  0  0  0  0  0  0  0  0  0  0
  154.3813  144.3910  160.2483 H   0  0  0  0  0  0  0  0  0  0  0  0
  152.6983  146.1461  160.7744 H   0  0  0  0  0  0  0  0  0  0  0  0
  150.4738  146.1053  159.6609 H   0  0  0  0  0  0  0  0  0  0  0  0
  149.9283  144.3328  158.0315 H   0  0  0  0  0  0  0  0  0  0  0  0
  1  2  2  0  0  0  0
  2  3  1  0  0  0  0
  2 30  1  0  0  0  0
  3  4  1  0  0  0  0
  4  9  1  0  0  0  0
  4  5  2  0  0  0  0
  5  6  1  0  0  0  0
  6  7  2  0  0  0  0
  6 36  1  0  0  0  0
  7  8  1  0  0  0  0
  8 12  1  0  0  0  0
  8  9  2  0  0  0  0
  9 10  1  0  0  0  0
 10 11  2  0  0  0  0
 11 12  1  0  0  0  0
 11 37  1  0  0  0  0
 12 13  1  0  0  0  0
 13 28  1  0  0  0  0
 13 14  1  0  0  0  0
 13 38  1  0  0  0  0
 14 15  1  0  0  0  0
 15 16  1  0  0  0  0
 15 26  1  0  0  0  0
 15 39  1  0  0  0  0
 16 17  1  0  0  0  0
 16 40  1  0  0  0  0
 16 41  1  0  0  0  0
 17 18  1  0  0  0  0
 18 19  2  0  0  0  0
 18 20  1  0  0  0  0
 20 25  1  0  0  0  0
 20 21  2  0  0  0  0
 21 22  1  0  0  0  0
 21 42  1  0  0  0  0
 22 23  2  0  0  0  0
 22 43  1  0  0  0  0
 23 24  1  0  0  0  0
 23 44  1  0  0  0  0
 24 25  2  0  0  0  0
 24 45  1  0  0  0  0
 25 46  1  0  0  0  0
 26 27  1  0  0  0  0
 26 28  1  0  0  0  0
 26 47  1  0  0  0  0
 28 29  1  0  0  0  0
 28 48  1  0  0  0  0
 29 49  1  0  0  0  0
 30 35  1  0  0  0  0
 30 31  2  0  0  0  0
 31 32  1  0  0  0  0
 31 50  1  0  0  0  0
 32 33  2  0  0  0  0
 32 51  1  0  0  0  0
 33 34  1  0  0  0  0
 33 52  1  0  0  0  0
 34 35  2  0  0  0  0
 34 53  1  0  0  0  0
 35 54  1  0  0  0  0
M  CHG  1   3  -1
M  END
> <s_m_source_file>
AV-unprocessed.smi

> <i_m_source_file_index>
34

> <i_lp_mmshare_version>
43012

> <i_f3d_flags>
0

> <s_epik_input>
W2NIXTFbY0hdW2NIXVtjSF1bY0hdYzFDKD1PKVtOSF1jKG5bY0hdbjIpYyhjMjMpbltjSF1uM1tDQEBIXTRPW0NASF0oW0NAQEhdKEYpW0NASF00W09IXSlbQ0gyXU9DKD1PKWM1W2NIXVtjSF1bY0hdW2NIXVtjSF01

> <s_epik_cmdline>
J2VwaWtfcHl0aG9uJywgJy1waCcsICc3LjAnLCAnLXRuJywgJzgnLCAnLW1hJywgJzIwMCcsICctbWV0YWxfYmluZGluZycsICctaW1hZScsICc8aW5maWxlLm1hZT4nLCAnLW9tYWUnLCAnPG91dGZpbGUubWFlPic=

> <r_lp_tautomer_probability>
1

> <r_epik_Ionization_Penalty>
4.33227

> <r_epik_Ionization_Penalty_Charging>
3.41027

> <r_epik_Ionization_Penalty_Neutral>
0.922001

> <r_epik_State_Penalty>
3.41358

> <r_epik_Charging_Adjusted_Penalty>
6.82385

> <i_epik_Tot_Q>
-1

> <i_epik_Tot_abs_Q>
1

> <r_epik_Metal_State_Penalty>
0.496292

> <b_epik_Metal_Only>
1

> <s_epik_Chemistry_Notes>
This compound has an ester and may undergo hydrolysis at high or low pH. This compound contains an acetal/aminal-like group ( X-CH(R)-Y where X, Y are N, S, or O) that may be acid/base labile, releasing an aldehyde.

> <s_lp_Force_Field>
OPLS_2005

> <r_lp_Energy>
54.2336

> <b_lp_Chiralities_Consistent>
1

> <s_lp_Variant>
AV-unprocessed.smi:34-18

> <Gold.Version>
5.8.1

> <Gold.Id.Protein>
6NUR|6NUR_protein|mol2

> <Gold.PLP.Fitness>
70.6036

> <Gold.PLP.PLP>
-63.5916

> <Gold.PLP.part.hbond>
-3.8961

> <Gold.PLP.part.metal>
0.0000

> <Gold.PLP.part.buried>
-8.3613

> <Gold.PLP.part.nonpolar>
-51.6987

> <Gold.PLP.part.repulsive>
0.1316

> <Gold.PLP.ligand.clash>
0.0000

> <Gold.PLP.ligand.torsion>
1.6129

> <Gold.PLP.Chemscore.Hbond>
3.1088

> <Gold.PLP.Chemscore.CHOScore>
0.0000

> <Gold.PLP.Chemscore.Metal>
0.0000

> <Gold.Chemscore.Hbonds>
donor molecule, donor type, donor heavy atom, donor atom, acceptor molecule, acceptor atom, score
      L1  H    29    49       P1  7948  0.13

> <Gold.PLP.Chemscore.Internal.Correction>
0.9114

> <Gold.Rescore>
     Score         DG    S(hbond)    S(metal)    S(lipo)     H(rot)  DE(clash)    DE(int)     intcor
     19.35     -22.25       2.34        0.00     135.49       2.69       0.08       2.82       ----

> <Gold.Chemscore.Fitness>
19.3509

> <Gold.Chemscore.DG>
-22.2502

> <Gold.Chemscore.ZeroCoef>
-5.4800

> <Gold.Chemscore.Hbond>
2.3401

> <Gold.Chemscore.Metal>
0.0000

> <Gold.Chemscore.Lipo>
135.4861

> <Gold.Chemscore.Internal_Hbond>
0.0000

> <Gold.Chemscore.DEClash>
0.0811

> <Gold.Chemscore.DEInternal>
2.8182

> <Gold.Chemscore.Rot>
2.6944

> <Gold.Chemscore.Internal.Correction>
   9.000000E+99

> <Gold.Chemscore.Hbond.Weighted>
-7.8158

> <Gold.Chemscore.Metal.Weighted>
-0.0000

> <Gold.Chemscore.Lipo.Weighted>
-15.8519

> <Gold.Chemscore.Internal_Hbond.Weighted>
0.0000

> <Gold.Chemscore.DEClash.Weighted>
0.0811

> <Gold.Chemscore.DEInternal.Weighted>
2.8182

> <Gold.Chemscore.Rot.Weighted>
6.8975

> <Gold.Chemscore.Internal.Correction.Weighted>
   9.000000E+99

> <Gold.Protein.RotatedTorsions>
[ 6907 6896 6895 6894 ] final -131.29 input  -60.11 | X-H torsion
[ 7974 7965 7964 7962 ] final  -16.47 input  175.53 | X-H torsion
[ 8008 7997 7996 7995 ] final -175.74 input   59.86 | X-H torsion
[ 10167 10162 10161 10158 ] final  168.13 input  -65.29 | X-H torsion
[ 10718 10713 10712 10709 ] final   72.77 input   66.30 | X-H torsion
[ 10763 10752 10751 10750 ] final -169.56 input  -60.55 | X-H torsion
[ 11005 11000 10999 10996 ] final   29.21 input  -57.11 | X-H torsion

> <Gold.Protein.ActiveResidues>
 VAL166  LYS551  ARG553  GLY616  TRP617  ASP618  TYR619  PRO620  LYS621  CYS622 
 ASP623  PHE694  ASN695  SER759  ASP760  ASP761  ALA762  ILE779  LEU786  VAL792 
 PHE793  MET794  SER795  GLU796  ALA797  LYS798  CYS799  TRP800  GLU811  SER814 

> <Gold.Protein.RotatedAtoms>
  150.9493  133.6567  159.2774 H   0  0  0  0  0  0  0  0  0  0  0  0  # atno 6907 bound_to 6896
  151.3928  135.0957  159.9541 H   0  0  0  0  0  0  0  0  0  0  0  0  # atno 6908 bound_to 6896
  152.5103  133.9004  159.7493 H   0  0  0  0  0  0  0  0  0  0  0  0  # atno 6909 bound_to 6896
  146.1986  140.3641  142.8431 H   0  0  0  0  0  0  0  0  0  0  0  0  # atno 7974 bound_to 7965
  155.9864  140.1192  157.0679 H   0  0  0  0  0  0  0  0  0  0  0  0  # atno 8008 bound_to 7997
  154.4198  140.1134  156.5573 H   0  0  0  0  0  0  0  0  0  0  0  0  # atno 8009 bound_to 7997
  155.6402  140.3473  155.4714 H   0  0  0  0  0  0  0  0  0  0  0  0  # atno 8010 bound_to 7997
  139.4961  144.3848  151.9582 H   0  0  0  0  0  0  0  0  0  0  0  0  # atno 10167 bound_to 10162
  157.6517  130.9595  150.0976 H   0  0  0  0  0  0  0  0  0  0  0  0  # atno 10718 bound_to 10713
  154.6509  135.2911  154.9987 H   0  0  0  0  0  0  0  0  0  0  0  0  # atno 10763 bound_to 10752
  154.1081  135.6567  153.4884 H   0  0  0  0  0  0  0  0  0  0  0  0  # atno 10764 bound_to 10752
  153.0376  135.5258  154.7417 H   0  0  0  0  0  0  0  0  0  0  0  0  # atno 10765 bound_to 10752
  140.3073  134.2689  155.7741 H   0  0  0  0  0  0  0  0  0  0  0  0  # atno 11005 bound_to 11000
  144.8633  140.7170  143.6093 LP  0  0  0  0  0  0  0  0  0  0  0  0  # atno 17320 bound_to 7965
  145.3561  139.1693  143.4408 LP  0  0  0  0  0  0  0  0  0  0  0  0  # atno 17321 bound_to 7965
  140.3285  144.3344  150.5993 LP  0  0  0  0  0  0  0  0  0  0  0  0  # atno 17342 bound_to 10162
  140.5665  143.2185  151.7675 LP  0  0  0  0  0  0  0  0  0  0  0  0  # atno 17343 bound_to 10162
  156.1907  130.3654  149.8913 LP  0  0  0  0  0  0  0  0  0  0  0  0  # atno 17370 bound_to 10713
  156.6842  130.8870  151.3580 LP  0  0  0  0  0  0  0  0  0  0  0  0  # atno 17371 bound_to 10713
  141.2115  133.7685  156.9856 LP  0  0  0  0  0  0  0  0  0  0  0  0  # atno 17394 bound_to 11000
  140.1055  134.9509  157.1988 LP  0  0  0  0  0  0  0  0  0  0  0  0  # atno 17395 bound_to 11000

$$$$
