AV-unprocessed.smi:174|AV-procd|sdf|1426|dock9
  -GOLD-   2262019203D 1   1.00000     0.00000
 Structure written by MMmdl.
 51 54  0  0  0  0  0  0  0  0  1 V2000
  142.5845  134.2036  155.2300 N   0  0  0  0  0  0  0  0  0  0  0  0
  143.4556  135.2120  155.1515 C   0  0  0  0  0  0  0  0  0  0  0  0
  143.1835  136.3420  155.5550 O   0  0  0  0  0  0  0  0  0  0  0  0
  144.8145  134.8956  154.5099 C   0  0  0  0  0  0  0  0  0  0  0  0
  145.7179  136.0562  154.4471 N   0  0  0  0  0  0  0  0  0  0  0  0
  147.0187  135.9150  155.1097 C   0  0  0  0  0  0  0  0  0  0  0  0
  147.5241  137.2468  155.6726 C   0  0  0  0  0  0  0  0  0  0  0  0
  147.5247  138.2658  154.6305 N   0  0  0  0  0  0  0  0  0  0  0  0
  148.3056  139.3742  154.7628 C   0  0  0  0  0  0  0  0  0  0  0  0
  148.1074  140.3923  153.8833 N   0  0  0  0  0  0  0  0  0  0  0  0
  148.8425  141.5052  153.9470 C   0  0  0  0  0  0  0  0  0  0  0  0
  149.8170  141.8117  154.8031 N   0  0  0  0  0  0  0  0  0  0  0  0
  150.0198  140.8043  155.6987 C   0  0  0  0  0  0  0  0  0  0  0  0
  149.3190  139.5635  155.7534 C   0  0  0  0  0  0  0  0  0  0  0  0
  149.8055  138.8081  156.8171 N   0  0  0  0  0  0  0  0  0  0  0  0
  150.7407  139.5481  157.3459 C   0  0  0  0  0  0  0  0  0  0  0  0
  150.9359  140.7637  156.7350 N   0  0  0  0  0  0  0  0  0  0  0  0
  151.9045  141.7782  157.1125 C   0  0  0  0  0  0  0  0  0  0  0  0
  151.2457  143.1363  157.4255 C   0  0  1  0  0  0  0  0  0  0  0  0
  149.9011  142.9288  157.8150 O   0  0  0  0  0  0  0  0  0  0  0  0
  151.9775  143.8892  158.5517 C   0  0  2  0  0  0  0  0  0  0  0  0
  152.0280  143.1453  159.8861 C   0  0  0  0  0  0  0  0  0  0  0  0
  152.2378  144.2592  160.8977 C   0  0  0  0  0  0  0  0  0  0  0  0
  151.7856  145.5213  160.1568 C   0  0  0  0  0  0  0  0  0  0  0  0
  151.2725  145.0674  158.9108 O   0  0  0  0  0  0  0  0  0  0  0  0
  146.3669  138.3649  153.7267 C   0  0  0  0  0  0  0  0  0  0  0  0
  145.3909  137.1729  153.7514 C   0  0  0  0  0  0  0  0  0  0  0  0
  144.3279  137.2854  153.1403 O   0  0  0  0  0  0  0  0  0  0  0  0
  141.6785  134.3562  155.6491 H   0  0  0  0  0  0  0  0  0  0  0  0
  142.8347  133.2913  154.8773 H   0  0  0  0  0  0  0  0  0  0  0  0
  145.2904  134.0803  155.0582 H   0  0  0  0  0  0  0  0  0  0  0  0
  144.6334  134.5004  153.5101 H   0  0  0  0  0  0  0  0  0  0  0  0
  146.9715  135.1835  155.9166 H   0  0  0  0  0  0  0  0  0  0  0  0
  147.7314  135.5266  154.3808 H   0  0  0  0  0  0  0  0  0  0  0  0
  146.8913  137.5723  156.4994 H   0  0  0  0  0  0  0  0  0  0  0  0
  148.5310  137.0952  156.0628 H   0  0  0  0  0  0  0  0  0  0  0  0
  148.6171  142.2573  153.2053 H   0  0  0  0  0  0  0  0  0  0  0  0
  151.3175  139.2257  158.2006 H   0  0  0  0  0  0  0  0  0  0  0  0
  152.4698  141.4209  157.9742 H   0  0  0  0  0  0  0  0  0  0  0  0
  152.6196  141.8843  156.2960 H   0  0  0  0  0  0  0  0  0  0  0  0
  151.2411  143.7496  156.5234 H   0  0  0  0  0  0  0  0  0  0  0  0
  149.3362  143.2773  157.1422 H   0  0  0  0  0  0  0  0  0  0  0  0
  152.9869  144.1632  158.2379 H   0  0  0  0  0  0  0  0  0  0  0  0
  151.0742  142.6520  160.0786 H   0  0  0  0  0  0  0  0  0  0  0  0
  152.8118  142.3880  159.9203 H   0  0  0  0  0  0  0  0  0  0  0  0
  151.6601  144.0856  161.8061 H   0  0  0  0  0  0  0  0  0  0  0  0
  153.2886  144.3403  161.1777 H   0  0  0  0  0  0  0  0  0  0  0  0
  151.0264  146.0781  160.7063 H   0  0  0  0  0  0  0  0  0  0  0  0
  152.6323  146.1855  159.9785 H   0  0  0  0  0  0  0  0  0  0  0  0
  145.8055  139.2703  153.9629 H   0  0  0  0  0  0  0  0  0  0  0  0
  146.7192  138.4664  152.6993 H   0  0  0  0  0  0  0  0  0  0  0  0
  1  2  1  0  0  0  0
  1 29  1  0  0  0  0
  1 30  1  0  0  0  0
  2  3  2  0  0  0  0
  2  4  1  0  0  0  0
  4  5  1  0  0  0  0
  4 31  1  0  0  0  0
  4 32  1  0  0  0  0
  5 27  1  0  0  0  0
  5  6  1  0  0  0  0
  6  7  1  0  0  0  0
  6 33  1  0  0  0  0
  6 34  1  0  0  0  0
  7  8  1  0  0  0  0
  7 35  1  0  0  0  0
  7 36  1  0  0  0  0
  8  9  1  0  0  0  0
  8 26  1  0  0  0  0
  9 14  1  0  0  0  0
  9 10  2  0  0  0  0
 10 11  1  0  0  0  0
 11 12  2  0  0  0  0
 11 37  1  0  0  0  0
 12 13  1  0  0  0  0
 13 17  1  0  0  0  0
 13 14  2  0  0  0  0
 14 15  1  0  0  0  0
 15 16  2  0  0  0  0
 16 17  1  0  0  0  0
 16 38  1  0  0  0  0
 17 18  1  0  0  0  0
 18 19  1  0  0  0  0
 18 39  1  0  0  0  0
 18 40  1  0  0  0  0
 19 20  1  0  0  0  0
 19 21  1  0  0  0  0
 19 41  1  0  0  0  0
 20 42  1  0  0  0  0
 21 25  1  0  0  0  0
 21 22  1  0  0  0  0
 21 43  1  0  0  0  0
 22 23  1  0  0  0  0
 22 44  1  0  0  0  0
 22 45  1  0  0  0  0
 23 24  1  0  0  0  0
 23 46  1  0  0  0  0
 23 47  1  0  0  0  0
 24 25  1  0  0  0  0
 24 48  1  0  0  0  0
 24 49  1  0  0  0  0
 26 27  1  0  0  0  0
 26 50  1  0  0  0  0
 26 51  1  0  0  0  0
 27 28  2  0  0  0  0
M  END
> <s_m_source_file>
AV-unprocessed.smi

> <i_m_source_file_index>
174

> <i_lp_mmshare_version>
43012

> <i_f3d_flags>
0

> <s_epik_input>
W05IMl1DKD1PKVtDSDJdTjFbQ0gyXVtDSDJdTihbQ0gyXUMxPU8pYyhuW2NIXW4yKWMoYzIzKW5bY0hdbjNbQ0gyXVtDQEhdKFtPSF0pW0NAQEhdNFtDSDJdW0NIMl1bQ0gyXU80

> <s_epik_cmdline>
J2VwaWtfcHl0aG9uJywgJy1waCcsICc3LjAnLCAnLXRuJywgJzgnLCAnLW1hJywgJzIwMCcsICctbWV0YWxfYmluZGluZycsICctaW1hZScsICc8aW5maWxlLm1hZT4nLCAnLW9tYWUnLCAnPG91dGZpbGUubWFlPic=

> <r_lp_tautomer_probability>
1

> <r_epik_Ionization_Penalty>
0.000250477

> <r_epik_Ionization_Penalty_Charging>
0

> <r_epik_Ionization_Penalty_Neutral>
0.000250477

> <r_epik_State_Penalty>
-0

> <r_epik_Charging_Adjusted_Penalty>
0

> <i_epik_Tot_Q>
0

> <i_epik_Tot_abs_Q>
0

> <r_epik_Metal_State_Penalty>
-0

> <b_epik_Metal_Only>
0

> <s_lp_Force_Field>
OPLS_2005

> <r_lp_Energy>
35.93

> <b_lp_Chiralities_Consistent>
1

> <s_lp_Variant>
AV-unprocessed.smi:174-2

> <Gold.Version>
5.8.1

> <Gold.Id.Protein>
6NUR|6NUR_protein|mol2

> <Gold.PLP.Fitness>
41.3711

> <Gold.PLP.PLP>
-33.2426

> <Gold.PLP.part.hbond>
-4.9340

> <Gold.PLP.part.metal>
0.0000

> <Gold.PLP.part.buried>
-2.3229

> <Gold.PLP.part.nonpolar>
-26.6783

> <Gold.PLP.part.repulsive>
1.0935

> <Gold.PLP.ligand.clash>
0.0000

> <Gold.PLP.ligand.torsion>
0.5605

> <Gold.PLP.Chemscore.Hbond>
3.0058

> <Gold.PLP.Chemscore.CHOScore>
0.0000

> <Gold.PLP.Chemscore.Metal>
0.0000

> <Gold.Chemscore.Hbonds>
donor molecule, donor type, donor heavy atom, donor atom, acceptor molecule, acceptor atom, score
      L1  H     1    29       P1 11000  1.00
      L1  H     1    30       P1 10957  1.00
      L1  H    20    42       P1  8028  0.81
      P1  H  7989  7998       L1    12  0.01

> <Gold.PLP.Chemscore.Internal.Correction>
0.2322

> <Gold.Rescore>
     Score         DG    S(hbond)    S(metal)    S(lipo)     H(rot)  DE(clash)    DE(int)     intcor
      6.96     -13.10       2.23        0.00      77.25       3.46       3.42       2.72       ----

> <Gold.Chemscore.Fitness>
6.9618

> <Gold.Chemscore.DG>
-13.0993

> <Gold.Chemscore.ZeroCoef>
-5.4800

> <Gold.Chemscore.Hbond>
2.2265

> <Gold.Chemscore.Metal>
0.0000

> <Gold.Chemscore.Lipo>
77.2496

> <Gold.Chemscore.Internal_Hbond>
0.0000

> <Gold.Chemscore.DEClash>
3.4158

> <Gold.Chemscore.DEInternal>
2.7217

> <Gold.Chemscore.Rot>
3.4591

> <Gold.Chemscore.Internal.Correction>
   9.000000E+99

> <Gold.Chemscore.Hbonds>
donor molecule, donor type, donor heavy atom, donor atom, acceptor molecule, acceptor atom, score
      L1  H     1    29       P1 11000  0.70
      L1  H     1    30       P1 10957  0.90
      L1  H    20    42       P1  8028  0.66

> <Gold.Chemscore.Hbond.Weighted>
-7.4365

> <Gold.Chemscore.Metal.Weighted>
-0.0000

> <Gold.Chemscore.Lipo.Weighted>
-9.0382

> <Gold.Chemscore.Internal_Hbond.Weighted>
0.0000

> <Gold.Chemscore.DEClash.Weighted>
3.4158

> <Gold.Chemscore.DEInternal.Weighted>
2.7217

> <Gold.Chemscore.Rot.Weighted>
8.8553

> <Gold.Chemscore.Internal.Correction.Weighted>
   9.000000E+99

> <Gold.Protein.RotatedTorsions>
[ 6907 6896 6895 6894 ] final  -88.90 input  -60.11 | X-H torsion
[ 7974 7965 7964 7962 ] final   22.62 input  175.53 | X-H torsion
[ 8008 7997 7996 7995 ] final  175.46 input   59.86 | X-H torsion
[ 10167 10162 10161 10158 ] final   36.06 input  -65.29 | X-H torsion
[ 10718 10713 10712 10709 ] final  133.02 input   66.30 | X-H torsion
[ 10763 10752 10751 10750 ] final   90.94 input  -60.55 | X-H torsion
[ 11005 11000 10999 10996 ] final  177.33 input  -57.11 | X-H torsion

> <Gold.Protein.ActiveResidues>
 VAL166  LYS551  ARG553  GLY616  TRP617  ASP618  TYR619  PRO620  LYS621  CYS622 
 ASP623  PHE694  ASN695  SER759  ASP760  ASP761  ALA762  ILE779  LEU786  VAL792 
 PHE793  MET794  SER795  GLU796  ALA797  LYS798  CYS799  TRP800  GLU811  SER814 

> <Gold.Protein.RotatedAtoms>
  150.6871  134.2670  159.4572 H   0  0  0  0  0  0  0  0  0  0  0  0  # atno 6907 bound_to 6896
  152.0596  134.9600  160.0584 H   0  0  0  0  0  0  0  0  0  0  0  0  # atno 6908 bound_to 6896
  152.1032  133.4226  159.4634 H   0  0  0  0  0  0  0  0  0  0  0  0  # atno 6909 bound_to 6896
  146.2021  139.7859  142.8754 H   0  0  0  0  0  0  0  0  0  0  0  0  # atno 7974 bound_to 7965
  156.0868  140.1408  156.9642 H   0  0  0  0  0  0  0  0  0  0  0  0  # atno 8008 bound_to 7997
  154.4618  140.0940  156.6961 H   0  0  0  0  0  0  0  0  0  0  0  0  # atno 8009 bound_to 7997
  155.4985  140.3450  155.4369 H   0  0  0  0  0  0  0  0  0  0  0  0  # atno 8010 bound_to 7997
  140.4163  144.1522  150.6143 H   0  0  0  0  0  0  0  0  0  0  0  0  # atno 10167 bound_to 10162
  157.4814  131.1086  150.9677 H   0  0  0  0  0  0  0  0  0  0  0  0  # atno 10718 bound_to 10713
  153.2029  135.4415  155.0288 H   0  0  0  0  0  0  0  0  0  0  0  0  # atno 10763 bound_to 10752
  154.8157  135.3314  154.7185 H   0  0  0  0  0  0  0  0  0  0  0  0  # atno 10764 bound_to 10752
  153.7628  135.6990  153.4977 H   0  0  0  0  0  0  0  0  0  0  0  0  # atno 10765 bound_to 10752
  140.3829  134.6930  157.4462 H   0  0  0  0  0  0  0  0  0  0  0  0  # atno 11005 bound_to 11000
  145.3449  141.0295  143.3371 LP  0  0  0  0  0  0  0  0  0  0  0  0  # atno 17320 bound_to 7965
  144.8706  139.5043  143.6769 LP  0  0  0  0  0  0  0  0  0  0  0  0  # atno 17321 bound_to 7965
  140.4582  143.2459  151.9255 LP  0  0  0  0  0  0  0  0  0  0  0  0  # atno 17342 bound_to 10162
  139.4782  144.5494  151.8409 LP  0  0  0  0  0  0  0  0  0  0  0  0  # atno 17343 bound_to 10162
  157.0409  130.5748  149.5356 LP  0  0  0  0  0  0  0  0  0  0  0  0  # atno 17370 bound_to 10713
  156.0123  130.5216  150.8028 LP  0  0  0  0  0  0  0  0  0  0  0  0  # atno 17371 bound_to 10713
  140.0464  134.6193  155.8915 LP  0  0  0  0  0  0  0  0  0  0  0  0  # atno 17394 bound_to 11000
  141.1917  133.6572  156.5469 LP  0  0  0  0  0  0  0  0  0  0  0  0  # atno 17395 bound_to 11000

$$$$
