AV-unprocessed.smi:37|AV-procd|sdf|306|dock3
  -GOLD-   2262016113D 1   1.00000     0.00000
 Structure written by MMmdl.
 44 45  0  0  0  0  0  0  0  0  1 V2000
  152.7662  138.8064  154.7475 C   0  0  0  0  0  0  0  0  0  0  0  0
  151.4449  138.1123  154.3860 C   0  0  0  0  0  0  0  0  0  0  0  0
  151.1014  136.9354  155.3012 C   0  0  0  0  0  0  0  0  0  0  0  0
  151.8520  136.5549  156.2013 O   0  0  0  0  0  0  0  0  0  0  0  0
  149.9169  136.3927  154.9911 O   0  0  0  0  0  0  0  0  0  0  0  0
  149.4502  135.2597  155.7042 C   0  0  0  0  0  0  0  0  0  0  0  0
  148.3594  134.5218  154.9083 C   0  0  1  0  0  0  0  0  0  0  0  0
  148.9683  133.8285  153.8166 O   0  0  0  0  0  0  0  0  0  0  0  0
  148.3541  132.5892  153.6221 C   0  0  2  0  0  0  0  0  0  0  0  0
  147.1919  132.7177  152.6480 N   0  0  0  0  0  0  0  0  0  0  0  0
  146.8076  133.9342  152.0911 C   0  0  0  0  0  0  0  0  0  0  0  0
  145.7939  134.0532  151.2010 C   0  0  0  0  0  0  0  0  0  0  0  0
  145.4827  135.2645  150.7090 F   0  0  0  0  0  0  0  0  0  0  0  0
  145.0494  132.8797  150.7572 C   0  0  0  0  0  0  0  0  0  0  0  0
  144.1078  132.8888  149.9670 O   0  0  0  0  0  0  0  0  0  0  0  0
  145.4993  131.6742  151.3010 N   0  0  0  0  0  0  0  0  0  0  0  0
  146.5495  131.5364  152.2097 C   0  0  0  0  0  0  0  0  0  0  0  0
  146.8845  130.4158  152.5912 O   0  0  0  0  0  0  0  0  0  0  0  0
  147.8830  132.1547  155.0175 C   0  0  1  0  0  0  0  0  0  0  0  0
  149.4082  131.2840  155.9668 Br  0  0  0  0  0  0  0  0  0  0  0  0
  147.5039  133.4814  155.6620 C   0  0  1  0  0  0  0  0  0  0  0  0
  147.6648  133.4410  157.0760 O   0  0  0  0  0  0  0  0  0  0  0  0
  147.1960  134.4409  157.8447 C   0  0  0  0  0  0  0  0  0  0  0  0
  146.6308  135.4569  157.4401 O   0  0  0  0  0  0  0  0  0  0  0  0
  147.4281  134.1995  159.3349 C   0  0  0  0  0  0  0  0  0  0  0  0
  148.1609  135.3666  160.0104 C   0  0  0  0  0  0  0  0  0  0  0  0
  145.0322  130.8305  151.0019 H   0  0  0  0  0  0  0  0  0  0  0  0
  152.9651  139.6314  154.0634 H   0  0  0  0  0  0  0  0  0  0  0  0
  153.6086  138.1162  154.6852 H   0  0  0  0  0  0  0  0  0  0  0  0
  152.7372  139.2163  155.7577 H   0  0  0  0  0  0  0  0  0  0  0  0
  150.6275  138.8324  154.4280 H   0  0  0  0  0  0  0  0  0  0  0  0
  151.4913  137.7492  153.3590 H   0  0  0  0  0  0  0  0  0  0  0  0
  150.2799  134.5811  155.9062 H   0  0  0  0  0  0  0  0  0  0  0  0
  149.0552  135.5788  156.6694 H   0  0  0  0  0  0  0  0  0  0  0  0
  147.6847  135.2774  154.5062 H   0  0  0  0  0  0  0  0  0  0  0  0
  149.0381  131.8874  153.1414 H   0  0  0  0  0  0  0  0  0  0  0  0
  147.3284  134.8431  152.3481 H   0  0  0  0  0  0  0  0  0  0  0  0
  147.0590  131.4432  154.9978 H   0  0  0  0  0  0  0  0  0  0  0  0
  146.4569  133.6670  155.4153 H   0  0  0  0  0  0  0  0  0  0  0  0
  146.4627  134.0439  159.8174 H   0  0  0  0  0  0  0  0  0  0  0  0
  147.9962  133.2776  159.4598 H   0  0  0  0  0  0  0  0  0  0  0  0
  148.2337  135.2036  161.0857 H   0  0  0  0  0  0  0  0  0  0  0  0
  147.6376  136.3106  159.8542 H   0  0  0  0  0  0  0  0  0  0  0  0
  149.1757  135.4746  159.6261 H   0  0  0  0  0  0  0  0  0  0  0  0
  1  2  1  0  0  0  0
  1 28  1  0  0  0  0
  1 29  1  0  0  0  0
  1 30  1  0  0  0  0
  2  3  1  0  0  0  0
  2 31  1  0  0  0  0
  2 32  1  0  0  0  0
  3  4  2  0  0  0  0
  3  5  1  0  0  0  0
  5  6  1  0  0  0  0
  6  7  1  0  0  0  0
  6 33  1  0  0  0  0
  6 34  1  0  0  0  0
  7 21  1  0  0  0  0
  7  8  1  0  0  0  0
  7 35  1  0  0  0  0
  8  9  1  0  0  0  0
  9 10  1  0  0  0  0
  9 19  1  0  0  0  0
  9 36  1  0  0  0  0
 10 17  1  0  0  0  0
 10 11  1  0  0  0  0
 11 12  2  0  0  0  0
 11 37  1  0  0  0  0
 12 13  1  0  0  0  0
 12 14  1  0  0  0  0
 14 15  2  0  0  0  0
 14 16  1  0  0  0  0
 16 27  1  0  0  0  0
 16 17  1  0  0  0  0
 17 18  2  0  0  0  0
 19 20  1  0  0  0  0
 19 21  1  0  0  0  0
 19 38  1  0  0  0  0
 21 22  1  0  0  0  0
 21 39  1  0  0  0  0
 22 23  1  0  0  0  0
 23 24  2  0  0  0  0
 23 25  1  0  0  0  0
 25 26  1  0  0  0  0
 25 40  1  0  0  0  0
 25 41  1  0  0  0  0
 26 42  1  0  0  0  0
 26 43  1  0  0  0  0
 26 44  1  0  0  0  0
M  END
> <s_m_source_file>
AV-unprocessed.smi

> <i_m_source_file_index>
37

> <i_lp_mmshare_version>
43012

> <i_f3d_flags>
0

> <s_epik_input>
W0NIM11bQ0gyXUMoPU8pT1tDSDJdW0NAQEhdMU9bQ0BASF0objJbY0hdYyhGKWMoPU8pW25IXWMyPU8pW0NAQEhdKEJyKVtDQEhdMU9DKD1PKVtDSDJdW0NIM10=

> <s_epik_cmdline>
J2VwaWtfcHl0aG9uJywgJy1waCcsICc3LjAnLCAnLXRuJywgJzgnLCAnLW1hJywgJzIwMCcsICctbWV0YWxfYmluZGluZycsICctaW1hZScsICc8aW5maWxlLm1hZT4nLCAnLW9tYWUnLCAnPG91dGZpbGUubWFlPic=

> <r_lp_tautomer_probability>
0.999537

> <r_epik_Ionization_Penalty>
0.104106

> <r_epik_Ionization_Penalty_Charging>
0.104106

> <r_epik_Ionization_Penalty_Neutral>
3.94675e-16

> <r_epik_State_Penalty>
0.0940182

> <r_epik_Charging_Adjusted_Penalty>
0.198124

> <i_epik_Tot_Q>
0

> <i_epik_Tot_abs_Q>
0

> <r_epik_Metal_State_Penalty>
3.05314

> <b_epik_Metal_Only>
0

> <s_epik_Chemistry_Notes>
This compound has an ester and may undergo hydrolysis at high or low pH. This compound contains an acetal/aminal-like group ( X-CH(R)-Y where X, Y are N, S, or O) that may be acid/base labile, releasing an aldehyde.

> <s_lp_Force_Field>
OPLS_2005

> <r_lp_Energy>
23.6922

> <b_lp_Chiralities_Consistent>
1

> <s_lp_Variant>
AV-unprocessed.smi:37-4

> <Gold.Version>
5.8.1

> <Gold.Id.Protein>
6NUR|6NUR_protein|mol2

> <Gold.PLP.Fitness>
38.0554

> <Gold.PLP.PLP>
-32.6909

> <Gold.PLP.part.hbond>
-1.0000

> <Gold.PLP.part.metal>
0.0000

> <Gold.PLP.part.buried>
-5.2695

> <Gold.PLP.part.nonpolar>
-27.3719

> <Gold.PLP.part.repulsive>
1.1753

> <Gold.PLP.ligand.clash>
0.0000

> <Gold.PLP.ligand.torsion>
0.3877

> <Gold.PLP.Chemscore.Hbond>
1.0000

> <Gold.PLP.Chemscore.CHOScore>
1.0000

> <Gold.PLP.Chemscore.Metal>
0.0000

> <Gold.Chemscore.Hbonds>
donor molecule, donor type, donor heavy atom, donor atom, acceptor molecule, acceptor atom, score
      P1  H 10752 10763       L1     4  0.89
      L1  C    11    37       P1  7948  1.00

> <Gold.PLP.Chemscore.Internal.Correction>
0.1399

> <Gold.Rescore>
     Score         DG    S(hbond)    S(metal)    S(lipo)     H(rot)  DE(clash)    DE(int)     intcor
      5.84      -6.23       0.92        0.00      52.94       3.33       0.01       0.39       ----

> <Gold.Chemscore.Fitness>
5.8399

> <Gold.Chemscore.DG>
-6.2339

> <Gold.Chemscore.ZeroCoef>
-5.4800

> <Gold.Chemscore.Hbond>
0.9238

> <Gold.Chemscore.Metal>
0.0000

> <Gold.Chemscore.Lipo>
52.9387

> <Gold.Chemscore.Internal_Hbond>
0.0000

> <Gold.Chemscore.DEClash>
0.0081

> <Gold.Chemscore.DEInternal>
0.3858

> <Gold.Chemscore.Rot>
3.3303

> <Gold.Chemscore.Internal.Correction>
   9.000000E+99

> <Gold.Chemscore.Hbonds>
donor molecule, donor type, donor heavy atom, donor atom, acceptor molecule, acceptor atom, score
      P1  H 10752 10763       L1     4  0.30

> <Gold.Chemscore.Hbond.Weighted>
-3.0856

> <Gold.Chemscore.Metal.Weighted>
-0.0000

> <Gold.Chemscore.Lipo.Weighted>
-6.1938

> <Gold.Chemscore.Internal_Hbond.Weighted>
0.0000

> <Gold.Chemscore.DEClash.Weighted>
0.0081

> <Gold.Chemscore.DEInternal.Weighted>
0.3858

> <Gold.Chemscore.Rot.Weighted>
8.5256

> <Gold.Chemscore.Internal.Correction.Weighted>
   9.000000E+99

> <Gold.Protein.RotatedTorsions>
[ 6907 6896 6895 6894 ] final  -75.83 input  -60.11 | X-H torsion
[ 7974 7965 7964 7962 ] final   87.42 input  175.53 | X-H torsion
[ 8008 7997 7996 7995 ] final   -6.35 input   59.86 | X-H torsion
[ 10167 10162 10161 10158 ] final -103.82 input  -65.29 | X-H torsion
[ 10718 10713 10712 10709 ] final  -54.54 input   66.30 | X-H torsion
[ 10763 10752 10751 10750 ] final   99.98 input  -60.55 | X-H torsion
[ 11005 11000 10999 10996 ] final -116.91 input  -57.11 | X-H torsion

> <Gold.Protein.ActiveResidues>
 VAL166  LYS551  ARG553  GLY616  TRP617  ASP618  TYR619  PRO620  LYS621  CYS622 
 ASP623  PHE694  ASN695  SER759  ASP760  ASP761  ALA762  ILE779  LEU786  VAL792 
 PHE793  MET794  SER795  GLU796  ALA797  LYS798  CYS799  TRP800  GLU811  SER814 

> <Gold.Protein.RotatedAtoms>
  150.7046  134.4663  159.5403 H   0  0  0  0  0  0  0  0  0  0  0  0  # atno 6907 bound_to 6896
  152.2328  134.8302  160.0480 H   0  0  0  0  0  0  0  0  0  0  0  0  # atno 6908 bound_to 6896
  151.9112  133.3526  159.3901 H   0  0  0  0  0  0  0  0  0  0  0  0  # atno 6909 bound_to 6896
  145.5592  139.2302  143.2469 H   0  0  0  0  0  0  0  0  0  0  0  0  # atno 7974 bound_to 7965
  154.5946  140.2435  155.7874 H   0  0  0  0  0  0  0  0  0  0  0  0  # atno 8008 bound_to 7997
  156.2270  140.2979  156.0047 H   0  0  0  0  0  0  0  0  0  0  0  0  # atno 8009 bound_to 7997
  155.2314  140.0404  157.2953 H   0  0  0  0  0  0  0  0  0  0  0  0  # atno 8010 bound_to 7997
  140.2159  143.3711  152.1011 H   0  0  0  0  0  0  0  0  0  0  0  0  # atno 10167 bound_to 10162
  156.1443  130.4153  150.0051 H   0  0  0  0  0  0  0  0  0  0  0  0  # atno 10718 bound_to 10713
  153.3082  135.4095  155.1312 H   0  0  0  0  0  0  0  0  0  0  0  0  # atno 10763 bound_to 10752
  154.8568  135.3558  154.5760 H   0  0  0  0  0  0  0  0  0  0  0  0  # atno 10764 bound_to 10752
  153.6188  135.7065  153.5377 H   0  0  0  0  0  0  0  0  0  0  0  0  # atno 10765 bound_to 10752
  141.0390  133.9865  157.3025 H   0  0  0  0  0  0  0  0  0  0  0  0  # atno 11005 bound_to 11000
  146.1863  140.6417  142.9166 LP  0  0  0  0  0  0  0  0  0  0  0  0  # atno 17320 bound_to 7965
  144.7491  140.5145  143.6814 LP  0  0  0  0  0  0  0  0  0  0  0  0  # atno 17321 bound_to 7965
  139.5162  144.6974  151.5591 LP  0  0  0  0  0  0  0  0  0  0  0  0  # atno 17342 bound_to 10162
  140.6290  143.9113  150.6589 LP  0  0  0  0  0  0  0  0  0  0  0  0  # atno 17343 bound_to 10162
  156.7927  130.9262  151.3646 LP  0  0  0  0  0  0  0  0  0  0  0  0  # atno 17370 bound_to 10713
  157.6603  130.8960  149.9815 LP  0  0  0  0  0  0  0  0  0  0  0  0  # atno 17371 bound_to 10713
  139.9262  135.0201  156.8241 LP  0  0  0  0  0  0  0  0  0  0  0  0  # atno 17394 bound_to 11000
  140.6269  133.9942  155.7644 LP  0  0  0  0  0  0  0  0  0  0  0  0  # atno 17395 bound_to 11000

$$$$
