AV-unprocessed.smi:2137|AV-procd|sdf|8709|dock5
  -GOLD-   2272011473D 1   1.00000     0.00000
 Structure written by MMmdl.
 50 51  0  0  0  0  0  0  0  0  2 V2000
  148.4796  131.7279  153.5494 C   0  0  0  0  0  0  0  0  0  0  0  0
  147.7728  133.0157  153.1038 C   0  0  1  0  0  0  0  0  0  0  0  0
  146.4417  132.7103  152.3966 C   0  0  0  0  0  0  0  0  0  0  0  0
  145.7462  134.0145  151.9870 C   0  0  0  0  0  0  0  0  0  0  0  0
  145.5641  134.9443  153.1972 C   0  0  0  0  0  0  0  0  0  0  0  0
  146.8653  135.2252  153.8576 N   0  3  1  0  0  0  0  0  0  0  0  0
  146.7384  136.2266  154.9468 C   0  0  0  0  0  0  0  0  0  0  0  0
  148.1040  136.7508  155.4241 C   0  0  0  0  0  0  0  0  0  0  0  0
  148.1208  138.2775  155.5757 C   0  0  0  0  0  0  0  0  0  0  0  0
  149.4755  138.7492  155.8328 N   0  0  0  0  0  0  0  0  0  0  0  0
  149.8532  140.0355  155.8311 C   0  0  0  0  0  0  0  0  0  0  0  0
  149.0859  140.9652  155.5792 O   0  0  0  0  0  0  0  0  0  0  0  0
  151.3311  140.3071  156.1409 C   0  0  0  0  0  0  0  0  0  0  0  0
  151.5108  141.1991  157.2934 N   0  0  0  0  0  0  0  0  0  0  0  0
  150.8246  142.3986  157.3473 C   0  0  0  0  0  0  0  0  0  0  0  0
  150.9324  143.2727  158.3717 C   0  0  0  0  0  0  0  0  0  0  0  0
  151.7991  142.9896  159.5092 C   0  0  0  0  0  0  0  0  0  0  0  0
  151.9464  143.7681  160.4523 O   0  0  0  0  0  0  0  0  0  0  0  0
  152.4746  141.7480  159.4382 N   0  0  0  0  0  0  0  0  0  0  0  0
  153.3697  141.3957  160.5213 C   0  0  0  0  0  0  0  0  0  0  0  0
  152.3716  140.8459  158.3552 C   0  0  0  0  0  0  0  0  0  0  0  0
  153.0072  139.7891  158.3208 O   0  0  0  0  0  0  0  0  0  0  0  0
  147.5386  133.9708  154.2915 C   0  0  0  0  0  0  0  0  0  0  0  0
  147.8754  131.1707  154.2664 H   0  0  0  0  0  0  0  0  0  0  0  0
  149.4377  131.9478  154.0214 H   0  0  0  0  0  0  0  0  0  0  0  0
  148.6750  131.0735  152.6993 H   0  0  0  0  0  0  0  0  0  0  0  0
  148.4275  133.5190  152.3905 H   0  0  0  0  0  0  0  0  0  0  0  0
  146.6134  132.0892  151.5167 H   0  0  0  0  0  0  0  0  0  0  0  0
  145.7889  132.1396  153.0588 H   0  0  0  0  0  0  0  0  0  0  0  0
  146.3353  134.5197  151.2202 H   0  0  0  0  0  0  0  0  0  0  0  0
  144.7777  133.7938  151.5372 H   0  0  0  0  0  0  0  0  0  0  0  0
  145.1097  135.8777  152.8621 H   0  0  0  0  0  0  0  0  0  0  0  0
  144.8771  134.4970  153.9174 H   0  0  0  0  0  0  0  0  0  0  0  0
  146.1619  137.0797  154.5860 H   0  0  0  0  0  0  0  0  0  0  0  0
  146.1714  135.8025  155.7770 H   0  0  0  0  0  0  0  0  0  0  0  0
  148.3696  136.3031  156.3816 H   0  0  0  0  0  0  0  0  0  0  0  0
  148.8761  136.4477  154.7154 H   0  0  0  0  0  0  0  0  0  0  0  0
  147.7486  138.7553  154.6686 H   0  0  0  0  0  0  0  0  0  0  0  0
  147.4536  138.5685  156.3891 H   0  0  0  0  0  0  0  0  0  0  0  0
  150.1745  138.0506  156.0402 H   0  0  0  0  0  0  0  0  0  0  0  0
  151.8598  139.3671  156.3094 H   0  0  0  0  0  0  0  0  0  0  0  0
  151.7883  140.7462  155.2532 H   0  0  0  0  0  0  0  0  0  0  0  0
  150.1670  142.6534  156.5289 H   0  0  0  0  0  0  0  0  0  0  0  0
  150.3708  144.1951  158.3487 H   0  0  0  0  0  0  0  0  0  0  0  0
  153.3434  140.3154  160.6721 H   0  0  0  0  0  0  0  0  0  0  0  0
  153.0391  141.8707  161.4458 H   0  0  0  0  0  0  0  0  0  0  0  0
  154.3653  141.7354  160.2326 H   0  0  0  0  0  0  0  0  0  0  0  0
  146.9342  133.4805  155.0566 H   0  0  0  0  0  0  0  0  0  0  0  0
  148.4985  134.2017  154.7519 H   0  0  0  0  0  0  0  0  0  0  0  0
  147.4514  135.6453  153.1504 H   0  0  0  0  0  0  0  0  0  0  0  0
  1  2  1  0  0  0  0
  1 24  1  0  0  0  0
  1 25  1  0  0  0  0
  1 26  1  0  0  0  0
  2 23  1  0  0  0  0
  2  3  1  0  0  0  0
  2 27  1  0  0  0  0
  3  4  1  0  0  0  0
  3 28  1  0  0  0  0
  3 29  1  0  0  0  0
  4  5  1  0  0  0  0
  4 30  1  0  0  0  0
  4 31  1  0  0  0  0
  5  6  1  0  0  0  0
  5 32  1  0  0  0  0
  5 33  1  0  0  0  0
  6  7  1  0  0  0  0
  6 23  1  0  0  0  0
  6 50  1  0  0  0  0
  7  8  1  0  0  0  0
  7 34  1  0  0  0  0
  7 35  1  0  0  0  0
  8  9  1  0  0  0  0
  8 36  1  0  0  0  0
  8 37  1  0  0  0  0
  9 10  1  0  0  0  0
  9 38  1  0  0  0  0
  9 39  1  0  0  0  0
 10 11  1  0  0  0  0
 10 40  1  0  0  0  0
 11 12  2  0  0  0  0
 11 13  1  0  0  0  0
 13 14  1  0  0  0  0
 13 41  1  0  0  0  0
 13 42  1  0  0  0  0
 14 21  1  0  0  0  0
 14 15  1  0  0  0  0
 15 16  2  0  0  0  0
 15 43  1  0  0  0  0
 16 17  1  0  0  0  0
 16 44  1  0  0  0  0
 17 18  2  0  0  0  0
 17 19  1  0  0  0  0
 19 20  1  0  0  0  0
 19 21  1  0  0  0  0
 20 45  1  0  0  0  0
 20 46  1  0  0  0  0
 20 47  1  0  0  0  0
 21 22  2  0  0  0  0
 23 48  1  0  0  0  0
 23 49  1  0  0  0  0
M  CHG  1   6   1
M  END
> <s_m_source_file>
AV-unprocessed.smi

> <i_m_source_file_index>
2137

> <i_lp_mmshare_version>
43012

> <i_f3d_flags>
0

> <s_epik_input>
W0NIM11bQ0BASF0xW0NIMl1bQ0gyXVtDSDJdTihbQ0gyXTEpW0NIMl1bQ0gyXVtDSDJdW05IXUMoPU8pW0NIMl1uMltjSF1bY0hdYyg9TyluKFtDSDNdKWMyPU8=

> <s_epik_cmdline>
J2VwaWtfcHl0aG9uJywgJy1waCcsICc3LjAnLCAnLXRuJywgJzgnLCAnLW1hJywgJzIwMCcsICctbWV0YWxfYmluZGluZycsICctaW1hZScsICc8aW5maWxlLm1hZT4nLCAnLW9tYWUnLCAnPG91dGZpbGUubWFlPic=

> <r_lp_tautomer_probability>
1

> <r_epik_Ionization_Penalty>
0.000384839

> <r_epik_Ionization_Penalty_Charging>
0.000384812

> <r_epik_Ionization_Penalty_Neutral>
2.6907e-08

> <r_epik_State_Penalty>
0.000235226

> <r_epik_Charging_Adjusted_Penalty>
0.000620038

> <i_epik_Tot_Q>
1

> <i_epik_Tot_abs_Q>
1

> <r_epik_Metal_State_Penalty>
-0

> <b_epik_Metal_Only>
0

> <s_lp_Force_Field>
OPLS_2005

> <r_lp_Energy>
25.3587

> <b_lp_Chiralities_Consistent>
1

> <s_lp_Variant>
AV-unprocessed.smi:2137-4

> <Gold.Version>
5.8.1

> <Gold.Id.Protein>
6NUR|6NUR_protein|mol2

> <Gold.PLP.Fitness>
49.6212

> <Gold.PLP.PLP>
-38.5104

> <Gold.PLP.part.hbond>
-2.0000

> <Gold.PLP.part.metal>
0.0000

> <Gold.PLP.part.buried>
-5.2988

> <Gold.PLP.part.nonpolar>
-31.3955

> <Gold.PLP.part.repulsive>
0.2000

> <Gold.PLP.ligand.clash>
0.0000

> <Gold.PLP.ligand.torsion>
0.5161

> <Gold.PLP.Chemscore.Hbond>
3.0000

> <Gold.PLP.Chemscore.CHOScore>
1.0000

> <Gold.PLP.Chemscore.Metal>
0.0000

> <Gold.Chemscore.Hbonds>
donor molecule, donor type, donor heavy atom, donor atom, acceptor molecule, acceptor atom, score
      L1  H     6    50       P1  7948  1.89
      P1  H  7997  8008       L1    22  0.88
      L1  C    15    43       P1  8028  0.87

> <Gold.PLP.Chemscore.Internal.Correction>
0.1430

> <Gold.Rescore>
     Score         DG    S(hbond)    S(metal)    S(lipo)     H(rot)  DE(clash)    DE(int)     intcor
     12.71     -14.22       1.98        0.00      67.83       2.27       0.02       1.49       ----

> <Gold.Chemscore.Fitness>
12.7148

> <Gold.Chemscore.DG>
-14.2186

> <Gold.Chemscore.ZeroCoef>
-5.4800

> <Gold.Chemscore.Hbond>
1.9837

> <Gold.Chemscore.Metal>
0.0000

> <Gold.Chemscore.Lipo>
67.8330

> <Gold.Chemscore.Internal_Hbond>
0.0000

> <Gold.Chemscore.DEClash>
0.0163

> <Gold.Chemscore.DEInternal>
1.4875

> <Gold.Chemscore.Rot>
2.2748

> <Gold.Chemscore.Internal.Correction>
   9.000000E+99

> <Gold.Chemscore.Hbonds>
donor molecule, donor type, donor heavy atom, donor atom, acceptor molecule, acceptor atom, score
      L1  H     6    50       P1  7948  0.90
      P1  H  7997  8008       L1    22  0.59

> <Gold.Chemscore.Hbond.Weighted>
-6.6255

> <Gold.Chemscore.Metal.Weighted>
-0.0000

> <Gold.Chemscore.Lipo.Weighted>
-7.9365

> <Gold.Chemscore.Internal_Hbond.Weighted>
0.0000

> <Gold.Chemscore.DEClash.Weighted>
0.0163

> <Gold.Chemscore.DEInternal.Weighted>
1.4875

> <Gold.Chemscore.Rot.Weighted>
5.8234

> <Gold.Chemscore.Internal.Correction.Weighted>
   9.000000E+99

> <Gold.Protein.RotatedTorsions>
[ 6907 6896 6895 6894 ] final -156.03 input  -60.11 | X-H torsion
[ 7974 7965 7964 7962 ] final -111.85 input  175.53 | X-H torsion
[ 8008 7997 7996 7995 ] final  -93.60 input   59.86 | X-H torsion
[ 10167 10162 10161 10158 ] final  -59.58 input  -65.29 | X-H torsion
[ 10718 10713 10712 10709 ] final -127.14 input   66.30 | X-H torsion
[ 10763 10752 10751 10750 ] final    4.29 input  -60.55 | X-H torsion
[ 11005 11000 10999 10996 ] final  -27.61 input  -57.11 | X-H torsion

> <Gold.Protein.ActiveResidues>
 VAL166  LYS551  ARG553  GLY616  TRP617  ASP618  TYR619  PRO620  LYS621  CYS622 
 ASP623  PHE694  ASN695  SER759  ASP760  ASP761  ALA762  ILE779  LEU786  VAL792 
 PHE793  MET794  SER795  GLU796  ALA797  LYS798  CYS799  TRP800  GLU811  SER814 

> <Gold.Protein.RotatedAtoms>
  151.2814  133.4208  159.2626 H   0  0  0  0  0  0  0  0  0  0  0  0  # atno 6907 bound_to 6896
  151.0357  134.9572  159.8145 H   0  0  0  0  0  0  0  0  0  0  0  0  # atno 6908 bound_to 6896
  152.5355  134.2773  159.9047 H   0  0  0  0  0  0  0  0  0  0  0  0  # atno 6909 bound_to 6896
  145.1511  140.8829  143.3646 H   0  0  0  0  0  0  0  0  0  0  0  0  # atno 7974 bound_to 7965
  154.7377  140.0497  157.0783 H   0  0  0  0  0  0  0  0  0  0  0  0  # atno 8008 bound_to 7997
  155.0219  140.3148  155.4771 H   0  0  0  0  0  0  0  0  0  0  0  0  # atno 8009 bound_to 7997
  156.2857  140.2165  156.5337 H   0  0  0  0  0  0  0  0  0  0  0  0  # atno 8010 bound_to 7997
  140.6126  143.2392  151.5673 H   0  0  0  0  0  0  0  0  0  0  0  0  # atno 10167 bound_to 10162
  156.1829  130.6744  151.0328 H   0  0  0  0  0  0  0  0  0  0  0  0  # atno 10718 bound_to 10713
  153.2730  135.6934  153.7462 H   0  0  0  0  0  0  0  0  0  0  0  0  # atno 10763 bound_to 10752
  153.6478  135.3382  155.3091 H   0  0  0  0  0  0  0  0  0  0  0  0  # atno 10764 bound_to 10752
  154.8470  135.4447  154.1758 H   0  0  0  0  0  0  0  0  0  0  0  0  # atno 10765 bound_to 10752
  140.9135  133.7445  156.0703 H   0  0  0  0  0  0  0  0  0  0  0  0  # atno 11005 bound_to 11000
  145.0430  139.3244  143.5967 LP  0  0  0  0  0  0  0  0  0  0  0  0  # atno 17320 bound_to 7965
  146.3494  139.9810  142.8696 LP  0  0  0  0  0  0  0  0  0  0  0  0  # atno 17321 bound_to 7965
  139.5373  144.2745  152.1278 LP  0  0  0  0  0  0  0  0  0  0  0  0  # atno 17342 bound_to 10162
  140.1947  144.4717  150.6461 LP  0  0  0  0  0  0  0  0  0  0  0  0  # atno 17343 bound_to 10162
  157.6880  131.0819  150.7188 LP  0  0  0  0  0  0  0  0  0  0  0  0  # atno 17370 bound_to 10713
  156.7245  130.4691  149.5514 LP  0  0  0  0  0  0  0  0  0  0  0  0  # atno 17371 bound_to 10713
  140.8080  134.3432  157.5420 LP  0  0  0  0  0  0  0  0  0  0  0  0  # atno 17394 bound_to 11000
  139.8762  134.9237  156.3331 LP  0  0  0  0  0  0  0  0  0  0  0  0  # atno 17395 bound_to 11000

$$$$
