AV-unprocessed.smi:1993|AV-procd|sdf|8071|dock6
  -GOLD-   2272010283D 1   1.00000     0.00000
 Structure written by MMmdl.
 50 51  0  0  0  0  0  0  0  0  1 V2000
  146.8934  132.9642  157.4165 C   0  0  0  0  0  0  0  0  0  0  0  0
  147.7141  133.5585  158.5558 C   0  0  0  0  0  0  0  0  0  0  0  0
  148.9388  133.4389  158.5627 O   0  0  0  0  0  0  0  0  0  0  0  0
  147.0258  134.2015  159.5122 N   0  0  0  0  0  0  0  0  0  0  0  0
  147.6102  134.8566  160.6836 C   0  0  1  0  0  0  0  0  0  0  0  0
  148.1065  136.2518  160.2600 C   0  0  0  0  0  0  0  0  0  0  0  0
  148.5827  137.0252  161.0929 O   0  0  0  0  0  0  0  0  0  0  0  0
  148.0012  136.5498  158.9564 N   0  0  0  0  0  0  0  0  0  0  0  0
  148.4507  137.7938  158.3440 C   0  0  0  0  0  0  0  0  0  0  0  0
  147.5173  138.2742  157.2403 C   0  0  0  0  0  0  0  0  0  0  0  0
  146.1299  138.0446  157.3532 C   0  0  0  0  0  0  0  0  0  0  0  0
  145.2743  138.4970  156.3323 C   0  0  0  0  0  0  0  0  0  0  0  0
  145.8429  139.1655  155.2329 C   0  0  0  0  0  0  0  0  0  0  0  0
  147.1671  139.3944  155.1113 N   0  0  0  0  0  0  0  0  0  0  0  0
  147.9940  138.9586  156.0927 C   0  0  0  0  0  0  0  0  0  0  0  0
  149.3654  139.2240  155.9477 N   0  0  0  0  0  0  0  0  0  0  0  0
  149.6881  140.6397  156.0567 C   0  0  0  0  0  0  0  0  0  0  0  0
  151.2141  140.8298  156.0706 C   0  0  0  0  0  0  0  0  0  0  0  0
  151.7813  140.2302  154.9088 O   0  0  0  0  0  0  0  0  0  0  0  0
  151.5182  138.8310  154.8435 C   0  0  0  0  0  0  0  0  0  0  0  0
  149.9989  138.5937  154.7960 C   0  0  0  0  0  0  0  0  0  0  0  0
  146.5160  134.9884  161.7846 C   0  0  0  0  0  0  0  0  0  0  0  0
  147.0091  135.7358  163.0409 C   0  0  0  0  0  0  0  0  0  0  0  0
  145.9560  133.6153  162.2058 C   0  0  0  0  0  0  0  0  0  0  0  0
  146.0013  132.4673  157.7993 H   0  0  0  0  0  0  0  0  0  0  0  0
  147.4787  132.2315  156.8601 H   0  0  0  0  0  0  0  0  0  0  0  0
  146.5832  133.7491  156.7265 H   0  0  0  0  0  0  0  0  0  0  0  0
  146.0221  134.2561  159.4179 H   0  0  0  0  0  0  0  0  0  0  0  0
  148.4414  134.2610  161.0674 H   0  0  0  0  0  0  0  0  0  0  0  0
  147.5913  135.8608  158.3427 H   0  0  0  0  0  0  0  0  0  0  0  0
  148.5173  138.5576  159.1191 H   0  0  0  0  0  0  0  0  0  0  0  0
  149.4634  137.6771  157.9548 H   0  0  0  0  0  0  0  0  0  0  0  0
  145.7239  137.5315  158.2126 H   0  0  0  0  0  0  0  0  0  0  0  0
  144.2081  138.3364  156.3916 H   0  0  0  0  0  0  0  0  0  0  0  0
  145.2181  139.5281  154.4300 H   0  0  0  0  0  0  0  0  0  0  0  0
  149.2508  141.1811  155.2166 H   0  0  0  0  0  0  0  0  0  0  0  0
  149.2528  141.0504  156.9668 H   0  0  0  0  0  0  0  0  0  0  0  0
  151.4611  141.8913  156.0807 H   0  0  0  0  0  0  0  0  0  0  0  0
  151.6510  140.3914  156.9694 H   0  0  0  0  0  0  0  0  0  0  0  0
  151.9915  138.4206  153.9516 H   0  0  0  0  0  0  0  0  0  0  0  0
  151.9640  138.3267  155.7023 H   0  0  0  0  0  0  0  0  0  0  0  0
  149.7845  137.5244  154.7956 H   0  0  0  0  0  0  0  0  0  0  0  0
  149.5904  139.0080  153.8734 H   0  0  0  0  0  0  0  0  0  0  0  0
  145.6806  135.5604  161.3768 H   0  0  0  0  0  0  0  0  0  0  0  0
  147.8561  135.2219  163.4954 H   0  0  0  0  0  0  0  0  0  0  0  0
  146.2218  135.7977  163.7925 H   0  0  0  0  0  0  0  0  0  0  0  0
  147.3147  136.7591  162.8219 H   0  0  0  0  0  0  0  0  0  0  0  0
  146.7451  132.9694  162.5920 H   0  0  0  0  0  0  0  0  0  0  0  0
  145.4779  133.0963  161.3750 H   0  0  0  0  0  0  0  0  0  0  0  0
  145.2030  133.7213  162.9873 H   0  0  0  0  0  0  0  0  0  0  0  0
  1  2  1  0  0  0  0
  1 25  1  0  0  0  0
  1 26  1  0  0  0  0
  1 27  1  0  0  0  0
  2  3  2  0  0  0  0
  2  4  1  0  0  0  0
  4  5  1  0  0  0  0
  4 28  1  0  0  0  0
  5  6  1  0  0  0  0
  5 22  1  0  0  0  0
  5 29  1  0  0  0  0
  6  7  2  0  0  0  0
  6  8  1  0  0  0  0
  8  9  1  0  0  0  0
  8 30  1  0  0  0  0
  9 10  1  0  0  0  0
  9 31  1  0  0  0  0
  9 32  1  0  0  0  0
 10 15  1  0  0  0  0
 10 11  2  0  0  0  0
 11 12  1  0  0  0  0
 11 33  1  0  0  0  0
 12 13  2  0  0  0  0
 12 34  1  0  0  0  0
 13 14  1  0  0  0  0
 13 35  1  0  0  0  0
 14 15  2  0  0  0  0
 15 16  1  0  0  0  0
 16 21  1  0  0  0  0
 16 17  1  0  0  0  0
 17 18  1  0  0  0  0
 17 36  1  0  0  0  0
 17 37  1  0  0  0  0
 18 19  1  0  0  0  0
 18 38  1  0  0  0  0
 18 39  1  0  0  0  0
 19 20  1  0  0  0  0
 20 21  1  0  0  0  0
 20 40  1  0  0  0  0
 20 41  1  0  0  0  0
 21 42  1  0  0  0  0
 21 43  1  0  0  0  0
 22 23  1  0  0  0  0
 22 24  1  0  0  0  0
 22 44  1  0  0  0  0
 23 45  1  0  0  0  0
 23 46  1  0  0  0  0
 23 47  1  0  0  0  0
 24 48  1  0  0  0  0
 24 49  1  0  0  0  0
 24 50  1  0  0  0  0
M  END
> <s_m_source_file>
AV-unprocessed.smi

> <i_m_source_file_index>
1993

> <i_lp_mmshare_version>
43012

> <i_f3d_flags>
0

> <s_epik_input>
W0NIM11DKD1PKVtOSF1bQ0BASF0oW0NIXShbQ0gzXSlbQ0gzXSlDKD1PKVtOSF1bQ0gyXWMxW2NIXVtjSF1bY0hdbmMxTjJbQ0gyXVtDSDJdT1tDSDJdW0NIMl0y

> <s_epik_cmdline>
J2VwaWtfcHl0aG9uJywgJy1waCcsICc3LjAnLCAnLXRuJywgJzgnLCAnLW1hJywgJzIwMCcsICctbWV0YWxfYmluZGluZycsICctaW1hZScsICc8aW5maWxlLm1hZT4nLCAnLW9tYWUnLCAnPG91dGZpbGUubWFlPic=

> <r_lp_tautomer_probability>
1

> <r_epik_Ionization_Penalty>
0.00485175

> <r_epik_Ionization_Penalty_Charging>
0

> <r_epik_Ionization_Penalty_Neutral>
0.00485175

> <r_epik_State_Penalty>
0.00351951

> <r_epik_Charging_Adjusted_Penalty>
0.00351951

> <i_epik_Tot_Q>
0

> <i_epik_Tot_abs_Q>
0

> <r_epik_Metal_State_Penalty>
-0

> <b_epik_Metal_Only>
0

> <s_lp_Force_Field>
OPLS_2005

> <r_lp_Energy>
18.9648

> <b_lp_Chiralities_Consistent>
1

> <s_lp_Variant>
AV-unprocessed.smi:1993-2

> <Gold.Version>
5.8.1

> <Gold.Id.Protein>
6NUR|6NUR_protein|mol2

> <Gold.PLP.Fitness>
38.0990

> <Gold.PLP.PLP>
-29.1864

> <Gold.PLP.part.hbond>
-2.8637

> <Gold.PLP.part.metal>
0.0000

> <Gold.PLP.part.buried>
-4.5420

> <Gold.PLP.part.nonpolar>
-22.7488

> <Gold.PLP.part.repulsive>
0.2790

> <Gold.PLP.ligand.clash>
0.0000

> <Gold.PLP.ligand.torsion>
0.9359

> <Gold.PLP.Chemscore.Hbond>
2.9760

> <Gold.PLP.Chemscore.CHOScore>
0.5465

> <Gold.PLP.Chemscore.Metal>
0.0000

> <Gold.Chemscore.Hbonds>
donor molecule, donor type, donor heavy atom, donor atom, acceptor molecule, acceptor atom, score
      P1  H  6896  6908       L1     3  1.00
      P1  H  6931  6943       L1     7  1.00
      P1  H  7989  7998       L1    19  0.90
      L1  C    13    35       P1 10175  0.68

> <Gold.PLP.Chemscore.Internal.Correction>
0.2169

> <Gold.Rescore>
     Score         DG    S(hbond)    S(metal)    S(lipo)     H(rot)  DE(clash)    DE(int)     intcor
     14.86     -17.01       3.21        0.00      54.73       2.18       0.01       2.14       ----

> <Gold.Chemscore.Fitness>
14.8642

> <Gold.Chemscore.DG>
-17.0100

> <Gold.Chemscore.ZeroCoef>
-5.4800

> <Gold.Chemscore.Hbond>
3.2069

> <Gold.Chemscore.Metal>
0.0000

> <Gold.Chemscore.Lipo>
54.7274

> <Gold.Chemscore.Internal_Hbond>
0.0000

> <Gold.Chemscore.DEClash>
0.0060

> <Gold.Chemscore.DEInternal>
2.1398

> <Gold.Chemscore.Rot>
2.1813

> <Gold.Chemscore.Internal.Correction>
   9.000000E+99

> <Gold.Chemscore.Hbonds>
donor molecule, donor type, donor heavy atom, donor atom, acceptor molecule, acceptor atom, score
      P1  H  6896  6908       L1     3  0.95
      P1  H  6931  6943       L1     7  0.91
      P1  H  6934  6947       L1     7  0.02
      P1  H  7989  7998       L1    19  0.65

> <Gold.Chemscore.Hbond.Weighted>
-10.7111

> <Gold.Chemscore.Metal.Weighted>
-0.0000

> <Gold.Chemscore.Lipo.Weighted>
-6.4031

> <Gold.Chemscore.Internal_Hbond.Weighted>
0.0000

> <Gold.Chemscore.DEClash.Weighted>
0.0060

> <Gold.Chemscore.DEInternal.Weighted>
2.1398

> <Gold.Chemscore.Rot.Weighted>
5.5842

> <Gold.Chemscore.Internal.Correction.Weighted>
   9.000000E+99

> <Gold.Protein.RotatedTorsions>
[ 6907 6896 6895 6894 ] final  119.68 input  -60.11 | X-H torsion
[ 7974 7965 7964 7962 ] final -166.00 input  175.53 | X-H torsion
[ 8008 7997 7996 7995 ] final  -92.07 input   59.86 | X-H torsion
[ 10167 10162 10161 10158 ] final -171.05 input  -65.29 | X-H torsion
[ 10718 10713 10712 10709 ] final  -66.48 input   66.30 | X-H torsion
[ 10763 10752 10751 10750 ] final -112.97 input  -60.55 | X-H torsion
[ 11005 11000 10999 10996 ] final   -3.96 input  -57.11 | X-H torsion

> <Gold.Protein.ActiveResidues>
 VAL166  LYS551  ARG553  GLY616  TRP617  ASP618  TYR619  PRO620  LYS621  CYS622 
 ASP623  PHE694  ASN695  SER759  ASP760  ASP761  ALA762  ILE779  LEU786  VAL792 
 PHE793  MET794  SER795  GLU796  ALA797  LYS798  CYS799  TRP800  GLU811  SER814 

> <Gold.Protein.RotatedAtoms>
  152.4454  133.7526  159.6701 H   0  0  0  0  0  0  0  0  0  0  0  0  # atno 6907 bound_to 6896
  150.8352  133.8014  159.3088 H   0  0  0  0  0  0  0  0  0  0  0  0  # atno 6908 bound_to 6896
  151.5656  135.1067  160.0035 H   0  0  0  0  0  0  0  0  0  0  0  0  # atno 6909 bound_to 6896
  144.7256  140.2731  143.6247 H   0  0  0  0  0  0  0  0  0  0  0  0  # atno 7974 bound_to 7965
  154.7186  140.0513  157.0618 H   0  0  0  0  0  0  0  0  0  0  0  0  # atno 8008 bound_to 7997
  155.0458  140.3173  155.4690 H   0  0  0  0  0  0  0  0  0  0  0  0  # atno 8009 bound_to 7997
  156.2810  140.2124  156.5582 H   0  0  0  0  0  0  0  0  0  0  0  0  # atno 8010 bound_to 7997
  139.5825  144.1392  152.1533 H   0  0  0  0  0  0  0  0  0  0  0  0  # atno 10167 bound_to 10162
  156.0610  130.4263  150.1715 H   0  0  0  0  0  0  0  0  0  0  0  0  # atno 10718 bound_to 10713
  154.8374  135.4471  154.1276 H   0  0  0  0  0  0  0  0  0  0  0  0  # atno 10763 bound_to 10752
  153.2495  135.6925  153.7701 H   0  0  0  0  0  0  0  0  0  0  0  0  # atno 10764 bound_to 10752
  153.7019  135.3370  155.3202 H   0  0  0  0  0  0  0  0  0  0  0  0  # atno 10765 bound_to 10752
  140.6750  133.9203  155.8518 H   0  0  0  0  0  0  0  0  0  0  0  0  # atno 11005 bound_to 11000
  145.8023  139.1969  143.2041 LP  0  0  0  0  0  0  0  0  0  0  0  0  # atno 17320 bound_to 7965
  146.0666  140.7914  142.9708 LP  0  0  0  0  0  0  0  0  0  0  0  0  # atno 17321 bound_to 7965
  140.0948  144.5590  150.7029 LP  0  0  0  0  0  0  0  0  0  0  0  0  # atno 17342 bound_to 10162
  140.7101  143.2498  151.4606 LP  0  0  0  0  0  0  0  0  0  0  0  0  # atno 17343 bound_to 10162
  156.9784  130.9856  151.3443 LP  0  0  0  0  0  0  0  0  0  0  0  0  # atno 17370 bound_to 10713
  157.5618  130.8251  149.8276 LP  0  0  0  0  0  0  0  0  0  0  0  0  # atno 17371 bound_to 10713
  141.0362  134.0686  157.3956 LP  0  0  0  0  0  0  0  0  0  0  0  0  # atno 17394 bound_to 11000
  139.8969  135.0148  156.7076 LP  0  0  0  0  0  0  0  0  0  0  0  0  # atno 17395 bound_to 11000

$$$$
