AV-unprocessed.smi:2165|AV-procd|sdf|8812|dock2
  -GOLD-   2272012 03D 1   1.00000     0.00000
 Structure written by MMmdl.
 36 37  0  0  0  0  0  0  0  0  1 V2000
  150.8139  141.6086  157.0022 C   0  0  0  0  0  0  0  0  0  0  0  0
  150.6805  140.4812  156.1033 N   0  0  0  0  0  0  0  0  0  0  0  0
  151.7132  139.5138  156.0485 C   0  0  0  0  0  0  0  0  0  0  0  0
  152.7318  139.5886  156.7365 O   0  0  0  0  0  0  0  0  0  0  0  0
  151.4711  138.4271  155.1067 C   0  0  0  0  0  0  0  0  0  0  0  0
  150.3424  138.3886  154.3650 C   0  0  0  0  0  0  0  0  0  0  0  0
  149.3511  139.3504  154.4348 N   0  0  0  0  0  0  0  0  0  0  0  0
  148.1510  139.2255  153.5979 C   0  0  0  0  0  0  0  0  0  0  0  0
  147.1057  138.2809  154.2049 C   0  0  0  0  0  0  0  0  0  0  0  0
  146.5455  138.5667  155.2640 O   0  0  0  0  0  0  0  0  0  0  0  0
  146.8638  137.1501  153.5254 N   0  0  0  0  0  0  0  0  0  0  0  0
  145.8805  136.1409  153.8997 C   0  0  0  0  0  0  0  0  0  0  0  0
  145.6839  135.1058  152.7792 C   0  0  2  0  0  0  0  0  0  0  0  0
  145.3996  135.7177  151.4092 C   0  0  0  0  0  0  0  0  0  0  0  0
  144.6264  134.6256  150.6842 C   0  0  0  0  0  0  0  0  0  0  0  0
  144.2292  133.6470  151.7935 C   0  0  0  0  0  0  0  0  0  0  0  0
  144.5204  134.3266  153.0061 O   0  0  0  0  0  0  0  0  0  0  0  0
  149.5058  140.4381  155.3213 C   0  0  0  0  0  0  0  0  0  0  0  0
  148.6407  141.3144  155.4009 O   0  0  0  0  0  0  0  0  0  0  0  0
  151.7031  141.5172  157.6250 H   0  0  0  0  0  0  0  0  0  0  0  0
  149.9274  141.6259  157.6388 H   0  0  0  0  0  0  0  0  0  0  0  0
  150.8771  142.5054  156.3834 H   0  0  0  0  0  0  0  0  0  0  0  0
  152.2057  137.6422  155.0023 H   0  0  0  0  0  0  0  0  0  0  0  0
  150.2097  137.5602  153.6843 H   0  0  0  0  0  0  0  0  0  0  0  0
  147.7143  140.2116  153.4275 H   0  0  0  0  0  0  0  0  0  0  0  0
  148.4186  138.8467  152.6108 H   0  0  0  0  0  0  0  0  0  0  0  0
  147.3710  136.9945  152.6662 H   0  0  0  0  0  0  0  0  0  0  0  0
  146.2228  135.6493  154.8109 H   0  0  0  0  0  0  0  0  0  0  0  0
  144.9314  136.6214  154.1424 H   0  0  0  0  0  0  0  0  0  0  0  0
  146.5478  134.4417  152.7090 H   0  0  0  0  0  0  0  0  0  0  0  0
  144.7693  136.6020  151.5130 H   0  0  0  0  0  0  0  0  0  0  0  0
  146.3093  136.0137  150.8861 H   0  0  0  0  0  0  0  0  0  0  0  0
  143.7520  135.0391  150.1804 H   0  0  0  0  0  0  0  0  0  0  0  0
  145.2422  134.1277  149.9343 H   0  0  0  0  0  0  0  0  0  0  0  0
  143.1791  133.3591  151.7448 H   0  0  0  0  0  0  0  0  0  0  0  0
  144.8334  132.7403  151.7386 H   0  0  0  0  0  0  0  0  0  0  0  0
  1  2  1  0  0  0  0
  1 20  1  0  0  0  0
  1 21  1  0  0  0  0
  1 22  1  0  0  0  0
  2 18  1  0  0  0  0
  2  3  1  0  0  0  0
  3  4  2  0  0  0  0
  3  5  1  0  0  0  0
  5  6  2  0  0  0  0
  5 23  1  0  0  0  0
  6  7  1  0  0  0  0
  6 24  1  0  0  0  0
  7  8  1  0  0  0  0
  7 18  1  0  0  0  0
  8  9  1  0  0  0  0
  8 25  1  0  0  0  0
  8 26  1  0  0  0  0
  9 10  2  0  0  0  0
  9 11  1  0  0  0  0
 11 12  1  0  0  0  0
 11 27  1  0  0  0  0
 12 13  1  0  0  0  0
 12 28  1  0  0  0  0
 12 29  1  0  0  0  0
 13 17  1  0  0  0  0
 13 14  1  0  0  0  0
 13 30  1  0  0  0  0
 14 15  1  0  0  0  0
 14 31  1  0  0  0  0
 14 32  1  0  0  0  0
 15 16  1  0  0  0  0
 15 33  1  0  0  0  0
 15 34  1  0  0  0  0
 16 17  1  0  0  0  0
 16 35  1  0  0  0  0
 16 36  1  0  0  0  0
 18 19  2  0  0  0  0
M  END
> <s_m_source_file>
AV-unprocessed.smi

> <i_m_source_file_index>
2165

> <i_lp_mmshare_version>
43012

> <i_f3d_flags>
0

> <s_epik_input>
W0NIM11uMWMoPU8pW2NIXVtjSF1uKGMxPU8pW0NIMl1DKD1PKVtOSF1bQ0gyXVtDQEBIXTJbQ0gyXVtDSDJdW0NIMl1PMg==

> <s_epik_cmdline>
J2VwaWtfcHl0aG9uJywgJy1waCcsICc3LjAnLCAnLXRuJywgJzgnLCAnLW1hJywgJzIwMCcsICctbWV0YWxfYmluZGluZycsICctaW1hZScsICc8aW5maWxlLm1hZT4nLCAnLW9tYWUnLCAnPG91dGZpbGUubWFlPic=

> <r_lp_tautomer_probability>
1

> <r_epik_Ionization_Penalty>
3.89869e-08

> <r_epik_Ionization_Penalty_Charging>
1.21279e-08

> <r_epik_Ionization_Penalty_Neutral>
2.6859e-08

> <r_epik_State_Penalty>
-0

> <r_epik_Charging_Adjusted_Penalty>
1.21279e-08

> <i_epik_Tot_Q>
0

> <i_epik_Tot_abs_Q>
0

> <r_epik_Metal_State_Penalty>
-0

> <b_epik_Metal_Only>
0

> <s_lp_Force_Field>
OPLS_2005

> <r_lp_Energy>
24.9398

> <b_lp_Chiralities_Consistent>
1

> <s_lp_Variant>
AV-unprocessed.smi:2165-1

> <Gold.Version>
5.8.1

> <Gold.Id.Protein>
6NUR|6NUR_protein|mol2

> <Gold.PLP.Fitness>
39.3930

> <Gold.PLP.PLP>
-31.2903

> <Gold.PLP.part.hbond>
-2.0000

> <Gold.PLP.part.metal>
0.0000

> <Gold.PLP.part.buried>
0.0323

> <Gold.PLP.part.nonpolar>
-30.4480

> <Gold.PLP.part.repulsive>
0.2835

> <Gold.PLP.ligand.clash>
0.0000

> <Gold.PLP.ligand.torsion>
0.4629

> <Gold.PLP.Chemscore.Hbond>
1.8800

> <Gold.PLP.Chemscore.CHOScore>
1.1232

> <Gold.PLP.Chemscore.Metal>
0.0000

> <Gold.Chemscore.Hbonds>
donor molecule, donor type, donor heavy atom, donor atom, acceptor molecule, acceptor atom, score
      L1  H    11    27       P1  7948  0.93
      P1  H  7997  8008       L1     4  1.00
      L1  C     6    24       P1  7948  0.98
      L1  C     6    24       P1  7949  0.06

> <Gold.PLP.Chemscore.Internal.Correction>
0.0187

> <Gold.Rescore>
     Score         DG    S(hbond)    S(metal)    S(lipo)     H(rot)  DE(clash)    DE(int)     intcor
     11.58     -12.25       1.96        0.00      42.75       1.87       0.24       0.43       ----

> <Gold.Chemscore.Fitness>
11.5783

> <Gold.Chemscore.DG>
-12.2484

> <Gold.Chemscore.ZeroCoef>
-5.4800

> <Gold.Chemscore.Hbond>
1.9609

> <Gold.Chemscore.Metal>
0.0000

> <Gold.Chemscore.Lipo>
42.7452

> <Gold.Chemscore.Internal_Hbond>
0.0000

> <Gold.Chemscore.DEClash>
0.2386

> <Gold.Chemscore.DEInternal>
0.4315

> <Gold.Chemscore.Rot>
1.8681

> <Gold.Chemscore.Internal.Correction>
   9.000000E+99

> <Gold.Chemscore.Hbonds>
donor molecule, donor type, donor heavy atom, donor atom, acceptor molecule, acceptor atom, score
      L1  H    11    27       P1  7948  0.91
      P1  H  7997  8008       L1     4  0.98

> <Gold.Chemscore.Hbond.Weighted>
-6.5494

> <Gold.Chemscore.Metal.Weighted>
-0.0000

> <Gold.Chemscore.Lipo.Weighted>
-5.0012

> <Gold.Chemscore.Internal_Hbond.Weighted>
0.0000

> <Gold.Chemscore.DEClash.Weighted>
0.2386

> <Gold.Chemscore.DEInternal.Weighted>
0.4315

> <Gold.Chemscore.Rot.Weighted>
4.7822

> <Gold.Chemscore.Internal.Correction.Weighted>
   9.000000E+99

> <Gold.Protein.RotatedTorsions>
[ 6907 6896 6895 6894 ] final  -72.01 input  -60.11 | X-H torsion
[ 7974 7965 7964 7962 ] final   27.84 input  175.53 | X-H torsion
[ 8008 7997 7996 7995 ] final  -36.47 input   59.86 | X-H torsion
[ 10167 10162 10161 10158 ] final  149.60 input  -65.29 | X-H torsion
[ 10718 10713 10712 10709 ] final  -25.86 input   66.30 | X-H torsion
[ 10763 10752 10751 10750 ] final  120.08 input  -60.55 | X-H torsion
[ 11005 11000 10999 10996 ] final  156.09 input  -57.11 | X-H torsion

> <Gold.Protein.ActiveResidues>
 VAL166  LYS551  ARG553  GLY616  TRP617  ASP618  TYR619  PRO620  LYS621  CYS622 
 ASP623  PHE694  ASN695  SER759  ASP760  ASP761  ALA762  ILE779  LEU786  VAL792 
 PHE793  MET794  SER795  GLU796  ALA797  LYS798  CYS799  TRP800  GLU811  SER814 

> <Gold.Protein.RotatedAtoms>
  150.7188  134.5225  159.5660 H   0  0  0  0  0  0  0  0  0  0  0  0  # atno 6907 bound_to 6896
  152.2777  134.7860  160.0411 H   0  0  0  0  0  0  0  0  0  0  0  0  # atno 6908 bound_to 6896
  151.8518  133.3406  159.3712 H   0  0  0  0  0  0  0  0  0  0  0  0  # atno 6909 bound_to 6896
  146.1762  139.7136  142.8933 H   0  0  0  0  0  0  0  0  0  0  0  0  # atno 7974 bound_to 7965
  154.4072  140.1630  156.2378 H   0  0  0  0  0  0  0  0  0  0  0  0  # atno 8008 bound_to 7997
  155.9227  140.3420  155.6163 H   0  0  0  0  0  0  0  0  0  0  0  0  # atno 8009 bound_to 7997
  155.7203  140.0767  157.2324 H   0  0  0  0  0  0  0  0  0  0  0  0  # atno 8010 bound_to 7997
  139.4859  144.5588  151.7268 H   0  0  0  0  0  0  0  0  0  0  0  0  # atno 10167 bound_to 10162
  156.4588  130.4499  149.6942 H   0  0  0  0  0  0  0  0  0  0  0  0  # atno 10718 bound_to 10713
  153.5929  135.3462  155.2917 H   0  0  0  0  0  0  0  0  0  0  0  0  # atno 10763 bound_to 10752
  154.8649  135.4209  154.2496 H   0  0  0  0  0  0  0  0  0  0  0  0  # atno 10764 bound_to 10752
  153.3307  135.7044  153.7021 H   0  0  0  0  0  0  0  0  0  0  0  0  # atno 10765 bound_to 10752
  140.1642  134.8588  157.2611 H   0  0  0  0  0  0  0  0  0  0  0  0  # atno 11005 bound_to 11000
  145.4205  141.0406  143.2966 LP  0  0  0  0  0  0  0  0  0  0  0  0  # atno 17320 bound_to 7965
  144.8240  139.5742  143.6974 LP  0  0  0  0  0  0  0  0  0  0  0  0  # atno 17321 bound_to 7965
  140.5155  144.0960  150.6007 LP  0  0  0  0  0  0  0  0  0  0  0  0  # atno 17342 bound_to 10162
  140.3900  143.2757  152.0071 LP  0  0  0  0  0  0  0  0  0  0  0  0  # atno 17343 bound_to 10162
  156.3738  130.7544  151.2530 LP  0  0  0  0  0  0  0  0  0  0  0  0  # atno 17370 bound_to 10713
  157.7499  131.0315  150.4186 LP  0  0  0  0  0  0  0  0  0  0  0  0  # atno 17371 bound_to 10713
  140.2454  134.3746  155.7463 LP  0  0  0  0  0  0  0  0  0  0  0  0  # atno 17394 bound_to 11000
  141.2212  133.7287  156.8853 LP  0  0  0  0  0  0  0  0  0  0  0  0  # atno 17395 bound_to 11000

$$$$
