AV-unprocessed.smi:3303|AV-procd|sdf|12664|dock7
  -GOLD-   2272019 03D 1   1.00000     0.00000
 Structure written by MMmdl.
 45 46  0  0  0  0  0  0  0  0  3 V2000
  152.3208  138.7912  154.6277 C   0  0  0  0  0  0  0  0  0  0  0  0
  150.9531  138.1136  154.4388 C   0  0  1  0  0  0  0  0  0  0  0  0
  150.9354  136.6733  154.9871 C   0  0  0  0  0  0  0  0  0  0  0  0
  149.6410  135.9934  154.7166 N   0  3  1  0  0  0  0  0  0  0  0  0
  149.6973  134.5688  155.1260 C   0  0  0  0  0  0  0  0  0  0  0  0
  148.4792  136.7424  155.2847 C   0  0  2  0  0  0  0  0  0  0  0  0
  147.1293  136.0710  154.9648 C   0  0  0  0  0  0  0  0  0  0  0  0
  148.4633  138.1997  154.7681 C   0  0  0  0  0  0  0  0  0  0  0  0
  149.7865  138.9434  155.0140 C   0  0  1  0  0  0  0  0  0  0  0  0
  149.9638  139.2350  156.4576 N   0  3  0  0  0  0  0  0  0  0  0  0
  150.8868  140.3486  156.7551 C   0  0  0  0  0  0  0  0  0  0  0  0
  150.7733  140.7823  158.2225 C   0  0  0  0  0  0  0  0  0  0  0  0
  151.2706  142.1986  158.4395 C   0  0  0  0  0  0  0  0  0  0  0  0
  152.2728  142.4743  159.3940 C   0  0  0  0  0  0  0  0  0  0  0  0
  152.7019  143.8070  159.5485 C   0  0  0  0  0  0  0  0  0  0  0  0
  152.1157  144.8059  158.7472 C   0  0  0  0  0  0  0  0  0  0  0  0
  151.1232  144.4265  157.8217 C   0  0  0  0  0  0  0  0  0  0  0  0
  150.7060  143.1513  157.6641 N   0  0  0  0  0  0  0  0  0  0  0  0
  152.5944  138.8666  155.6806 H   0  0  0  0  0  0  0  0  0  0  0  0
  152.3216  139.7982  154.2095 H   0  0  0  0  0  0  0  0  0  0  0  0
  153.1078  138.2283  154.1248 H   0  0  0  0  0  0  0  0  0  0  0  0
  150.7935  138.0444  153.3612 H   0  0  0  0  0  0  0  0  0  0  0  0
  151.7408  136.1056  154.5187 H   0  0  0  0  0  0  0  0  0  0  0  0
  151.1337  136.6689  156.0603 H   0  0  0  0  0  0  0  0  0  0  0  0
  149.7058  134.4733  156.2126 H   0  0  0  0  0  0  0  0  0  0  0  0
  150.5962  134.0887  154.7381 H   0  0  0  0  0  0  0  0  0  0  0  0
  148.8511  134.0053  154.7342 H   0  0  0  0  0  0  0  0  0  0  0  0
  148.5927  136.7619  156.3701 H   0  0  0  0  0  0  0  0  0  0  0  0
  146.2972  136.6883  155.3052 H   0  0  0  0  0  0  0  0  0  0  0  0
  147.0213  135.1072  155.4622 H   0  0  0  0  0  0  0  0  0  0  0  0
  147.0055  135.9153  153.8924 H   0  0  0  0  0  0  0  0  0  0  0  0
  148.2577  138.1941  153.6964 H   0  0  0  0  0  0  0  0  0  0  0  0
  147.6412  138.7526  155.2257 H   0  0  0  0  0  0  0  0  0  0  0  0
  149.7397  139.8886  154.4695 H   0  0  0  0  0  0  0  0  0  0  0  0
  149.0627  139.4626  156.8532 H   0  0  0  0  0  0  0  0  0  0  0  0
  151.9097  140.0369  156.5387 H   0  0  0  0  0  0  0  0  0  0  0  0
  150.6556  141.1875  156.0968 H   0  0  0  0  0  0  0  0  0  0  0  0
  149.7359  140.7185  158.5547 H   0  0  0  0  0  0  0  0  0  0  0  0
  151.3416  140.1016  158.8579 H   0  0  0  0  0  0  0  0  0  0  0  0
  152.7051  141.6876  159.9951 H   0  0  0  0  0  0  0  0  0  0  0  0
  153.4666  144.0585  160.2688 H   0  0  0  0  0  0  0  0  0  0  0  0
  152.4196  145.8381  158.8394 H   0  0  0  0  0  0  0  0  0  0  0  0
  150.6533  145.1661  157.1903 H   0  0  0  0  0  0  0  0  0  0  0  0
  150.3139  138.4040  156.9125 H   0  0  0  0  0  0  0  0  0  0  0  0
  149.5234  135.9932  153.7130 H   0  0  0  0  0  0  0  0  0  0  0  0
  1  2  1  0  0  0  0
  1 19  1  0  0  0  0
  1 20  1  0  0  0  0
  1 21  1  0  0  0  0
  2  9  1  0  0  0  0
  2  3  1  0  0  0  0
  2 22  1  0  0  0  0
  3  4  1  0  0  0  0
  3 23  1  0  0  0  0
  3 24  1  0  0  0  0
  4  5  1  0  0  0  0
  4  6  1  0  0  0  0
  4 45  1  0  0  0  0
  5 25  1  0  0  0  0
  5 26  1  0  0  0  0
  5 27  1  0  0  0  0
  6  7  1  0  0  0  0
  6  8  1  0  0  0  0
  6 28  1  0  0  0  0
  7 29  1  0  0  0  0
  7 30  1  0  0  0  0
  7 31  1  0  0  0  0
  8  9  1  0  0  0  0
  8 32  1  0  0  0  0
  8 33  1  0  0  0  0
  9 10  1  0  0  0  0
  9 34  1  0  0  0  0
 10 11  1  0  0  0  0
 10 35  1  0  0  0  0
 10 44  1  0  0  0  0
 11 12  1  0  0  0  0
 11 36  1  0  0  0  0
 11 37  1  0  0  0  0
 12 13  1  0  0  0  0
 12 38  1  0  0  0  0
 12 39  1  0  0  0  0
 13 18  1  0  0  0  0
 13 14  2  0  0  0  0
 14 15  1  0  0  0  0
 14 40  1  0  0  0  0
 15 16  2  0  0  0  0
 15 41  1  0  0  0  0
 16 17  1  0  0  0  0
 16 42  1  0  0  0  0
 17 18  2  0  0  0  0
 17 43  1  0  0  0  0
M  CHG  1   4   1
M  CHG  1  10   1
M  END
> <s_m_source_file>
AV-unprocessed.smi

> <i_m_source_file_index>
3303

> <i_lp_mmshare_version>
43012

> <i_f3d_flags>
0

> <s_epik_input>
W0NIM11bQ0BASF0xW0NIMl1OKFtDSDNdKVtDQEBIXShbQ0gzXSlbQ0gyXVtDQEhdMVtOSF1bQ0gyXVtDSDJdYzJbY0hdW2NIXVtjSF1bY0hdbjI=

> <s_epik_cmdline>
J2VwaWtfcHl0aG9uJywgJy1waCcsICc3LjAnLCAnLXRuJywgJzgnLCAnLW1hJywgJzIwMCcsICctbWV0YWxfYmluZGluZycsICctaW1hZScsICc8aW5maWxlLm1hZT4nLCAnLW9tYWUnLCAnPG91dGZpbGUubWFlPic=

> <r_epik_Ionization_Penalty>
0.0769462

> <r_epik_Ionization_Penalty_Charging>
0.0759813

> <r_epik_Ionization_Penalty_Neutral>
0.000964829

> <r_epik_State_Penalty>
0.0654373

> <r_epik_Charging_Adjusted_Penalty>
0.141419

> <i_epik_Tot_Q>
2

> <i_epik_Tot_abs_Q>
2

> <r_epik_Metal_State_Penalty>
0.0656439

> <b_epik_Metal_Only>
0

> <s_lp_Force_Field>
OPLS_2005

> <r_lp_Energy>
34.3244

> <b_lp_Chiralities_Consistent>
1

> <s_lp_Variant>
AV-unprocessed.smi:3303-8

> <Gold.Version>
5.8.1

> <Gold.Id.Protein>
6NUR|6NUR_protein|mol2

> <Gold.PLP.Fitness>
44.7429

> <Gold.PLP.PLP>
-36.6673

> <Gold.PLP.part.hbond>
-1.0000

> <Gold.PLP.part.metal>
0.0000

> <Gold.PLP.part.buried>
-4.2169

> <Gold.PLP.part.nonpolar>
-32.1454

> <Gold.PLP.part.repulsive>
0.1845

> <Gold.PLP.ligand.clash>
0.0000

> <Gold.PLP.ligand.torsion>
0.3796

> <Gold.PLP.Chemscore.Hbond>
2.0000

> <Gold.PLP.Chemscore.CHOScore>
0.9366

> <Gold.PLP.Chemscore.Metal>
0.0000

> <Gold.Chemscore.Hbonds>
donor molecule, donor type, donor heavy atom, donor atom, acceptor molecule, acceptor atom, score
      L1  H     4    45       P1  7948  2.00
      L1  C    17    43       P1  8028  0.91

> <Gold.PLP.Chemscore.Internal.Correction>
0.0248

> <Gold.Rescore>
     Score         DG    S(hbond)    S(metal)    S(lipo)     H(rot)  DE(clash)    DE(int)     intcor
     17.45     -17.93       0.98        0.00     108.57       1.37       0.06       0.41       ----

> <Gold.Chemscore.Fitness>
17.4540

> <Gold.Chemscore.DG>
-17.9265

> <Gold.Chemscore.ZeroCoef>
-5.4800

> <Gold.Chemscore.Hbond>
0.9767

> <Gold.Chemscore.Metal>
0.0000

> <Gold.Chemscore.Lipo>
108.5713

> <Gold.Chemscore.Internal_Hbond>
0.0000

> <Gold.Chemscore.DEClash>
0.0604

> <Gold.Chemscore.DEInternal>
0.4121

> <Gold.Chemscore.Rot>
1.3744

> <Gold.Chemscore.Internal.Correction>
   9.000000E+99

> <Gold.Chemscore.Hbonds>
donor molecule, donor type, donor heavy atom, donor atom, acceptor molecule, acceptor atom, score
      L1  H     4    45       P1  7948  0.50

> <Gold.Chemscore.Hbond.Weighted>
-3.2621

> <Gold.Chemscore.Metal.Weighted>
-0.0000

> <Gold.Chemscore.Lipo.Weighted>
-12.7028

> <Gold.Chemscore.Internal_Hbond.Weighted>
0.0000

> <Gold.Chemscore.DEClash.Weighted>
0.0604

> <Gold.Chemscore.DEInternal.Weighted>
0.4121

> <Gold.Chemscore.Rot.Weighted>
3.5185

> <Gold.Chemscore.Internal.Correction.Weighted>
   9.000000E+99

> <Gold.Protein.RotatedTorsions>
[ 6907 6896 6895 6894 ] final  -78.00 input  -60.11 | X-H torsion
[ 7974 7965 7964 7962 ] final   98.47 input  175.53 | X-H torsion
[ 8008 7997 7996 7995 ] final   43.76 input   59.86 | X-H torsion
[ 10167 10162 10161 10158 ] final   42.62 input  -65.29 | X-H torsion
[ 10718 10713 10712 10709 ] final  -52.88 input   66.30 | X-H torsion
[ 10763 10752 10751 10750 ] final  129.01 input  -60.55 | X-H torsion
[ 11005 11000 10999 10996 ] final   92.57 input  -57.11 | X-H torsion

> <Gold.Protein.ActiveResidues>
 VAL166  LYS551  ARG553  GLY616  TRP617  ASP618  TYR619  PRO620  LYS621  CYS622 
 ASP623  PHE694  ASN695  SER759  ASP760  ASP761  ALA762  ILE779  LEU786  VAL792 
 PHE793  MET794  SER795  GLU796  ALA797  LYS798  CYS799  TRP800  GLU811  SER814 

> <Gold.Protein.RotatedAtoms>
  150.6984  134.4338  159.5260 H   0  0  0  0  0  0  0  0  0  0  0  0  # atno 6907 bound_to 6896
  152.2060  134.8542  160.0512 H   0  0  0  0  0  0  0  0  0  0  0  0  # atno 6908 bound_to 6896
  151.9444  133.3612  159.4014 H   0  0  0  0  0  0  0  0  0  0  0  0  # atno 6909 bound_to 6896
  145.4118  139.2333  143.3244 H   0  0  0  0  0  0  0  0  0  0  0  0  # atno 7974 bound_to 7965
  155.3081  140.3389  155.4245 H   0  0  0  0  0  0  0  0  0  0  0  0  # atno 8008 bound_to 7997
  156.1969  140.1718  156.8018 H   0  0  0  0  0  0  0  0  0  0  0  0  # atno 8009 bound_to 7997
  154.5510  140.0705  156.8651 H   0  0  0  0  0  0  0  0  0  0  0  0  # atno 8010 bound_to 7997
  140.3525  144.2331  150.6144 H   0  0  0  0  0  0  0  0  0  0  0  0  # atno 10167 bound_to 10162
  156.1583  130.4150  149.9834 H   0  0  0  0  0  0  0  0  0  0  0  0  # atno 10718 bound_to 10713
  153.7348  135.3233  155.3293 H   0  0  0  0  0  0  0  0  0  0  0  0  # atno 10763 bound_to 10752
  154.8314  135.4531  154.1085 H   0  0  0  0  0  0  0  0  0  0  0  0  # atno 10764 bound_to 10752
  153.2243  135.6952  153.8044 H   0  0  0  0  0  0  0  0  0  0  0  0  # atno 10765 bound_to 10752
  139.8821  134.8740  156.3592 H   0  0  0  0  0  0  0  0  0  0  0  0  # atno 11005 bound_to 11000
  146.2701  140.4830  142.8818 LP  0  0  0  0  0  0  0  0  0  0  0  0  # atno 17320 bound_to 7965
  144.8304  140.6697  143.6295 LP  0  0  0  0  0  0  0  0  0  0  0  0  # atno 17321 bound_to 7965
  140.5205  143.2267  151.8396 LP  0  0  0  0  0  0  0  0  0  0  0  0  # atno 17342 bound_to 10162
  139.4824  144.4843  151.9267 LP  0  0  0  0  0  0  0  0  0  0  0  0  # atno 17343 bound_to 10162
  156.7671  130.9172  151.3643 LP  0  0  0  0  0  0  0  0  0  0  0  0  # atno 17370 bound_to 10713
  157.6712  130.9053  150.0045 LP  0  0  0  0  0  0  0  0  0  0  0  0  # atno 17371 bound_to 10713
  140.9541  133.7431  156.0312 LP  0  0  0  0  0  0  0  0  0  0  0  0  # atno 17394 bound_to 11000
  140.8070  134.3443  157.5423 LP  0  0  0  0  0  0  0  0  0  0  0  0  # atno 17395 bound_to 11000

$$$$
