#       Name:                AV-unprocessed.smi:515
#       Creating user name   scv26
#       Creation time:       Thu Mar 26 23:25:46 2020


#       File generated by GOLD software.
#

@<TRIPOS>MOLECULE
AV-unprocessed.smi:515
    57    59     1
SMALL
NO_CHARGES


@<TRIPOS>ATOM
      1 ****        -2.8574   3.0018   3.5636 C.3            1 S1                 0.0000
      2 ****        -2.9129   1.4971   3.2902 C.3            1 S1                 0.0000
      3 ****        -1.6551   1.0860   2.7864 O.3            1 S1                 0.0000
      4 ****        -1.6017  -0.2949   2.4717 C.3            1 S1                 0.0000
      5 ****        -0.2073  -0.6488   1.9332 C.3            1 S1                 0.0000
      6 ****         0.1719   0.1887   0.7979 N.pl3          1 S1                 0.0000
      7 ****        -0.1212  -0.0232  -0.5123 C.2            1 S1                 0.0000
      8 ****        -0.9089  -1.2006  -1.0126 C.3            1 S1                 0.0000
      9 ****         0.0750  -2.0135  -1.7714 N.4            1 S1                 1.0000
     10 ****         1.0204  -2.7746  -0.9150 C.3            1 S1                 0.0000
     11 ****         2.0282  -3.5448  -1.7840 C.3            1 S1                 0.0000
     12 ****         1.3306  -4.4042  -2.6768 O.3            1 S1                 0.0000
     13 ****         0.4858  -3.6791  -3.5618 C.3            1 S1                 0.0000
     14 ****        -0.5745  -2.9139  -2.7524 C.3            1 S1                 0.0000
     15 ****         0.3532   0.9128  -1.3383 N.2            1 S1                 0.0000
     16 ****         0.9971   1.7937  -0.4832 C.2            1 S1                 0.0000
     17 ****         0.8992   1.3838   0.8093 C.2            1 S1                 0.0000
     18 ****         1.4753   2.1273   1.9530 C.2            1 S1                 0.0000
     19 ****         1.3533   1.7180   3.1054 O.2            1 S1                 0.0000
     20 ****         2.1215   3.2683   1.5543 N.pl3          1 S1                -1.0000
     21 ****         2.2459   3.7190   0.2578 C.2            1 S1                 0.0000
     22 ****         2.8411   4.7623  -0.0139 O.2            1 S1                 0.0000
     23 ****         1.6972   2.9969  -0.7693 N.am           1 S1                 0.0000
     24 ****         1.8135   3.4509  -2.1580 C.3            1 S1                 0.0000
     25 ****        -3.8077   3.3630   3.9566 H              1 S1                 0.0000
     26 ****        -2.6389   3.5570   2.6509 H              1 S1                 0.0000
     27 ****        -2.0811   3.2381   4.2919 H              1 S1                 0.0000
     28 ****        -3.1456   0.9571   4.2091 H              1 S1                 0.0000
     29 ****        -3.6999   1.2784   2.5670 H              1 S1                 0.0000
     30 ****        -1.8193  -0.8920   3.3581 H              1 S1                 0.0000
     31 ****        -2.3608  -0.5310   1.7244 H              1 S1                 0.0000
     32 ****         0.5386  -0.5579   2.7201 H              1 S1                 0.0000
     33 ****        -0.1710  -1.6969   1.6390 H              1 S1                 0.0000
     34 ****        -1.3853  -1.7708  -0.2162 H              1 S1                 0.0000
     35 ****        -1.6963  -0.8308  -1.6708 H              1 S1                 0.0000
     36 ****         1.5637  -2.1025  -0.2505 H              1 S1                 0.0000
     37 ****         0.4644  -3.4690  -0.2830 H              1 S1                 0.0000
     38 ****         2.6658  -2.8579  -2.3431 H              1 S1                 0.0000
     39 ****         2.6838  -4.1464  -1.1544 H              1 S1                 0.0000
     40 ****         1.0783  -2.9957  -4.1725 H              1 S1                 0.0000
     41 ****         0.0040  -4.3799  -4.2439 H              1 S1                 0.0000
     42 ****        -1.2269  -3.6159  -2.2302 H              1 S1                 0.0000
     43 ****        -1.2026  -2.3330  -3.4288 H              1 S1                 0.0000
     44 ****         1.2780   4.3909  -2.2950 H              1 S1                 0.0000
     45 ****         1.4066   2.7341  -2.8705 H              1 S1                 0.0000
     46 ****         2.8586   3.6119  -2.4256 H              1 S1                 0.0000
     47 ****         0.6253  -1.3576  -2.3082 H              1 S1                 0.0000
     48 ****        -0.9577   1.2816   3.4758 LP             1 S1                 0.0000
     49 ****        -1.4594   1.6085   1.9566 LP             1 S1                 0.0000
     50 ****         0.7711  -5.0387  -2.1434 LP             1 S1                 0.0000
     51 ****         1.9968  -4.9196  -3.2158 LP             1 S1                 0.0000
     52 ****         0.2652   0.9655  -2.3330 LP             1 S1                 0.0000
     53 ****         0.8575   0.8681   3.2844 LP             1 S1                 0.0000
     54 ****         1.7497   2.2348   3.8642 LP             1 S1                 0.0000
     55 ****         2.5417   3.8254   2.2706 LP             1 S1                 0.0000
     56 ****         3.2510   5.3087   0.7164 LP             1 S1                 0.0000
     57 ****         2.9144   5.0630  -0.9648 LP             1 S1                 0.0000
@<TRIPOS>BOND
    1    1    2 1     
    2    1   25 1     
    3    1   26 1     
    4    1   27 1     
    5    2    3 1     
    6    2   28 1     
    7    2   29 1     
    8    3    4 1     
    9    4    5 1     
   10    4   30 1     
   11    4   31 1     
   12    5    6 1     
   13    5   32 1     
   14    5   33 1     
   15    6   17 1     
   16    6    7 1     
   17    7    8 1     
   18    7   15 2     
   19    8    9 1     
   20    8   34 1     
   21    8   35 1     
   22    9   14 1     
   23    9   10 1     
   24    9   47 1     
   25   10   11 1     
   26   10   36 1     
   27   10   37 1     
   28   11   12 1     
   29   11   38 1     
   30   11   39 1     
   31   12   13 1     
   32   13   14 1     
   33   13   40 1     
   34   13   41 1     
   35   14   42 1     
   36   14   43 1     
   37   15   16 1     
   38   16   23 1     
   39   16   17 2     
   40   17   18 1     
   41   18   19 2     
   42   18   20 1     
   43   20   21 1     
   44   21   22 2     
   45   21   23 am    
   46   23   24 1     
   47   24   44 1     
   48   24   45 1     
   49   24   46 1     
   50    3   48 1     
   51    3   49 1     
   52   12   50 1     
   53   12   51 1     
   54   15   52 1     
   55   19   53 1     
   56   19   54 1     
   57   20   55 1     
   58   22   56 1     
   59   22   57 1     
@<TRIPOS>SUBSTRUCTURE
      1 S1             1
@<TRIPOS>SET
LONE_PAIRS      STATIC     ATOMS    <user>   **** ""
10 48 49 50 51 52 53 54 55 56 57
DONOR_HYDROGENS      STATIC     ATOMS    <user>   **** ""
1 47
ATOM$BLUE        STATIC     ATOMS    COLORGROUP SYSTEM
10 48 49 50 51 52 53 54 55 56 57
ATOM$RED        STATIC     ATOMS    COLORGROUP SYSTEM
1 47
