AV-unprocessed.smi:3334|AV-procd|sdf|12835|dock8
  -GOLD-   2272019213D 1   1.00000     0.00000
 Structure written by MMmdl.
 41 42  0  0  0  0  0  0  0  0  1 V2000
  144.8078  145.4504  152.8536 C   0  0  0  0  0  0  0  0  0  0  0  0
  144.3249  144.6746  154.0871 C   0  0  0  0  0  0  0  0  0  0  0  0
  143.8901  145.5877  155.2425 C   0  0  0  0  0  0  0  0  0  0  0  0
  145.3185  143.6450  154.5245 C   0  0  0  0  0  0  0  0  0  0  0  0
  146.1985  143.0681  153.7010 N   0  0  0  0  0  0  0  0  0  0  0  0
  147.0016  142.1191  154.3422 C   0  0  0  0  0  0  0  0  0  0  0  0
  148.0394  141.3584  153.5665 C   0  0  0  0  0  0  0  0  0  0  0  0
  149.1965  140.8371  154.4367 C   0  0  0  0  0  0  0  0  0  0  0  0
  149.6988  141.8697  155.3348 N   0  0  0  0  0  0  0  0  0  0  0  0
  150.7129  141.7141  156.1961 C   0  0  0  0  0  0  0  0  0  0  0  0
  151.3156  140.6514  156.3468 O   0  0  0  0  0  0  0  0  0  0  0  0
  151.1056  142.9511  157.0100 C   0  0  0  0  0  0  0  0  0  0  0  0
  151.1478  142.6887  158.5291 C   0  0  2  0  0  0  0  0  0  0  0  0
  151.7077  143.8599  159.2941 C   0  0  0  0  0  0  0  0  0  0  0  0
  152.6812  143.5102  160.1320 C   0  0  0  0  0  0  0  0  0  0  0  0
  152.9676  142.0349  160.0963 C   0  0  0  0  0  0  0  0  0  0  0  0
  152.0684  141.5130  158.9536 C   0  0  0  0  0  0  0  0  0  0  0  0
  146.7195  141.9909  155.6793 C   0  0  0  0  0  0  0  0  0  0  0  0
  145.4320  143.0531  156.1782 S   0  0  0  0  0  0  0  0  0  0  0  0
  145.0105  144.7721  152.0243 H   0  0  0  0  0  0  0  0  0  0  0  0
  145.7234  146.0044  153.0634 H   0  0  0  0  0  0  0  0  0  0  0  0
  144.0559  146.1653  152.5183 H   0  0  0  0  0  0  0  0  0  0  0  0
  143.4334  144.1280  153.7772 H   0  0  0  0  0  0  0  0  0  0  0  0
  143.4796  145.0068  156.0688 H   0  0  0  0  0  0  0  0  0  0  0  0
  143.1222  146.2909  154.9193 H   0  0  0  0  0  0  0  0  0  0  0  0
  144.7299  146.1674  155.6269 H   0  0  0  0  0  0  0  0  0  0  0  0
  147.5730  140.5187  153.0498 H   0  0  0  0  0  0  0  0  0  0  0  0
  148.4496  141.9927  152.7801 H   0  0  0  0  0  0  0  0  0  0  0  0
  148.8622  139.9851  155.0298 H   0  0  0  0  0  0  0  0  0  0  0  0
  150.0034  140.4812  153.7938 H   0  0  0  0  0  0  0  0  0  0  0  0
  149.2647  142.7795  155.2708 H   0  0  0  0  0  0  0  0  0  0  0  0
  152.0750  143.3226  156.6726 H   0  0  0  0  0  0  0  0  0  0  0  0
  150.3823  143.7374  156.7919 H   0  0  0  0  0  0  0  0  0  0  0  0
  150.1375  142.5196  158.9047 H   0  0  0  0  0  0  0  0  0  0  0  0
  151.3281  144.8631  159.1678 H   0  0  0  0  0  0  0  0  0  0  0  0
  153.2112  144.1850  160.7881 H   0  0  0  0  0  0  0  0  0  0  0  0
  154.0244  141.8487  159.9034 H   0  0  0  0  0  0  0  0  0  0  0  0
  152.7028  141.5858  161.0539 H   0  0  0  0  0  0  0  0  0  0  0  0
  151.4879  140.6436  159.2645 H   0  0  0  0  0  0  0  0  0  0  0  0
  152.6952  141.1943  158.1198 H   0  0  0  0  0  0  0  0  0  0  0  0
  147.1875  141.3352  156.3985 H   0  0  0  0  0  0  0  0  0  0  0  0
  1  2  1  0  0  0  0
  1 20  1  0  0  0  0
  1 21  1  0  0  0  0
  1 22  1  0  0  0  0
  2  3  1  0  0  0  0
  2  4  1  0  0  0  0
  2 23  1  0  0  0  0
  3 24  1  0  0  0  0
  3 25  1  0  0  0  0
  3 26  1  0  0  0  0
  4 19  1  0  0  0  0
  4  5  2  0  0  0  0
  5  6  1  0  0  0  0
  6  7  1  0  0  0  0
  6 18  2  0  0  0  0
  7  8  1  0  0  0  0
  7 27  1  0  0  0  0
  7 28  1  0  0  0  0
  8  9  1  0  0  0  0
  8 29  1  0  0  0  0
  8 30  1  0  0  0  0
  9 10  1  0  0  0  0
  9 31  1  0  0  0  0
 10 11  2  0  0  0  0
 10 12  1  0  0  0  0
 12 13  1  0  0  0  0
 12 32  1  0  0  0  0
 12 33  1  0  0  0  0
 13 17  1  0  0  0  0
 13 14  1  0  0  0  0
 13 34  1  0  0  0  0
 14 15  2  0  0  0  0
 14 35  1  0  0  0  0
 15 16  1  0  0  0  0
 15 36  1  0  0  0  0
 16 17  1  0  0  0  0
 16 37  1  0  0  0  0
 16 38  1  0  0  0  0
 17 39  1  0  0  0  0
 17 40  1  0  0  0  0
 18 19  1  0  0  0  0
 18 41  1  0  0  0  0
M  END
> <s_m_source_file>
AV-unprocessed.smi

> <i_m_source_file_index>
3334

> <i_lp_mmshare_version>
43012

> <i_f3d_flags>
0

> <s_epik_input>
W0NIM11bQ0hdKFtDSDNdKWMxbmMoW2NIXXMxKVtDSDJdW0NIMl1bTkhdQyg9TylbQ0gyXVtDQEBIXTJbQ0hdPVtDSF1bQ0gyXVtDSDJdMg==

> <s_epik_cmdline>
J2VwaWtfcHl0aG9uJywgJy1waCcsICc3LjAnLCAnLXRuJywgJzgnLCAnLW1hJywgJzIwMCcsICctbWV0YWxfYmluZGluZycsICctaW1hZScsICc8aW5maWxlLm1hZT4nLCAnLW9tYWUnLCAnPG91dGZpbGUubWFlPic=

> <r_epik_Ionization_Penalty>
0.000771592

> <r_epik_Ionization_Penalty_Charging>
0

> <r_epik_Ionization_Penalty_Neutral>
0.000771592

> <r_epik_State_Penalty>
0.000494253

> <r_epik_Charging_Adjusted_Penalty>
0.000494253

> <i_epik_Tot_Q>
0

> <i_epik_Tot_abs_Q>
0

> <r_epik_Metal_State_Penalty>
-0

> <b_epik_Metal_Only>
0

> <s_lp_Force_Field>
OPLS_2005

> <r_lp_Energy>
4.8696

> <b_lp_Chiralities_Consistent>
1

> <s_lp_Variant>
AV-unprocessed.smi:3334-1

> <Gold.Version>
5.8.1

> <Gold.Id.Protein>
6NUR|6NUR_protein|mol2

> <Gold.PLP.Fitness>
45.1440

> <Gold.PLP.PLP>
-44.3835

> <Gold.PLP.part.hbond>
-1.0000

> <Gold.PLP.part.metal>
0.0000

> <Gold.PLP.part.buried>
-5.1379

> <Gold.PLP.part.nonpolar>
-39.3907

> <Gold.PLP.part.repulsive>
0.3896

> <Gold.PLP.ligand.clash>
0.0000

> <Gold.PLP.ligand.torsion>
1.1768

> <Gold.PLP.Chemscore.Hbond>
1.0000

> <Gold.PLP.Chemscore.CHOScore>
0.0000

> <Gold.PLP.Chemscore.Metal>
0.0000

> <Gold.Chemscore.Hbonds>
donor molecule, donor type, donor heavy atom, donor atom, acceptor molecule, acceptor atom, score
      L1  H     9    31       P1  8028  1.00

> <Gold.PLP.Chemscore.Internal.Correction>
0.1141

> <Gold.Rescore>
     Score         DG    S(hbond)    S(metal)    S(lipo)     H(rot)  DE(clash)    DE(int)     intcor
     15.53     -18.91       0.99        0.00     119.84       1.52       0.08       3.30       ----

> <Gold.Chemscore.Fitness>
15.5282

> <Gold.Chemscore.DG>
-18.9113

> <Gold.Chemscore.ZeroCoef>
-5.4800

> <Gold.Chemscore.Hbond>
0.9855

> <Gold.Chemscore.Metal>
0.0000

> <Gold.Chemscore.Lipo>
119.8384

> <Gold.Chemscore.Internal_Hbond>
0.0000

> <Gold.Chemscore.DEClash>
0.0850

> <Gold.Chemscore.DEInternal>
3.2981

> <Gold.Chemscore.Rot>
1.5162

> <Gold.Chemscore.Internal.Correction>
   9.000000E+99

> <Gold.Chemscore.Hbonds>
donor molecule, donor type, donor heavy atom, donor atom, acceptor molecule, acceptor atom, score
      L1  H     9    31       P1  8028  0.95

> <Gold.Chemscore.Hbond.Weighted>
-3.2917

> <Gold.Chemscore.Metal.Weighted>
-0.0000

> <Gold.Chemscore.Lipo.Weighted>
-14.0211

> <Gold.Chemscore.Internal_Hbond.Weighted>
0.0000

> <Gold.Chemscore.DEClash.Weighted>
0.0850

> <Gold.Chemscore.DEInternal.Weighted>
3.2981

> <Gold.Chemscore.Rot.Weighted>
3.8815

> <Gold.Chemscore.Internal.Correction.Weighted>
   9.000000E+99

> <Gold.Protein.RotatedTorsions>
[ 6907 6896 6895 6894 ] final -142.09 input  -60.11 | X-H torsion
[ 7974 7965 7964 7962 ] final  139.66 input  175.53 | X-H torsion
[ 8008 7997 7996 7995 ] final -116.46 input   59.86 | X-H torsion
[ 10167 10162 10161 10158 ] final -127.83 input  -65.29 | X-H torsion
[ 10718 10713 10712 10709 ] final -107.17 input   66.30 | X-H torsion
[ 10763 10752 10751 10750 ] final   50.23 input  -60.55 | X-H torsion
[ 11005 11000 10999 10996 ] final  -18.44 input  -57.11 | X-H torsion

> <Gold.Protein.ActiveResidues>
 VAL166  LYS551  ARG553  GLY616  TRP617  ASP618  TYR619  PRO620  LYS621  CYS622 
 ASP623  PHE694  ASN695  SER759  ASP760  ASP761  ALA762  ILE779  LEU786  VAL792 
 PHE793  MET794  SER795  GLU796  ALA797  LYS798  CYS799  TRP800  GLU811  SER814 

> <Gold.Protein.RotatedAtoms>
  151.0824  133.5379  159.2619 H   0  0  0  0  0  0  0  0  0  0  0  0  # atno 6907 bound_to 6896
  151.2278  135.0542  159.8985 H   0  0  0  0  0  0  0  0  0  0  0  0  # atno 6908 bound_to 6896
  152.5425  134.0617  159.8209 H   0  0  0  0  0  0  0  0  0  0  0  0  # atno 6909 bound_to 6896
  144.9258  139.5110  143.5641 H   0  0  0  0  0  0  0  0  0  0  0  0  # atno 7974 bound_to 7965
  155.0682  140.0393  157.2599 H   0  0  0  0  0  0  0  0  0  0  0  0  # atno 8008 bound_to 7997
  154.7004  140.2672  155.6701 H   0  0  0  0  0  0  0  0  0  0  0  0  # atno 8009 bound_to 7997
  156.2758  140.2741  156.1613 H   0  0  0  0  0  0  0  0  0  0  0  0  # atno 8010 bound_to 7997
  139.9567  143.5995  152.2458 H   0  0  0  0  0  0  0  0  0  0  0  0  # atno 10167 bound_to 10162
  156.0424  130.5649  150.7784 H   0  0  0  0  0  0  0  0  0  0  0  0  # atno 10718 bound_to 10713
  152.9785  135.5886  154.4218 H   0  0  0  0  0  0  0  0  0  0  0  0  # atno 10763 bound_to 10752
  154.3842  135.2767  155.2195 H   0  0  0  0  0  0  0  0  0  0  0  0  # atno 10764 bound_to 10752
  154.4096  135.6084  153.5999 H   0  0  0  0  0  0  0  0  0  0  0  0  # atno 10765 bound_to 10752
  140.8268  133.8027  155.9717 H   0  0  0  0  0  0  0  0  0  0  0  0  # atno 11005 bound_to 11000
  146.3225  139.8171  142.8934 LP  0  0  0  0  0  0  0  0  0  0  0  0  # atno 17320 bound_to 7965
  145.3222  141.0246  143.3494 LP  0  0  0  0  0  0  0  0  0  0  0  0  # atno 17321 bound_to 7965
  139.6586  144.7662  151.2008 LP  0  0  0  0  0  0  0  0  0  0  0  0  # atno 17342 bound_to 10162
  140.7566  143.6047  150.8665 LP  0  0  0  0  0  0  0  0  0  0  0  0  # atno 17343 bound_to 10162
  157.5259  131.0934  151.0019 LP  0  0  0  0  0  0  0  0  0  0  0  0  # atno 17370 bound_to 10713
  157.0337  130.5721  149.5346 LP  0  0  0  0  0  0  0  0  0  0  0  0  # atno 17371 bound_to 10713
  140.9040  134.2343  157.5025 LP  0  0  0  0  0  0  0  0  0  0  0  0  # atno 17394 bound_to 11000
  139.8706  134.9720  156.4756 LP  0  0  0  0  0  0  0  0  0  0  0  0  # atno 17395 bound_to 11000

$$$$
