AV-unprocessed.smi:2895|AV-procd|sdf|11128|dock10
  -GOLD-   2272016 03D 1   1.00000     0.00000
 Structure written by MMmdl.
 53 56  0  0  0  0  0  0  0  0  2 V2000
  150.2266  139.4460  154.0088 O   0  0  0  0  0  0  0  0  0  0  0  0
  149.3811  139.8587  154.8035 C   0  0  0  0  0  0  0  0  0  0  0  0
  148.0637  139.7122  154.5815 N   0  0  0  0  0  0  0  0  0  0  0  0
  147.4716  139.0791  153.4084 C   0  0  0  0  0  0  0  0  0  0  0  0
  146.1800  138.3220  153.7598 C   0  0  0  0  0  0  0  0  0  0  0  0
  145.9945  137.0814  152.9081 C   0  0  0  0  0  0  0  0  0  0  0  0
  146.0463  135.7971  153.4880 C   0  0  0  0  0  0  0  0  0  0  0  0
  145.8657  134.6756  152.6538 C   0  0  0  0  0  0  0  0  0  0  0  0
  145.6452  134.7679  151.3244 N   0  0  0  0  0  0  0  0  0  0  0  0
  145.5969  136.0012  150.7767 C   0  0  0  0  0  0  0  0  0  0  0  0
  145.7633  137.1863  151.5210 C   0  0  0  0  0  0  0  0  0  0  0  0
  149.6986  140.4607  155.9784 N   0  0  0  0  0  0  0  0  0  0  0  0
  148.7524  140.8990  157.0172 C   0  0  0  0  0  0  0  0  0  0  0  0
  148.7271  142.4416  157.0702 C   0  0  0  0  0  0  0  0  0  0  0  0
  150.0862  143.0244  157.2671 N   0  3  0  0  0  0  0  0  0  0  0  0
  150.5536  142.9757  158.6860 C   0  0  2  0  0  0  0  0  0  0  0  0
  149.9548  144.0845  159.5867 C   0  0  0  0  0  0  0  0  0  0  0  0
  151.1931  144.6835  160.2802 C   0  0  2  0  0  0  0  0  0  0  0  0
  151.9456  145.5681  159.2718 C   0  0  0  0  0  0  0  0  0  0  0  0
  152.5487  144.5332  158.3056 C   0  0  0  0  0  0  0  0  0  0  0  0
  152.0748  143.1878  158.8974 C   0  0  1  0  0  0  0  0  0  0  0  0
  152.1222  143.4813  160.3932 C   0  0  0  0  0  0  0  0  0  0  0  0
  151.0582  142.4774  156.2775 C   0  0  0  0  0  0  0  0  0  0  0  0
  151.0571  140.9367  156.2624 C   0  0  0  0  0  0  0  0  0  0  0  0
  147.4241  140.0569  155.2824 H   0  0  0  0  0  0  0  0  0  0  0  0
  147.2811  139.8278  152.6374 H   0  0  0  0  0  0  0  0  0  0  0  0
  148.2050  138.3868  152.9943 H   0  0  0  0  0  0  0  0  0  0  0  0
  146.1888  138.0366  154.8127 H   0  0  0  0  0  0  0  0  0  0  0  0
  145.3113  138.9677  153.6241 H   0  0  0  0  0  0  0  0  0  0  0  0
  146.2186  135.6714  154.5470 H   0  0  0  0  0  0  0  0  0  0  0  0
  145.8988  133.6779  153.0659 H   0  0  0  0  0  0  0  0  0  0  0  0
  145.4199  136.0459  149.7123 H   0  0  0  0  0  0  0  0  0  0  0  0
  145.7143  138.1498  151.0349 H   0  0  0  0  0  0  0  0  0  0  0  0
  147.7360  140.5329  156.8749 H   0  0  0  0  0  0  0  0  0  0  0  0
  149.0691  140.4895  157.9769 H   0  0  0  0  0  0  0  0  0  0  0  0
  148.3344  142.8215  156.1260 H   0  0  0  0  0  0  0  0  0  0  0  0
  148.0306  142.7797  157.8366 H   0  0  0  0  0  0  0  0  0  0  0  0
  150.2895  142.0042  159.1059 H   0  0  0  0  0  0  0  0  0  0  0  0
  149.4114  144.8502  159.0316 H   0  0  0  0  0  0  0  0  0  0  0  0
  149.2671  143.6524  160.3148 H   0  0  0  0  0  0  0  0  0  0  0  0
  150.9701  145.1871  161.2214 H   0  0  0  0  0  0  0  0  0  0  0  0
  151.2895  146.2783  158.7675 H   0  0  0  0  0  0  0  0  0  0  0  0
  152.7347  146.1361  159.7667 H   0  0  0  0  0  0  0  0  0  0  0  0
  152.2220  144.6856  157.2769 H   0  0  0  0  0  0  0  0  0  0  0  0
  153.6377  144.5954  158.3165 H   0  0  0  0  0  0  0  0  0  0  0  0
  152.6871  142.3359  158.6007 H   0  0  0  0  0  0  0  0  0  0  0  0
  153.1204  143.7377  160.7531 H   0  0  0  0  0  0  0  0  0  0  0  0
  151.7168  142.6759  161.0086 H   0  0  0  0  0  0  0  0  0  0  0  0
  150.7678  142.8397  155.2904 H   0  0  0  0  0  0  0  0  0  0  0  0
  152.0641  142.8617  156.4381 H   0  0  0  0  0  0  0  0  0  0  0  0
  151.3828  140.5433  157.2261 H   0  0  0  0  0  0  0  0  0  0  0  0
  151.7912  140.5780  155.5397 H   0  0  0  0  0  0  0  0  0  0  0  0
  150.0049  144.0093  157.0578 H   0  0  0  0  0  0  0  0  0  0  0  0
  1  2  2  0  0  0  0
  2  3  1  0  0  0  0
  2 12  1  0  0  0  0
  3  4  1  0  0  0  0
  3 25  1  0  0  0  0
  4  5  1  0  0  0  0
  4 26  1  0  0  0  0
  4 27  1  0  0  0  0
  5  6  1  0  0  0  0
  5 28  1  0  0  0  0
  5 29  1  0  0  0  0
  6 11  1  0  0  0  0
  6  7  2  0  0  0  0
  7  8  1  0  0  0  0
  7 30  1  0  0  0  0
  8  9  2  0  0  0  0
  8 31  1  0  0  0  0
  9 10  1  0  0  0  0
 10 11  2  0  0  0  0
 10 32  1  0  0  0  0
 11 33  1  0  0  0  0
 12 24  1  0  0  0  0
 12 13  1  0  0  0  0
 13 14  1  0  0  0  0
 13 34  1  0  0  0  0
 13 35  1  0  0  0  0
 14 15  1  0  0  0  0
 14 36  1  0  0  0  0
 14 37  1  0  0  0  0
 15 16  1  0  0  0  0
 15 23  1  0  0  0  0
 15 53  1  0  0  0  0
 16 21  1  0  0  0  0
 16 17  1  0  0  0  0
 16 38  1  0  0  0  0
 17 18  1  0  0  0  0
 17 39  1  0  0  0  0
 17 40  1  0  0  0  0
 18 22  1  0  0  0  0
 18 19  1  0  0  0  0
 18 41  1  0  0  0  0
 19 20  1  0  0  0  0
 19 42  1  0  0  0  0
 19 43  1  0  0  0  0
 20 21  1  0  0  0  0
 20 44  1  0  0  0  0
 20 45  1  0  0  0  0
 21 22  1  0  0  0  0
 21 46  1  0  0  0  0
 22 47  1  0  0  0  0
 22 48  1  0  0  0  0
 23 24  1  0  0  0  0
 23 49  1  0  0  0  0
 23 50  1  0  0  0  0
 24 51  1  0  0  0  0
 24 52  1  0  0  0  0
M  CHG  1  15   1
M  END
> <s_m_source_file>
AV-unprocessed.smi

> <i_m_source_file_index>
2895

> <i_lp_mmshare_version>
43012

> <i_f3d_flags>
0

> <s_epik_input>
W0NIMl0xW0NIMl1bQ0BASF0oW0NIMl0yKVtDQEBIXShbQ0gyXVtDQEhdMTIpTihbQ0gyXVtDSDJdMylbQ0gyXVtDSDJdTjNDKD1PKVtOSF1bQ0gyXVtDSDJdYzRbY0hdW2NIXW5bY0hdW2NIXTQ=

> <s_epik_cmdline>
J2VwaWtfcHl0aG9uJywgJy1waCcsICc3LjAnLCAnLXRuJywgJzgnLCAnLW1hJywgJzIwMCcsICctbWV0YWxfYmluZGluZycsICctaW1hZScsICc8aW5maWxlLm1hZT4nLCAnLW9tYWUnLCAnPG91dGZpbGUubWFlPic=

> <r_epik_Ionization_Penalty>
0.0566172

> <r_epik_Ionization_Penalty_Charging>
0.00262064

> <r_epik_Ionization_Penalty_Neutral>
0.0539965

> <r_epik_State_Penalty>
0.0463959

> <r_epik_Charging_Adjusted_Penalty>
0.0490165

> <i_epik_Tot_Q>
1

> <i_epik_Tot_abs_Q>
1

> <r_epik_Metal_State_Penalty>
0.0424856

> <b_epik_Metal_Only>
0

> <s_lp_Force_Field>
OPLS_2005

> <r_lp_Energy>
99.7754

> <b_lp_Chiralities_Consistent>
1

> <s_lp_Variant>
AV-unprocessed.smi:2895-1

> <Gold.Version>
5.8.1

> <Gold.Id.Protein>
6NUR|6NUR_protein|mol2

> <Gold.PLP.Fitness>
47.0383

> <Gold.PLP.PLP>
-39.7466

> <Gold.PLP.part.hbond>
-2.0000

> <Gold.PLP.part.metal>
0.0000

> <Gold.PLP.part.buried>
0.2437

> <Gold.PLP.part.nonpolar>
-39.5812

> <Gold.PLP.part.repulsive>
1.4443

> <Gold.PLP.ligand.clash>
0.0000

> <Gold.PLP.ligand.torsion>
0.9504

> <Gold.PLP.Chemscore.Hbond>
2.0310

> <Gold.PLP.Chemscore.CHOScore>
1.0000

> <Gold.PLP.Chemscore.Metal>
0.0000

> <Gold.Chemscore.Hbonds>
donor molecule, donor type, donor heavy atom, donor atom, acceptor molecule, acceptor atom, score
      L1  H    15    53       P1  8028  1.02
      P1  H  7989  7998       L1     1  0.94
      L1  C    10    32       P1  7921  1.00

> <Gold.PLP.Chemscore.Internal.Correction>
0.0994

> <Gold.Rescore>
     Score         DG    S(hbond)    S(metal)    S(lipo)     H(rot)  DE(clash)    DE(int)     intcor
     17.98     -21.26       1.25        0.00     129.27       1.37       2.45       0.82       ----

> <Gold.Chemscore.Fitness>
17.9803

> <Gold.Chemscore.DG>
-21.2573

> <Gold.Chemscore.ZeroCoef>
-5.4800

> <Gold.Chemscore.Hbond>
1.2479

> <Gold.Chemscore.Metal>
0.0000

> <Gold.Chemscore.Lipo>
129.2688

> <Gold.Chemscore.Internal_Hbond>
0.0000

> <Gold.Chemscore.DEClash>
2.4523

> <Gold.Chemscore.DEInternal>
0.8247

> <Gold.Chemscore.Rot>
1.3731

> <Gold.Chemscore.Internal.Correction>
   9.000000E+99

> <Gold.Chemscore.Hbonds>
donor molecule, donor type, donor heavy atom, donor atom, acceptor molecule, acceptor atom, score
      L1  H    15    53       P1  8028  0.45
      P1  H  7989  7998       L1     1  0.77

> <Gold.Chemscore.Hbond.Weighted>
-4.1680

> <Gold.Chemscore.Metal.Weighted>
-0.0000

> <Gold.Chemscore.Lipo.Weighted>
-15.1245

> <Gold.Chemscore.Internal_Hbond.Weighted>
0.0000

> <Gold.Chemscore.DEClash.Weighted>
2.4523

> <Gold.Chemscore.DEInternal.Weighted>
0.8247

> <Gold.Chemscore.Rot.Weighted>
3.5152

> <Gold.Chemscore.Internal.Correction.Weighted>
   9.000000E+99

> <Gold.Protein.RotatedTorsions>
[ 6907 6896 6895 6894 ] final -174.09 input  -60.11 | X-H torsion
[ 7974 7965 7964 7962 ] final   71.81 input  175.53 | X-H torsion
[ 8008 7997 7996 7995 ] final    2.99 input   59.86 | X-H torsion
[ 10167 10162 10161 10158 ] final  -97.40 input  -65.29 | X-H torsion
[ 10718 10713 10712 10709 ] final -108.46 input   66.30 | X-H torsion
[ 10763 10752 10751 10750 ] final -173.01 input  -60.55 | X-H torsion
[ 11005 11000 10999 10996 ] final -136.31 input  -57.11 | X-H torsion

> <Gold.Protein.ActiveResidues>
 VAL166  LYS551  ARG553  GLY616  TRP617  ASP618  TYR619  PRO620  LYS621  CYS622 
 ASP623  PHE694  ASN695  SER759  ASP760  ASP761  ALA762  ILE779  LEU786  VAL792 
 PHE793  MET794  SER795  GLU796  ALA797  LYS798  CYS799  TRP800  GLU811  SER814 

> <Gold.Protein.RotatedAtoms>
  151.5667  133.3395  159.2981 H   0  0  0  0  0  0  0  0  0  0  0  0  # atno 6907 bound_to 6896
  150.8391  134.7679  159.6929 H   0  0  0  0  0  0  0  0  0  0  0  0  # atno 6908 bound_to 6896
  152.4462  134.5496  159.9914 H   0  0  0  0  0  0  0  0  0  0  0  0  # atno 6909 bound_to 6896
  145.7611  139.2801  143.1375 H   0  0  0  0  0  0  0  0  0  0  0  0  # atno 7974 bound_to 7965
  154.6982  140.2667  155.6745 H   0  0  0  0  0  0  0  0  0  0  0  0  # atno 8008 bound_to 7997
  156.2756  140.2777  156.1507 H   0  0  0  0  0  0  0  0  0  0  0  0  # atno 8009 bound_to 7997
  155.0801  140.0372  157.2626 H   0  0  0  0  0  0  0  0  0  0  0  0  # atno 8010 bound_to 7997
  140.2838  143.3265  152.0415 H   0  0  0  0  0  0  0  0  0  0  0  0  # atno 10167 bound_to 10162
  156.0487  130.5714  150.7964 H   0  0  0  0  0  0  0  0  0  0  0  0  # atno 10718 bound_to 10713
  154.6128  135.2866  155.0413 H   0  0  0  0  0  0  0  0  0  0  0  0  # atno 10763 bound_to 10752
  154.1637  135.6484  153.4996 H   0  0  0  0  0  0  0  0  0  0  0  0  # atno 10764 bound_to 10752
  153.0202  135.5384  154.6888 H   0  0  0  0  0  0  0  0  0  0  0  0  # atno 10765 bound_to 10752
  140.8817  134.1923  157.4587 H   0  0  0  0  0  0  0  0  0  0  0  0  # atno 11005 bound_to 11000
  146.0263  140.8301  142.9898 LP  0  0  0  0  0  0  0  0  0  0  0  0  # atno 17320 bound_to 7965
  144.6830  140.2702  143.7307 LP  0  0  0  0  0  0  0  0  0  0  0  0  # atno 17321 bound_to 7965
  139.4956  144.6573  151.6543 LP  0  0  0  0  0  0  0  0  0  0  0  0  # atno 17342 bound_to 10162
  140.5790  143.9979  150.6257 LP  0  0  0  0  0  0  0  0  0  0  0  0  # atno 17343 bound_to 10162
  157.5390  131.0940  150.9853 LP  0  0  0  0  0  0  0  0  0  0  0  0  # atno 17370 bound_to 10713
  157.0141  130.5648  149.5324 LP  0  0  0  0  0  0  0  0  0  0  0  0  # atno 17371 bound_to 10713
  139.8720  134.9820  156.5139 LP  0  0  0  0  0  0  0  0  0  0  0  0  # atno 17394 bound_to 11000
  140.8453  133.8173  155.9115 LP  0  0  0  0  0  0  0  0  0  0  0  0  # atno 17395 bound_to 11000

$$$$
