AV-unprocessed.smi:1252|AV-procd|sdf|5264|dock1
  -GOLD-   22720 4373D 1   1.00000     0.00000
 Structure written by MMmdl.
 43 44  0  0  0  0  0  0  0  0  1 V2000
  148.0027  136.1074  163.0600 C   0  0  0  0  0  0  0  0  0  0  0  0
  147.6958  135.4296  161.7128 C   0  0  2  0  0  0  0  0  0  0  0  0
  147.5179  136.4478  160.5771 C   0  0  0  0  0  0  0  0  0  0  0  0
  146.5626  137.2254  160.5793 O   0  0  0  0  0  0  0  0  0  0  0  0
  148.4519  136.4296  159.6134 N   0  0  0  0  0  0  0  0  0  0  0  0
  148.5041  137.3156  158.4512 C   0  0  0  0  0  0  0  0  0  0  0  0
  149.7201  137.0303  157.5190 C   0  0  0  0  0  0  0  0  0  0  0  0
  150.9860  137.0351  158.4095 C   0  0  0  0  0  0  0  0  0  0  0  0
  149.5467  135.5842  156.9891 C   0  0  0  0  0  0  0  0  0  0  0  0
  149.7941  138.0060  156.3948 N   0  0  0  0  0  0  0  0  0  0  0  0
  149.9824  139.4038  156.8012 C   0  0  0  0  0  0  0  0  0  0  0  0
  149.9247  140.3671  155.6035 C   0  0  0  0  0  0  0  0  0  0  0  0
  150.9024  139.9930  154.6406 O   0  0  0  0  0  0  0  0  0  0  0  0
  150.7212  138.6617  154.1738 C   0  0  0  0  0  0  0  0  0  0  0  0
  150.7827  137.6831  155.3591 C   0  0  0  0  0  0  0  0  0  0  0  0
  146.5242  134.5707  161.8163 N   0  0  0  0  0  0  0  0  0  0  0  0
  145.2761  134.8310  162.2175 C   0  0  0  0  0  0  0  0  0  0  0  0
  144.4726  133.7769  162.1926 N   0  0  0  0  0  0  0  0  0  0  0  0
  145.3503  132.8330  161.7404 C   0  0  0  0  0  0  0  0  0  0  0  0
  146.5925  133.2546  161.5036 N   0  0  0  0  0  0  0  0  0  0  0  0
  148.8729  136.7606  162.9842 H   0  0  0  0  0  0  0  0  0  0  0  0
  148.2181  135.3629  163.8271 H   0  0  0  0  0  0  0  0  0  0  0  0
  147.1641  136.7096  163.4121 H   0  0  0  0  0  0  0  0  0  0  0  0
  148.5530  134.8011  161.4618 H   0  0  0  0  0  0  0  0  0  0  0  0
  149.2016  135.7587  159.7000 H   0  0  0  0  0  0  0  0  0  0  0  0
  147.5658  137.2008  157.9093 H   0  0  0  0  0  0  0  0  0  0  0  0
  148.5045  138.3598  158.7697 H   0  0  0  0  0  0  0  0  0  0  0  0
  150.9008  136.3024  159.2131 H   0  0  0  0  0  0  0  0  0  0  0  0
  151.1524  138.0022  158.8835 H   0  0  0  0  0  0  0  0  0  0  0  0
  151.8855  136.7815  157.8490 H   0  0  0  0  0  0  0  0  0  0  0  0
  149.3044  134.8892  157.7941 H   0  0  0  0  0  0  0  0  0  0  0  0
  150.4555  135.2028  156.5239 H   0  0  0  0  0  0  0  0  0  0  0  0
  148.7472  135.5182  156.2504 H   0  0  0  0  0  0  0  0  0  0  0  0
  149.2154  139.7108  157.5099 H   0  0  0  0  0  0  0  0  0  0  0  0
  150.9431  139.5247  157.3020 H   0  0  0  0  0  0  0  0  0  0  0  0
  148.9327  140.3593  155.1487 H   0  0  0  0  0  0  0  0  0  0  0  0
  150.1194  141.3887  155.9300 H   0  0  0  0  0  0  0  0  0  0  0  0
  149.7664  138.5774  153.6527 H   0  0  0  0  0  0  0  0  0  0  0  0
  151.5023  138.4284  153.4499 H   0  0  0  0  0  0  0  0  0  0  0  0
  151.7887  137.7028  155.7780 H   0  0  0  0  0  0  0  0  0  0  0  0
  150.6221  136.6806  154.9669 H   0  0  0  0  0  0  0  0  0  0  0  0
  144.9502  135.8107  162.5355 H   0  0  0  0  0  0  0  0  0  0  0  0
  145.0656  131.8029  161.5834 H   0  0  0  0  0  0  0  0  0  0  0  0
  1  2  1  0  0  0  0
  1 21  1  0  0  0  0
  1 22  1  0  0  0  0
  1 23  1  0  0  0  0
  2  3  1  0  0  0  0
  2 16  1  0  0  0  0
  2 24  1  0  0  0  0
  3  4  2  0  0  0  0
  3  5  1  0  0  0  0
  5  6  1  0  0  0  0
  5 25  1  0  0  0  0
  6  7  1  0  0  0  0
  6 26  1  0  0  0  0
  6 27  1  0  0  0  0
  7  8  1  0  0  0  0
  7  9  1  0  0  0  0
  7 10  1  0  0  0  0
  8 28  1  0  0  0  0
  8 29  1  0  0  0  0
  8 30  1  0  0  0  0
  9 31  1  0  0  0  0
  9 32  1  0  0  0  0
  9 33  1  0  0  0  0
 10 15  1  0  0  0  0
 10 11  1  0  0  0  0
 11 12  1  0  0  0  0
 11 34  1  0  0  0  0
 11 35  1  0  0  0  0
 12 13  1  0  0  0  0
 12 36  1  0  0  0  0
 12 37  1  0  0  0  0
 13 14  1  0  0  0  0
 14 15  1  0  0  0  0
 14 38  1  0  0  0  0
 14 39  1  0  0  0  0
 15 40  1  0  0  0  0
 15 41  1  0  0  0  0
 16 20  1  0  0  0  0
 16 17  1  0  0  0  0
 17 18  2  0  0  0  0
 17 42  1  0  0  0  0
 18 19  1  0  0  0  0
 19 20  2  0  0  0  0
 19 43  1  0  0  0  0
M  END
> <s_m_source_file>
AV-unprocessed.smi

> <i_m_source_file_index>
1252

> <i_lp_mmshare_version>
43012

> <i_f3d_flags>
0

> <s_epik_input>
bjFbY0hdbltjSF1uMVtDQEhdKFtDSDNdKUMoPU8pW05IXVtDSDJdQyhbQ0gzXSkoW0NIM10pTjJbQ0gyXVtDSDJdT1tDSDJdW0NIMl0y

> <s_epik_cmdline>
J2VwaWtfcHl0aG9uJywgJy1waCcsICc3LjAnLCAnLXRuJywgJzgnLCAnLW1hJywgJzIwMCcsICctbWV0YWxfYmluZGluZycsICctaW1hZScsICc8aW5maWxlLm1hZT4nLCAnLW9tYWUnLCAnPG91dGZpbGUubWFlPic=

> <r_lp_tautomer_probability>
1

> <r_epik_Ionization_Penalty>
0.211373

> <r_epik_Ionization_Penalty_Charging>
0

> <r_epik_Ionization_Penalty_Neutral>
0.211373

> <r_epik_State_Penalty>
0.201459

> <r_epik_Charging_Adjusted_Penalty>
0.201459

> <i_epik_Tot_Q>
0

> <i_epik_Tot_abs_Q>
0

> <r_epik_Metal_State_Penalty>
0.201458

> <b_epik_Metal_Only>
0

> <s_lp_Force_Field>
OPLS_2005

> <r_lp_Energy>
48.0219

> <b_lp_Chiralities_Consistent>
1

> <s_lp_Variant>
AV-unprocessed.smi:1252-1

> <Gold.Version>
5.8.1

> <Gold.Id.Protein>
6NUR|6NUR_protein|mol2

> <Gold.PLP.Fitness>
37.2476

> <Gold.PLP.PLP>
-31.4589

> <Gold.PLP.part.hbond>
-2.0000

> <Gold.PLP.part.metal>
0.0000

> <Gold.PLP.part.buried>
-6.3767

> <Gold.PLP.part.nonpolar>
-23.5948

> <Gold.PLP.part.repulsive>
0.3545

> <Gold.PLP.ligand.clash>
0.0000

> <Gold.PLP.ligand.torsion>
0.2154

> <Gold.PLP.Chemscore.Hbond>
2.0000

> <Gold.PLP.Chemscore.CHOScore>
0.0000

> <Gold.PLP.Chemscore.Metal>
0.0000

> <Gold.Chemscore.Hbonds>
donor molecule, donor type, donor heavy atom, donor atom, acceptor molecule, acceptor atom, score
      P1  H  6934  6947       L1     4  1.00
      P1  H  7989  7998       L1    13  1.00

> <Gold.PLP.Chemscore.Internal.Correction>
0.2194

> <Gold.Rescore>
     Score         DG    S(hbond)    S(metal)    S(lipo)     H(rot)  DE(clash)    DE(int)     intcor
     11.72     -11.93       1.92        0.00      55.44       2.52       0.02       0.19       ----

> <Gold.Chemscore.Fitness>
11.7180

> <Gold.Chemscore.DG>
-11.9282

> <Gold.Chemscore.ZeroCoef>
-5.4800

> <Gold.Chemscore.Hbond>
1.9165

> <Gold.Chemscore.Metal>
0.0000

> <Gold.Chemscore.Lipo>
55.4378

> <Gold.Chemscore.Internal_Hbond>
0.0000

> <Gold.Chemscore.DEClash>
0.0234

> <Gold.Chemscore.DEInternal>
0.1868

> <Gold.Chemscore.Rot>
2.5153

> <Gold.Chemscore.Internal.Correction>
   9.000000E+99

> <Gold.Chemscore.Hbonds>
donor molecule, donor type, donor heavy atom, donor atom, acceptor molecule, acceptor atom, score
      P1  H  6934  6947       L1     4  0.74
      P1  H  7989  7998       L1    13  0.69

> <Gold.Chemscore.Hbond.Weighted>
-6.4012

> <Gold.Chemscore.Metal.Weighted>
-0.0000

> <Gold.Chemscore.Lipo.Weighted>
-6.4862

> <Gold.Chemscore.Internal_Hbond.Weighted>
0.0000

> <Gold.Chemscore.DEClash.Weighted>
0.0234

> <Gold.Chemscore.DEInternal.Weighted>
0.1868

> <Gold.Chemscore.Rot.Weighted>
6.4392

> <Gold.Chemscore.Internal.Correction.Weighted>
   9.000000E+99

> <Gold.Protein.RotatedTorsions>
[ 6907 6896 6895 6894 ] final  140.23 input  -60.11 | X-H torsion
[ 7974 7965 7964 7962 ] final  -12.10 input  175.53 | X-H torsion
[ 8008 7997 7996 7995 ] final  -38.07 input   59.86 | X-H torsion
[ 10167 10162 10161 10158 ] final  -62.08 input  -65.29 | X-H torsion
[ 10718 10713 10712 10709 ] final -160.10 input   66.30 | X-H torsion
[ 10763 10752 10751 10750 ] final  176.49 input  -60.55 | X-H torsion
[ 11005 11000 10999 10996 ] final   18.79 input  -57.11 | X-H torsion

> <Gold.Protein.ActiveResidues>
 VAL166  LYS551  ARG553  GLY616  TRP617  ASP618  TYR619  PRO620  LYS621  CYS622 
 ASP623  PHE694  ASN695  SER759  ASP760  ASP761  ALA762  ILE779  LEU786  VAL792 
 PHE793  MET794  SER795  GLU796  ALA797  LYS798  CYS799  TRP800  GLU811  SER814 

> <Gold.Protein.RotatedAtoms>
  152.2455  133.5171  159.5294 H   0  0  0  0  0  0  0  0  0  0  0  0  # atno 6907 bound_to 6896
  150.7077  134.1031  159.3982 H   0  0  0  0  0  0  0  0  0  0  0  0  # atno 6908 bound_to 6896
  151.8952  135.0400  160.0552 H   0  0  0  0  0  0  0  0  0  0  0  0  # atno 6909 bound_to 6896
  146.2164  140.3008  142.8375 H   0  0  0  0  0  0  0  0  0  0  0  0  # atno 7974 bound_to 7965
  154.4043  140.1587  156.2639 H   0  0  0  0  0  0  0  0  0  0  0  0  # atno 8008 bound_to 7997
  155.9012  140.3433  155.6005 H   0  0  0  0  0  0  0  0  0  0  0  0  # atno 8009 bound_to 7997
  155.7446  140.0797  157.2220 H   0  0  0  0  0  0  0  0  0  0  0  0  # atno 8010 bound_to 7997
  140.5963  143.2351  151.6029 H   0  0  0  0  0  0  0  0  0  0  0  0  # atno 10167 bound_to 10162
  156.5774  130.8714  151.2855 H   0  0  0  0  0  0  0  0  0  0  0  0  # atno 10718 bound_to 10713
  154.4818  135.2775  155.1565 H   0  0  0  0  0  0  0  0  0  0  0  0  # atno 10763 bound_to 10752
  154.3272  135.6197  153.5538 H   0  0  0  0  0  0  0  0  0  0  0  0  # atno 10764 bound_to 10752
  152.9876  135.5757  154.5220 H   0  0  0  0  0  0  0  0  0  0  0  0  # atno 10765 bound_to 10752
  140.4209  134.1520  155.7673 H   0  0  0  0  0  0  0  0  0  0  0  0  # atno 11005 bound_to 11000
  144.9059  140.7698  143.5838 LP  0  0  0  0  0  0  0  0  0  0  0  0  # atno 17320 bound_to 7965
  145.2936  139.1875  143.4727 LP  0  0  0  0  0  0  0  0  0  0  0  0  # atno 17321 bound_to 7965
  139.5260  144.3057  152.1036 LP  0  0  0  0  0  0  0  0  0  0  0  0  # atno 17342 bound_to 10162
  140.2230  144.4447  150.6333 LP  0  0  0  0  0  0  0  0  0  0  0  0  # atno 17343 bound_to 10162
  157.7334  130.9730  150.1978 LP  0  0  0  0  0  0  0  0  0  0  0  0  # atno 17370 bound_to 10713
  156.2661  130.3716  149.8079 LP  0  0  0  0  0  0  0  0  0  0  0  0  # atno 17371 bound_to 10713
  141.1784  133.8465  157.1342 LP  0  0  0  0  0  0  0  0  0  0  0  0  # atno 17394 bound_to 11000
  140.0201  134.9950  157.0574 LP  0  0  0  0  0  0  0  0  0  0  0  0  # atno 17395 bound_to 11000

$$$$
