AV-unprocessed.smi:1567|AV-procd|sdf|6307|dock8
  -GOLD-   22720 6503D 1   1.00000     0.00000
 Structure written by MMmdl.
 42 44  0  0  0  0  0  0  0  0  1 V2000
  150.7898  136.7548  158.7812 O   0  0  0  0  0  0  0  0  0  0  0  0
  150.9884  136.8848  157.3905 C   0  0  0  0  0  0  0  0  0  0  0  0
  152.0384  137.9717  157.1158 C   0  0  0  0  0  0  0  0  0  0  0  0
  152.1523  138.3719  155.6332 C   0  0  0  0  0  0  0  0  0  0  0  0
  150.9220  139.0470  155.0911 C   0  0  0  0  0  0  0  0  0  0  0  0
  150.0426  138.3796  154.3420 N   0  0  0  0  0  0  0  0  0  0  0  0
  149.0814  139.3323  154.0709 C   0  0  0  0  0  0  0  0  0  0  0  0
  147.8953  139.2481  153.3071 C   0  0  0  0  0  0  0  0  0  0  0  0
  147.0529  140.3709  153.1712 C   0  0  0  0  0  0  0  0  0  0  0  0
  147.3832  141.5903  153.7968 C   0  0  0  0  0  0  0  0  0  0  0  0
  148.5598  141.6945  154.5633 C   0  0  0  0  0  0  0  0  0  0  0  0
  149.3986  140.5710  154.6948 C   0  0  0  0  0  0  0  0  0  0  0  0
  150.5980  140.3390  155.3630 N   0  0  0  0  0  0  0  0  0  0  0  0
  151.3154  141.3081  156.1822 C   0  0  0  0  0  0  0  0  0  0  0  0
  150.4274  141.9617  157.2585 C   0  0  1  0  0  0  0  0  0  0  0  0
  149.4649  141.0327  157.7208 O   0  0  0  0  0  0  0  0  0  0  0  0
  151.2673  142.5387  158.3892 C   0  0  0  0  0  0  0  0  0  0  0  0
  151.2233  143.9216  158.6757 C   0  0  0  0  0  0  0  0  0  0  0  0
  151.9930  144.4561  159.7266 C   0  0  0  0  0  0  0  0  0  0  0  0
  151.9453  145.7827  159.9929 F   0  0  0  0  0  0  0  0  0  0  0  0
  152.8109  143.6115  160.5009 C   0  0  0  0  0  0  0  0  0  0  0  0
  152.8549  142.2317  160.2254 C   0  0  0  0  0  0  0  0  0  0  0  0
  152.0841  141.6943  159.1757 C   0  0  0  0  0  0  0  0  0  0  0  0
  152.1314  140.3625  158.9312 F   0  0  0  0  0  0  0  0  0  0  0  0
  150.7754  137.6182  159.1655 H   0  0  0  0  0  0  0  0  0  0  0  0
  151.3186  135.9242  156.9960 H   0  0  0  0  0  0  0  0  0  0  0  0
  150.0358  137.1288  156.9192 H   0  0  0  0  0  0  0  0  0  0  0  0
  151.8135  138.8568  157.7127 H   0  0  0  0  0  0  0  0  0  0  0  0
  153.0117  137.6183  157.4584 H   0  0  0  0  0  0  0  0  0  0  0  0
  152.9912  139.0572  155.5087 H   0  0  0  0  0  0  0  0  0  0  0  0
  152.4000  137.4869  155.0500 H   0  0  0  0  0  0  0  0  0  0  0  0
  147.6339  138.3181  152.8245 H   0  0  0  0  0  0  0  0  0  0  0  0
  146.1492  140.2962  152.5845 H   0  0  0  0  0  0  0  0  0  0  0  0
  146.7333  142.4462  153.6876 H   0  0  0  0  0  0  0  0  0  0  0  0
  148.8158  142.6284  155.0410 H   0  0  0  0  0  0  0  0  0  0  0  0
  152.1601  140.8042  156.6533 H   0  0  0  0  0  0  0  0  0  0  0  0
  151.7544  142.0641  155.5311 H   0  0  0  0  0  0  0  0  0  0  0  0
  149.8643  142.7735  156.8034 H   0  0  0  0  0  0  0  0  0  0  0  0
  148.6139  141.4428  157.6943 H   0  0  0  0  0  0  0  0  0  0  0  0
  150.5952  144.5785  158.0915 H   0  0  0  0  0  0  0  0  0  0  0  0
  153.4015  144.0212  161.3071 H   0  0  0  0  0  0  0  0  0  0  0  0
  153.4793  141.5834  160.8222 H   0  0  0  0  0  0  0  0  0  0  0  0
  1  2  1  0  0  0  0
  1 25  1  0  0  0  0
  2  3  1  0  0  0  0
  2 26  1  0  0  0  0
  2 27  1  0  0  0  0
  3  4  1  0  0  0  0
  3 28  1  0  0  0  0
  3 29  1  0  0  0  0
  4  5  1  0  0  0  0
  4 30  1  0  0  0  0
  4 31  1  0  0  0  0
  5 13  1  0  0  0  0
  5  6  2  0  0  0  0
  6  7  1  0  0  0  0
  7 12  2  0  0  0  0
  7  8  1  0  0  0  0
  8  9  2  0  0  0  0
  8 32  1  0  0  0  0
  9 10  1  0  0  0  0
  9 33  1  0  0  0  0
 10 11  2  0  0  0  0
 10 34  1  0  0  0  0
 11 12  1  0  0  0  0
 11 35  1  0  0  0  0
 12 13  1  0  0  0  0
 13 14  1  0  0  0  0
 14 15  1  0  0  0  0
 14 36  1  0  0  0  0
 14 37  1  0  0  0  0
 15 16  1  0  0  0  0
 15 17  1  0  0  0  0
 15 38  1  0  0  0  0
 16 39  1  0  0  0  0
 17 23  1  0  0  0  0
 17 18  2  0  0  0  0
 18 19  1  0  0  0  0
 18 40  1  0  0  0  0
 19 20  1  0  0  0  0
 19 21  2  0  0  0  0
 21 22  1  0  0  0  0
 21 41  1  0  0  0  0
 22 23  2  0  0  0  0
 22 42  1  0  0  0  0
 23 24  1  0  0  0  0
M  END
> <s_m_source_file>
AV-unprocessed.smi

> <i_m_source_file_index>
1567

> <i_lp_mmshare_version>
43012

> <i_f3d_flags>
0

> <s_epik_input>
W09IXVtDSDJdW0NIMl1bQ0gyXWMobjEpbihjKGMxMilbY0hdW2NIXVtjSF1bY0hdMilbQ0gyXVtDQEhdKFtPSF0pYzNbY0hdYyhGKVtjSF1bY0hdYzNG

> <s_epik_cmdline>
J2VwaWtfcHl0aG9uJywgJy1waCcsICc3LjAnLCAnLXRuJywgJzgnLCAnLW1hJywgJzIwMCcsICctbWV0YWxfYmluZGluZycsICctaW1hZScsICc8aW5maWxlLm1hZT4nLCAnLW9tYWUnLCAnPG91dGZpbGUubWFlPic=

> <r_epik_Ionization_Penalty>
0.182562

> <r_epik_Ionization_Penalty_Charging>
0

> <r_epik_Ionization_Penalty_Neutral>
0.182562

> <r_epik_State_Penalty>
0.172086

> <r_epik_Charging_Adjusted_Penalty>
0.172086

> <i_epik_Tot_Q>
0

> <i_epik_Tot_abs_Q>
0

> <r_epik_Metal_State_Penalty>
0.000199649

> <b_epik_Metal_Only>
0

> <s_lp_Force_Field>
OPLS_2005

> <r_lp_Energy>
10.1612

> <b_lp_Chiralities_Consistent>
1

> <s_lp_Variant>
AV-unprocessed.smi:1567-2

> <Gold.Version>
5.8.1

> <Gold.Id.Protein>
6NUR|6NUR_protein|mol2

> <Gold.PLP.Fitness>
54.3165

> <Gold.PLP.PLP>
-52.4211

> <Gold.PLP.part.hbond>
-1.0000

> <Gold.PLP.part.metal>
0.0000

> <Gold.PLP.part.buried>
-2.2273

> <Gold.PLP.part.nonpolar>
-48.0870

> <Gold.PLP.part.repulsive>
0.2185

> <Gold.PLP.ligand.clash>
0.0000

> <Gold.PLP.ligand.torsion>
0.5942

> <Gold.PLP.Chemscore.Hbond>
1.0000

> <Gold.PLP.Chemscore.CHOScore>
0.0000

> <Gold.PLP.Chemscore.Metal>
0.0000

> <Gold.Chemscore.Hbonds>
donor molecule, donor type, donor heavy atom, donor atom, acceptor molecule, acceptor atom, score
      P1  H  6896  6907       L1     1  1.00

> <Gold.PLP.Chemscore.Internal.Correction>
0.0838

> <Gold.Rescore>
     Score         DG    S(hbond)    S(metal)    S(lipo)     H(rot)  DE(clash)    DE(int)     intcor
     12.69     -15.96       0.91        0.00     134.34       3.23       0.69       2.57       ----

> <Gold.Chemscore.Fitness>
12.6929

> <Gold.Chemscore.DG>
-15.9579

> <Gold.Chemscore.ZeroCoef>
-5.4800

> <Gold.Chemscore.Hbond>
0.9054

> <Gold.Chemscore.Metal>
0.0000

> <Gold.Chemscore.Lipo>
134.3410

> <Gold.Chemscore.Internal_Hbond>
0.0000

> <Gold.Chemscore.DEClash>
0.6920

> <Gold.Chemscore.DEInternal>
2.5730

> <Gold.Chemscore.Rot>
3.2281

> <Gold.Chemscore.Internal.Correction>
   9.000000E+99

> <Gold.Chemscore.Hbonds>
donor molecule, donor type, donor heavy atom, donor atom, acceptor molecule, acceptor atom, score
      P1  H  6896  6907       L1     1  0.90

> <Gold.Chemscore.Hbond.Weighted>
-3.0239

> <Gold.Chemscore.Metal.Weighted>
-0.0000

> <Gold.Chemscore.Lipo.Weighted>
-15.7179

> <Gold.Chemscore.Internal_Hbond.Weighted>
0.0000

> <Gold.Chemscore.DEClash.Weighted>
0.6920

> <Gold.Chemscore.DEInternal.Weighted>
2.5730

> <Gold.Chemscore.Rot.Weighted>
8.2639

> <Gold.Chemscore.Internal.Correction.Weighted>
   9.000000E+99

> <Gold.Protein.RotatedTorsions>
[ 6907 6896 6895 6894 ] final  -33.08 input  -60.11 | X-H torsion
[ 7974 7965 7964 7962 ] final  157.26 input  175.53 | X-H torsion
[ 8008 7997 7996 7995 ] final    0.93 input   59.86 | X-H torsion
[ 10167 10162 10161 10158 ] final  172.19 input  -65.29 | X-H torsion
[ 10718 10713 10712 10709 ] final  -19.98 input   66.30 | X-H torsion
[ 10763 10752 10751 10750 ] final -111.96 input  -60.55 | X-H torsion
[ 11005 11000 10999 10996 ] final  138.73 input  -57.11 | X-H torsion

> <Gold.Protein.ActiveResidues>
 VAL166  LYS551  ARG553  GLY616  TRP617  ASP618  TYR619  PRO620  LYS621  CYS622 
 ASP623  PHE694  ASN695  SER759  ASP760  ASP761  ALA762  ILE779  LEU786  VAL792 
 PHE793  MET794  SER795  GLU796  ALA797  LYS798  CYS799  TRP800  GLU811  SER814 

> <Gold.Protein.RotatedAtoms>
  151.0703  134.9794  159.8305 H   0  0  0  0  0  0  0  0  0  0  0  0  # atno 6907 bound_to 6896
  152.5407  134.2307  159.8834 H   0  0  0  0  0  0  0  0  0  0  0  0  # atno 6908 bound_to 6896
  151.2331  133.4396  159.2638 H   0  0  0  0  0  0  0  0  0  0  0  0  # atno 6909 bound_to 6896
  144.7914  139.7316  143.6220 H   0  0  0  0  0  0  0  0  0  0  0  0  # atno 7974 bound_to 7965
  154.6738  140.2617  155.6979 H   0  0  0  0  0  0  0  0  0  0  0  0  # atno 8008 bound_to 7997
  156.2669  140.2824  156.1179 H   0  0  0  0  0  0  0  0  0  0  0  0  # atno 8009 bound_to 7997
  155.1130  140.0376  157.2719 H   0  0  0  0  0  0  0  0  0  0  0  0  # atno 8010 bound_to 7997
  139.5069  144.3402  152.0026 H   0  0  0  0  0  0  0  0  0  0  0  0  # atno 10167 bound_to 10162
  156.5381  130.4671  149.6512 H   0  0  0  0  0  0  0  0  0  0  0  0  # atno 10718 bound_to 10713
  154.8326  135.4508  154.1119 H   0  0  0  0  0  0  0  0  0  0  0  0  # atno 10763 bound_to 10752
  153.2379  135.6913  153.7822 H   0  0  0  0  0  0  0  0  0  0  0  0  # atno 10764 bound_to 10752
  153.7181  135.3346  155.3237 H   0  0  0  0  0  0  0  0  0  0  0  0  # atno 10765 bound_to 10752
  140.0205  134.9399  157.0463 H   0  0  0  0  0  0  0  0  0  0  0  0  # atno 11005 bound_to 11000
  146.2167  139.5562  142.9645 LP  0  0  0  0  0  0  0  0  0  0  0  0  # atno 17320 bound_to 7965
  145.5785  141.0385  143.2135 LP  0  0  0  0  0  0  0  0  0  0  0  0  # atno 17321 bound_to 7965
  140.2840  144.3828  150.6110 LP  0  0  0  0  0  0  0  0  0  0  0  0  # atno 17342 bound_to 10162
  140.5997  143.2167  151.7096 LP  0  0  0  0  0  0  0  0  0  0  0  0  # atno 17343 bound_to 10162
  156.2997  130.7170  151.2038 LP  0  0  0  0  0  0  0  0  0  0  0  0  # atno 17370 bound_to 10713
  157.7410  131.0509  150.5127 LP  0  0  0  0  0  0  0  0  0  0  0  0  # atno 17371 bound_to 10713
  140.4396  134.1695  155.7173 LP  0  0  0  0  0  0  0  0  0  0  0  0  # atno 17394 bound_to 11000
  141.1770  133.8493  157.1387 LP  0  0  0  0  0  0  0  0  0  0  0  0  # atno 17395 bound_to 11000

$$$$
