AV-unprocessed.smi:1432|AV-procd|sdf|5832|dock7
  -GOLD-   22720 5493D 1   1.00000     0.00000
 Structure written by MMmdl.
 47 48  0  0  0  0  0  0  0  0  2 V2000
  145.3248  135.5620  154.8898 C   0  0  0  0  0  0  0  0  0  0  0  0
  146.4405  135.4656  153.8263 C   0  0  1  0  0  0  0  0  0  0  0  0
  146.1980  134.3193  152.8217 C   0  0  0  0  0  0  0  0  0  0  0  0
  145.0666  134.6446  151.8357 C   0  0  0  0  0  0  0  0  0  0  0  0
  145.3452  135.9819  151.1389 C   0  0  0  0  0  0  0  0  0  0  0  0
  145.5825  137.1040  152.1630 C   0  0  0  0  0  0  0  0  0  0  0  0
  146.6820  136.7496  153.1017 N   0  3  1  0  0  0  0  0  0  0  0  0
  147.0901  137.8685  153.9891 C   0  0  0  0  0  0  0  0  0  0  0  0
  146.8900  139.2425  153.3211 C   0  0  0  0  0  0  0  0  0  0  0  0
  148.0261  140.1253  153.5599 N   0  0  0  0  0  0  0  0  0  0  0  0
  148.2193  140.8422  154.6776 C   0  0  0  0  0  0  0  0  0  0  0  0
  147.4369  140.8223  155.6289 O   0  0  0  0  0  0  0  0  0  0  0  0
  149.4839  141.7131  154.7051 C   0  0  0  0  0  0  0  0  0  0  0  0
  150.3651  141.4330  155.8511 N   0  0  0  0  0  0  0  0  0  0  0  0
  150.6414  142.5066  156.7203 C   0  0  0  0  0  0  0  0  0  0  0  0
  151.4119  142.3823  157.8175 C   0  0  0  0  0  0  0  0  0  0  0  0
  151.7199  143.5748  158.7094 C   0  0  0  0  0  0  0  0  0  0  0  0
  150.5879  144.0776  159.2001 F   0  0  0  0  0  0  0  0  0  0  0  0
  152.5006  143.2270  159.7324 F   0  0  0  0  0  0  0  0  0  0  0  0
  152.3349  144.5367  158.0206 F   0  0  0  0  0  0  0  0  0  0  0  0
  151.9871  141.0733  158.0573 C   0  0  0  0  0  0  0  0  0  0  0  0
  151.7369  140.0367  157.2334 C   0  0  0  0  0  0  0  0  0  0  0  0
  150.8746  140.1817  156.0580 C   0  0  0  0  0  0  0  0  0  0  0  0
  150.6242  139.2381  155.3080 O   0  0  0  0  0  0  0  0  0  0  0  0
  145.2029  134.6088  155.4048 H   0  0  0  0  0  0  0  0  0  0  0  0
  144.3590  135.8209  154.4573 H   0  0  0  0  0  0  0  0  0  0  0  0
  145.5553  136.3056  155.6526 H   0  0  0  0  0  0  0  0  0  0  0  0
  147.3625  135.2227  154.3568 H   0  0  0  0  0  0  0  0  0  0  0  0
  147.1151  134.1366  152.2598 H   0  0  0  0  0  0  0  0  0  0  0  0
  145.9794  133.3909  153.3506 H   0  0  0  0  0  0  0  0  0  0  0  0
  144.9743  133.8486  151.0961 H   0  0  0  0  0  0  0  0  0  0  0  0
  144.1117  134.6903  152.3601 H   0  0  0  0  0  0  0  0  0  0  0  0
  146.2214  135.8833  150.4966 H   0  0  0  0  0  0  0  0  0  0  0  0
  144.5116  136.2426  150.4861 H   0  0  0  0  0  0  0  0  0  0  0  0
  145.8287  138.0190  151.6257 H   0  0  0  0  0  0  0  0  0  0  0  0
  144.6670  137.3109  152.7178 H   0  0  0  0  0  0  0  0  0  0  0  0
  146.5460  137.8146  154.9333 H   0  0  0  0  0  0  0  0  0  0  0  0
  148.1468  137.7565  154.2355 H   0  0  0  0  0  0  0  0  0  0  0  0
  146.7311  139.1262  152.2474 H   0  0  0  0  0  0  0  0  0  0  0  0
  146.0037  139.7395  153.7137 H   0  0  0  0  0  0  0  0  0  0  0  0
  148.7167  140.1939  152.8259 H   0  0  0  0  0  0  0  0  0  0  0  0
  150.0220  141.5820  153.7644 H   0  0  0  0  0  0  0  0  0  0  0  0
  149.1814  142.7614  154.7142 H   0  0  0  0  0  0  0  0  0  0  0  0
  150.1789  143.4422  156.4410 H   0  0  0  0  0  0  0  0  0  0  0  0
  152.6259  140.9175  158.9141 H   0  0  0  0  0  0  0  0  0  0  0  0
  152.1800  139.0745  157.4443 H   0  0  0  0  0  0  0  0  0  0  0  0
  147.4883  136.5666  152.5215 H   0  0  0  0  0  0  0  0  0  0  0  0
  1  2  1  0  0  0  0
  1 25  1  0  0  0  0
  1 26  1  0  0  0  0
  1 27  1  0  0  0  0
  2  7  1  0  0  0  0
  2  3  1  0  0  0  0
  2 28  1  0  0  0  0
  3  4  1  0  0  0  0
  3 29  1  0  0  0  0
  3 30  1  0  0  0  0
  4  5  1  0  0  0  0
  4 31  1  0  0  0  0
  4 32  1  0  0  0  0
  5  6  1  0  0  0  0
  5 33  1  0  0  0  0
  5 34  1  0  0  0  0
  6  7  1  0  0  0  0
  6 35  1  0  0  0  0
  6 36  1  0  0  0  0
  7  8  1  0  0  0  0
  7 47  1  0  0  0  0
  8  9  1  0  0  0  0
  8 37  1  0  0  0  0
  8 38  1  0  0  0  0
  9 10  1  0  0  0  0
  9 39  1  0  0  0  0
  9 40  1  0  0  0  0
 10 11  1  0  0  0  0
 10 41  1  0  0  0  0
 11 12  2  0  0  0  0
 11 13  1  0  0  0  0
 13 14  1  0  0  0  0
 13 42  1  0  0  0  0
 13 43  1  0  0  0  0
 14 23  1  0  0  0  0
 14 15  1  0  0  0  0
 15 16  2  0  0  0  0
 15 44  1  0  0  0  0
 16 17  1  0  0  0  0
 16 21  1  0  0  0  0
 17 18  1  0  0  0  0
 17 19  1  0  0  0  0
 17 20  1  0  0  0  0
 21 22  2  0  0  0  0
 21 45  1  0  0  0  0
 22 23  1  0  0  0  0
 22 46  1  0  0  0  0
 23 24  2  0  0  0  0
M  CHG  1   7   1
M  END
> <s_m_source_file>
AV-unprocessed.smi

> <i_m_source_file_index>
1432

> <i_lp_mmshare_version>
43012

> <i_f3d_flags>
0

> <s_epik_input>
W0NIM11bQ0BASF0xW0NIMl1bQ0gyXVtDSDJdW0NIMl1OMVtDSDJdW0NIMl1bTkhdQyg9TylbQ0gyXW4yW2NIXWMoQyhGKShGKUYpW2NIXVtjSF1jMj1P

> <s_epik_cmdline>
J2VwaWtfcHl0aG9uJywgJy1waCcsICc3LjAnLCAnLXRuJywgJzgnLCAnLW1hJywgJzIwMCcsICctbWV0YWxfYmluZGluZycsICctaW1hZScsICc8aW5maWxlLm1hZT4nLCAnLW9tYWUnLCAnPG91dGZpbGUubWFlPic=

> <r_lp_tautomer_probability>
1

> <r_epik_Ionization_Penalty>
0.00237222

> <r_epik_Ionization_Penalty_Charging>
0.00237213

> <r_epik_Ionization_Penalty_Neutral>
8.2065e-08

> <r_epik_State_Penalty>
0.00163922

> <r_epik_Charging_Adjusted_Penalty>
0.00401135

> <i_epik_Tot_Q>
1

> <i_epik_Tot_abs_Q>
1

> <r_epik_Metal_State_Penalty>
-0

> <b_epik_Metal_Only>
0

> <s_lp_Force_Field>
OPLS_2005

> <r_lp_Energy>
30.8691

> <b_lp_Chiralities_Consistent>
1

> <s_lp_Variant>
AV-unprocessed.smi:1432-2

> <Gold.Version>
5.8.1

> <Gold.Id.Protein>
6NUR|6NUR_protein|mol2

> <Gold.PLP.Fitness>
55.1887

> <Gold.PLP.PLP>
-44.6191

> <Gold.PLP.part.hbond>
-2.0000

> <Gold.PLP.part.metal>
0.0000

> <Gold.PLP.part.buried>
-1.1536

> <Gold.PLP.part.nonpolar>
-40.3013

> <Gold.PLP.part.repulsive>
0.1870

> <Gold.PLP.ligand.clash>
0.0000

> <Gold.PLP.ligand.torsion>
0.7576

> <Gold.PLP.Chemscore.Hbond>
3.0000

> <Gold.PLP.Chemscore.CHOScore>
1.0000

> <Gold.PLP.Chemscore.Metal>
0.0000

> <Gold.Chemscore.Hbonds>
donor molecule, donor type, donor heavy atom, donor atom, acceptor molecule, acceptor atom, score
      L1  H     7    47       P1  7948  2.00
      L1  H    10    41       P1  7957  1.00
      L1  C    15    44       P1  8028  0.85

> <Gold.PLP.Chemscore.Internal.Correction>
0.0849

> <Gold.Rescore>
     Score         DG    S(hbond)    S(metal)    S(lipo)     H(rot)  DE(clash)    DE(int)     intcor
     15.14     -16.06       1.99        0.00      79.12       2.08       0.23       0.69       ----

> <Gold.Chemscore.Fitness>
15.1421

> <Gold.Chemscore.DG>
-16.0576

> <Gold.Chemscore.ZeroCoef>
-5.4800

> <Gold.Chemscore.Hbond>
1.9866

> <Gold.Chemscore.Metal>
0.0000

> <Gold.Chemscore.Lipo>
79.1223

> <Gold.Chemscore.Internal_Hbond>
0.0000

> <Gold.Chemscore.DEClash>
0.2257

> <Gold.Chemscore.DEInternal>
0.6898

> <Gold.Chemscore.Rot>
2.0762

> <Gold.Chemscore.Internal.Correction>
   9.000000E+99

> <Gold.Chemscore.Hbonds>
donor molecule, donor type, donor heavy atom, donor atom, acceptor molecule, acceptor atom, score
      L1  H     7    47       P1  7948  1.00
      L1  H    10    41       P1  7957  1.00

> <Gold.Chemscore.Hbond.Weighted>
-6.6353

> <Gold.Chemscore.Metal.Weighted>
-0.0000

> <Gold.Chemscore.Lipo.Weighted>
-9.2573

> <Gold.Chemscore.Internal_Hbond.Weighted>
0.0000

> <Gold.Chemscore.DEClash.Weighted>
0.2257

> <Gold.Chemscore.DEInternal.Weighted>
0.6898

> <Gold.Chemscore.Rot.Weighted>
5.3150

> <Gold.Chemscore.Internal.Correction.Weighted>
   9.000000E+99

> <Gold.Protein.RotatedTorsions>
[ 6907 6896 6895 6894 ] final  158.33 input  -60.11 | X-H torsion
[ 7974 7965 7964 7962 ] final   26.70 input  175.53 | X-H torsion
[ 8008 7997 7996 7995 ] final  -19.94 input   59.86 | X-H torsion
[ 10167 10162 10161 10158 ] final  174.64 input  -65.29 | X-H torsion
[ 10718 10713 10712 10709 ] final   71.29 input   66.30 | X-H torsion
[ 10763 10752 10751 10750 ] final -100.46 input  -60.55 | X-H torsion
[ 11005 11000 10999 10996 ] final -109.70 input  -57.11 | X-H torsion

> <Gold.Protein.ActiveResidues>
 VAL166  LYS551  ARG553  GLY616  TRP617  ASP618  TYR619  PRO620  LYS621  CYS622 
 ASP623  PHE694  ASN695  SER759  ASP760  ASP761  ALA762  ILE779  LEU786  VAL792 
 PHE793  MET794  SER795  GLU796  ALA797  LYS798  CYS799  TRP800  GLU811  SER814 

> <Gold.Protein.RotatedAtoms>
  152.0020  133.3829  159.4185 H   0  0  0  0  0  0  0  0  0  0  0  0  # atno 6907 bound_to 6896
  150.6909  134.3823  159.5049 H   0  0  0  0  0  0  0  0  0  0  0  0  # atno 6908 bound_to 6896
  152.1572  134.8941  160.0595 H   0  0  0  0  0  0  0  0  0  0  0  0  # atno 6909 bound_to 6896
  146.1823  139.7292  142.8891 H   0  0  0  0  0  0  0  0  0  0  0  0  # atno 7974 bound_to 7965
  154.4803  140.2075  155.9780 H   0  0  0  0  0  0  0  0  0  0  0  0  # atno 8008 bound_to 7997
  156.1154  140.3222  155.8101 H   0  0  0  0  0  0  0  0  0  0  0  0  # atno 8009 bound_to 7997
  155.4562  140.0520  157.2986 H   0  0  0  0  0  0  0  0  0  0  0  0  # atno 8010 bound_to 7997
  139.5149  144.3124  152.0279 H   0  0  0  0  0  0  0  0  0  0  0  0  # atno 10167 bound_to 10162
  157.6444  130.9520  150.0768 H   0  0  0  0  0  0  0  0  0  0  0  0  # atno 10718 bound_to 10713
  154.7581  135.4934  153.9413 H   0  0  0  0  0  0  0  0  0  0  0  0  # atno 10763 bound_to 10752
  153.1219  135.6733  153.9329 H   0  0  0  0  0  0  0  0  0  0  0  0  # atno 10764 bound_to 10752
  153.9058  135.3104  155.3427 H   0  0  0  0  0  0  0  0  0  0  0  0  # atno 10765 bound_to 10752
  141.0833  133.9182  157.2241 H   0  0  0  0  0  0  0  0  0  0  0  0  # atno 11005 bound_to 11000
  145.4039  141.0388  143.3055 LP  0  0  0  0  0  0  0  0  0  0  0  0  # atno 17320 bound_to 7965
  144.8337  139.5586  143.6932 LP  0  0  0  0  0  0  0  0  0  0  0  0  # atno 17321 bound_to 7965
  140.2568  144.4110  150.6201 LP  0  0  0  0  0  0  0  0  0  0  0  0  # atno 17342 bound_to 10162
  140.6186  143.2174  151.6741 LP  0  0  0  0  0  0  0  0  0  0  0  0  # atno 17343 bound_to 10162
  156.1756  130.3648  149.9105 LP  0  0  0  0  0  0  0  0  0  0  0  0  # atno 17370 bound_to 10713
  156.7070  130.8955  151.3605 LP  0  0  0  0  0  0  0  0  0  0  0  0  # atno 17371 bound_to 10713
  139.9649  135.0144  156.9359 LP  0  0  0  0  0  0  0  0  0  0  0  0  # atno 17394 bound_to 11000
  140.5420  134.0711  155.7344 LP  0  0  0  0  0  0  0  0  0  0  0  0  # atno 17395 bound_to 11000

$$$$
