#       Name:                AV-unprocessed.smi:1389
#       Creating user name   scv26
#       Creation time:       Fri Mar 27 05:26:59 2020


#       File generated by GOLD software.
#

@<TRIPOS>MOLECULE
AV-unprocessed.smi:1389
    58    60     1
SMALL
NO_CHARGES


@<TRIPOS>ATOM
      1 ****        -2.4290   0.5816   2.1091 C.3            1 S1                 0.0000
      2 ****        -1.9038  -0.8480   1.8306 C.3            1 S1                 0.0000
      3 ****        -0.3560  -0.8371   1.7123 C.3            1 S1                 0.0000
      4 ****         0.1224   0.1098   0.7109 N.am           1 S1                 0.0000
      5 ****         1.4107   0.4259   0.5278 C.2            1 S1                 0.0000
      6 ****         2.3281  -0.0630   1.1872 O.2            1 S1                 0.0000
      7 ****         1.5579   1.3177  -0.4663 N.am           1 S1                 0.0000
      8 ****         2.7684   1.8557  -0.9877 C.ar           1 S1                 0.0000
      9 ****         3.8855   2.1047  -0.1531 C.ar           1 S1                 0.0000
     10 ****         5.0357   2.7003  -0.6982 C.ar           1 S1                 0.0000
     11 ****         5.0242   3.0428  -2.0602 C.ar           1 S1                 0.0000
     12 ****         3.9644   2.8268  -2.8646 N.ar           1 S1                 0.0000
     13 ****         2.8521   2.2401  -2.3573 C.ar           1 S1                 0.0000
     14 ****         1.7788   2.0277  -3.2534 N.3            1 S1                 0.0000
     15 ****         1.2461   0.6746  -3.3854 C.3            1 S1                 0.0000
     16 ****         0.8622   0.5005  -4.8587 C.3            1 S1                 0.0000
     17 ****         0.7025   1.9318  -5.3612 C.3            1 S1                 0.0000
     18 ****         1.7657   2.6774  -4.5600 C.3            1 S1                 0.0000
     19 ****        -2.4016  -1.8141   2.8672 N.4            1 S1                 1.0000
     20 ****        -3.8839  -1.9653   2.8622 C.3            1 S1                 0.0000
     21 ****        -4.3555  -2.9306   3.9620 C.3            1 S1                 0.0000
     22 ****        -3.7311  -4.1921   3.7871 O.3            1 S1                 0.0000
     23 ****        -2.3219  -4.0888   3.9131 C.3            1 S1                 0.0000
     24 ****        -1.7640  -3.1604   2.8203 C.3            1 S1                 0.0000
     25 ****        -2.0337   1.3117   1.4034 H              1 S1                 0.0000
     26 ****        -2.1526   0.9143   3.1101 H              1 S1                 0.0000
     27 ****        -3.5112   0.6544   2.0168 H              1 S1                 0.0000
     28 ****        -2.2985  -1.1709   0.8657 H              1 S1                 0.0000
     29 ****         0.0911  -0.6035   2.6804 H              1 S1                 0.0000
     30 ****         0.0220  -1.8115   1.4030 H              1 S1                 0.0000
     31 ****        -0.5696   0.5516   0.1231 H              1 S1                 0.0000
     32 ****         0.7228   1.5574  -0.9807 H              1 S1                 0.0000
     33 ****         3.8705   1.8706   0.9005 H              1 S1                 0.0000
     34 ****         5.9006   2.9013  -0.0835 H              1 S1                 0.0000
     35 ****         5.8857   3.5086  -2.5152 H              1 S1                 0.0000
     36 ****         1.9637  -0.0835  -3.0683 H              1 S1                 0.0000
     37 ****         0.3584   0.5847  -2.7592 H              1 S1                 0.0000
     38 ****         1.6778   0.0139  -5.3951 H              1 S1                 0.0000
     39 ****        -0.0359  -0.1024  -4.9942 H              1 S1                 0.0000
     40 ****         0.8378   2.0260  -6.4390 H              1 S1                 0.0000
     41 ****        -0.2895   2.3079  -5.1073 H              1 S1                 0.0000
     42 ****         1.5383   3.7403  -4.4741 H              1 S1                 0.0000
     43 ****         2.7321   2.5711  -5.0548 H              1 S1                 0.0000
     44 ****        -4.3791  -1.0116   3.0319 H              1 S1                 0.0000
     45 ****        -4.2109  -2.3279   1.8864 H              1 S1                 0.0000
     46 ****        -4.1360  -2.5315   4.9538 H              1 S1                 0.0000
     47 ****        -5.4362  -3.0630   3.9057 H              1 S1                 0.0000
     48 ****        -2.0579  -3.7239   4.9072 H              1 S1                 0.0000
     49 ****        -1.8870  -5.0838   3.8161 H              1 S1                 0.0000
     50 ****        -1.9188  -3.6048   1.8359 H              1 S1                 0.0000
     51 ****        -0.6899  -3.0903   2.9844 H              1 S1                 0.0000
     52 ****        -2.1541  -1.4212   3.7643 H              1 S1                 0.0000
     53 ****         2.1281  -0.7329   1.9023 LP             1 S1                 0.0000
     54 ****         3.2734   0.2096   1.0078 LP             1 S1                 0.0000
     55 ****         3.9982   3.0968  -3.8269 LP             1 S1                 0.0000
     56 ****         1.1558   2.5636  -2.6837 LP             1 S1                 0.0000
     57 ****        -3.9524  -4.5423   2.8769 LP             1 S1                 0.0000
     58 ****        -4.0750  -4.8253   4.4805 LP             1 S1                 0.0000
@<TRIPOS>BOND
    1    1    2 1     
    2    1   25 1     
    3    1   26 1     
    4    1   27 1     
    5    2    3 1     
    6    2   19 1     
    7    2   28 1     
    8    3    4 1     
    9    3   29 1     
   10    3   30 1     
   11    4    5 am    
   12    4   31 1     
   13    5    6 2     
   14    5    7 am    
   15    7    8 1     
   16    7   32 1     
   17    8   13 ar    
   18    8    9 ar    
   19    9   10 ar    
   20    9   33 1     
   21   10   11 ar    
   22   10   34 1     
   23   11   12 ar    
   24   11   35 1     
   25   12   13 ar    
   26   13   14 1     
   27   14   18 1     
   28   14   15 1     
   29   15   16 1     
   30   15   36 1     
   31   15   37 1     
   32   16   17 1     
   33   16   38 1     
   34   16   39 1     
   35   17   18 1     
   36   17   40 1     
   37   17   41 1     
   38   18   42 1     
   39   18   43 1     
   40   19   24 1     
   41   19   20 1     
   42   19   52 1     
   43   20   21 1     
   44   20   44 1     
   45   20   45 1     
   46   21   22 1     
   47   21   46 1     
   48   21   47 1     
   49   22   23 1     
   50   23   24 1     
   51   23   48 1     
   52   23   49 1     
   53   24   50 1     
   54   24   51 1     
   55    6   53 1     
   56    6   54 1     
   57   12   55 1     
   58   14   56 1     
   59   22   57 1     
   60   22   58 1     
@<TRIPOS>SUBSTRUCTURE
      1 S1             1
@<TRIPOS>SET
LONE_PAIRS      STATIC     ATOMS    <user>   **** ""
6 53 54 55 56 57 58
DONOR_HYDROGENS      STATIC     ATOMS    <user>   **** ""
3 31 32 52
ATOM$BLUE        STATIC     ATOMS    COLORGROUP SYSTEM
6 53 54 55 56 57 58
ATOM$RED        STATIC     ATOMS    COLORGROUP SYSTEM
3 31 32 52
