AV-unprocessed.smi:3116|AV-procd|sdf|11875|dock5
  -GOLD-   2272017263D 1   1.00000     0.00000
 Structure written by MMmdl.
 33 33  0  0  0  0  0  0  0  0  1 V2000
  153.2984  138.9455  154.7511 C   0  0  0  0  0  0  0  0  0  0  0  0
  152.0411  138.5760  155.5530 C   0  0  1  0  0  0  0  0  0  0  0  0
  151.2464  139.7891  155.8161 N   0  0  0  0  0  0  0  0  0  0  0  0
  151.7118  140.6080  156.9376 C   0  0  2  0  0  0  0  0  0  0  0  0
  151.5363  139.7495  158.2020 C   0  0  0  0  0  0  0  0  0  0  0  0
  150.9042  141.9349  156.9850 C   0  0  1  0  0  0  0  0  0  0  0  0
  149.4130  141.7225  157.3120 C   0  0  0  0  0  0  0  0  0  0  0  0
  151.4894  142.8878  157.9227 N   0  0  0  0  0  0  0  0  0  0  0  0
  151.2401  144.2411  158.0261 C   0  0  0  0  0  0  0  0  0  0  0  0
  152.0382  144.7298  159.0201 C   0  0  0  0  0  0  0  0  0  0  0  0
  152.7526  143.5861  159.4728 C   0  0  0  0  0  0  0  0  0  0  0  0
  152.4254  142.4866  158.8138 N   0  0  0  0  0  0  0  0  0  0  0  0
  151.2381  137.4840  154.8273 C   0  0  0  0  0  0  0  0  0  0  0  0
  150.5734  137.8458  153.7272 N   0  0  0  0  0  0  0  0  0  0  0  0
  151.2320  136.3270  155.2435 O   0  0  0  0  0  0  0  0  0  0  0  0
  153.9097  138.0660  154.5446 H   0  0  0  0  0  0  0  0  0  0  0  0
  153.9199  139.6496  155.3053 H   0  0  0  0  0  0  0  0  0  0  0  0
  153.0463  139.4081  153.7957 H   0  0  0  0  0  0  0  0  0  0  0  0
  152.3825  138.1755  156.5082 H   0  0  0  0  0  0  0  0  0  0  0  0
  151.1539  140.3650  154.9921 H   0  0  0  0  0  0  0  0  0  0  0  0
  152.7720  140.8448  156.8424 H   0  0  0  0  0  0  0  0  0  0  0  0
  151.9455  140.2434  159.0828 H   0  0  0  0  0  0  0  0  0  0  0  0
  152.0582  138.7967  158.1045 H   0  0  0  0  0  0  0  0  0  0  0  0
  150.4852  139.5341  158.3967 H   0  0  0  0  0  0  0  0  0  0  0  0
  150.9517  142.3965  155.9972 H   0  0  0  0  0  0  0  0  0  0  0  0
  148.9045  141.1645  156.5263 H   0  0  0  0  0  0  0  0  0  0  0  0
  148.8951  142.6773  157.4092 H   0  0  0  0  0  0  0  0  0  0  0  0
  149.2810  141.1767  158.2467 H   0  0  0  0  0  0  0  0  0  0  0  0
  150.5266  144.7399  157.3868 H   0  0  0  0  0  0  0  0  0  0  0  0
  152.1032  145.7497  159.3688 H   0  0  0  0  0  0  0  0  0  0  0  0
  153.4962  143.5230  160.2534 H   0  0  0  0  0  0  0  0  0  0  0  0
  150.0281  137.1636  153.2205 H   0  0  0  0  0  0  0  0  0  0  0  0
  150.6152  138.8032  153.4098 H   0  0  0  0  0  0  0  0  0  0  0  0
  1  2  1  0  0  0  0
  1 16  1  0  0  0  0
  1 17  1  0  0  0  0
  1 18  1  0  0  0  0
  2  3  1  0  0  0  0
  2 13  1  0  0  0  0
  2 19  1  0  0  0  0
  3  4  1  0  0  0  0
  3 20  1  0  0  0  0
  4  5  1  0  0  0  0
  4  6  1  0  0  0  0
  4 21  1  0  0  0  0
  5 22  1  0  0  0  0
  5 23  1  0  0  0  0
  5 24  1  0  0  0  0
  6  7  1  0  0  0  0
  6  8  1  0  0  0  0
  6 25  1  0  0  0  0
  7 26  1  0  0  0  0
  7 27  1  0  0  0  0
  7 28  1  0  0  0  0
  8 12  1  0  0  0  0
  8  9  1  0  0  0  0
  9 10  2  0  0  0  0
  9 29  1  0  0  0  0
 10 11  1  0  0  0  0
 10 30  1  0  0  0  0
 11 12  2  0  0  0  0
 11 31  1  0  0  0  0
 13 14  1  0  0  0  0
 13 15  2  0  0  0  0
 14 32  1  0  0  0  0
 14 33  1  0  0  0  0
M  END
> <s_m_source_file>
AV-unprocessed.smi

> <i_m_source_file_index>
3116

> <i_lp_mmshare_version>
43012

> <i_f3d_flags>
0

> <s_epik_input>
W05IMl1DKD1PKVtDQEhdKFtDSDNdKVtOSF1bQ0BIXShbQ0gzXSlbQ0BIXShbQ0gzXSluMVtjSF1bY0hdW2NIXW4x

> <s_epik_cmdline>
J2VwaWtfcHl0aG9uJywgJy1waCcsICc3LjAnLCAnLXRuJywgJzgnLCAnLW1hJywgJzIwMCcsICctbWV0YWxfYmluZGluZycsICctaW1hZScsICc8aW5maWxlLm1hZT4nLCAnLW9tYWUnLCAnPG91dGZpbGUubWFlPic=

> <r_lp_tautomer_probability>
1

> <r_epik_Ionization_Penalty>
0.865977

> <r_epik_Ionization_Penalty_Charging>
0

> <r_epik_Ionization_Penalty_Neutral>
0.865977

> <r_epik_State_Penalty>
0.901888

> <r_epik_Charging_Adjusted_Penalty>
0.901888

> <i_epik_Tot_Q>
0

> <i_epik_Tot_abs_Q>
0

> <r_epik_Metal_State_Penalty>
0.901181

> <b_epik_Metal_Only>
0

> <s_lp_Force_Field>
OPLS_2005

> <r_lp_Energy>
8.89759

> <b_lp_Chiralities_Consistent>
1

> <s_lp_Variant>
AV-unprocessed.smi:3116-14

> <Gold.Version>
5.8.1

> <Gold.Id.Protein>
6NUR|6NUR_protein|mol2

> <Gold.PLP.Fitness>
41.7421

> <Gold.PLP.PLP>
-34.2530

> <Gold.PLP.part.hbond>
-3.0000

> <Gold.PLP.part.metal>
0.0000

> <Gold.PLP.part.buried>
-4.1409

> <Gold.PLP.part.nonpolar>
-28.3518

> <Gold.PLP.part.repulsive>
0.1921

> <Gold.PLP.ligand.clash>
0.0000

> <Gold.PLP.ligand.torsion>
0.8191

> <Gold.PLP.Chemscore.Hbond>
2.0000

> <Gold.PLP.Chemscore.CHOScore>
1.0000

> <Gold.PLP.Chemscore.Metal>
0.0000

> <Gold.Chemscore.Hbonds>
donor molecule, donor type, donor heavy atom, donor atom, acceptor molecule, acceptor atom, score
      L1  H    14    32       P1  7948  0.90
      P1  H 10752 10765       L1    15  1.00
      L1  C     9    29       P1  8028  1.00

> <Gold.PLP.Chemscore.Internal.Correction>
0.1273

> <Gold.Rescore>
     Score         DG    S(hbond)    S(metal)    S(lipo)     H(rot)  DE(clash)    DE(int)     intcor
     13.13     -14.36       1.80        0.00      76.70       2.38       0.01       1.21       ----

> <Gold.Chemscore.Fitness>
13.1323

> <Gold.Chemscore.DG>
-14.3575

> <Gold.Chemscore.ZeroCoef>
-5.4800

> <Gold.Chemscore.Hbond>
1.7979

> <Gold.Chemscore.Metal>
0.0000

> <Gold.Chemscore.Lipo>
76.7042

> <Gold.Chemscore.Internal_Hbond>
0.0000

> <Gold.Chemscore.DEClash>
0.0133

> <Gold.Chemscore.DEInternal>
1.2118

> <Gold.Chemscore.Rot>
2.3836

> <Gold.Chemscore.Internal.Correction>
   9.000000E+99

> <Gold.Chemscore.Hbonds>
donor molecule, donor type, donor heavy atom, donor atom, acceptor molecule, acceptor atom, score
      L1  H    14    32       P1  7948  0.18
      P1  H 10752 10765       L1    15  0.64

> <Gold.Chemscore.Hbond.Weighted>
-6.0050

> <Gold.Chemscore.Metal.Weighted>
-0.0000

> <Gold.Chemscore.Lipo.Weighted>
-8.9744

> <Gold.Chemscore.Internal_Hbond.Weighted>
0.0000

> <Gold.Chemscore.DEClash.Weighted>
0.0133

> <Gold.Chemscore.DEInternal.Weighted>
1.2118

> <Gold.Chemscore.Rot.Weighted>
6.1020

> <Gold.Chemscore.Internal.Correction.Weighted>
   9.000000E+99

> <Gold.Protein.RotatedTorsions>
[ 6907 6896 6895 6894 ] final  134.70 input  -60.11 | X-H torsion
[ 7974 7965 7964 7962 ] final  125.22 input  175.53 | X-H torsion
[ 8008 7997 7996 7995 ] final -176.84 input   59.86 | X-H torsion
[ 10167 10162 10161 10158 ] final  -35.83 input  -65.29 | X-H torsion
[ 10718 10713 10712 10709 ] final  -81.76 input   66.30 | X-H torsion
[ 10763 10752 10751 10750 ] final -157.42 input  -60.55 | X-H torsion
[ 11005 11000 10999 10996 ] final   32.18 input  -57.11 | X-H torsion

> <Gold.Protein.ActiveResidues>
 VAL166  LYS551  ARG553  GLY616  TRP617  ASP618  TYR619  PRO620  LYS621  CYS622 
 ASP623  PHE694  ASN695  SER759  ASP760  ASP761  ALA762  ILE779  LEU786  VAL792 
 PHE793  MET794  SER795  GLU796  ALA797  LYS798  CYS799  TRP800  GLU811  SER814 

> <Gold.Protein.RotatedAtoms>
  152.3084  133.5727  159.5664 H   0  0  0  0  0  0  0  0  0  0  0  0  # atno 6907 bound_to 6896
  150.7311  134.0188  159.3703 H   0  0  0  0  0  0  0  0  0  0  0  0  # atno 6908 bound_to 6896
  151.8083  135.0689  160.0460 H   0  0  0  0  0  0  0  0  0  0  0  0  # atno 6909 bound_to 6896
  145.0754  139.3697  143.4936 H   0  0  0  0  0  0  0  0  0  0  0  0  # atno 7974 bound_to 7965
  155.9998  140.1218  157.0559 H   0  0  0  0  0  0  0  0  0  0  0  0  # atno 8008 bound_to 7997
  154.4238  140.1109  156.5749 H   0  0  0  0  0  0  0  0  0  0  0  0  # atno 8009 bound_to 7997
  155.6228  140.3472  155.4660 H   0  0  0  0  0  0  0  0  0  0  0  0  # atno 8010 bound_to 7997
  140.7156  143.3450  151.2275 H   0  0  0  0  0  0  0  0  0  0  0  0  # atno 10167 bound_to 10162
  156.0044  130.4613  150.4002 H   0  0  0  0  0  0  0  0  0  0  0  0  # atno 10718 bound_to 10713
  154.7637  135.3125  154.8328 H   0  0  0  0  0  0  0  0  0  0  0  0  # atno 10763 bound_to 10752
  153.9082  135.6808  153.4756 H   0  0  0  0  0  0  0  0  0  0  0  0  # atno 10764 bound_to 10752
  153.1241  135.4809  154.9175 H   0  0  0  0  0  0  0  0  0  0  0  0  # atno 10765 bound_to 10752
  140.2761  134.3026  155.7813 H   0  0  0  0  0  0  0  0  0  0  0  0  # atno 11005 bound_to 11000
  146.3530  140.0519  142.8635 LP  0  0  0  0  0  0  0  0  0  0  0  0  # atno 17320 bound_to 7965
  145.1242  140.9480  143.4582 LP  0  0  0  0  0  0  0  0  0  0  0  0  # atno 17321 bound_to 7965
  139.6968  143.9600  152.2886 LP  0  0  0  0  0  0  0  0  0  0  0  0  # atno 17342 bound_to 10162
  139.9280  144.6759  150.8392 LP  0  0  0  0  0  0  0  0  0  0  0  0  # atno 17343 bound_to 10162
  157.2071  131.0452  151.2619 LP  0  0  0  0  0  0  0  0  0  0  0  0  # atno 17370 bound_to 10713
  157.3922  130.7288  149.6706 LP  0  0  0  0  0  0  0  0  0  0  0  0  # atno 17371 bound_to 10713
  141.2170  133.7496  156.9409 LP  0  0  0  0  0  0  0  0  0  0  0  0  # atno 17394 bound_to 11000
  140.1327  134.9345  157.2359 LP  0  0  0  0  0  0  0  0  0  0  0  0  # atno 17395 bound_to 11000

$$$$
