AV-unprocessed.smi:573|AV-procd|sdf|2974|dock4
  -GOLD-   2262023483D 1   1.00000     0.00000
 Structure written by MMmdl.
 44 46  0  0  0  0  0  0  0  0  1 V2000
  147.1348  140.9193  153.2418 C   0  0  0  0  0  0  0  0  0  0  0  0
  148.3375  140.5087  154.1013 C   0  0  1  0  0  0  0  0  0  0  0  0
  149.4972  140.9959  153.4594 O   0  0  0  0  0  0  0  0  0  0  0  0
  148.2587  141.1055  155.5175 C   0  0  0  0  0  0  0  0  0  0  0  0
  149.4978  140.9406  156.2565 N   0  0  0  0  0  0  0  0  0  0  0  0
  150.1379  141.7285  157.2061 C   0  0  0  0  0  0  0  0  0  0  0  0
  149.6687  142.8944  157.6461 N   0  0  0  0  0  0  0  0  0  0  0  0
  150.6332  143.2723  158.5613 C   0  0  0  0  0  0  0  0  0  0  0  0
  150.7223  144.4225  159.3776 C   0  0  0  0  0  0  0  0  0  0  0  0
  151.8151  144.5942  160.2525 C   0  0  0  0  0  0  0  0  0  0  0  0
  152.8319  143.6202  160.3246 C   0  0  0  0  0  0  0  0  0  0  0  0
  152.7646  142.4674  159.5186 C   0  0  0  0  0  0  0  0  0  0  0  0
  151.6735  142.3013  158.6447 C   0  0  0  0  0  0  0  0  0  0  0  0
  151.3116  141.3109  157.7362 N   0  0  0  0  0  0  0  0  0  0  0  0
  152.0497  140.0909  157.4404 C   0  0  0  0  0  0  0  0  0  0  0  0
  152.7473  139.5227  158.6870 C   0  0  1  0  0  0  0  0  0  0  0  0
  152.2460  138.1075  159.0315 C   0  0  0  0  0  0  0  0  0  0  0  0
  153.0134  137.5408  160.2311 C   0  0  0  0  0  0  0  0  0  0  0  0
  154.5204  137.6288  159.9677 C   0  0  0  0  0  0  0  0  0  0  0  0
  154.9114  139.0626  159.5768 C   0  0  0  0  0  0  0  0  0  0  0  0
  154.1532  139.4813  158.4466 O   0  0  0  0  0  0  0  0  0  0  0  0
  146.2019  140.5598  153.6767 H   0  0  0  0  0  0  0  0  0  0  0  0
  147.2095  140.5041  152.2361 H   0  0  0  0  0  0  0  0  0  0  0  0
  147.0621  142.0037  153.1506 H   0  0  0  0  0  0  0  0  0  0  0  0
  148.3827  139.4197  154.1487 H   0  0  0  0  0  0  0  0  0  0  0  0
  149.8233  140.3214  152.8823 H   0  0  0  0  0  0  0  0  0  0  0  0
  147.9731  142.1579  155.4882 H   0  0  0  0  0  0  0  0  0  0  0  0
  147.4861  140.5894  156.0880 H   0  0  0  0  0  0  0  0  0  0  0  0
  149.9912  140.0910  156.0233 H   0  0  0  0  0  0  0  0  0  0  0  0
  149.9475  145.1734  159.3316 H   0  0  0  0  0  0  0  0  0  0  0  0
  151.8725  145.4770  160.8723 H   0  0  0  0  0  0  0  0  0  0  0  0
  153.6638  143.7580  160.9997 H   0  0  0  0  0  0  0  0  0  0  0  0
  153.5404  141.7181  159.5738 H   0  0  0  0  0  0  0  0  0  0  0  0
  151.3660  139.3562  157.0141 H   0  0  0  0  0  0  0  0  0  0  0  0
  152.7842  140.3088  156.6643 H   0  0  0  0  0  0  0  0  0  0  0  0
  152.5536  140.1883  159.5303 H   0  0  0  0  0  0  0  0  0  0  0  0
  151.1777  138.1265  159.2490 H   0  0  0  0  0  0  0  0  0  0  0  0
  152.3790  137.4502  158.1712 H   0  0  0  0  0  0  0  0  0  0  0  0
  152.7632  138.1077  161.1289 H   0  0  0  0  0  0  0  0  0  0  0  0
  152.7182  136.5082  160.4189 H   0  0  0  0  0  0  0  0  0  0  0  0
  155.0777  137.3114  160.8495 H   0  0  0  0  0  0  0  0  0  0  0  0
  154.7921  136.9454  159.1622 H   0  0  0  0  0  0  0  0  0  0  0  0
  154.7535  139.7504  160.4091 H   0  0  0  0  0  0  0  0  0  0  0  0
  155.9710  139.1062  159.3250 H   0  0  0  0  0  0  0  0  0  0  0  0
  1  2  1  0  0  0  0
  1 22  1  0  0  0  0
  1 23  1  0  0  0  0
  1 24  1  0  0  0  0
  2  3  1  0  0  0  0
  2  4  1  0  0  0  0
  2 25  1  0  0  0  0
  3 26  1  0  0  0  0
  4  5  1  0  0  0  0
  4 27  1  0  0  0  0
  4 28  1  0  0  0  0
  5  6  1  0  0  0  0
  5 29  1  0  0  0  0
  6 14  1  0  0  0  0
  6  7  2  0  0  0  0
  7  8  1  0  0  0  0
  8 13  2  0  0  0  0
  8  9  1  0  0  0  0
  9 10  2  0  0  0  0
  9 30  1  0  0  0  0
 10 11  1  0  0  0  0
 10 31  1  0  0  0  0
 11 12  2  0  0  0  0
 11 32  1  0  0  0  0
 12 13  1  0  0  0  0
 12 33  1  0  0  0  0
 13 14  1  0  0  0  0
 14 15  1  0  0  0  0
 15 16  1  0  0  0  0
 15 34  1  0  0  0  0
 15 35  1  0  0  0  0
 16 21  1  0  0  0  0
 16 17  1  0  0  0  0
 16 36  1  0  0  0  0
 17 18  1  0  0  0  0
 17 37  1  0  0  0  0
 17 38  1  0  0  0  0
 18 19  1  0  0  0  0
 18 39  1  0  0  0  0
 18 40  1  0  0  0  0
 19 20  1  0  0  0  0
 19 41  1  0  0  0  0
 19 42  1  0  0  0  0
 20 21  1  0  0  0  0
 20 43  1  0  0  0  0
 20 44  1  0  0  0  0
M  END
> <s_m_source_file>
AV-unprocessed.smi

> <i_m_source_file_index>
573

> <i_lp_mmshare_version>
43012

> <i_f3d_flags>
0

> <s_epik_input>
W0NIM11bQ0BIXShbT0hdKVtDSDJdW05IXWMobjEpbihjKGMxMilbY0hdW2NIXVtjSF1bY0hdMilbQ0gyXVtDQEBIXTNbQ0gyXVtDSDJdW0NIMl1bQ0gyXU8z

> <s_epik_cmdline>
J2VwaWtfcHl0aG9uJywgJy1waCcsICc3LjAnLCAnLXRuJywgJzgnLCAnLW1hJywgJzIwMCcsICctbWV0YWxfYmluZGluZycsICctaW1hZScsICc8aW5maWxlLm1hZT4nLCAnLW9tYWUnLCAnPG91dGZpbGUubWFlPic=

> <r_epik_Ionization_Penalty>
1.30635

> <r_epik_Ionization_Penalty_Charging>
0

> <r_epik_Ionization_Penalty_Neutral>
1.30635

> <r_epik_State_Penalty>
1.38073

> <r_epik_Charging_Adjusted_Penalty>
1.38073

> <i_epik_Tot_Q>
0

> <i_epik_Tot_abs_Q>
0

> <r_epik_Metal_State_Penalty>
0.00547412

> <b_epik_Metal_Only>
0

> <s_lp_Force_Field>
OPLS_2005

> <r_lp_Energy>
9.01344

> <b_lp_Chiralities_Consistent>
1

> <s_lp_Variant>
AV-unprocessed.smi:573-8

> <Gold.Version>
5.8.1

> <Gold.Id.Protein>
6NUR|6NUR_protein|mol2

> <Gold.PLP.Fitness>
45.2043

> <Gold.PLP.PLP>
-40.1531

> <Gold.PLP.part.hbond>
-3.8524

> <Gold.PLP.part.metal>
0.0000

> <Gold.PLP.part.buried>
-6.7586

> <Gold.PLP.part.nonpolar>
-31.1797

> <Gold.PLP.part.repulsive>
2.2797

> <Gold.PLP.ligand.clash>
0.0000

> <Gold.PLP.ligand.torsion>
1.3299

> <Gold.PLP.Chemscore.Hbond>
2.5600

> <Gold.PLP.Chemscore.CHOScore>
0.0000

> <Gold.PLP.Chemscore.Metal>
0.0000

> <Gold.Chemscore.Hbonds>
donor molecule, donor type, donor heavy atom, donor atom, acceptor molecule, acceptor atom, score
      L1  H     3    26       P1  7957  0.64
      P1  H  7997  8008       L1    21  1.00
      P1  H  8011  8017       L1     3  0.85

> <Gold.PLP.Chemscore.Internal.Correction>
0.0311

> <Gold.Rescore>
     Score         DG    S(hbond)    S(metal)    S(lipo)     H(rot)  DE(clash)    DE(int)     intcor
     18.14     -19.50       1.98        0.00     107.60       2.02       0.18       1.18       ----

> <Gold.Chemscore.Fitness>
18.1362

> <Gold.Chemscore.DG>
-19.4962

> <Gold.Chemscore.ZeroCoef>
-5.4800

> <Gold.Chemscore.Hbond>
1.9773

> <Gold.Chemscore.Metal>
0.0000

> <Gold.Chemscore.Lipo>
107.6005

> <Gold.Chemscore.Internal_Hbond>
0.0000

> <Gold.Chemscore.DEClash>
0.1820

> <Gold.Chemscore.DEInternal>
1.1780

> <Gold.Chemscore.Rot>
2.0224

> <Gold.Chemscore.Internal.Correction>
   9.000000E+99

> <Gold.Chemscore.Hbonds>
donor molecule, donor type, donor heavy atom, donor atom, acceptor molecule, acceptor atom, score
      L1  H     3    26       P1  7957  0.64
      P1  H  7997  8008       L1    21  0.89
      P1  H  8011  8017       L1     3  0.14

> <Gold.Chemscore.Hbond.Weighted>
-6.6043

> <Gold.Chemscore.Metal.Weighted>
-0.0000

> <Gold.Chemscore.Lipo.Weighted>
-12.5893

> <Gold.Chemscore.Internal_Hbond.Weighted>
0.0000

> <Gold.Chemscore.DEClash.Weighted>
0.1820

> <Gold.Chemscore.DEInternal.Weighted>
1.1780

> <Gold.Chemscore.Rot.Weighted>
5.1773

> <Gold.Chemscore.Internal.Correction.Weighted>
   9.000000E+99

> <Gold.Protein.RotatedTorsions>
[ 6907 6896 6895 6894 ] final -148.33 input  -60.11 | X-H torsion
[ 7974 7965 7964 7962 ] final   39.23 input  175.53 | X-H torsion
[ 8008 7997 7996 7995 ] final  -91.29 input   59.86 | X-H torsion
[ 10167 10162 10161 10158 ] final  102.13 input  -65.29 | X-H torsion
[ 10718 10713 10712 10709 ] final  -72.72 input   66.30 | X-H torsion
[ 10763 10752 10751 10750 ] final   92.74 input  -60.55 | X-H torsion
[ 11005 11000 10999 10996 ] final -165.02 input  -57.11 | X-H torsion

> <Gold.Protein.ActiveResidues>
 VAL166  LYS551  ARG553  GLY616  TRP617  ASP618  TYR619  PRO620  LYS621  CYS622 
 ASP623  PHE694  ASN695  SER759  ASP760  ASP761  ALA762  ILE779  LEU786  VAL792 
 PHE793  MET794  SER795  GLU796  ALA797  LYS798  CYS799  TRP800  GLU811  SER814 

> <Gold.Protein.RotatedAtoms>
  151.1683  133.4800  159.2593 H   0  0  0  0  0  0  0  0  0  0  0  0  # atno 6907 bound_to 6896
  151.1382  135.0166  159.8624 H   0  0  0  0  0  0  0  0  0  0  0  0  # atno 6908 bound_to 6896
  152.5462  134.1579  159.8599 H   0  0  0  0  0  0  0  0  0  0  0  0  # atno 6909 bound_to 6896
  146.1000  139.5676  142.9420 H   0  0  0  0  0  0  0  0  0  0  0  0  # atno 7974 bound_to 7965
  154.7089  140.0521  157.0531 H   0  0  0  0  0  0  0  0  0  0  0  0  # atno 8008 bound_to 7997
  155.0582  140.3186  155.4650 H   0  0  0  0  0  0  0  0  0  0  0  0  # atno 8009 bound_to 7997
  156.2783  140.2103  156.5708 H   0  0  0  0  0  0  0  0  0  0  0  0  # atno 8010 bound_to 7997
  139.7377  144.7020  151.0624 H   0  0  0  0  0  0  0  0  0  0  0  0  # atno 10167 bound_to 10162
  156.0309  130.4378  150.2635 H   0  0  0  0  0  0  0  0  0  0  0  0  # atno 10718 bound_to 10713
  153.2225  135.4350  155.0505 H   0  0  0  0  0  0  0  0  0  0  0  0  # atno 10763 bound_to 10752
  154.8257  135.3360  154.6906 H   0  0  0  0  0  0  0  0  0  0  0  0  # atno 10764 bound_to 10752
  153.7337  135.7009  153.5039 H   0  0  0  0  0  0  0  0  0  0  0  0  # atno 10765 bound_to 10752
  140.5804  134.5148  157.5177 H   0  0  0  0  0  0  0  0  0  0  0  0  # atno 11005 bound_to 11000
  145.5872  141.0374  143.2090 LP  0  0  0  0  0  0  0  0  0  0  0  0  # atno 17320 bound_to 7965
  144.7425  139.7409  143.7305 LP  0  0  0  0  0  0  0  0  0  0  0  0  # atno 17321 bound_to 7965
  140.7781  143.4964  150.9827 LP  0  0  0  0  0  0  0  0  0  0  0  0  # atno 17342 bound_to 10162
  139.8652  143.7263  152.3170 LP  0  0  0  0  0  0  0  0  0  0  0  0  # atno 17343 bound_to 10162
  157.0737  131.0124  151.3181 LP  0  0  0  0  0  0  0  0  0  0  0  0  # atno 17370 bound_to 10713
  157.4980  130.7862  149.7575 LP  0  0  0  0  0  0  0  0  0  0  0  0  # atno 17371 bound_to 10713
  139.9320  134.7946  156.0905 LP  0  0  0  0  0  0  0  0  0  0  0  0  # atno 17394 bound_to 11000
  141.1000  133.6681  156.2732 LP  0  0  0  0  0  0  0  0  0  0  0  0  # atno 17395 bound_to 11000

$$$$
