AV-unprocessed.smi:1191|AV-procd|sdf|4984|dock2
  -GOLD-   22720 3583D 1   1.00000     0.00000
 Structure written by MMmdl.
 47 48  0  0  0  0  0  0  0  0  2 V2000
  154.3080  140.4233  161.3937 C   0  0  0  0  0  0  0  0  0  0  0  0
  153.4346  141.2424  160.4897 C   0  0  0  0  0  0  0  0  0  0  0  0
  153.1041  142.6222  160.5952 C   0  0  0  0  0  0  0  0  0  0  0  0
  152.2868  142.8564  159.5254 C   0  0  0  0  0  0  0  0  0  0  0  0
  151.6109  144.1148  159.0897 C   0  0  0  0  0  0  0  0  0  0  0  0
  152.1617  141.6571  158.8455 N   0  0  0  0  0  0  0  0  0  0  0  0
  151.4022  141.3566  157.6414 C   0  0  0  0  0  0  0  0  0  0  0  0
  151.7289  139.9578  157.1139 C   0  0  0  0  0  0  0  0  0  0  0  0
  152.8996  139.6177  156.9429 O   0  0  0  0  0  0  0  0  0  0  0  0
  150.6862  139.1482  156.8734 N   0  0  0  0  0  0  0  0  0  0  0  0
  150.7934  137.7717  156.4060 C   0  0  0  0  0  0  0  0  0  0  0  0
  150.4911  137.6679  154.8983 C   0  0  0  0  0  0  0  0  0  0  0  0
  149.7186  136.4471  154.5553 N   0  3  1  0  0  0  0  0  0  0  0  0
  150.5010  135.2065  154.7928 C   0  0  0  0  0  0  0  0  0  0  0  0
  149.7399  133.9671  154.2964 C   0  0  0  0  0  0  0  0  0  0  0  0
  148.3573  133.8725  154.9533 C   0  0  0  0  0  0  0  0  0  0  0  0
  147.5692  135.1733  154.7251 C   0  0  1  0  0  0  0  0  0  0  0  0
  146.1884  135.1170  155.3941 C   0  0  0  0  0  0  0  0  0  0  0  0
  148.3860  136.3862  155.2148 C   0  0  0  0  0  0  0  0  0  0  0  0
  152.8681  140.6712  159.4400 N   0  0  0  0  0  0  0  0  0  0  0  0
  154.6222  140.9978  162.2653 H   0  0  0  0  0  0  0  0  0  0  0  0
  155.2068  140.0905  160.8739 H   0  0  0  0  0  0  0  0  0  0  0  0
  153.7819  139.5383  161.7528 H   0  0  0  0  0  0  0  0  0  0  0  0
  153.4204  143.3330  161.3441 H   0  0  0  0  0  0  0  0  0  0  0  0
  151.9302  144.9586  159.7015 H   0  0  0  0  0  0  0  0  0  0  0  0
  150.5284  144.0258  159.1814 H   0  0  0  0  0  0  0  0  0  0  0  0
  151.8479  144.3467  158.0514 H   0  0  0  0  0  0  0  0  0  0  0  0
  150.3384  141.4532  157.8622 H   0  0  0  0  0  0  0  0  0  0  0  0
  151.6329  142.0943  156.8713 H   0  0  0  0  0  0  0  0  0  0  0  0
  149.7564  139.5085  157.0345 H   0  0  0  0  0  0  0  0  0  0  0  0
  151.8059  137.4363  156.6256 H   0  0  0  0  0  0  0  0  0  0  0  0
  150.1214  137.1286  156.9772 H   0  0  0  0  0  0  0  0  0  0  0  0
  149.9114  138.5444  154.6048 H   0  0  0  0  0  0  0  0  0  0  0  0
  151.4124  137.7011  154.3146 H   0  0  0  0  0  0  0  0  0  0  0  0
  151.4585  135.2670  154.2738 H   0  0  0  0  0  0  0  0  0  0  0  0
  150.7224  135.1124  155.8572 H   0  0  0  0  0  0  0  0  0  0  0  0
  149.6294  134.0137  153.2122 H   0  0  0  0  0  0  0  0  0  0  0  0
  150.3157  133.0661  154.5100 H   0  0  0  0  0  0  0  0  0  0  0  0
  147.8106  133.0212  154.5457 H   0  0  0  0  0  0  0  0  0  0  0  0
  148.4711  133.6873  156.0224 H   0  0  0  0  0  0  0  0  0  0  0  0
  147.4083  135.2867  153.6517 H   0  0  0  0  0  0  0  0  0  0  0  0
  146.2749  135.0043  156.4753 H   0  0  0  0  0  0  0  0  0  0  0  0
  145.6045  134.2766  155.0180 H   0  0  0  0  0  0  0  0  0  0  0  0
  145.6189  136.0259  155.1982 H   0  0  0  0  0  0  0  0  0  0  0  0
  148.5188  136.3407  156.2972 H   0  0  0  0  0  0  0  0  0  0  0  0
  147.8227  137.2948  155.0061 H   0  0  0  0  0  0  0  0  0  0  0  0
  149.5537  136.4864  153.5594 H   0  0  0  0  0  0  0  0  0  0  0  0
  1  2  1  0  0  0  0
  1 21  1  0  0  0  0
  1 22  1  0  0  0  0
  1 23  1  0  0  0  0
  2 20  2  0  0  0  0
  2  3  1  0  0  0  0
  3  4  2  0  0  0  0
  3 24  1  0  0  0  0
  4  5  1  0  0  0  0
  4  6  1  0  0  0  0
  5 25  1  0  0  0  0
  5 26  1  0  0  0  0
  5 27  1  0  0  0  0
  6  7  1  0  0  0  0
  6 20  1  0  0  0  0
  7  8  1  0  0  0  0
  7 28  1  0  0  0  0
  7 29  1  0  0  0  0
  8  9  2  0  0  0  0
  8 10  1  0  0  0  0
 10 11  1  0  0  0  0
 10 30  1  0  0  0  0
 11 12  1  0  0  0  0
 11 31  1  0  0  0  0
 11 32  1  0  0  0  0
 12 13  1  0  0  0  0
 12 33  1  0  0  0  0
 12 34  1  0  0  0  0
 13 19  1  0  0  0  0
 13 14  1  0  0  0  0
 13 47  1  0  0  0  0
 14 15  1  0  0  0  0
 14 35  1  0  0  0  0
 14 36  1  0  0  0  0
 15 16  1  0  0  0  0
 15 37  1  0  0  0  0
 15 38  1  0  0  0  0
 16 17  1  0  0  0  0
 16 39  1  0  0  0  0
 16 40  1  0  0  0  0
 17 18  1  0  0  0  0
 17 19  1  0  0  0  0
 17 41  1  0  0  0  0
 18 42  1  0  0  0  0
 18 43  1  0  0  0  0
 18 44  1  0  0  0  0
 19 45  1  0  0  0  0
 19 46  1  0  0  0  0
M  CHG  1  13   1
M  END
> <s_m_source_file>
AV-unprocessed.smi

> <i_m_source_file_index>
1191

> <i_lp_mmshare_version>
43012

> <i_f3d_flags>
0

> <s_epik_input>
W0NIM11jMVtjSF1jKFtDSDNdKW4objEpW0NIMl1DKD1PKVtOSF1bQ0gyXVtDSDJdTjJbQ0gyXVtDSDJdW0NIMl1bQ0BASF0oW0NIM10pW0NIMl0y

> <s_epik_cmdline>
J2VwaWtfcHl0aG9uJywgJy1waCcsICc3LjAnLCAnLXRuJywgJzgnLCAnLW1hJywgJzIwMCcsICctbWV0YWxfYmluZGluZycsICctaW1hZScsICc8aW5maWxlLm1hZT4nLCAnLW9tYWUnLCAnPG91dGZpbGUubWFlPic=

> <r_lp_tautomer_probability>
1

> <r_epik_Ionization_Penalty>
0.00249932

> <r_epik_Ionization_Penalty_Charging>
0.00230623

> <r_epik_Ionization_Penalty_Neutral>
0.000193092

> <r_epik_State_Penalty>
-0

> <r_epik_Charging_Adjusted_Penalty>
0.00230623

> <i_epik_Tot_Q>
1

> <i_epik_Tot_abs_Q>
1

> <r_epik_Metal_State_Penalty>
-0

> <b_epik_Metal_Only>
0

> <s_lp_Force_Field>
OPLS_2005

> <r_lp_Energy>
14.3844

> <b_lp_Chiralities_Consistent>
1

> <s_lp_Variant>
AV-unprocessed.smi:1191-1

> <Gold.Version>
5.8.1

> <Gold.Id.Protein>
6NUR|6NUR_protein|mol2

> <Gold.PLP.Fitness>
43.1790

> <Gold.PLP.PLP>
-35.1868

> <Gold.PLP.part.hbond>
-1.9863

> <Gold.PLP.part.metal>
0.0000

> <Gold.PLP.part.buried>
-4.4134

> <Gold.PLP.part.nonpolar>
-29.3496

> <Gold.PLP.part.repulsive>
0.0537

> <Gold.PLP.ligand.clash>
0.0000

> <Gold.PLP.ligand.torsion>
0.5512

> <Gold.PLP.Chemscore.Hbond>
3.0000

> <Gold.PLP.Chemscore.CHOScore>
0.0000

> <Gold.PLP.Chemscore.Metal>
0.0000

> <Gold.Chemscore.Hbonds>
donor molecule, donor type, donor heavy atom, donor atom, acceptor molecule, acceptor atom, score
      L1  H    13    47       P1  7948  2.00
      P1  H  7997  8008       L1     9  1.00

> <Gold.PLP.Chemscore.Internal.Correction>
0.0947

> <Gold.Rescore>
     Score         DG    S(hbond)    S(metal)    S(lipo)     H(rot)  DE(clash)    DE(int)     intcor
     16.62     -18.62       1.96        0.00      92.72       1.67       0.01       1.98       ----

> <Gold.Chemscore.Fitness>
16.6230

> <Gold.Chemscore.DG>
-18.6172

> <Gold.Chemscore.ZeroCoef>
-5.4800

> <Gold.Chemscore.Hbond>
1.9621

> <Gold.Chemscore.Metal>
0.0000

> <Gold.Chemscore.Lipo>
92.7171

> <Gold.Chemscore.Internal_Hbond>
0.0000

> <Gold.Chemscore.DEClash>
0.0104

> <Gold.Chemscore.DEInternal>
1.9838

> <Gold.Chemscore.Rot>
1.6657

> <Gold.Chemscore.Internal.Correction>
   9.000000E+99

> <Gold.Chemscore.Hbonds>
donor molecule, donor type, donor heavy atom, donor atom, acceptor molecule, acceptor atom, score
      L1  H    13    47       P1  7948  0.65
      P1  H  7997  8008       L1     9  0.98

> <Gold.Chemscore.Hbond.Weighted>
-6.5533

> <Gold.Chemscore.Metal.Weighted>
-0.0000

> <Gold.Chemscore.Lipo.Weighted>
-10.8479

> <Gold.Chemscore.Internal_Hbond.Weighted>
0.0000

> <Gold.Chemscore.DEClash.Weighted>
0.0104

> <Gold.Chemscore.DEInternal.Weighted>
1.9838

> <Gold.Chemscore.Rot.Weighted>
4.2641

> <Gold.Chemscore.Internal.Correction.Weighted>
   9.000000E+99

> <Gold.Protein.RotatedTorsions>
[ 6907 6896 6895 6894 ] final -130.32 input  -60.11 | X-H torsion
[ 7974 7965 7964 7962 ] final  155.10 input  175.53 | X-H torsion
[ 8008 7997 7996 7995 ] final  -51.15 input   59.86 | X-H torsion
[ 10167 10162 10161 10158 ] final   14.02 input  -65.29 | X-H torsion
[ 10718 10713 10712 10709 ] final   26.10 input   66.30 | X-H torsion
[ 10763 10752 10751 10750 ] final   -2.51 input  -60.55 | X-H torsion
[ 11005 11000 10999 10996 ] final -150.51 input  -57.11 | X-H torsion

> <Gold.Protein.ActiveResidues>
 VAL166  LYS551  ARG553  GLY616  TRP617  ASP618  TYR619  PRO620  LYS621  CYS622 
 ASP623  PHE694  ASN695  SER759  ASP760  ASP761  ALA762  ILE779  LEU786  VAL792 
 PHE793  MET794  SER795  GLU796  ALA797  LYS798  CYS799  TRP800  GLU811  SER814 

> <Gold.Protein.RotatedAtoms>
  150.9384  133.6685  159.2795 H   0  0  0  0  0  0  0  0  0  0  0  0  # atno 6907 bound_to 6896
  151.4082  135.0980  159.9586 H   0  0  0  0  0  0  0  0  0  0  0  0  # atno 6908 bound_to 6896
  152.5058  133.8863  159.7426 H   0  0  0  0  0  0  0  0  0  0  0  0  # atno 6909 bound_to 6896
  144.8046  139.7022  143.6167 H   0  0  0  0  0  0  0  0  0  0  0  0  # atno 7974 bound_to 7965
  154.4077  140.1255  156.4783 H   0  0  0  0  0  0  0  0  0  0  0  0  # atno 8008 bound_to 7997
  155.7111  140.3494  155.4954 H   0  0  0  0  0  0  0  0  0  0  0  0  # atno 8009 bound_to 7997
  155.9300  140.1068  157.1130 H   0  0  0  0  0  0  0  0  0  0  0  0  # atno 8010 bound_to 7997
  140.5963  143.8694  150.6922 H   0  0  0  0  0  0  0  0  0  0  0  0  # atno 10167 bound_to 10162
  157.2022  130.6895  149.6193 H   0  0  0  0  0  0  0  0  0  0  0  0  # atno 10718 bound_to 10713
  153.3589  135.6989  153.6728 H   0  0  0  0  0  0  0  0  0  0  0  0  # atno 10763 bound_to 10752
  153.5424  135.3570  155.2725 H   0  0  0  0  0  0  0  0  0  0  0  0  # atno 10764 bound_to 10752
  154.8665  135.4207  154.2842 H   0  0  0  0  0  0  0  0  0  0  0  0  # atno 10765 bound_to 10752
  140.7394  134.3532  157.5151 H   0  0  0  0  0  0  0  0  0  0  0  0  # atno 11005 bound_to 11000
  146.2335  139.5860  142.9539 LP  0  0  0  0  0  0  0  0  0  0  0  0  # atno 17320 bound_to 7965
  145.5469  141.0416  143.2300 LP  0  0  0  0  0  0  0  0  0  0  0  0  # atno 17321 bound_to 7965
  140.2229  143.3795  152.1628 LP  0  0  0  0  0  0  0  0  0  0  0  0  # atno 17342 bound_to 10162
  139.5261  144.7103  151.5226 LP  0  0  0  0  0  0  0  0  0  0  0  0  # atno 17343 bound_to 10162
  155.9699  130.4579  150.5978 LP  0  0  0  0  0  0  0  0  0  0  0  0  # atno 17370 bound_to 10713
  157.3755  131.0772  151.1521 LP  0  0  0  0  0  0  0  0  0  0  0  0  # atno 17371 bound_to 10713
  139.8809  134.9070  156.2936 LP  0  0  0  0  0  0  0  0  0  0  0  0  # atno 17394 bound_to 11000
  140.9850  133.7243  156.0729 LP  0  0  0  0  0  0  0  0  0  0  0  0  # atno 17395 bound_to 11000

$$$$
