#       Name:                AV-unprocessed.smi:614
#       Creating user name   scv26
#       Creation time:       Thu Mar 26 23:59:36 2020


#       File generated by GOLD software.
#

@<TRIPOS>MOLECULE
AV-unprocessed.smi:614
    49    50     1
SMALL
NO_CHARGES


@<TRIPOS>ATOM
      1 ****        -5.0202   3.8101   0.8138 C.3            1 S1                 0.0000
      2 ****        -4.6986   2.3995   0.8326 N.pl3          1 S1                 0.0000
      3 ****        -5.5589   1.3208   0.8657 C.2            1 S1                 0.0000
      4 ****        -4.7955   0.1879   0.8748 C.2            1 S1                 0.0000
      5 ****        -3.4649   0.6898   0.8444 C.2            1 S1                 0.0000
      6 ****        -2.3576  -0.1969   0.8499 N.am           1 S1                 0.0000
      7 ****        -1.0521   0.1193   0.8092 C.2            1 S1                 0.0000
      8 ****        -0.6078   1.2631   0.7187 O.2            1 S1                 0.0000
      9 ****        -0.2906  -0.9864   0.8735 N.am           1 S1                 0.0000
     10 ****         1.1761  -1.1009   0.8795 C.3            1 S1                 0.0000
     11 ****         1.4346  -2.6225   0.9826 C.3            1 S1                 0.0000
     12 ****         1.7350  -0.4630   2.1883 C.3            1 S1                 0.0000
     13 ****         2.0096   0.9202   2.0906 O.3            1 S1                 0.0000
     14 ****         1.8138  -0.5144  -0.4330 C.3            1 S1                 0.0000
     15 ****         1.1890  -1.0574  -1.7448 C.3            1 S1                 0.0000
     16 ****         1.7709  -0.3572  -2.9839 C.3            1 S1                 0.0000
     17 ****         3.3002  -0.4858  -3.0325 C.3            1 S1                 0.0000
     18 ****         3.9376   0.0427  -1.7395 C.3            1 S1                 0.0000
     19 ****         3.3551  -0.6617  -0.5034 C.3            1 S1                 0.0000
     20 ****        -3.4052   2.0143   0.8187 N.2            1 S1                 0.0000
     21 ****        -6.1019   3.9476   0.8119 H              1 S1                 0.0000
     22 ****        -4.6022   4.2719  -0.0811 H              1 S1                 0.0000
     23 ****        -4.6027   4.2950   1.6967 H              1 S1                 0.0000
     24 ****        -6.6314   1.4480   0.8809 H              1 S1                 0.0000
     25 ****        -5.1370  -0.8362   0.9000 H              1 S1                 0.0000
     26 ****        -2.5839  -1.1787   0.9046 H              1 S1                 0.0000
     27 ****        -0.7851  -1.8641   0.9349 H              1 S1                 0.0000
     28 ****         2.4970  -2.8595   1.0307 H              1 S1                 0.0000
     29 ****         1.0118  -3.1719   0.1416 H              1 S1                 0.0000
     30 ****         0.9829  -3.0351   1.8860 H              1 S1                 0.0000
     31 ****         1.0601  -0.6353   3.0279 H              1 S1                 0.0000
     32 ****         2.6786  -0.9366   2.4615 H              1 S1                 0.0000
     33 ****         2.3130   1.2274   2.9309 H              1 S1                 0.0000
     34 ****         1.6149   0.5574  -0.4369 H              1 S1                 0.0000
     35 ****         1.3647  -2.1293  -1.8334 H              1 S1                 0.0000
     36 ****         0.1079  -0.9210  -1.7471 H              1 S1                 0.0000
     37 ****         1.3349  -0.7809  -3.8889 H              1 S1                 0.0000
     38 ****         1.4926   0.6972  -2.9715 H              1 S1                 0.0000
     39 ****         3.5756  -1.5315  -3.1755 H              1 S1                 0.0000
     40 ****         3.6928   0.0590  -3.8915 H              1 S1                 0.0000
     41 ****         5.0180  -0.1005  -1.7736 H              1 S1                 0.0000
     42 ****         3.7707   1.1177  -1.6609 H              1 S1                 0.0000
     43 ****         3.8247  -0.2482   0.3886 H              1 S1                 0.0000
     44 ****         3.6351  -1.7142  -0.5390 H              1 S1                 0.0000
     45 ****        -1.2348   2.0406   0.6695 LP             1 S1                 0.0000
     46 ****         0.3802   1.4152   0.6943 LP             1 S1                 0.0000
     47 ****         1.1776   1.4114   1.8326 LP             1 S1                 0.0000
     48 ****         2.7160   1.0755   1.4000 LP             1 S1                 0.0000
     49 ****        -2.5905   2.5936   0.7946 LP             1 S1                 0.0000
@<TRIPOS>BOND
    1    1    2 1     
    2    1   21 1     
    3    1   22 1     
    4    1   23 1     
    5    2   20 1     
    6    2    3 1     
    7    3    4 2     
    8    3   24 1     
    9    4    5 1     
   10    4   25 1     
   11    5    6 1     
   12    5   20 2     
   13    6    7 am    
   14    6   26 1     
   15    7    8 2     
   16    7    9 am    
   17    9   10 1     
   18    9   27 1     
   19   10   11 1     
   20   10   12 1     
   21   10   14 1     
   22   11   28 1     
   23   11   29 1     
   24   11   30 1     
   25   12   13 1     
   26   12   31 1     
   27   12   32 1     
   28   13   33 1     
   29   14   19 1     
   30   14   15 1     
   31   14   34 1     
   32   15   16 1     
   33   15   35 1     
   34   15   36 1     
   35   16   17 1     
   36   16   37 1     
   37   16   38 1     
   38   17   18 1     
   39   17   39 1     
   40   17   40 1     
   41   18   19 1     
   42   18   41 1     
   43   18   42 1     
   44   19   43 1     
   45   19   44 1     
   46    8   45 1     
   47    8   46 1     
   48   13   47 1     
   49   13   48 1     
   50   20   49 1     
@<TRIPOS>SUBSTRUCTURE
      1 S1             1
@<TRIPOS>SET
LONE_PAIRS      STATIC     ATOMS    <user>   **** ""
5 45 46 47 48 49
DONOR_HYDROGENS      STATIC     ATOMS    <user>   **** ""
3 26 27 33
ATOM$BLUE        STATIC     ATOMS    COLORGROUP SYSTEM
5 45 46 47 48 49
ATOM$RED        STATIC     ATOMS    COLORGROUP SYSTEM
3 26 27 33
