AV-unprocessed.smi:153|AV-procd|sdf|1258|dock4
  -GOLD-   2262018503D 1   1.00000     0.00000
 Structure written by MMmdl.
 59 62  0  0  0  0  0  0  0  0  1 V2000
  152.3573  144.7876  158.1112 C   0  0  0  0  0  0  0  0  0  0  0  0
  151.7936  143.7050  159.0440 C   0  0  2  0  0  0  0  0  0  0  0  0
  152.8510  143.2312  159.8722 O   0  0  0  0  0  0  0  0  0  0  0  0
  152.5429  141.9085  160.2731 C   0  0  0  0  0  0  0  0  0  0  0  0
  152.0084  141.3012  158.9854 C   0  0  0  0  0  0  0  0  0  0  0  0
  151.1892  142.4378  158.3743 C   0  0  1  0  0  0  0  0  0  0  0  0
  149.8547  142.3064  158.8338 O   0  0  0  0  0  0  0  0  0  0  0  0
  151.1701  142.4177  156.8224 C   0  0  0  0  0  0  0  0  0  0  0  0
  150.4704  141.2674  156.2692 N   0  0  0  0  0  0  0  0  0  0  0  0
  150.5822  139.9605  156.6822 C   0  0  0  0  0  0  0  0  0  0  0  0
  149.8394  139.1087  156.0319 N   0  0  0  0  0  0  0  0  0  0  0  0
  149.1641  139.8787  155.0892 C   0  0  0  0  0  0  0  0  0  0  0  0
  148.2028  139.6026  154.0670 C   0  0  0  0  0  0  0  0  0  0  0  0
  147.6775  138.3685  153.8054 N   0  0  0  0  0  0  0  0  0  0  0  0
  147.9713  137.2702  154.7187 C   0  0  0  0  0  0  0  0  0  0  0  0
  146.4870  138.2420  152.9608 C   0  0  0  0  0  0  0  0  0  0  0  0
  146.6282  137.1340  151.8927 C   0  0  2  0  0  0  0  0  0  0  0  0
  146.9206  137.7460  150.6523 O   0  0  0  0  0  0  0  0  0  0  0  0
  145.3162  136.3384  151.7221 C   0  0  0  0  0  0  0  0  0  0  0  0
  145.4785  134.9025  151.4896 N   0  0  0  0  0  0  0  0  0  0  0  0
  146.4351  134.6541  150.4161 C   0  0  0  0  0  0  0  0  0  0  0  0
  146.6214  133.1509  150.1463 C   0  0  0  0  0  0  0  0  0  0  0  0
  145.3618  132.5642  149.8363 O   0  0  0  0  0  0  0  0  0  0  0  0
  144.4046  132.7426  150.8748 C   0  0  0  0  0  0  0  0  0  0  0  0
  144.2153  134.2439  151.1531 C   0  0  0  0  0  0  0  0  0  0  0  0
  147.7959  140.6613  153.3134 N   0  0  0  0  0  0  0  0  0  0  0  0
  148.2634  141.8907  153.5413 C   0  0  0  0  0  0  0  0  0  0  0  0
  149.1395  142.2891  154.4624 N   0  0  0  0  0  0  0  0  0  0  0  0
  149.5685  141.2404  155.2195 C   0  0  0  0  0  0  0  0  0  0  0  0
  151.5838  145.1902  157.4574 H   0  0  0  0  0  0  0  0  0  0  0  0
  153.1661  144.4030  157.4902 H   0  0  0  0  0  0  0  0  0  0  0  0
  152.7599  145.6193  158.6898 H   0  0  0  0  0  0  0  0  0  0  0  0
  151.0573  144.1716  159.7016 H   0  0  0  0  0  0  0  0  0  0  0  0
  153.4205  141.3871  160.6554 H   0  0  0  0  0  0  0  0  0  0  0  0
  151.7778  141.9230  161.0512 H   0  0  0  0  0  0  0  0  0  0  0  0
  152.8545  141.0600  158.3410 H   0  0  0  0  0  0  0  0  0  0  0  0
  151.4419  140.3827  159.1462 H   0  0  0  0  0  0  0  0  0  0  0  0
  149.3857  143.1001  158.6260 H   0  0  0  0  0  0  0  0  0  0  0  0
  150.7044  143.3235  156.4317 H   0  0  0  0  0  0  0  0  0  0  0  0
  152.1873  142.3993  156.4304 H   0  0  0  0  0  0  0  0  0  0  0  0
  151.2316  139.6564  157.4905 H   0  0  0  0  0  0  0  0  0  0  0  0
  148.9797  136.8918  154.5499 H   0  0  0  0  0  0  0  0  0  0  0  0
  147.2804  136.4400  154.5694 H   0  0  0  0  0  0  0  0  0  0  0  0
  147.8819  137.5899  155.7575 H   0  0  0  0  0  0  0  0  0  0  0  0
  145.6268  138.0487  153.6029 H   0  0  0  0  0  0  0  0  0  0  0  0
  146.2673  139.2024  152.4921 H   0  0  0  0  0  0  0  0  0  0  0  0
  147.4519  136.4725  152.1560 H   0  0  0  0  0  0  0  0  0  0  0  0
  146.1102  137.8854  150.1871 H   0  0  0  0  0  0  0  0  0  0  0  0
  144.6964  136.4722  152.6103 H   0  0  0  0  0  0  0  0  0  0  0  0
  144.7479  136.7841  150.9040 H   0  0  0  0  0  0  0  0  0  0  0  0
  146.1012  135.1453  149.5008 H   0  0  0  0  0  0  0  0  0  0  0  0
  147.4000  135.0933  150.6719 H   0  0  0  0  0  0  0  0  0  0  0  0
  147.3021  132.9975  149.3089 H   0  0  0  0  0  0  0  0  0  0  0  0
  147.0602  132.6535  151.0128 H   0  0  0  0  0  0  0  0  0  0  0  0
  143.4602  132.2918  150.5701 H   0  0  0  0  0  0  0  0  0  0  0  0
  144.7334  132.2219  151.7755 H   0  0  0  0  0  0  0  0  0  0  0  0
  143.4942  134.3548  151.9612 H   0  0  0  0  0  0  0  0  0  0  0  0
  143.7729  134.7179  150.2754 H   0  0  0  0  0  0  0  0  0  0  0  0
  147.8776  142.6655  152.8951 H   0  0  0  0  0  0  0  0  0  0  0  0
  1  2  1  0  0  0  0
  1 30  1  0  0  0  0
  1 31  1  0  0  0  0
  1 32  1  0  0  0  0
  2  6  1  0  0  0  0
  2  3  1  0  0  0  0
  2 33  1  0  0  0  0
  3  4  1  0  0  0  0
  4  5  1  0  0  0  0
  4 34  1  0  0  0  0
  4 35  1  0  0  0  0
  5  6  1  0  0  0  0
  5 36  1  0  0  0  0
  5 37  1  0  0  0  0
  6  7  1  0  0  0  0
  6  8  1  0  0  0  0
  7 38  1  0  0  0  0
  8  9  1  0  0  0  0
  8 39  1  0  0  0  0
  8 40  1  0  0  0  0
  9 29  1  0  0  0  0
  9 10  1  0  0  0  0
 10 11  2  0  0  0  0
 10 41  1  0  0  0  0
 11 12  1  0  0  0  0
 12 29  2  0  0  0  0
 12 13  1  0  0  0  0
 13 14  1  0  0  0  0
 13 26  2  0  0  0  0
 14 15  1  0  0  0  0
 14 16  1  0  0  0  0
 15 42  1  0  0  0  0
 15 43  1  0  0  0  0
 15 44  1  0  0  0  0
 16 17  1  0  0  0  0
 16 45  1  0  0  0  0
 16 46  1  0  0  0  0
 17 18  1  0  0  0  0
 17 19  1  0  0  0  0
 17 47  1  0  0  0  0
 18 48  1  0  0  0  0
 19 20  1  0  0  0  0
 19 49  1  0  0  0  0
 19 50  1  0  0  0  0
 20 25  1  0  0  0  0
 20 21  1  0  0  0  0
 21 22  1  0  0  0  0
 21 51  1  0  0  0  0
 21 52  1  0  0  0  0
 22 23  1  0  0  0  0
 22 53  1  0  0  0  0
 22 54  1  0  0  0  0
 23 24  1  0  0  0  0
 24 25  1  0  0  0  0
 24 55  1  0  0  0  0
 24 56  1  0  0  0  0
 25 57  1  0  0  0  0
 25 58  1  0  0  0  0
 26 27  1  0  0  0  0
 27 28  2  0  0  0  0
 27 59  1  0  0  0  0
 28 29  1  0  0  0  0
M  END
> <s_m_source_file>
AV-unprocessed.smi

> <i_m_source_file_index>
153

> <i_lp_mmshare_version>
43012

> <i_f3d_flags>
0

> <s_epik_input>
W0NIMl0xW0NIMl1PW0NAQEhdKFtDSDNdKVtDQEBdMShbT0hdKVtDSDJdbihbY0hdbjIpYyhjMjMpbltjSF1uYzNOKFtDSDNdKVtDSDJdW0NASF0oW09IXSlbQ0gyXU40W0NIMl1bQ0gyXU9bQ0gyXVtDSDJdNA==

> <s_epik_cmdline>
J2VwaWtfcHl0aG9uJywgJy1waCcsICc3LjAnLCAnLXRuJywgJzgnLCAnLW1hJywgJzIwMCcsICctbWV0YWxfYmluZGluZycsICctaW1hZScsICc8aW5maWxlLm1hZT4nLCAnLW9tYWUnLCAnPG91dGZpbGUubWFlPic=

> <r_lp_tautomer_probability>
1

> <r_epik_Ionization_Penalty>
0.424123

> <r_epik_Ionization_Penalty_Charging>
0

> <r_epik_Ionization_Penalty_Neutral>
0.424123

> <r_epik_State_Penalty>
0.421495

> <r_epik_Charging_Adjusted_Penalty>
0.421495

> <i_epik_Tot_Q>
0

> <i_epik_Tot_abs_Q>
0

> <r_epik_Metal_State_Penalty>
0.421223

> <b_epik_Metal_Only>
0

> <s_lp_Force_Field>
OPLS_2005

> <r_lp_Energy>
56.4475

> <b_lp_Chiralities_Consistent>
1

> <s_lp_Variant>
AV-unprocessed.smi:153-9

> <Gold.Version>
5.8.1

> <Gold.Id.Protein>
6NUR|6NUR_protein|mol2

> <Gold.PLP.Fitness>
50.2499

> <Gold.PLP.PLP>
-46.7790

> <Gold.PLP.part.hbond>
-4.9351

> <Gold.PLP.part.metal>
0.0000

> <Gold.PLP.part.buried>
-6.9074

> <Gold.PLP.part.nonpolar>
-37.9167

> <Gold.PLP.part.repulsive>
3.2241

> <Gold.PLP.ligand.clash>
0.0000

> <Gold.PLP.ligand.torsion>
1.5619

> <Gold.PLP.Chemscore.Hbond>
2.0000

> <Gold.PLP.Chemscore.CHOScore>
0.0000

> <Gold.PLP.Chemscore.Metal>
0.0000

> <Gold.Chemscore.Hbonds>
donor molecule, donor type, donor heavy atom, donor atom, acceptor molecule, acceptor atom, score
      L1  H    18    48       P1 10171  0.18
      P1  H  7954  7966       L1    18  0.83

> <Gold.PLP.Chemscore.Internal.Correction>
0.5947

> <Gold.Rescore>
     Score         DG    S(hbond)    S(metal)    S(lipo)     H(rot)  DE(clash)    DE(int)     intcor
     10.31     -14.94       1.72        0.00     108.60       3.52       2.01       2.62       ----

> <Gold.Chemscore.Fitness>
10.3098

> <Gold.Chemscore.DG>
-14.9405

> <Gold.Chemscore.ZeroCoef>
-5.4800

> <Gold.Chemscore.Hbond>
1.7238

> <Gold.Chemscore.Metal>
0.0000

> <Gold.Chemscore.Lipo>
108.6038

> <Gold.Chemscore.Internal_Hbond>
0.0000

> <Gold.Chemscore.DEClash>
2.0136

> <Gold.Chemscore.DEInternal>
2.6171

> <Gold.Chemscore.Rot>
3.5170

> <Gold.Chemscore.Internal.Correction>
   9.000000E+99

> <Gold.Chemscore.Hbonds>
donor molecule, donor type, donor heavy atom, donor atom, acceptor molecule, acceptor atom, score
      L1  H    18    48       P1 10171  0.19
      P1  H  7954  7966       L1    18  0.75

> <Gold.Chemscore.Hbond.Weighted>
-5.7574

> <Gold.Chemscore.Metal.Weighted>
-0.0000

> <Gold.Chemscore.Lipo.Weighted>
-12.7066

> <Gold.Chemscore.Internal_Hbond.Weighted>
0.0000

> <Gold.Chemscore.DEClash.Weighted>
2.0136

> <Gold.Chemscore.DEInternal.Weighted>
2.6171

> <Gold.Chemscore.Rot.Weighted>
9.0036

> <Gold.Chemscore.Internal.Correction.Weighted>
   9.000000E+99

> <Gold.Protein.RotatedTorsions>
[ 6907 6896 6895 6894 ] final -101.14 input  -60.11 | X-H torsion
[ 7974 7965 7964 7962 ] final  -70.58 input  175.53 | X-H torsion
[ 8008 7997 7996 7995 ] final  116.73 input   59.86 | X-H torsion
[ 10167 10162 10161 10158 ] final  167.69 input  -65.29 | X-H torsion
[ 10718 10713 10712 10709 ] final  145.53 input   66.30 | X-H torsion
[ 10763 10752 10751 10750 ] final   22.93 input  -60.55 | X-H torsion
[ 11005 11000 10999 10996 ] final  159.85 input  -57.11 | X-H torsion

> <Gold.Protein.ActiveResidues>
 VAL166  LYS551  ARG553  GLY616  TRP617  ASP618  TYR619  PRO620  LYS621  CYS622 
 ASP623  PHE694  ASN695  SER759  ASP760  ASP761  ALA762  ILE779  LEU786  VAL792 
 PHE793  MET794  SER795  GLU796  ALA797  LYS798  CYS799  TRP800  GLU811  SER814 

> <Gold.Protein.RotatedAtoms>
  150.7143  134.0780  159.3887 H   0  0  0  0  0  0  0  0  0  0  0  0  # atno 6907 bound_to 6896
  151.8763  135.0468  160.0493 H   0  0  0  0  0  0  0  0  0  0  0  0  # atno 6908 bound_to 6896
  152.2603  133.5256  159.5414 H   0  0  0  0  0  0  0  0  0  0  0  0  # atno 6909 bound_to 6896
  145.6891  140.9159  143.0791 H   0  0  0  0  0  0  0  0  0  0  0  0  # atno 7974 bound_to 7965
  156.2455  140.2911  156.0569 H   0  0  0  0  0  0  0  0  0  0  0  0  # atno 8008 bound_to 7997
  155.1819  140.0404  157.2901 H   0  0  0  0  0  0  0  0  0  0  0  0  # atno 8009 bound_to 7997
  154.6254  140.2486  155.7505 H   0  0  0  0  0  0  0  0  0  0  0  0  # atno 8010 bound_to 7997
  139.4951  144.3895  151.9533 H   0  0  0  0  0  0  0  0  0  0  0  0  # atno 10167 bound_to 10162
  157.3442  131.0940  151.1056 H   0  0  0  0  0  0  0  0  0  0  0  0  # atno 10718 bound_to 10713
  153.0877  135.6638  153.9916 H   0  0  0  0  0  0  0  0  0  0  0  0  # atno 10763 bound_to 10752
  153.9521  135.2983  155.3439 H   0  0  0  0  0  0  0  0  0  0  0  0  # atno 10764 bound_to 10752
  154.7287  135.5132  153.9002 H   0  0  0  0  0  0  0  0  0  0  0  0  # atno 10765 bound_to 10752
  140.2002  134.8343  157.3010 H   0  0  0  0  0  0  0  0  0  0  0  0  # atno 11005 bound_to 11000
  144.7002  139.8798  143.7446 LP  0  0  0  0  0  0  0  0  0  0  0  0  # atno 17320 bound_to 7965
  146.0897  139.3887  143.0413 LP  0  0  0  0  0  0  0  0  0  0  0  0  # atno 17321 bound_to 7965
  140.3332  144.3291  150.5983 LP  0  0  0  0  0  0  0  0  0  0  0  0  # atno 17342 bound_to 10162
  140.5627  143.2190  151.7736 LP  0  0  0  0  0  0  0  0  0  0  0  0  # atno 17343 bound_to 10162
  157.2256  130.6501  149.5829 LP  0  0  0  0  0  0  0  0  0  0  0  0  # atno 17370 bound_to 10713
  155.9712  130.4615  150.6111 LP  0  0  0  0  0  0  0  0  0  0  0  0  # atno 17371 bound_to 10713
  140.2062  134.4194  155.7636 LP  0  0  0  0  0  0  0  0  0  0  0  0  # atno 17394 bound_to 11000
  141.2227  133.7096  156.8265 LP  0  0  0  0  0  0  0  0  0  0  0  0  # atno 17395 bound_to 11000

$$$$
