AV-unprocessed.smi:281|AV-procd|sdf|2110|dock4
  -GOLD-   2262021403D 1   1.00000     0.00000
 Structure written by MMmdl.
 55 59  0  0  0  0  0  0  0  0  1 V2000
  148.1729  141.5139  153.9683 C   0  0  0  0  0  0  0  0  0  0  0  0
  148.6055  140.2004  154.6272 C   0  0  1  0  0  0  0  0  0  0  0  0
  147.8954  138.9859  154.0127 C   0  0  0  0  0  0  0  0  0  0  0  0
  148.4020  137.7558  154.6123 N   0  0  0  0  0  0  0  0  0  0  0  0
  147.7163  136.6080  154.3695 C   0  0  0  0  0  0  0  0  0  0  0  0
  148.1430  135.4349  154.9111 N   0  0  0  0  0  0  0  0  0  0  0  0
  147.4721  134.3013  154.6883 C   0  0  0  0  0  0  0  0  0  0  0  0
  146.3687  134.1143  153.9632 N   0  0  0  0  0  0  0  0  0  0  0  0
  145.9391  135.2827  153.4071 C   0  0  0  0  0  0  0  0  0  0  0  0
  146.5450  136.5626  153.5599 C   0  0  0  0  0  0  0  0  0  0  0  0
  145.8250  137.5103  152.8423 N   0  0  0  0  0  0  0  0  0  0  0  0
  144.8470  136.8339  152.3060 C   0  0  0  0  0  0  0  0  0  0  0  0
  144.8447  135.4861  152.5838 N   0  0  0  0  0  0  0  0  0  0  0  0
  143.8840  134.4978  152.1170 C   0  0  0  0  0  0  0  0  0  0  0  0
  144.2828  133.8257  150.7818 C   0  0  1  0  0  0  0  0  0  0  0  0
  144.0779  134.7417  149.7200 O   0  0  0  0  0  0  0  0  0  0  0  0
  145.7401  133.3822  150.7579 C   0  0  0  0  0  0  0  0  0  0  0  0
  145.7151  132.1975  149.8021 C   0  0  0  0  0  0  0  0  0  0  0  0
  144.5055  131.5424  150.1437 O   0  0  0  0  0  0  0  0  0  0  0  0
  143.5211  132.5234  150.4580 C   0  0  0  0  0  0  0  0  0  0  0  0
  149.8530  137.6304  154.5124 C   0  0  0  0  0  0  0  0  0  0  0  0
  150.5826  138.8904  155.0486 C   0  0  2  0  0  0  0  0  0  0  0  0
  152.0505  138.8698  154.6326 C   0  0  0  0  0  0  0  0  0  0  0  0
  152.7456  139.6344  155.7460 C   0  0  0  0  0  0  0  0  0  0  0  0
  152.0726  139.1521  156.8925 O   0  0  0  0  0  0  0  0  0  0  0  0
  150.6826  139.0786  156.5937 C   0  0  2  0  0  0  0  0  0  0  0  0
  150.0582  137.9900  157.4776 C   0  0  0  0  0  0  0  0  0  0  0  0
  150.0142  140.0588  154.4471 O   0  0  0  0  0  0  0  0  0  0  0  0
  147.1010  141.6764  154.0826 H   0  0  0  0  0  0  0  0  0  0  0  0
  148.4003  141.5142  152.9019 H   0  0  0  0  0  0  0  0  0  0  0  0
  148.6872  142.3630  154.4190 H   0  0  0  0  0  0  0  0  0  0  0  0
  148.3661  140.2563  155.6894 H   0  0  0  0  0  0  0  0  0  0  0  0
  146.8203  139.0680  154.1792 H   0  0  0  0  0  0  0  0  0  0  0  0
  148.0595  138.9604  152.9341 H   0  0  0  0  0  0  0  0  0  0  0  0
  147.8780  133.4172  155.1575 H   0  0  0  0  0  0  0  0  0  0  0  0
  144.0985  137.3053  151.6860 H   0  0  0  0  0  0  0  0  0  0  0  0
  143.7639  133.7431  152.8957 H   0  0  0  0  0  0  0  0  0  0  0  0
  142.9148  134.9881  152.0165 H   0  0  0  0  0  0  0  0  0  0  0  0
  144.8492  134.7463  149.1739 H   0  0  0  0  0  0  0  0  0  0  0  0
  146.4337  134.1669  150.4525 H   0  0  0  0  0  0  0  0  0  0  0  0
  146.0461  133.0348  151.7461 H   0  0  0  0  0  0  0  0  0  0  0  0
  145.6721  132.5313  148.7642 H   0  0  0  0  0  0  0  0  0  0  0  0
  146.5768  131.5401  149.9190 H   0  0  0  0  0  0  0  0  0  0  0  0
  142.9458  132.1583  151.3081 H   0  0  0  0  0  0  0  0  0  0  0  0
  142.8293  132.6444  149.6230 H   0  0  0  0  0  0  0  0  0  0  0  0
  150.2205  136.7386  155.0178 H   0  0  0  0  0  0  0  0  0  0  0  0
  150.0965  137.4979  153.4570 H   0  0  0  0  0  0  0  0  0  0  0  0
  152.4273  137.8459  154.6207 H   0  0  0  0  0  0  0  0  0  0  0  0
  152.2267  139.2992  153.6458 H   0  0  0  0  0  0  0  0  0  0  0  0
  153.8165  139.4365  155.7922 H   0  0  0  0  0  0  0  0  0  0  0  0
  152.5907  140.7099  155.6451 H   0  0  0  0  0  0  0  0  0  0  0  0
  150.2594  140.0425  156.8777 H   0  0  0  0  0  0  0  0  0  0  0  0
  148.9846  137.9063  157.3100 H   0  0  0  0  0  0  0  0  0  0  0  0
  150.2039  138.2223  158.5326 H   0  0  0  0  0  0  0  0  0  0  0  0
  150.5134  137.0172  157.2935 H   0  0  0  0  0  0  0  0  0  0  0  0
  1  2  1  0  0  0  0
  1 29  1  0  0  0  0
  1 30  1  0  0  0  0
  1 31  1  0  0  0  0
  2 28  1  0  0  0  0
  2  3  1  0  0  0  0
  2 32  1  0  0  0  0
  3  4  1  0  0  0  0
  3 33  1  0  0  0  0
  3 34  1  0  0  0  0
  4  5  1  0  0  0  0
  4 21  1  0  0  0  0
  5 10  1  0  0  0  0
  5  6  2  0  0  0  0
  6  7  1  0  0  0  0
  7  8  2  0  0  0  0
  7 35  1  0  0  0  0
  8  9  1  0  0  0  0
  9 13  1  0  0  0  0
  9 10  2  0  0  0  0
 10 11  1  0  0  0  0
 11 12  2  0  0  0  0
 12 13  1  0  0  0  0
 12 36  1  0  0  0  0
 13 14  1  0  0  0  0
 14 15  1  0  0  0  0
 14 37  1  0  0  0  0
 14 38  1  0  0  0  0
 15 20  1  0  0  0  0
 15 16  1  0  0  0  0
 15 17  1  0  0  0  0
 16 39  1  0  0  0  0
 17 18  1  0  0  0  0
 17 40  1  0  0  0  0
 17 41  1  0  0  0  0
 18 19  1  0  0  0  0
 18 42  1  0  0  0  0
 18 43  1  0  0  0  0
 19 20  1  0  0  0  0
 20 44  1  0  0  0  0
 20 45  1  0  0  0  0
 21 22  1  0  0  0  0
 21 46  1  0  0  0  0
 21 47  1  0  0  0  0
 22 26  1  0  0  0  0
 22 23  1  0  0  0  0
 22 28  1  0  0  0  0
 23 24  1  0  0  0  0
 23 48  1  0  0  0  0
 23 49  1  0  0  0  0
 24 25  1  0  0  0  0
 24 50  1  0  0  0  0
 24 51  1  0  0  0  0
 25 26  1  0  0  0  0
 26 27  1  0  0  0  0
 26 52  1  0  0  0  0
 27 53  1  0  0  0  0
 27 54  1  0  0  0  0
 27 55  1  0  0  0  0
M  END
> <s_m_source_file>
AV-unprocessed.smi

> <i_m_source_file_index>
281

> <i_lp_mmshare_version>
43012

> <i_f3d_flags>
0

> <s_epik_input>
W0NIM11bQ0BASF0xT1tDSDJdW0NIMl1bQ0BAXTEyW0NIMl1OKFtDSDJdW0NASF0oTzIpW0NIM10pYyhuW2NIXW4zKWMoYzM0KW5bY0hdbjRbQ0gyXVtDQEBdNShbT0hdKVtDSDJdW0NIMl1PW0NIMl01

> <s_epik_cmdline>
J2VwaWtfcHl0aG9uJywgJy1waCcsICc3LjAnLCAnLXRuJywgJzgnLCAnLW1hJywgJzIwMCcsICctbWV0YWxfYmluZGluZycsICctaW1hZScsICc8aW5maWxlLm1hZT4nLCAnLW9tYWUnLCAnPG91dGZpbGUubWFlPic=

> <r_lp_tautomer_probability>
1

> <r_epik_Ionization_Penalty>
0.00571331

> <r_epik_Ionization_Penalty_Charging>
0

> <r_epik_Ionization_Penalty_Neutral>
0.00571331

> <r_epik_State_Penalty>
0.00399586

> <r_epik_Charging_Adjusted_Penalty>
0.00399586

> <i_epik_Tot_Q>
0

> <i_epik_Tot_abs_Q>
0

> <r_epik_Metal_State_Penalty>
-0

> <b_epik_Metal_Only>
0

> <s_lp_Force_Field>
OPLS_2005

> <r_lp_Energy>
52.955

> <b_lp_Chiralities_Consistent>
1

> <s_lp_Variant>
AV-unprocessed.smi:281-10

> <Gold.Version>
5.8.1

> <Gold.Id.Protein>
6NUR|6NUR_protein|mol2

> <Gold.PLP.Fitness>
40.7246

> <Gold.PLP.PLP>
-32.5232

> <Gold.PLP.part.hbond>
-3.7459

> <Gold.PLP.part.metal>
0.0000

> <Gold.PLP.part.buried>
3.4665

> <Gold.PLP.part.nonpolar>
-32.4100

> <Gold.PLP.part.repulsive>
0.8053

> <Gold.PLP.ligand.clash>
0.0000

> <Gold.PLP.ligand.torsion>
0.7414

> <Gold.PLP.Chemscore.Hbond>
2.1410

> <Gold.PLP.Chemscore.CHOScore>
1.0000

> <Gold.PLP.Chemscore.Metal>
0.0000

> <Gold.Chemscore.Hbonds>
donor molecule, donor type, donor heavy atom, donor atom, acceptor molecule, acceptor atom, score
      L1  H    16    39       P1  7921  1.00
      P1  H  7989  7998       L1    28  0.99
      P1  H 10785 10796       L1    19  0.09
      L1  C    12    36       P1 10171  1.00

> <Gold.PLP.Chemscore.Internal.Correction>
0.2612

> <Gold.Rescore>
     Score         DG    S(hbond)    S(metal)    S(lipo)     H(rot)  DE(clash)    DE(int)     intcor
     12.66     -17.83       2.00        0.00      94.32       2.09       3.13       2.04       ----

> <Gold.Chemscore.Fitness>
12.6584

> <Gold.Chemscore.DG>
-17.8261

> <Gold.Chemscore.ZeroCoef>
-5.4800

> <Gold.Chemscore.Hbond>
1.9965

> <Gold.Chemscore.Metal>
0.0000

> <Gold.Chemscore.Lipo>
94.3185

> <Gold.Chemscore.Internal_Hbond>
0.0000

> <Gold.Chemscore.DEClash>
3.1309

> <Gold.Chemscore.DEInternal>
2.0369

> <Gold.Chemscore.Rot>
2.0927

> <Gold.Chemscore.Internal.Correction>
   9.000000E+99

> <Gold.Chemscore.Hbonds>
donor molecule, donor type, donor heavy atom, donor atom, acceptor molecule, acceptor atom, score
      L1  H    16    39       P1  7921  0.96
      P1  H  7989  7998       L1    28  0.31
      P1  H 10785 10796       L1    19  0.02

> <Gold.Chemscore.Hbond.Weighted>
-6.6682

> <Gold.Chemscore.Metal.Weighted>
-0.0000

> <Gold.Chemscore.Lipo.Weighted>
-11.0353

> <Gold.Chemscore.Internal_Hbond.Weighted>
0.0000

> <Gold.Chemscore.DEClash.Weighted>
3.1309

> <Gold.Chemscore.DEInternal.Weighted>
2.0369

> <Gold.Chemscore.Rot.Weighted>
5.3573

> <Gold.Chemscore.Internal.Correction.Weighted>
   9.000000E+99

> <Gold.Protein.RotatedTorsions>
[ 6907 6896 6895 6894 ] final  -76.91 input  -60.11 | X-H torsion
[ 7974 7965 7964 7962 ] final -149.45 input  175.53 | X-H torsion
[ 8008 7997 7996 7995 ] final -114.24 input   59.86 | X-H torsion
[ 10167 10162 10161 10158 ] final   41.13 input  -65.29 | X-H torsion
[ 10718 10713 10712 10709 ] final  -88.63 input   66.30 | X-H torsion
[ 10763 10752 10751 10750 ] final -168.56 input  -60.55 | X-H torsion
[ 11005 11000 10999 10996 ] final -140.40 input  -57.11 | X-H torsion

> <Gold.Protein.ActiveResidues>
 VAL166  LYS551  ARG553  GLY616  TRP617  ASP618  TYR619  PRO620  LYS621  CYS622 
 ASP623  PHE694  ASN695  SER759  ASP760  ASP761  ALA762  ILE779  LEU786  VAL792 
 PHE793  MET794  SER795  GLU796  ALA797  LYS798  CYS799  TRP800  GLU811  SER814 

> <Gold.Protein.RotatedAtoms>
  150.7014  134.4502  159.5332 H   0  0  0  0  0  0  0  0  0  0  0  0  # atno 6907 bound_to 6896
  152.2196  134.8423  160.0496 H   0  0  0  0  0  0  0  0  0  0  0  0  # atno 6908 bound_to 6896
  151.9278  133.3568  159.3957 H   0  0  0  0  0  0  0  0  0  0  0  0  # atno 6909 bound_to 6896
  144.7967  140.5063  143.5735 H   0  0  0  0  0  0  0  0  0  0  0  0  # atno 7974 bound_to 7965
  155.0332  140.0393  157.2482 H   0  0  0  0  0  0  0  0  0  0  0  0  # atno 8008 bound_to 7997
  154.7279  140.2725  155.6459 H   0  0  0  0  0  0  0  0  0  0  0  0  # atno 8009 bound_to 7997
  156.2834  140.2690  156.1970 H   0  0  0  0  0  0  0  0  0  0  0  0  # atno 8010 bound_to 7997
  140.3673  144.2150  150.6135 H   0  0  0  0  0  0  0  0  0  0  0  0  # atno 10167 bound_to 10162
  155.9983  130.4843  150.5049 H   0  0  0  0  0  0  0  0  0  0  0  0  # atno 10718 bound_to 10713
  154.6616  135.2926  154.9859 H   0  0  0  0  0  0  0  0  0  0  0  0  # atno 10763 bound_to 10752
  154.0917  135.6590  153.4857 H   0  0  0  0  0  0  0  0  0  0  0  0  # atno 10764 bound_to 10752
  153.0433  135.5221  154.7570 H   0  0  0  0  0  0  0  0  0  0  0  0  # atno 10765 bound_to 10752
  140.8426  134.2384  157.4802 H   0  0  0  0  0  0  0  0  0  0  0  0  # atno 11005 bound_to 11000
  145.5656  139.1481  143.3317 LP  0  0  0  0  0  0  0  0  0  0  0  0  # atno 17320 bound_to 7965
  146.2237  140.5791  142.9006 LP  0  0  0  0  0  0  0  0  0  0  0  0  # atno 17321 bound_to 7965
  140.5068  143.2302  151.8596 LP  0  0  0  0  0  0  0  0  0  0  0  0  # atno 17342 bound_to 10162
  139.4807  144.4996  151.9078 LP  0  0  0  0  0  0  0  0  0  0  0  0  # atno 17343 bound_to 10162
  157.3029  131.0649  151.2055 LP  0  0  0  0  0  0  0  0  0  0  0  0  # atno 17370 bound_to 10713
  157.3028  130.6851  149.6173 LP  0  0  0  0  0  0  0  0  0  0  0  0  # atno 17371 bound_to 10713
  139.8703  134.9643  156.4490 LP  0  0  0  0  0  0  0  0  0  0  0  0  # atno 17394 bound_to 11000
  140.8879  133.7870  155.9538 LP  0  0  0  0  0  0  0  0  0  0  0  0  # atno 17395 bound_to 11000

$$$$
