#       Name:                AV-unprocessed.smi:3004
#       Creating user name   scv26
#       Creation time:       Fri Mar 27 16:37:20 2020


#       File generated by GOLD software.
#

@<TRIPOS>MOLECULE
AV-unprocessed.smi:3004
    50    51     1
SMALL
NO_CHARGES


@<TRIPOS>ATOM
      1 ****        -4.7503   4.2810   0.9816 C.3            1 S1                 0.0000
      2 ****        -4.3696   3.2963  -0.0839 C.2            1 S1                 0.0000
      3 ****        -4.3463   3.4880  -1.4937 C.2            1 S1                 0.0000
      4 ****        -3.9307   2.2852  -1.9914 C.2            1 S1                 0.0000
      5 ****        -3.7076   1.8530  -3.4034 C.3            1 S1                 0.0000
      6 ****        -3.7276   1.4508  -0.9061 N.pl3          1 S1                 0.0000
      7 ****        -3.2764   0.0686  -0.8822 C.3            1 S1                 0.0000
      8 ****        -1.7496  -0.0126  -0.8553 C.2            1 S1                 0.0000
      9 ****        -1.1254  -0.2280  -1.8942 O.2            1 S1                 0.0000
     10 ****        -1.1595   0.1600   0.3382 N.am           1 S1                 0.0000
     11 ****         0.2801   0.1456   0.5688 C.3            1 S1                 0.0000
     12 ****         0.8437  -1.2884   0.5728 C.3            1 S1                 0.0000
     13 ****         2.3207  -1.2989   0.7680 N.4            1 S1                 1.0000
     14 ****         2.6596  -1.1909   2.2161 C.3            1 S1                 0.0000
     15 ****         4.1699  -1.0666   2.4516 C.3            1 S1                 0.0000
     16 ****         4.8972  -2.2661   1.8461 C.3            1 S1                 0.0000
     17 ****         4.5577  -2.3602   0.3572 C.3            1 S1                 0.0000
     18 ****         3.0350  -2.4360   0.0988 C.3            1 S1                 0.0000
     19 ****         2.8156  -2.4691  -1.4301 C.3            1 S1                 0.0000
     20 ****        -3.9965   2.0752   0.2616 N.2            1 S1                 0.0000
     21 ****        -5.0924   5.2200   0.5458 H              1 S1                 0.0000
     22 ****        -3.9028   4.5052   1.6297 H              1 S1                 0.0000
     23 ****        -5.5554   3.8930   1.6060 H              1 S1                 0.0000
     24 ****        -4.5973   4.3757  -2.0555 H              1 S1                 0.0000
     25 ****        -3.9117   2.6690  -4.0968 H              1 S1                 0.0000
     26 ****        -4.3631   1.0219  -3.6636 H              1 S1                 0.0000
     27 ****        -2.6764   1.5343  -3.5557 H              1 S1                 0.0000
     28 ****        -3.6951  -0.4353  -0.0093 H              1 S1                 0.0000
     29 ****        -3.6632  -0.4498  -1.7602 H              1 S1                 0.0000
     30 ****        -1.7520   0.3407   1.1365 H              1 S1                 0.0000
     31 ****         0.7796   0.7488  -0.1914 H              1 S1                 0.0000
     32 ****         0.4632   0.6378   1.5232 H              1 S1                 0.0000
     33 ****         0.3603  -1.8901   1.3441 H              1 S1                 0.0000
     34 ****         0.5631  -1.7528  -0.3674 H              1 S1                 0.0000
     35 ****         2.1668  -0.3238   2.6548 H              1 S1                 0.0000
     36 ****         2.2781  -2.0663   2.7446 H              1 S1                 0.0000
     37 ****         4.5412  -0.1413   2.0091 H              1 S1                 0.0000
     38 ****         4.3779  -1.0062   3.5202 H              1 S1                 0.0000
     39 ****         5.9744  -2.1644   1.9826 H              1 S1                 0.0000
     40 ****         4.5998  -3.1832   2.3564 H              1 S1                 0.0000
     41 ****         4.9749  -1.4938  -0.1588 H              1 S1                 0.0000
     42 ****         5.0525  -3.2347  -0.0673 H              1 S1                 0.0000
     43 ****         2.6596  -3.3681   0.5246 H              1 S1                 0.0000
     44 ****         3.4874  -3.1867  -1.9023 H              1 S1                 0.0000
     45 ****         3.0119  -1.4956  -1.8809 H              1 S1                 0.0000
     46 ****         1.8104  -2.7779  -1.7125 H              1 S1                 0.0000
     47 ****         2.6698  -0.4620   0.3229 H              1 S1                 0.0000
     48 ****        -1.6168  -0.3501  -2.7566 LP             1 S1                 0.0000
     49 ****        -0.1270  -0.2810  -1.8758 LP             1 S1                 0.0000
     50 ****        -3.9284   1.6970   1.1848 LP             1 S1                 0.0000
@<TRIPOS>BOND
    1    1    2 1     
    2    1   21 1     
    3    1   22 1     
    4    1   23 1     
    5    2   20 2     
    6    2    3 1     
    7    3    4 2     
    8    3   24 1     
    9    4    5 1     
   10    4    6 1     
   11    5   25 1     
   12    5   26 1     
   13    5   27 1     
   14    6    7 1     
   15    6   20 1     
   16    7    8 1     
   17    7   28 1     
   18    7   29 1     
   19    8    9 2     
   20    8   10 am    
   21   10   11 1     
   22   10   30 1     
   23   11   12 1     
   24   11   31 1     
   25   11   32 1     
   26   12   13 1     
   27   12   33 1     
   28   12   34 1     
   29   13   18 1     
   30   13   14 1     
   31   13   47 1     
   32   14   15 1     
   33   14   35 1     
   34   14   36 1     
   35   15   16 1     
   36   15   37 1     
   37   15   38 1     
   38   16   17 1     
   39   16   39 1     
   40   16   40 1     
   41   17   18 1     
   42   17   41 1     
   43   17   42 1     
   44   18   19 1     
   45   18   43 1     
   46   19   44 1     
   47   19   45 1     
   48   19   46 1     
   49    9   48 1     
   50    9   49 1     
   51   20   50 1     
@<TRIPOS>SUBSTRUCTURE
      1 S1             1
@<TRIPOS>SET
LONE_PAIRS      STATIC     ATOMS    <user>   **** ""
3 48 49 50
DONOR_HYDROGENS      STATIC     ATOMS    <user>   **** ""
2 30 47
ATOM$BLUE        STATIC     ATOMS    COLORGROUP SYSTEM
3 48 49 50
ATOM$RED        STATIC     ATOMS    COLORGROUP SYSTEM
2 30 47
