AV-unprocessed.smi:67|AV-procd|sdf|637|dock8
  -GOLD-   2262016533D 1   1.00000     0.00000
 Structure written by MMmdl.
 48 50  0  0  0  0  0  0  0  0  2 V2000
  148.0645  139.1184  155.0612 O   0  0  0  0  0  0  0  0  0  0  0  0
  148.5297  140.4563  155.0506 C   0  0  1  0  0  0  0  0  0  0  0  0
  150.0823  140.4417  155.0880 C   0  0  0  0  0  0  0  0  0  0  0  0
  150.6836  139.5821  156.1483 N   0  3  2  0  0  0  0  0  0  0  0  0
  150.5568  140.2120  157.4899 C   0  0  0  0  0  0  0  0  0  0  0  0
  151.0561  139.2825  158.6079 C   0  0  0  0  0  0  0  0  0  0  0  0
  152.5149  138.8513  158.3689 C   0  0  2  0  0  0  0  0  0  0  0  0
  153.4009  139.9683  158.4070 O   0  0  0  0  0  0  0  0  0  0  0  0
  153.2596  140.9310  159.3852 C   0  0  0  0  0  0  0  0  0  0  0  0
  153.6333  140.7653  160.7424 C   0  0  0  0  0  0  0  0  0  0  0  0
  153.4530  141.8151  161.6630 C   0  0  0  0  0  0  0  0  0  0  0  0
  152.8989  143.0383  161.2434 C   0  0  0  0  0  0  0  0  0  0  0  0
  152.5183  143.2189  159.8975 C   0  0  0  0  0  0  0  0  0  0  0  0
  151.9289  144.5436  159.4363 C   0  0  0  0  0  0  0  0  0  0  0  0
  150.6273  144.4207  159.1726 F   0  0  0  0  0  0  0  0  0  0  0  0
  152.0772  145.4806  160.3735 F   0  0  0  0  0  0  0  0  0  0  0  0
  152.5557  144.9398  158.3294 F   0  0  0  0  0  0  0  0  0  0  0  0
  152.7089  142.1640  158.9791 C   0  0  0  0  0  0  0  0  0  0  0  0
  152.6220  138.2229  156.9729 C   0  0  0  0  0  0  0  0  0  0  0  0
  152.0832  139.1576  155.8751 C   0  0  0  0  0  0  0  0  0  0  0  0
  147.9253  141.2596  153.8765 C   0  0  0  0  0  0  0  0  0  0  0  0
  146.9852  142.2781  154.5196 C   0  0  0  0  0  0  0  0  0  0  0  0
  147.5125  142.4695  155.8570 N   0  0  0  0  0  0  0  0  0  0  0  0
  147.9462  141.1553  156.2980 C   0  0  0  0  0  0  0  0  0  0  0  0
  148.2052  138.7559  155.9227 H   0  0  0  0  0  0  0  0  0  0  0  0
  150.4946  140.1806  154.1122 H   0  0  0  0  0  0  0  0  0  0  0  0
  150.4095  141.4646  155.2800 H   0  0  0  0  0  0  0  0  0  0  0  0
  151.1134  141.1504  157.5052 H   0  0  0  0  0  0  0  0  0  0  0  0
  149.5131  140.4623  157.6838 H   0  0  0  0  0  0  0  0  0  0  0  0
  150.9467  139.7782  159.5720 H   0  0  0  0  0  0  0  0  0  0  0  0
  150.4203  138.3972  158.6510 H   0  0  0  0  0  0  0  0  0  0  0  0
  152.8211  138.0959  159.0928 H   0  0  0  0  0  0  0  0  0  0  0  0
  154.0619  139.8449  161.1065 H   0  0  0  0  0  0  0  0  0  0  0  0
  153.7424  141.6821  162.6951 H   0  0  0  0  0  0  0  0  0  0  0  0
  152.7702  143.8376  161.9585 H   0  0  0  0  0  0  0  0  0  0  0  0
  152.4297  142.2974  157.9443 H   0  0  0  0  0  0  0  0  0  0  0  0
  153.6593  137.9608  156.7616 H   0  0  0  0  0  0  0  0  0  0  0  0
  152.0613  137.2873  156.9543 H   0  0  0  0  0  0  0  0  0  0  0  0
  152.1352  138.6146  154.9347 H   0  0  0  0  0  0  0  0  0  0  0  0
  152.7217  140.0369  155.7760 H   0  0  0  0  0  0  0  0  0  0  0  0
  148.7031  141.8080  153.3444 H   0  0  0  0  0  0  0  0  0  0  0  0
  147.4073  140.6349  153.1474 H   0  0  0  0  0  0  0  0  0  0  0  0
  146.9335  143.2139  153.9625 H   0  0  0  0  0  0  0  0  0  0  0  0
  145.9773  141.8648  154.5754 H   0  0  0  0  0  0  0  0  0  0  0  0
  146.7980  142.8401  156.4761 H   0  0  0  0  0  0  0  0  0  0  0  0
  147.0784  140.6058  156.6674 H   0  0  0  0  0  0  0  0  0  0  0  0
  148.6519  141.2244  157.1264 H   0  0  0  0  0  0  0  0  0  0  0  0
  150.1260  138.7401  156.1766 H   0  0  0  0  0  0  0  0  0  0  0  0
  1  2  1  0  0  0  0
  1 25  1  0  0  0  0
  2 24  1  0  0  0  0
  2  3  1  0  0  0  0
  2 21  1  0  0  0  0
  3  4  1  0  0  0  0
  3 26  1  0  0  0  0
  3 27  1  0  0  0  0
  4 20  1  0  0  0  0
  4  5  1  0  0  0  0
  4 48  1  0  0  0  0
  5  6  1  0  0  0  0
  5 28  1  0  0  0  0
  5 29  1  0  0  0  0
  6  7  1  0  0  0  0
  6 30  1  0  0  0  0
  6 31  1  0  0  0  0
  7  8  1  0  0  0  0
  7 19  1  0  0  0  0
  7 32  1  0  0  0  0
  8  9  1  0  0  0  0
  9 18  1  0  0  0  0
  9 10  2  0  0  0  0
 10 11  1  0  0  0  0
 10 33  1  0  0  0  0
 11 12  2  0  0  0  0
 11 34  1  0  0  0  0
 12 13  1  0  0  0  0
 12 35  1  0  0  0  0
 13 14  1  0  0  0  0
 13 18  2  0  0  0  0
 14 15  1  0  0  0  0
 14 16  1  0  0  0  0
 14 17  1  0  0  0  0
 18 36  1  0  0  0  0
 19 20  1  0  0  0  0
 19 37  1  0  0  0  0
 19 38  1  0  0  0  0
 20 39  1  0  0  0  0
 20 40  1  0  0  0  0
 21 22  1  0  0  0  0
 21 41  1  0  0  0  0
 21 42  1  0  0  0  0
 22 23  1  0  0  0  0
 22 43  1  0  0  0  0
 22 44  1  0  0  0  0
 23 24  1  0  0  0  0
 23 45  1  0  0  0  0
 24 46  1  0  0  0  0
 24 47  1  0  0  0  0
M  CHG  1   4   1
M  END
> <s_m_source_file>
AV-unprocessed.smi

> <i_m_source_file_index>
67

> <i_lp_mmshare_version>
43012

> <i_f3d_flags>
0

> <s_epik_input>
W0NIMl0xW05IXVtDSDJdW0NIMl1bQ0BAXTEoW09IXSlbQ0gyXU4yW0NIMl1bQ0gyXVtDSF0oW0NIMl1bQ0gyXTIpT2MzW2NIXVtjSF1bY0hdYyhDKEYpKEYpRilbY0hdMw==

> <s_epik_cmdline>
J2VwaWtfcHl0aG9uJywgJy1waCcsICc3LjAnLCAnLXRuJywgJzgnLCAnLW1hJywgJzIwMCcsICctbWV0YWxfYmluZGluZycsICctaW1hZScsICc8aW5maWxlLm1hZT4nLCAnLW9tYWUnLCAnPG91dGZpbGUubWFlPic=

> <r_epik_Ionization_Penalty>
2.37709

> <r_epik_Ionization_Penalty_Charging>
0.0305656

> <r_epik_Ionization_Penalty_Neutral>
2.34653

> <r_epik_State_Penalty>
2.56959

> <r_epik_Charging_Adjusted_Penalty>
2.60016

> <i_epik_Tot_Q>
1

> <i_epik_Tot_abs_Q>
1

> <r_epik_Metal_State_Penalty>
2.56925

> <b_epik_Metal_Only>
0

> <s_lp_Force_Field>
OPLS_2005

> <r_lp_Energy>
51.6978

> <b_lp_Chiralities_Consistent>
1

> <s_lp_Variant>
AV-unprocessed.smi:67-9

> <Gold.Version>
5.8.1

> <Gold.Id.Protein>
6NUR|6NUR_protein|mol2

> <Gold.PLP.Fitness>
57.3451

> <Gold.PLP.PLP>
-55.5270

> <Gold.PLP.part.hbond>
-2.0000

> <Gold.PLP.part.metal>
0.0000

> <Gold.PLP.part.buried>
-5.0528

> <Gold.PLP.part.nonpolar>
-48.0900

> <Gold.PLP.part.repulsive>
0.0676

> <Gold.PLP.ligand.clash>
1.0943

> <Gold.PLP.ligand.torsion>
0.9059

> <Gold.PLP.Chemscore.Hbond>
0.9920

> <Gold.PLP.Chemscore.CHOScore>
0.0000

> <Gold.PLP.Chemscore.Metal>
0.0000

> <Gold.Chemscore.Hbonds>
donor molecule, donor type, donor heavy atom, donor atom, acceptor molecule, acceptor atom, score
      P1  H  7997  8010       L1     8  1.00

> <Gold.PLP.Chemscore.Internal.Correction>
1.7482

> <Gold.Rescore>
     Score         DG    S(hbond)    S(metal)    S(lipo)     H(rot)  DE(clash)    DE(int)     intcor
     16.96     -17.70       0.86        0.00     127.42       2.17       0.10       0.64       ----

> <Gold.Chemscore.Fitness>
16.9578

> <Gold.Chemscore.DG>
-17.6971

> <Gold.Chemscore.ZeroCoef>
-5.4800

> <Gold.Chemscore.Hbond>
0.8603

> <Gold.Chemscore.Metal>
0.0000

> <Gold.Chemscore.Lipo>
127.4168

> <Gold.Chemscore.Internal_Hbond>
0.0000

> <Gold.Chemscore.DEClash>
0.0965

> <Gold.Chemscore.DEInternal>
0.6429

> <Gold.Chemscore.Rot>
2.1734

> <Gold.Chemscore.Internal.Correction>
   9.000000E+99

> <Gold.Chemscore.Hbonds>
donor molecule, donor type, donor heavy atom, donor atom, acceptor molecule, acceptor atom, score
      P1  H  7997  8010       L1     8  0.91

> <Gold.Chemscore.Hbond.Weighted>
-2.8733

> <Gold.Chemscore.Metal.Weighted>
-0.0000

> <Gold.Chemscore.Lipo.Weighted>
-14.9078

> <Gold.Chemscore.Internal_Hbond.Weighted>
0.0000

> <Gold.Chemscore.DEClash.Weighted>
0.0965

> <Gold.Chemscore.DEInternal.Weighted>
0.6429

> <Gold.Chemscore.Rot.Weighted>
5.5640

> <Gold.Chemscore.Internal.Correction.Weighted>
   9.000000E+99

> <Gold.Protein.RotatedTorsions>
[ 6907 6896 6895 6894 ] final  -28.41 input  -60.11 | X-H torsion
[ 7974 7965 7964 7962 ] final   -7.33 input  175.53 | X-H torsion
[ 8008 7997 7996 7995 ] final   21.76 input   59.86 | X-H torsion
[ 10167 10162 10161 10158 ] final  -48.67 input  -65.29 | X-H torsion
[ 10718 10713 10712 10709 ] final -116.03 input   66.30 | X-H torsion
[ 10763 10752 10751 10750 ] final -149.78 input  -60.55 | X-H torsion
[ 11005 11000 10999 10996 ] final  149.65 input  -57.11 | X-H torsion

> <Gold.Protein.ActiveResidues>
 VAL166  LYS551  ARG553  GLY616  TRP617  ASP618  TYR619  PRO620  LYS621  CYS622 
 ASP623  PHE694  ASN695  SER759  ASP760  ASP761  ALA762  ILE779  LEU786  VAL792 
 PHE793  MET794  SER795  GLU796  ALA797  LYS798  CYS799  TRP800  GLU811  SER814 

> <Gold.Protein.RotatedAtoms>
  151.1334  135.0142  159.8592 H   0  0  0  0  0  0  0  0  0  0  0  0  # atno 6907 bound_to 6896
  152.5451  134.1584  159.8557 H   0  0  0  0  0  0  0  0  0  0  0  0  # atno 6908 bound_to 6896
  151.1652  133.4774  159.2627 H   0  0  0  0  0  0  0  0  0  0  0  0  # atno 6909 bound_to 6896
  146.2309  140.2303  142.8340 H   0  0  0  0  0  0  0  0  0  0  0  0  # atno 7974 bound_to 7965
  154.9554  140.3071  155.5055 H   0  0  0  0  0  0  0  0  0  0  0  0  # atno 8008 bound_to 7997
  156.2983  140.2311  156.4574 H   0  0  0  0  0  0  0  0  0  0  0  0  # atno 8009 bound_to 7997
  154.8015  140.0434  157.1264 H   0  0  0  0  0  0  0  0  0  0  0  0  # atno 8010 bound_to 7997
  140.6720  143.2730  151.4105 H   0  0  0  0  0  0  0  0  0  0  0  0  # atno 10167 bound_to 10162
  156.0935  130.6113  150.8982 H   0  0  0  0  0  0  0  0  0  0  0  0  # atno 10718 bound_to 10713
  154.8157  135.3300  154.7181 H   0  0  0  0  0  0  0  0  0  0  0  0  # atno 10763 bound_to 10752
  153.7823  135.6917  153.4890 H   0  0  0  0  0  0  0  0  0  0  0  0  # atno 10764 bound_to 10752
  153.1972  135.4529  155.0170 H   0  0  0  0  0  0  0  0  0  0  0  0  # atno 10765 bound_to 10752
  140.1063  134.8952  157.1871 H   0  0  0  0  0  0  0  0  0  0  0  0  # atno 11005 bound_to 11000
  144.9563  140.8230  143.5541 LP  0  0  0  0  0  0  0  0  0  0  0  0  # atno 17320 bound_to 7965
  145.2269  139.2133  143.5063 LP  0  0  0  0  0  0  0  0  0  0  0  0  # atno 17321 bound_to 7965
  139.5993  144.1330  152.2180 LP  0  0  0  0  0  0  0  0  0  0  0  0  # atno 17342 bound_to 10162
  140.0709  144.5780  150.7193 LP  0  0  0  0  0  0  0  0  0  0  0  0  # atno 17343 bound_to 10162
  157.6091  131.0937  150.8827 LP  0  0  0  0  0  0  0  0  0  0  0  0  # atno 17370 bound_to 10713
  156.8970  130.5233  149.5284 LP  0  0  0  0  0  0  0  0  0  0  0  0  # atno 17371 bound_to 10713
  140.3151  134.2979  155.7258 LP  0  0  0  0  0  0  0  0  0  0  0  0  # atno 17394 bound_to 11000
  141.2119  133.7675  156.9832 LP  0  0  0  0  0  0  0  0  0  0  0  0  # atno 17395 bound_to 11000

$$$$
