AV-unprocessed.smi:1800|AV-procd|sdf|7266|dock7
  -GOLD-   22720 8523D 1   1.00000     0.00000
 Structure written by MMmdl.
 35 36  0  0  0  0  0  0  0  0  2 V2000
  153.1493  139.1008  160.1074 C   0  0  0  0  0  0  0  0  0  0  0  0
  152.6319  140.3216  159.3343 C   0  0  1  0  0  0  0  0  0  0  0  0
  153.2968  141.6354  159.8188 C   0  0  0  0  0  0  0  0  0  0  0  0
  152.7064  142.8510  159.2643 N   0  0  0  0  0  0  0  0  0  0  0  0
  152.7784  144.1456  159.7437 C   0  0  0  0  0  0  0  0  0  0  0  0
  152.0781  144.9415  158.8834 C   0  0  0  0  0  0  0  0  0  0  0  0
  151.6170  144.0374  157.8870 C   0  0  0  0  0  0  0  0  0  0  0  0
  152.0066  142.7929  158.1069 N   0  0  0  0  0  0  0  0  0  0  0  0
  152.8876  140.1245  157.9140 N   0  5  0  0  0  0  0  0  0  0  0  0
  152.1774  138.8936  157.1317 S   0  0  0  0  0  0  0  0  0  0  0  0
  153.1248  137.8056  156.8401 O   0  0  0  0  0  0  0  0  0  0  0  0
  150.8885  138.5079  157.7304 O   0  0  0  0  0  0  0  0  0  0  0  0
  151.7896  139.7101  155.5078 C   0  0  0  0  0  0  0  0  0  0  0  0
  150.7935  140.8643  155.6818 C   0  0  0  0  0  0  0  0  0  0  0  0
  149.3906  140.2531  155.5433 C   0  0  0  0  0  0  0  0  0  0  0  0
  149.5860  138.8376  154.9804 C   0  0  0  0  0  0  0  0  0  0  0  0
  151.0548  138.7572  154.5593 C   0  0  0  0  0  0  0  0  0  0  0  0
  152.9610  139.2077  161.1758 H   0  0  0  0  0  0  0  0  0  0  0  0
  154.2235  138.9675  159.9718 H   0  0  0  0  0  0  0  0  0  0  0  0
  152.6542  138.1864  159.7778 H   0  0  0  0  0  0  0  0  0  0  0  0
  151.5634  140.3968  159.5418 H   0  0  0  0  0  0  0  0  0  0  0  0
  153.2189  141.7034  160.9045 H   0  0  0  0  0  0  0  0  0  0  0  0
  154.3646  141.6250  159.5929 H   0  0  0  0  0  0  0  0  0  0  0  0
  153.3081  144.3858  160.6537 H   0  0  0  0  0  0  0  0  0  0  0  0
  151.9175  146.0064  158.9569 H   0  0  0  0  0  0  0  0  0  0  0  0
  151.0193  144.2477  157.0125 H   0  0  0  0  0  0  0  0  0  0  0  0
  152.7325  140.0409  155.0718 H   0  0  0  0  0  0  0  0  0  0  0  0
  150.9258  141.3941  156.6255 H   0  0  0  0  0  0  0  0  0  0  0  0
  150.9467  141.5915  154.8839 H   0  0  0  0  0  0  0  0  0  0  0  0
  148.8855  140.2108  156.5091 H   0  0  0  0  0  0  0  0  0  0  0  0
  148.7734  140.8605  154.8809 H   0  0  0  0  0  0  0  0  0  0  0  0
  149.3887  138.1026  155.7618 H   0  0  0  0  0  0  0  0  0  0  0  0
  148.9094  138.6227  154.1530 H   0  0  0  0  0  0  0  0  0  0  0  0
  151.1557  139.1224  153.5366 H   0  0  0  0  0  0  0  0  0  0  0  0
  151.4410  137.7383  154.5761 H   0  0  0  0  0  0  0  0  0  0  0  0
  1  2  1  0  0  0  0
  1 18  1  0  0  0  0
  1 19  1  0  0  0  0
  1 20  1  0  0  0  0
  2  3  1  0  0  0  0
  2  9  1  0  0  0  0
  2 21  1  0  0  0  0
  3  4  1  0  0  0  0
  3 22  1  0  0  0  0
  3 23  1  0  0  0  0
  4  8  1  0  0  0  0
  4  5  1  0  0  0  0
  5  6  2  0  0  0  0
  5 24  1  0  0  0  0
  6  7  1  0  0  0  0
  6 25  1  0  0  0  0
  7  8  2  0  0  0  0
  7 26  1  0  0  0  0
  9 10  1  0  0  0  0
 10 11  2  0  0  0  0
 10 12  2  0  0  0  0
 10 13  1  0  0  0  0
 13 17  1  0  0  0  0
 13 14  1  0  0  0  0
 13 27  1  0  0  0  0
 14 15  1  0  0  0  0
 14 28  1  0  0  0  0
 14 29  1  0  0  0  0
 15 16  1  0  0  0  0
 15 30  1  0  0  0  0
 15 31  1  0  0  0  0
 16 17  1  0  0  0  0
 16 32  1  0  0  0  0
 16 33  1  0  0  0  0
 17 34  1  0  0  0  0
 17 35  1  0  0  0  0
M  CHG  1   9  -1
M  END
> <s_m_source_file>
AV-unprocessed.smi

> <i_m_source_file_index>
1800

> <i_lp_mmshare_version>
43012

> <i_f3d_flags>
0

> <s_epik_input>
bjFbY0hdW2NIXVtjSF1uMVtDSDJdW0NAQEhdKFtDSDNdKVtOSF1TKD1PKSg9TylbQ0hdMltDSDJdW0NIMl1bQ0gyXVtDSDJdMg==

> <s_epik_cmdline>
J2VwaWtfcHl0aG9uJywgJy1waCcsICc3LjAnLCAnLXRuJywgJzgnLCAnLW1hJywgJzIwMCcsICctbWV0YWxfYmluZGluZycsICctaW1hZScsICc8aW5maWxlLm1hZT4nLCAnLW9tYWUnLCAnPG91dGZpbGUubWFlPic=

> <r_lp_tautomer_probability>
1

> <r_epik_Ionization_Penalty>
6.58538

> <r_epik_Ionization_Penalty_Charging>
6.58536

> <r_epik_Ionization_Penalty_Neutral>
2.3841e-05

> <r_epik_State_Penalty>
6.58535

> <r_epik_Charging_Adjusted_Penalty>
13.1707

> <i_epik_Tot_Q>
-1

> <i_epik_Tot_abs_Q>
1

> <r_epik_Metal_State_Penalty>
2.50999

> <b_epik_Metal_Only>
1

> <s_lp_Force_Field>
OPLS_2005

> <r_lp_Energy>
15.5507

> <b_lp_Chiralities_Consistent>
1

> <s_lp_Variant>
AV-unprocessed.smi:1800-4

> <Gold.Version>
5.8.1

> <Gold.Id.Protein>
6NUR|6NUR_protein|mol2

> <Gold.PLP.Fitness>
43.9889

> <Gold.PLP.PLP>
-35.8335

> <Gold.PLP.part.hbond>
-1.0000

> <Gold.PLP.part.metal>
0.0000

> <Gold.PLP.part.buried>
-0.4164

> <Gold.PLP.part.nonpolar>
-32.7170

> <Gold.PLP.part.repulsive>
0.0361

> <Gold.PLP.ligand.clash>
0.0000

> <Gold.PLP.ligand.torsion>
0.9711

> <Gold.PLP.Chemscore.Hbond>
2.0000

> <Gold.PLP.Chemscore.CHOScore>
1.0000

> <Gold.PLP.Chemscore.Metal>
0.0000

> <Gold.Chemscore.Hbonds>
donor molecule, donor type, donor heavy atom, donor atom, acceptor molecule, acceptor atom, score
      P1  H  7997  8010       L1     9  1.50
      L1  C     7    26       P1  8028  0.97

> <Gold.PLP.Chemscore.Internal.Correction>
1.0976

> <Gold.Rescore>
     Score         DG    S(hbond)    S(metal)    S(lipo)     H(rot)  DE(clash)    DE(int)     intcor
     12.94     -15.34       0.82        0.00      93.95       1.51       0.06       2.34       ----

> <Gold.Chemscore.Fitness>
12.9428

> <Gold.Chemscore.DG>
-15.3417

> <Gold.Chemscore.ZeroCoef>
-5.4800

> <Gold.Chemscore.Hbond>
0.8224

> <Gold.Chemscore.Metal>
0.0000

> <Gold.Chemscore.Lipo>
93.9507

> <Gold.Chemscore.Internal_Hbond>
0.0000

> <Gold.Chemscore.DEClash>
0.0598

> <Gold.Chemscore.DEInternal>
2.3391

> <Gold.Chemscore.Rot>
1.5146

> <Gold.Chemscore.Internal.Correction>
   9.000000E+99

> <Gold.Chemscore.Hbonds>
donor molecule, donor type, donor heavy atom, donor atom, acceptor molecule, acceptor atom, score
      P1  H  7997  8010       L1     9  0.09

> <Gold.Chemscore.Hbond.Weighted>
-2.7468

> <Gold.Chemscore.Metal.Weighted>
-0.0000

> <Gold.Chemscore.Lipo.Weighted>
-10.9922

> <Gold.Chemscore.Internal_Hbond.Weighted>
0.0000

> <Gold.Chemscore.DEClash.Weighted>
0.0598

> <Gold.Chemscore.DEInternal.Weighted>
2.3391

> <Gold.Chemscore.Rot.Weighted>
3.8773

> <Gold.Chemscore.Internal.Correction.Weighted>
   9.000000E+99

> <Gold.Protein.RotatedTorsions>
[ 6907 6896 6895 6894 ] final  -18.60 input  -60.11 | X-H torsion
[ 7974 7965 7964 7962 ] final  -65.16 input  175.53 | X-H torsion
[ 8008 7997 7996 7995 ] final   44.43 input   59.86 | X-H torsion
[ 10167 10162 10161 10158 ] final  -42.94 input  -65.29 | X-H torsion
[ 10718 10713 10712 10709 ] final  -22.23 input   66.30 | X-H torsion
[ 10763 10752 10751 10750 ] final  -24.94 input  -60.55 | X-H torsion
[ 11005 11000 10999 10996 ] final  110.83 input  -57.11 | X-H torsion

> <Gold.Protein.ActiveResidues>
 VAL166  LYS551  ARG553  GLY616  TRP617  ASP618  TYR619  PRO620  LYS621  CYS622 
 ASP623  PHE694  ASN695  SER759  ASP760  ASP761  ALA762  ILE779  LEU786  VAL792 
 PHE793  MET794  SER795  GLU796  ALA797  LYS798  CYS799  TRP800  GLU811  SER814 

> <Gold.Protein.RotatedAtoms>
  151.2758  135.0698  159.9150 H   0  0  0  0  0  0  0  0  0  0  0  0  # atno 6907 bound_to 6896
  152.5343  134.0083  159.7937 H   0  0  0  0  0  0  0  0  0  0  0  0  # atno 6908 bound_to 6896
  151.0328  133.5724  159.2690 H   0  0  0  0  0  0  0  0  0  0  0  0  # atno 6909 bound_to 6896
  145.7577  140.8877  143.0446 H   0  0  0  0  0  0  0  0  0  0  0  0  # atno 7974 bound_to 7965
  155.3192  140.3396  155.4241 H   0  0  0  0  0  0  0  0  0  0  0  0  # atno 8008 bound_to 7997
  156.1917  140.1700  156.8116 H   0  0  0  0  0  0  0  0  0  0  0  0  # atno 8009 bound_to 7997
  154.5450  140.0717  156.8557 H   0  0  0  0  0  0  0  0  0  0  0  0  # atno 8010 bound_to 7997
  140.6951  143.3010  151.3281 H   0  0  0  0  0  0  0  0  0  0  0  0  # atno 10167 bound_to 10162
  156.5074  130.4602  149.6667 H   0  0  0  0  0  0  0  0  0  0  0  0  # atno 10718 bound_to 10713
  153.6919  135.6961  153.5087 H   0  0  0  0  0  0  0  0  0  0  0  0  # atno 10763 bound_to 10752
  153.2407  135.4307  155.0694 H   0  0  0  0  0  0  0  0  0  0  0  0  # atno 10764 bound_to 10752
  154.8370  135.3507  154.6460 H   0  0  0  0  0  0  0  0  0  0  0  0  # atno 10765 bound_to 10752
  139.8890  134.9493  156.6339 H   0  0  0  0  0  0  0  0  0  0  0  0  # atno 11005 bound_to 11000
  144.6837  139.9679  143.7481 LP  0  0  0  0  0  0  0  0  0  0  0  0  # atno 17320 bound_to 7965
  146.0295  139.3322  143.0764 LP  0  0  0  0  0  0  0  0  0  0  0  0  # atno 17321 bound_to 7965
  139.6397  144.0562  152.2545 LP  0  0  0  0  0  0  0  0  0  0  0  0  # atno 17342 bound_to 10162
  140.0063  144.6256  150.7685 LP  0  0  0  0  0  0  0  0  0  0  0  0  # atno 17343 bound_to 10162
  156.3274  130.7313  151.2236 LP  0  0  0  0  0  0  0  0  0  0  0  0  # atno 17370 bound_to 10713
  157.7455  131.0439  150.4768 LP  0  0  0  0  0  0  0  0  0  0  0  0  # atno 17371 bound_to 10713
  140.7645  133.8790  155.8444 LP  0  0  0  0  0  0  0  0  0  0  0  0  # atno 17394 bound_to 11000
  140.9894  134.1299  157.4422 LP  0  0  0  0  0  0  0  0  0  0  0  0  # atno 17395 bound_to 11000

$$$$
