#       Name:                AV-unprocessed.smi:2854
#       Creating user name   scv26
#       Creation time:       Fri Mar 27 15:43:02 2020


#       File generated by GOLD software.
#

@<TRIPOS>MOLECULE
AV-unprocessed.smi:2854
    30    31     1
SMALL
NO_CHARGES


@<TRIPOS>ATOM
      1 ****        -1.8359   1.8506   0.0095 N.pl3          1 S1                 0.0000
      2 ****        -0.4400   1.8889   0.0077 C.ar           1 S1                 0.0000
      3 ****         0.2180   3.1370   0.0073 C.ar           1 S1                 0.0000
      4 ****         1.5671   3.1911   0.0051 N.pl3          1 S1                 1.0000
      5 ****         2.3427   2.0863   0.0033 C.ar           1 S1                 0.0000
      6 ****         1.7455   0.8101   0.0037 C.ar           1 S1                 0.0000
      7 ****         0.3337   0.6997   0.0062 C.ar           1 S1                 0.0000
      8 ****        -0.2938  -0.5569   0.0051 N.3            1 S1                 0.0000
      9 ****        -0.0755  -1.3184  -1.2183 C.3            1 S1                 0.0000
     10 ****        -0.9081  -2.6118  -1.1875 C.3            1 S1                 0.0000
     11 ****        -0.5876  -3.3566  -0.0159 O.3            1 S1                 0.0000
     12 ****        -0.8802  -2.6322   1.1757 C.3            1 S1                 0.0000
     13 ****        -0.0461  -1.3398   1.2093 C.3            1 S1                 0.0000
     14 ****        -2.3466   0.9793   0.0098 H              1 S1                 0.0000
     15 ****        -2.3822   2.7009   0.0157 H              1 S1                 0.0000
     16 ****        -0.2902   4.0904   0.0084 H              1 S1                 0.0000
     17 ****         3.4098   2.2546   0.0011 H              1 S1                 0.0000
     18 ****         2.3684  -0.0725   0.0014 H              1 S1                 0.0000
     19 ****        -0.3524  -0.7157  -2.0841 H              1 S1                 0.0000
     20 ****         0.9825  -1.5641  -1.3193 H              1 S1                 0.0000
     21 ****        -1.9761  -2.3883  -1.2083 H              1 S1                 0.0000
     22 ****        -0.6923  -3.2194  -2.0663 H              1 S1                 0.0000
     23 ****        -1.9472  -2.4090   1.2254 H              1 S1                 0.0000
     24 ****        -0.6443  -3.2552   2.0385 H              1 S1                 0.0000
     25 ****         1.0136  -1.5881   1.2808 H              1 S1                 0.0000
     26 ****        -0.3018  -0.7523   2.0919 H              1 S1                 0.0000
     27 ****         2.0190   4.1060   0.0046 H              1 S1                 0.0000
     28 ****        -1.2713  -0.3465   0.0209 LP             1 S1                 0.0000
     29 ****         0.3882  -3.5748  -0.0293 LP             1 S1                 0.0000
     30 ****        -1.1187  -4.2038  -0.0170 LP             1 S1                 0.0000
@<TRIPOS>BOND
    1    1    2 1     
    2    1   14 1     
    3    1   15 1     
    4    2    7 ar    
    5    2    3 ar    
    6    3    4 ar    
    7    3   16 1     
    8    4    5 ar    
    9    4   27 1     
   10    5    6 ar    
   11    5   17 1     
   12    6    7 ar    
   13    6   18 1     
   14    7    8 1     
   15    8   13 1     
   16    8    9 1     
   17    9   10 1     
   18    9   19 1     
   19    9   20 1     
   20   10   11 1     
   21   10   21 1     
   22   10   22 1     
   23   11   12 1     
   24   12   13 1     
   25   12   23 1     
   26   12   24 1     
   27   13   25 1     
   28   13   26 1     
   29    8   28 1     
   30   11   29 1     
   31   11   30 1     
@<TRIPOS>SUBSTRUCTURE
      1 S1             1
@<TRIPOS>SET
LONE_PAIRS      STATIC     ATOMS    <user>   **** ""
3 28 29 30
DONOR_HYDROGENS      STATIC     ATOMS    <user>   **** ""
3 14 15 27
ATOM$BLUE        STATIC     ATOMS    COLORGROUP SYSTEM
3 28 29 30
ATOM$RED        STATIC     ATOMS    COLORGROUP SYSTEM
3 14 15 27
