AV-unprocessed.smi:1682|AV-procd|sdf|6743|dock5
  -GOLD-   22720 7493D 1   1.00000     0.00000
 Structure written by MMmdl.
 38 39  0  0  0  0  0  0  0  0  1 V2000
  152.8128  139.7145  154.6958 O   0  0  0  0  0  0  0  0  0  0  0  0
  151.8777  139.2086  155.3175 C   0  0  0  0  0  0  0  0  0  0  0  0
  151.4355  139.6818  156.4926 N   0  0  0  0  0  0  0  0  0  0  0  0
  152.0053  140.8233  157.1990 C   0  0  0  0  0  0  0  0  0  0  0  0
  151.3938  140.9795  158.6016 C   0  0  0  0  0  0  0  0  0  0  0  0
  151.6525  142.3517  159.1935 C   0  0  0  0  0  0  0  0  0  0  0  0
  152.3605  142.4894  160.4065 C   0  0  0  0  0  0  0  0  0  0  0  0
  152.5772  143.7852  160.9131 C   0  0  0  0  0  0  0  0  0  0  0  0
  152.0814  144.8875  160.1908 C   0  0  0  0  0  0  0  0  0  0  0  0
  151.3887  144.6438  158.9882 C   0  0  0  0  0  0  0  0  0  0  0  0
  151.1758  143.4052  158.4931 N   0  0  0  0  0  0  0  0  0  0  0  0
  151.1592  137.9696  154.7602 C   0  0  2  0  0  0  0  0  0  0  0  0
  149.6575  138.2434  154.5432 C   0  0  0  0  0  0  0  0  0  0  0  0
  148.9751  137.4112  155.6165 C   0  0  0  0  0  0  0  0  0  0  0  0
  147.7641  137.4572  155.8254 O   0  0  0  0  0  0  0  0  0  0  0  0
  149.8629  136.6606  156.2770 N   0  0  0  0  0  0  0  0  0  0  0  0
  149.5793  135.7501  157.3841 C   0  0  0  0  0  0  0  0  0  0  0  0
  149.2852  136.5004  158.6956 C   0  0  0  0  0  0  0  0  0  0  0  0
  150.3367  137.2562  159.0081 F   0  0  0  0  0  0  0  0  0  0  0  0
  148.2225  137.2916  158.5480 F   0  0  0  0  0  0  0  0  0  0  0  0
  149.0626  135.6505  159.6976 F   0  0  0  0  0  0  0  0  0  0  0  0
  151.2072  136.7742  155.7355 C   0  0  0  0  0  0  0  0  0  0  0  0
  150.6602  139.2105  156.9355 H   0  0  0  0  0  0  0  0  0  0  0  0
  153.0898  140.7194  157.2645 H   0  0  0  0  0  0  0  0  0  0  0  0
  151.8145  141.7187  156.6066 H   0  0  0  0  0  0  0  0  0  0  0  0
  150.3171  140.8084  158.5611 H   0  0  0  0  0  0  0  0  0  0  0  0
  151.7975  140.2231  159.2758 H   0  0  0  0  0  0  0  0  0  0  0  0
  152.7299  141.6239  160.9368 H   0  0  0  0  0  0  0  0  0  0  0  0
  153.1140  143.9309  161.8389 H   0  0  0  0  0  0  0  0  0  0  0  0
  152.2283  145.8953  160.5496 H   0  0  0  0  0  0  0  0  0  0  0  0
  150.9957  145.4657  158.4084 H   0  0  0  0  0  0  0  0  0  0  0  0
  151.6240  137.6857  153.8143 H   0  0  0  0  0  0  0  0  0  0  0  0
  149.3831  139.2952  154.6420 H   0  0  0  0  0  0  0  0  0  0  0  0
  149.3335  137.9022  153.5597 H   0  0  0  0  0  0  0  0  0  0  0  0
  148.7360  135.1083  157.1237 H   0  0  0  0  0  0  0  0  0  0  0  0
  150.4334  135.0862  157.5246 H   0  0  0  0  0  0  0  0  0  0  0  0
  151.4607  135.8547  155.2063 H   0  0  0  0  0  0  0  0  0  0  0  0
  151.9371  136.9039  156.5363 H   0  0  0  0  0  0  0  0  0  0  0  0
  1  2  2  0  0  0  0
  2  3  1  0  0  0  0
  2 12  1  0  0  0  0
  3  4  1  0  0  0  0
  3 23  1  0  0  0  0
  4  5  1  0  0  0  0
  4 24  1  0  0  0  0
  4 25  1  0  0  0  0
  5  6  1  0  0  0  0
  5 26  1  0  0  0  0
  5 27  1  0  0  0  0
  6 11  1  0  0  0  0
  6  7  2  0  0  0  0
  7  8  1  0  0  0  0
  7 28  1  0  0  0  0
  8  9  2  0  0  0  0
  8 29  1  0  0  0  0
  9 10  1  0  0  0  0
  9 30  1  0  0  0  0
 10 11  2  0  0  0  0
 10 31  1  0  0  0  0
 12 22  1  0  0  0  0
 12 13  1  0  0  0  0
 12 32  1  0  0  0  0
 13 14  1  0  0  0  0
 13 33  1  0  0  0  0
 13 34  1  0  0  0  0
 14 15  2  0  0  0  0
 14 16  1  0  0  0  0
 16 17  1  0  0  0  0
 16 22  1  0  0  0  0
 17 18  1  0  0  0  0
 17 35  1  0  0  0  0
 17 36  1  0  0  0  0
 18 19  1  0  0  0  0
 18 20  1  0  0  0  0
 18 21  1  0  0  0  0
 22 37  1  0  0  0  0
 22 38  1  0  0  0  0
M  END
> <s_m_source_file>
AV-unprocessed.smi

> <i_m_source_file_index>
1682

> <i_lp_mmshare_version>
43012

> <i_f3d_flags>
0

> <s_epik_input>
RkMoRikoRilbQ0gyXU4oW0NIMl0xKUMoPU8pW0NIMl1bQ0BIXTFDKD1PKVtOSF1bQ0gyXVtDSDJdYzJbY0hdW2NIXVtjSF1bY0hdbjI=

> <s_epik_cmdline>
J2VwaWtfcHl0aG9uJywgJy1waCcsICc3LjAnLCAnLXRuJywgJzgnLCAnLW1hJywgJzIwMCcsICctbWV0YWxfYmluZGluZycsICctaW1hZScsICc8aW5maWxlLm1hZT4nLCAnLW9tYWUnLCAnPG91dGZpbGUubWFlPic=

> <r_epik_Ionization_Penalty>
0.0252359

> <r_epik_Ionization_Penalty_Charging>
0

> <r_epik_Ionization_Penalty_Neutral>
0.0252359

> <r_epik_State_Penalty>
0.020532

> <r_epik_Charging_Adjusted_Penalty>
0.020532

> <i_epik_Tot_Q>
0

> <i_epik_Tot_abs_Q>
0

> <r_epik_Metal_State_Penalty>
0.0196899

> <b_epik_Metal_Only>
0

> <s_lp_Force_Field>
OPLS_2005

> <r_lp_Energy>
9.5977

> <b_lp_Chiralities_Consistent>
1

> <s_lp_Variant>
AV-unprocessed.smi:1682-1

> <Gold.Version>
5.8.1

> <Gold.Id.Protein>
6NUR|6NUR_protein|mol2

> <Gold.PLP.Fitness>
42.0364

> <Gold.PLP.PLP>
-38.8250

> <Gold.PLP.part.hbond>
-2.0000

> <Gold.PLP.part.metal>
0.0000

> <Gold.PLP.part.buried>
-7.4449

> <Gold.PLP.part.nonpolar>
-30.2069

> <Gold.PLP.part.repulsive>
0.2841

> <Gold.PLP.ligand.clash>
0.0000

> <Gold.PLP.ligand.torsion>
0.2412

> <Gold.PLP.Chemscore.Hbond>
1.1969

> <Gold.PLP.Chemscore.CHOScore>
0.0000

> <Gold.PLP.Chemscore.Metal>
0.0000

> <Gold.Chemscore.Hbonds>
donor molecule, donor type, donor heavy atom, donor atom, acceptor molecule, acceptor atom, score
      P1  H  7989  7998       L1     1  0.38
      P1  H  7997  8010       L1     1  0.88

> <Gold.PLP.Chemscore.Internal.Correction>
0.1031

> <Gold.Rescore>
     Score         DG    S(hbond)    S(metal)    S(lipo)     H(rot)  DE(clash)    DE(int)     intcor
     12.57     -14.30       0.98        0.00      93.02       2.09       0.06       1.67       ----

> <Gold.Chemscore.Fitness>
12.5721

> <Gold.Chemscore.DG>
-14.3039

> <Gold.Chemscore.ZeroCoef>
-5.4800

> <Gold.Chemscore.Hbond>
0.9843

> <Gold.Chemscore.Metal>
0.0000

> <Gold.Chemscore.Lipo>
93.0156

> <Gold.Chemscore.Internal_Hbond>
0.0000

> <Gold.Chemscore.DEClash>
0.0572

> <Gold.Chemscore.DEInternal>
1.6746

> <Gold.Chemscore.Rot>
2.0884

> <Gold.Chemscore.Internal.Correction>
   9.000000E+99

> <Gold.Chemscore.Hbonds>
donor molecule, donor type, donor heavy atom, donor atom, acceptor molecule, acceptor atom, score
      P1  H  7989  7998       L1     1  0.06
      P1  H  7997  8010       L1     1  0.75

> <Gold.Chemscore.Hbond.Weighted>
-3.2874

> <Gold.Chemscore.Metal.Weighted>
-0.0000

> <Gold.Chemscore.Lipo.Weighted>
-10.8828

> <Gold.Chemscore.Internal_Hbond.Weighted>
0.0000

> <Gold.Chemscore.DEClash.Weighted>
0.0572

> <Gold.Chemscore.DEInternal.Weighted>
1.6746

> <Gold.Chemscore.Rot.Weighted>
5.3464

> <Gold.Chemscore.Internal.Correction.Weighted>
   9.000000E+99

> <Gold.Protein.RotatedTorsions>
[ 6907 6896 6895 6894 ] final -158.18 input  -60.11 | X-H torsion
[ 7974 7965 7964 7962 ] final    1.26 input  175.53 | X-H torsion
[ 8008 7997 7996 7995 ] final  104.30 input   59.86 | X-H torsion
[ 10167 10162 10161 10158 ] final   21.76 input  -65.29 | X-H torsion
[ 10718 10713 10712 10709 ] final   93.68 input   66.30 | X-H torsion
[ 10763 10752 10751 10750 ] final   39.82 input  -60.55 | X-H torsion
[ 11005 11000 10999 10996 ] final  -15.88 input  -57.11 | X-H torsion

> <Gold.Protein.ActiveResidues>
 VAL166  LYS551  ARG553  GLY616  TRP617  ASP618  TYR619  PRO620  LYS621  CYS622 
 ASP623  PHE694  ASN695  SER759  ASP760  ASP761  ALA762  ILE779  LEU786  VAL792 
 PHE793  MET794  SER795  GLU796  ALA797  LYS798  CYS799  TRP800  GLU811  SER814 

> <Gold.Protein.RotatedAtoms>
  151.3142  133.4067  159.2649 H   0  0  0  0  0  0  0  0  0  0  0  0  # atno 6907 bound_to 6896
  151.0088  134.9381  159.8006 H   0  0  0  0  0  0  0  0  0  0  0  0  # atno 6908 bound_to 6896
  152.5295  134.3107  159.9165 H   0  0  0  0  0  0  0  0  0  0  0  0  # atno 6909 bound_to 6896
  146.2439  140.1014  142.8347 H   0  0  0  0  0  0  0  0  0  0  0  0  # atno 7974 bound_to 7965
  156.1560  140.3150  155.8727 H   0  0  0  0  0  0  0  0  0  0  0  0  # atno 8008 bound_to 7997
  155.3877  140.0491  157.3059 H   0  0  0  0  0  0  0  0  0  0  0  0  # atno 8009 bound_to 7997
  154.5102  140.2161  155.9183 H   0  0  0  0  0  0  0  0  0  0  0  0  # atno 8010 bound_to 7997
  140.5402  143.9691  150.6514 H   0  0  0  0  0  0  0  0  0  0  0  0  # atno 10167 bound_to 10162
  157.6953  131.0486  150.4071 H   0  0  0  0  0  0  0  0  0  0  0  0  # atno 10718 bound_to 10713
  152.9955  135.6209  154.2526 H   0  0  0  0  0  0  0  0  0  0  0  0  # atno 10763 bound_to 10752
  154.2265  135.2794  155.2907 H   0  0  0  0  0  0  0  0  0  0  0  0  # atno 10764 bound_to 10752
  154.5485  135.5740  153.6960 H   0  0  0  0  0  0  0  0  0  0  0  0  # atno 10765 bound_to 10752
  140.8011  133.8213  155.9471 H   0  0  0  0  0  0  0  0  0  0  0  0  # atno 11005 bound_to 11000
  145.0565  140.9056  143.4964 LP  0  0  0  0  0  0  0  0  0  0  0  0  # atno 17320 bound_to 7965
  145.1122  139.2749  143.5632 LP  0  0  0  0  0  0  0  0  0  0  0  0  # atno 17321 bound_to 7965
  140.3089  143.3211  152.0898 LP  0  0  0  0  0  0  0  0  0  0  0  0  # atno 17342 bound_to 10162
  139.4986  144.6649  151.6380 LP  0  0  0  0  0  0  0  0  0  0  0  0  # atno 17343 bound_to 10162
  156.4459  130.4001  149.6667 LP  0  0  0  0  0  0  0  0  0  0  0  0  # atno 17370 bound_to 10713
  156.3834  130.7590  151.2585 LP  0  0  0  0  0  0  0  0  0  0  0  0  # atno 17371 bound_to 10713
  140.9293  134.2042  157.4874 LP  0  0  0  0  0  0  0  0  0  0  0  0  # atno 17394 bound_to 11000
  139.8721  134.9826  156.5163 LP  0  0  0  0  0  0  0  0  0  0  0  0  # atno 17395 bound_to 11000

$$$$
