#       Name:                AV-unprocessed.smi:54
#       Creating user name   scv26
#       Creation time:       Thu Mar 26 16:45:06 2020


#       File generated by GOLD software.
#

@<TRIPOS>MOLECULE
AV-unprocessed.smi:54
    58    60     1
SMALL
NO_CHARGES


@<TRIPOS>ATOM
      1 ****        -0.8467   5.5266  -1.0762 C.3            1 S1                 0.0000
      2 ****        -1.1255   4.9104   0.3047 C.3            1 S1                 0.0000
      3 ****        -0.2103   5.5154   1.3825 C.3            1 S1                 0.0000
      4 ****        -0.9748   3.3834   0.2590 C.2            1 S1                 0.0000
      5 ****         0.1306   2.8961   0.0102 O.2            1 S1                 0.0000
      6 ****        -2.1054   2.6831   0.5017 N.am           1 S1                 0.0000
      7 ****        -2.2941   1.2968   0.5366 C.2            1 S1                 0.0000
      8 ****        -1.2631   0.4840   0.4694 N.2            1 S1                 0.0000
      9 ****        -1.6367  -0.8439   0.5270 C.2            1 S1                 0.0000
     10 ****        -2.8991  -1.3574   0.6399 C.2            1 S1                 0.0000
     11 ****        -2.8819  -2.7473   0.6621 N.2            1 S1                 0.0000
     12 ****        -1.5796  -3.0111   0.5595 C.2            1 S1                 0.0000
     13 ****        -0.7755  -1.9313   0.4767 N.pl3          1 S1                 0.0000
     14 ****         0.7131  -1.8950   0.3543 C.3            1 S1                 0.0000
     15 ****         1.2390  -3.1127   0.7689 O.3            1 S1                 0.0000
     16 ****         2.5066  -3.3154   0.1490 C.3            1 S1                 0.0000
     17 ****         2.5881  -4.7877  -0.2822 C.3            1 S1                 0.0000
     18 ****         3.8945  -5.1020  -0.7162 O.3            1 S1                 0.0000
     19 ****         2.5778  -2.3164  -1.0268 C.3            1 S1                 0.0000
     20 ****         3.5347  -1.3165  -0.7331 O.3            1 S1                 0.0000
     21 ****         1.1868  -1.6995  -1.0867 C.3            1 S1                 0.0000
     22 ****         0.3764  -2.3737  -2.0328 O.3            1 S1                 0.0000
     23 ****        -4.0122  -0.3812   0.7144 C.2            1 S1                 0.0000
     24 ****        -5.1656  -0.7946   0.8171 O.2            1 S1                 0.0000
     25 ****        -3.6447   0.9350   0.6619 N.pl3          1 S1                -1.0000
     26 ****         1.0417  -1.0992   1.0248 H              1 S1                 0.0000
     27 ****         3.2793  -3.1071   0.8916 H              1 S1                 0.0000
     28 ****         2.8607  -2.7876  -1.9693 H              1 S1                 0.0000
     29 ****         1.1970  -0.6370  -1.3354 H              1 S1                 0.0000
     30 ****        -1.4935   5.0943  -1.8409 H              1 S1                 0.0000
     31 ****         0.1873   5.3690  -1.3858 H              1 S1                 0.0000
     32 ****        -1.0277   6.6016  -1.0660 H              1 S1                 0.0000
     33 ****        -2.1566   5.1463   0.5735 H              1 S1                 0.0000
     34 ****        -0.3941   5.0629   2.3579 H              1 S1                 0.0000
     35 ****        -0.3824   6.5874   1.4821 H              1 S1                 0.0000
     36 ****         0.8439   5.3715   1.1420 H              1 S1                 0.0000
     37 ****        -2.9298   3.2439   0.6579 H              1 S1                 0.0000
     38 ****        -1.2001  -4.0221   0.5425 H              1 S1                 0.0000
     39 ****         2.3431  -5.4380   0.5579 H              1 S1                 0.0000
     40 ****         1.8726  -5.0029  -1.0766 H              1 S1                 0.0000
     41 ****         3.9203  -6.0162  -0.9547 H              1 S1                 0.0000
     42 ****         4.3824  -1.7271  -0.6573 H              1 S1                 0.0000
     43 ****         0.3215  -3.2836  -1.7848 H              1 S1                 0.0000
     44 ****         0.9142   3.4941  -0.1586 LP             1 S1                 0.0000
     45 ****         0.2433   1.9030  -0.0228 LP             1 S1                 0.0000
     46 ****        -0.3155   0.7925   0.3860 LP             1 S1                 0.0000
     47 ****        -3.6488  -3.3847   0.7360 LP             1 S1                 0.0000
     48 ****         0.6176  -3.8512   0.5073 LP             1 S1                 0.0000
     49 ****         1.3505  -3.1072   1.7626 LP             1 S1                 0.0000
     50 ****         4.5461  -4.9277   0.0221 LP             1 S1                 0.0000
     51 ****         4.1308  -4.5400  -1.5089 LP             1 S1                 0.0000
     52 ****         3.2993  -0.8666   0.1284 LP             1 S1                 0.0000
     53 ****         3.5522  -0.6395  -1.4688 LP             1 S1                 0.0000
     54 ****         0.7839  -2.2958  -2.9427 LP             1 S1                 0.0000
     55 ****        -0.5386  -1.9705  -2.0417 LP             1 S1                 0.0000
     56 ****        -5.3432  -1.7782   0.8494 LP             1 S1                 0.0000
     57 ****        -5.9260  -0.1473   0.8683 LP             1 S1                 0.0000
     58 ****        -4.3451   1.6469   0.7133 LP             1 S1                 0.0000
@<TRIPOS>BOND
    1    1    2 1     
    2    1   30 1     
    3    1   31 1     
    4    1   32 1     
    5    2    3 1     
    6    2    4 1     
    7    2   33 1     
    8    3   34 1     
    9    3   35 1     
   10    3   36 1     
   11    4    5 2     
   12    4    6 am    
   13    6   37 1     
   14    6    7 1     
   15    7   25 1     
   16    7    8 2     
   17    8    9 1     
   18    9   13 1     
   19    9   10 2     
   20   10   11 1     
   21   10   23 1     
   22   11   12 2     
   23   12   13 1     
   24   12   38 1     
   25   13   14 1     
   26   14   26 1     
   27   14   21 1     
   28   14   15 1     
   29   15   16 1     
   30   16   27 1     
   31   16   17 1     
   32   16   19 1     
   33   17   18 1     
   34   17   39 1     
   35   17   40 1     
   36   18   41 1     
   37   19   28 1     
   38   19   20 1     
   39   19   21 1     
   40   20   42 1     
   41   21   29 1     
   42   21   22 1     
   43   22   43 1     
   44   23   24 2     
   45   23   25 1     
   46    5   44 1     
   47    5   45 1     
   48    8   46 1     
   49   11   47 1     
   50   15   48 1     
   51   15   49 1     
   52   18   50 1     
   53   18   51 1     
   54   20   52 1     
   55   20   53 1     
   56   22   54 1     
   57   22   55 1     
   58   24   56 1     
   59   24   57 1     
   60   25   58 1     
@<TRIPOS>SUBSTRUCTURE
      1 S1             1
@<TRIPOS>SET
LONE_PAIRS      STATIC     ATOMS    <user>   **** ""
15 44 45 46 47 48 49 50 51 52 53 54 55 56 57 58
DONOR_HYDROGENS      STATIC     ATOMS    <user>   **** ""
4 37 41 42 43
ATOM$BLUE        STATIC     ATOMS    COLORGROUP SYSTEM
15 44 45 46 47 48 49 50 51 52 53 54 55 56 57 58
ATOM$RED        STATIC     ATOMS    COLORGROUP SYSTEM
4 37 41 42 43
