AV-unprocessed.smi:291|AV-procd|sdf|2248|dock7
  -GOLD-   2262022133D 1   1.00000     0.00000
 Structure written by MMmdl.
 35 36  0  0  0  0  0  0  0  0  1 V2000
  150.2162  141.3363  158.3524 C   0  0  0  0  0  0  0  0  0  0  0  0
  150.6049  140.9982  156.9062 C   0  0  2  0  0  0  0  0  0  0  0  0
  149.3691  140.9553  155.9872 C   0  0  0  0  0  0  0  0  0  0  0  0
  149.7519  140.6102  154.5367 C   0  0  0  0  0  0  0  0  0  0  0  0
  150.5474  139.2948  154.4402 C   0  0  2  0  0  0  0  0  0  0  0  0
  149.6777  138.1609  154.7433 N   0  0  0  0  0  0  0  0  0  0  0  0
  150.0443  136.8696  154.7604 C   0  0  0  0  0  0  0  0  0  0  0  0
  151.1886  136.4848  154.5224 O   0  0  0  0  0  0  0  0  0  0  0  0
  148.9545  135.8544  155.1132 C   0  0  0  0  0  0  0  0  0  0  0  0
  148.9270  135.5729  156.5381 N   0  0  0  0  0  0  0  0  0  0  0  0
  149.4141  134.5363  157.2284 C   0  0  0  0  0  0  0  0  0  0  0  0
  149.1913  134.6058  158.5352 N   0  0  0  0  0  0  0  0  0  0  0  0
  148.5185  135.7927  158.5724 C   0  0  0  0  0  0  0  0  0  0  0  0
  148.0260  136.3475  159.8216 C   0  0  0  0  0  0  0  0  0  0  0  0
  147.6334  136.7895  160.8165 N   0  0  0  0  0  0  0  0  0  0  0  0
  148.3292  136.4189  157.4129 N   0  0  0  0  0  0  0  0  0  0  0  0
  151.7703  139.3225  155.3796 C   0  0  0  0  0  0  0  0  0  0  0  0
  151.3823  139.6700  156.8280 C   0  0  0  0  0  0  0  0  0  0  0  0
  149.5615  140.5741  158.7758 H   0  0  0  0  0  0  0  0  0  0  0  0
  149.6932  142.2915  158.4054 H   0  0  0  0  0  0  0  0  0  0  0  0
  151.0985  141.4085  158.9890 H   0  0  0  0  0  0  0  0  0  0  0  0
  151.2611  141.7931  156.5484 H   0  0  0  0  0  0  0  0  0  0  0  0
  148.6535  140.2226  156.3634 H   0  0  0  0  0  0  0  0  0  0  0  0
  148.8578  141.9183  156.0070 H   0  0  0  0  0  0  0  0  0  0  0  0
  148.8559  140.5554  153.9170 H   0  0  0  0  0  0  0  0  0  0  0  0
  150.3541  141.4216  154.1260 H   0  0  0  0  0  0  0  0  0  0  0  0
  150.9006  139.1950  153.4123 H   0  0  0  0  0  0  0  0  0  0  0  0
  148.7143  138.3769  154.9565 H   0  0  0  0  0  0  0  0  0  0  0  0
  147.9767  136.2349  154.8150 H   0  0  0  0  0  0  0  0  0  0  0  0
  149.1226  134.9284  154.5610 H   0  0  0  0  0  0  0  0  0  0  0  0
  149.9372  133.7129  156.7645 H   0  0  0  0  0  0  0  0  0  0  0  0
  152.2927  138.3655  155.3521 H   0  0  0  0  0  0  0  0  0  0  0  0
  152.4823  140.0640  155.0152 H   0  0  0  0  0  0  0  0  0  0  0  0
  152.2826  139.7292  157.4405 H   0  0  0  0  0  0  0  0  0  0  0  0
  150.7794  138.8642  157.2489 H   0  0  0  0  0  0  0  0  0  0  0  0
  1  2  1  0  0  0  0
  1 19  1  0  0  0  0
  1 20  1  0  0  0  0
  1 21  1  0  0  0  0
  2 18  1  0  0  0  0
  2  3  1  0  0  0  0
  2 22  1  0  0  0  0
  3  4  1  0  0  0  0
  3 23  1  0  0  0  0
  3 24  1  0  0  0  0
  4  5  1  0  0  0  0
  4 25  1  0  0  0  0
  4 26  1  0  0  0  0
  5  6  1  0  0  0  0
  5 17  1  0  0  0  0
  5 27  1  0  0  0  0
  6  7  1  0  0  0  0
  6 28  1  0  0  0  0
  7  8  2  0  0  0  0
  7  9  1  0  0  0  0
  9 10  1  0  0  0  0
  9 29  1  0  0  0  0
  9 30  1  0  0  0  0
 10 16  1  0  0  0  0
 10 11  1  0  0  0  0
 11 12  2  0  0  0  0
 11 31  1  0  0  0  0
 12 13  1  0  0  0  0
 13 14  1  0  0  0  0
 13 16  2  0  0  0  0
 14 15  3  0  0  0  0
 17 18  1  0  0  0  0
 17 32  1  0  0  0  0
 17 33  1  0  0  0  0
 18 34  1  0  0  0  0
 18 35  1  0  0  0  0
M  END
> <s_m_source_file>
AV-unprocessed.smi

> <i_m_source_file_index>
291

> <i_lp_mmshare_version>
43012

> <i_f3d_flags>
0

> <s_epik_input>
W0NIM11bQ0BASF0xW0NIMl1bQ0gyXVtDQEhdKFtDSDJdW0NIMl0xKVtOSF1DKD1PKVtDSDJdbjJbY0hdbmMobjIpQyNO

> <s_epik_cmdline>
J2VwaWtfcHl0aG9uJywgJy1waCcsICc3LjAnLCAnLXRuJywgJzgnLCAnLW1hJywgJzIwMCcsICctbWV0YWxfYmluZGluZycsICctaW1hZScsICc8aW5maWxlLm1hZT4nLCAnLW9tYWUnLCAnPG91dGZpbGUubWFlPic=

> <r_lp_tautomer_probability>
1

> <r_epik_Ionization_Penalty>
5.31112e-08

> <r_epik_Ionization_Penalty_Charging>
0

> <r_epik_Ionization_Penalty_Neutral>
5.31112e-08

> <r_epik_State_Penalty>
-0

> <r_epik_Charging_Adjusted_Penalty>
0

> <i_epik_Tot_Q>
0

> <i_epik_Tot_abs_Q>
0

> <r_epik_Metal_State_Penalty>
-0

> <b_epik_Metal_Only>
0

> <s_lp_Force_Field>
OPLS_2005

> <r_lp_Energy>
11.449

> <b_lp_Chiralities_Consistent>
1

> <s_lp_Variant>
AV-unprocessed.smi:291-2

> <Gold.Version>
5.8.1

> <Gold.Id.Protein>
6NUR|6NUR_protein|mol2

> <Gold.PLP.Fitness>
33.6382

> <Gold.PLP.PLP>
-23.4473

> <Gold.PLP.part.hbond>
-4.0000

> <Gold.PLP.part.metal>
0.0000

> <Gold.PLP.part.buried>
-0.4194

> <Gold.PLP.part.nonpolar>
-19.7696

> <Gold.PLP.part.repulsive>
0.1940

> <Gold.PLP.ligand.clash>
0.0000

> <Gold.PLP.ligand.torsion>
0.6436

> <Gold.PLP.Chemscore.Hbond>
3.8240

> <Gold.PLP.Chemscore.CHOScore>
0.0000

> <Gold.PLP.Chemscore.Metal>
0.0000

> <Gold.Chemscore.Hbonds>
donor molecule, donor type, donor heavy atom, donor atom, acceptor molecule, acceptor atom, score
      P1  H  6896  6908       L1    12  1.00
      P1  H  6931  6943       L1    15  0.34
      P1  H  6934  6947       L1    15  0.37
      P1  H 10752 10765       L1     8  1.00

> <Gold.PLP.Chemscore.Internal.Correction>
0.0062

> <Gold.Rescore>
     Score         DG    S(hbond)    S(metal)    S(lipo)     H(rot)  DE(clash)    DE(int)     intcor
     15.49     -17.62       3.44        0.00      48.33       1.95       0.71       1.42       ----

> <Gold.Chemscore.Fitness>
15.4905

> <Gold.Chemscore.DG>
-17.6240

> <Gold.Chemscore.ZeroCoef>
-5.4800

> <Gold.Chemscore.Hbond>
3.4356

> <Gold.Chemscore.Metal>
0.0000

> <Gold.Chemscore.Lipo>
48.3264

> <Gold.Chemscore.Internal_Hbond>
0.0000

> <Gold.Chemscore.DEClash>
0.7132

> <Gold.Chemscore.DEInternal>
1.4204

> <Gold.Chemscore.Rot>
1.9474

> <Gold.Chemscore.Internal.Correction>
   9.000000E+99

> <Gold.Chemscore.Hbonds>
donor molecule, donor type, donor heavy atom, donor atom, acceptor molecule, acceptor atom, score
      P1  H  6896  6908       L1    12  0.74
      P1  H  6931  6943       L1    15  0.29
      P1  H  6934  6947       L1    15  0.34
      P1  H 10752 10765       L1     8  0.99

> <Gold.Chemscore.Hbond.Weighted>
-11.4751

> <Gold.Chemscore.Metal.Weighted>
-0.0000

> <Gold.Chemscore.Lipo.Weighted>
-5.6542

> <Gold.Chemscore.Internal_Hbond.Weighted>
0.0000

> <Gold.Chemscore.DEClash.Weighted>
0.7132

> <Gold.Chemscore.DEInternal.Weighted>
1.4204

> <Gold.Chemscore.Rot.Weighted>
4.9852

> <Gold.Chemscore.Internal.Correction.Weighted>
   9.000000E+99

> <Gold.Protein.RotatedTorsions>
[ 6907 6896 6895 6894 ] final  148.17 input  -60.11 | X-H torsion
[ 7974 7965 7964 7962 ] final  174.86 input  175.53 | X-H torsion
[ 8008 7997 7996 7995 ] final  131.09 input   59.86 | X-H torsion
[ 10167 10162 10161 10158 ] final   13.37 input  -65.29 | X-H torsion
[ 10718 10713 10712 10709 ] final  -50.79 input   66.30 | X-H torsion
[ 10763 10752 10751 10750 ] final  164.95 input  -60.55 | X-H torsion
[ 11005 11000 10999 10996 ] final   36.81 input  -57.11 | X-H torsion

> <Gold.Protein.ActiveResidues>
 VAL166  LYS551  ARG553  GLY616  TRP617  ASP618  TYR619  PRO620  LYS621  CYS622 
 ASP623  PHE694  ASN695  SER759  ASP760  ASP761  ALA762  ILE779  LEU786  VAL792 
 PHE793  MET794  SER795  GLU796  ALA797  LYS798  CYS799  TRP800  GLU811  SER814 

> <Gold.Protein.RotatedAtoms>
  152.1451  133.4487  159.4785 H   0  0  0  0  0  0  0  0  0  0  0  0  # atno 6907 bound_to 6896
  150.6890  134.2258  159.4424 H   0  0  0  0  0  0  0  0  0  0  0  0  # atno 6908 bound_to 6896
  152.0151  134.9854  160.0620 H   0  0  0  0  0  0  0  0  0  0  0  0  # atno 6909 bound_to 6896
  144.7213  139.9860  143.6439 H   0  0  0  0  0  0  0  0  0  0  0  0  # atno 7974 bound_to 7965
  156.2965  140.2580  156.2868 H   0  0  0  0  0  0  0  0  0  0  0  0  # atno 8008 bound_to 7997
  154.9548  140.0393  157.2180 H   0  0  0  0  0  0  0  0  0  0  0  0  # atno 8009 bound_to 7997
  154.8002  140.2827  155.5932 H   0  0  0  0  0  0  0  0  0  0  0  0  # atno 8010 bound_to 7997
  140.6007  143.8611  150.6962 H   0  0  0  0  0  0  0  0  0  0  0  0  # atno 10167 bound_to 10162
  156.1769  130.4150  149.9564 H   0  0  0  0  0  0  0  0  0  0  0  0  # atno 10718 bound_to 10713
  154.3166  135.2756  155.2540 H   0  0  0  0  0  0  0  0  0  0  0  0  # atno 10763 bound_to 10752
  154.4912  135.5833  153.6464 H   0  0  0  0  0  0  0  0  0  0  0  0  # atno 10764 bound_to 10752
  152.9881  135.6135  154.3348 H   0  0  0  0  0  0  0  0  0  0  0  0  # atno 10765 bound_to 10752
  140.2288  134.3552  155.7972 H   0  0  0  0  0  0  0  0  0  0  0  0  # atno 11005 bound_to 11000
  146.0449  139.3456  143.0674 LP  0  0  0  0  0  0  0  0  0  0  0  0  # atno 17320 bound_to 7965
  145.8288  140.9641  143.0860 LP  0  0  0  0  0  0  0  0  0  0  0  0  # atno 17321 bound_to 7965
  140.2156  143.3849  152.1684 LP  0  0  0  0  0  0  0  0  0  0  0  0  # atno 17342 bound_to 10162
  139.5289  144.7135  151.5128 LP  0  0  0  0  0  0  0  0  0  0  0  0  # atno 17343 bound_to 10162
  156.7347  130.9057  151.3628 LP  0  0  0  0  0  0  0  0  0  0  0  0  # atno 17370 bound_to 10713
  157.6841  130.9169  150.0342 LP  0  0  0  0  0  0  0  0  0  0  0  0  # atno 17371 bound_to 10713
  141.2219  133.7234  156.8698 LP  0  0  0  0  0  0  0  0  0  0  0  0  # atno 17394 bound_to 11000
  140.1772  134.9059  157.2905 LP  0  0  0  0  0  0  0  0  0  0  0  0  # atno 17395 bound_to 11000

$$$$
