AV-unprocessed.smi:21|AV-procd|sdf|142|dock6
  -GOLD-   2262015353D 1   1.00000     0.00000
 Structure written by MMmdl.
 62 65  0  0  0  0  0  0  0  0  2 V2000
  145.9716  131.4755  150.4085 C   0  0  0  0  0  0  0  0  0  0  0  0
  144.8921  132.0137  151.1559 O   0  0  0  0  0  0  0  0  0  0  0  0
  144.8852  133.4344  151.2135 C   0  0  2  0  0  0  0  0  0  0  0  0
  145.9474  133.8913  152.2044 C   0  0  0  0  0  0  0  0  0  0  0  0
  145.2696  133.7328  153.5709 C   0  0  1  0  0  0  0  0  0  0  0  0
  145.9028  134.5881  154.6958 C   0  0  0  0  0  0  0  0  0  0  0  0
  147.0620  133.9373  155.3097 N   0  0  0  0  0  0  0  0  0  0  0  0
  146.9832  132.5097  155.5919 C   0  0  0  0  0  0  0  0  0  0  0  0
  148.2761  134.5544  155.2815 C   0  0  0  0  0  0  0  0  0  0  0  0
  149.3766  133.8129  155.5768 N   0  0  0  0  0  0  0  0  0  0  0  0
  150.5941  134.3609  155.5642 C   0  0  0  0  0  0  0  0  0  0  0  0
  150.9374  135.6195  155.2921 N   0  0  0  0  0  0  0  0  0  0  0  0
  149.8432  136.3778  155.0004 C   0  0  0  0  0  0  0  0  0  0  0  0
  148.4889  135.9329  154.9708 C   0  0  0  0  0  0  0  0  0  0  0  0
  147.6593  137.0029  154.6489 N   0  0  0  0  0  0  0  0  0  0  0  0
  148.4713  138.0106  154.4883 C   0  0  0  0  0  0  0  0  0  0  0  0
  149.8026  137.7217  154.6722 N   0  0  0  0  0  0  0  0  0  0  0  0
  150.9119  138.6528  154.5544 C   0  0  0  0  0  0  0  0  0  0  0  0
  151.5247  139.0468  155.9208 C   0  0  1  0  0  0  0  0  0  0  0  0
  152.8496  138.2854  156.1590 C   0  0  0  0  0  0  0  0  0  0  0  0
  153.8250  138.6807  155.2167 O   0  0  0  0  0  0  0  0  0  0  0  0
  151.6515  140.5866  156.0947 C   0  0  2  0  0  0  0  0  0  0  0  0
  151.8895  141.0841  157.5152 C   0  0  0  0  0  0  0  0  0  0  0  0
  151.3364  142.5001  157.4513 C   0  0  0  0  0  0  0  0  0  0  0  0
  150.1656  142.3424  156.6668 O   0  0  0  0  0  0  0  0  0  0  0  0
  150.4409  141.4124  155.6240 C   0  0  0  0  0  0  0  0  0  0  0  0
  143.8157  133.9556  153.3226 N   0  3  1  0  0  0  0  0  0  0  0  0
  143.1723  135.1041  154.0042 C   0  0  0  0  0  0  0  0  0  0  0  0
  143.5952  133.9566  151.8561 C   0  0  0  0  0  0  0  0  0  0  0  0
  145.0642  133.8621  150.2255 H   0  0  0  0  0  0  0  0  0  0  0  0
  145.3475  132.6829  153.8570 H   0  0  0  0  0  0  0  0  0  0  0  0
  145.9120  130.3873  150.4169 H   0  0  0  0  0  0  0  0  0  0  0  0
  146.9312  131.7595  150.8425 H   0  0  0  0  0  0  0  0  0  0  0  0
  145.9492  131.8021  149.3690 H   0  0  0  0  0  0  0  0  0  0  0  0
  146.8761  133.3257  152.1200 H   0  0  0  0  0  0  0  0  0  0  0  0
  146.1808  134.9419  152.0248 H   0  0  0  0  0  0  0  0  0  0  0  0
  146.1527  135.5829  154.3279 H   0  0  0  0  0  0  0  0  0  0  0  0
  145.1717  134.7444  155.4893 H   0  0  0  0  0  0  0  0  0  0  0  0
  147.6186  132.2427  156.4370 H   0  0  0  0  0  0  0  0  0  0  0  0
  147.2885  131.9272  154.7223 H   0  0  0  0  0  0  0  0  0  0  0  0
  145.9624  132.2236  155.8455 H   0  0  0  0  0  0  0  0  0  0  0  0
  151.4101  133.6958  155.8056 H   0  0  0  0  0  0  0  0  0  0  0  0
  148.1206  138.9986  154.2265 H   0  0  0  0  0  0  0  0  0  0  0  0
  151.6649  138.1858  153.9187 H   0  0  0  0  0  0  0  0  0  0  0  0
  150.5723  139.5420  154.0226 H   0  0  0  0  0  0  0  0  0  0  0  0
  150.8266  138.7182  156.6928 H   0  0  0  0  0  0  0  0  0  0  0  0
  153.2365  138.4715  157.1610 H   0  0  0  0  0  0  0  0  0  0  0  0
  152.7185  137.2084  156.0642 H   0  0  0  0  0  0  0  0  0  0  0  0
  153.3975  138.8358  154.3882 H   0  0  0  0  0  0  0  0  0  0  0  0
  152.4899  140.9374  155.4920 H   0  0  0  0  0  0  0  0  0  0  0  0
  151.3184  140.5108  158.2444 H   0  0  0  0  0  0  0  0  0  0  0  0
  152.9388  141.0544  157.8086 H   0  0  0  0  0  0  0  0  0  0  0  0
  151.1111  142.9117  158.4353 H   0  0  0  0  0  0  0  0  0  0  0  0
  152.0326  143.1705  156.9442 H   0  0  0  0  0  0  0  0  0  0  0  0
  150.6818  141.9538  154.7082 H   0  0  0  0  0  0  0  0  0  0  0  0
  149.5544  140.8124  155.4211 H   0  0  0  0  0  0  0  0  0  0  0  0
  143.6362  136.0486  153.7170 H   0  0  0  0  0  0  0  0  0  0  0  0
  143.2234  135.0012  155.0879 H   0  0  0  0  0  0  0  0  0  0  0  0
  142.1163  135.1538  153.7360 H   0  0  0  0  0  0  0  0  0  0  0  0
  143.4293  134.9797  151.5142 H   0  0  0  0  0  0  0  0  0  0  0  0
  142.7098  133.3802  151.5897 H   0  0  0  0  0  0  0  0  0  0  0  0
  143.3559  133.1291  153.6774 H   0  0  0  0  0  0  0  0  0  0  0  0
  1  2  1  0  0  0  0
  1 32  1  0  0  0  0
  1 33  1  0  0  0  0
  1 34  1  0  0  0  0
  2  3  1  0  0  0  0
  3 30  1  0  0  0  0
  3 29  1  0  0  0  0
  3  4  1  0  0  0  0
  4  5  1  0  0  0  0
  4 35  1  0  0  0  0
  4 36  1  0  0  0  0
  5 31  1  0  0  0  0
  5  6  1  0  0  0  0
  5 27  1  0  0  0  0
  6  7  1  0  0  0  0
  6 37  1  0  0  0  0
  6 38  1  0  0  0  0
  7  8  1  0  0  0  0
  7  9  1  0  0  0  0
  8 39  1  0  0  0  0
  8 40  1  0  0  0  0
  8 41  1  0  0  0  0
  9 14  1  0  0  0  0
  9 10  2  0  0  0  0
 10 11  1  0  0  0  0
 11 12  2  0  0  0  0
 11 42  1  0  0  0  0
 12 13  1  0  0  0  0
 13 17  1  0  0  0  0
 13 14  2  0  0  0  0
 14 15  1  0  0  0  0
 15 16  2  0  0  0  0
 16 17  1  0  0  0  0
 16 43  1  0  0  0  0
 17 18  1  0  0  0  0
 18 19  1  0  0  0  0
 18 44  1  0  0  0  0
 18 45  1  0  0  0  0
 19 20  1  0  0  0  0
 19 22  1  0  0  0  0
 19 46  1  0  0  0  0
 20 21  1  0  0  0  0
 20 47  1  0  0  0  0
 20 48  1  0  0  0  0
 21 49  1  0  0  0  0
 22 26  1  0  0  0  0
 22 23  1  0  0  0  0
 22 50  1  0  0  0  0
 23 24  1  0  0  0  0
 23 51  1  0  0  0  0
 23 52  1  0  0  0  0
 24 25  1  0  0  0  0
 24 53  1  0  0  0  0
 24 54  1  0  0  0  0
 25 26  1  0  0  0  0
 26 55  1  0  0  0  0
 26 56  1  0  0  0  0
 27 28  1  0  0  0  0
 27 29  1  0  0  0  0
 27 62  1  0  0  0  0
 28 57  1  0  0  0  0
 28 58  1  0  0  0  0
 28 59  1  0  0  0  0
 29 60  1  0  0  0  0
 29 61  1  0  0  0  0
M  CHG  1  27   1
M  END
> <s_m_source_file>
AV-unprocessed.smi

> <i_m_source_file_index>
21

> <i_lp_mmshare_version>
43012

> <i_f3d_flags>
0

> <s_epik_input>
W0NIM11PW0NASF0xW0NIMl1bQ0BIXShOKFtDSDNdKVtDSDJdMSlbQ0gyXU4oW0NIM10pYyhuW2NIXW4yKWMoYzIzKW5bY0hdbjNbQ0gyXVtDQEhdKFtDSDJdW09IXSlbQ0BASF00W0NIMl1bQ0gyXU9bQ0gyXTQ=

> <s_epik_cmdline>
J2VwaWtfcHl0aG9uJywgJy1waCcsICc3LjAnLCAnLXRuJywgJzgnLCAnLW1hJywgJzIwMCcsICctbWV0YWxfYmluZGluZycsICctaW1hZScsICc8aW5maWxlLm1hZT4nLCAnLW9tYWUnLCAnPG91dGZpbGUubWFlPic=

> <r_lp_tautomer_probability>
1

> <r_epik_Ionization_Penalty>
0.0157465

> <r_epik_Ionization_Penalty_Charging>
0.015354

> <r_epik_Ionization_Penalty_Neutral>
0.000392529

> <r_epik_State_Penalty>
0.0120612

> <r_epik_Charging_Adjusted_Penalty>
0.0274152

> <i_epik_Tot_Q>
1

> <i_epik_Tot_abs_Q>
1

> <r_epik_Metal_State_Penalty>
0.0121253

> <b_epik_Metal_Only>
0

> <s_lp_Force_Field>
OPLS_2005

> <r_lp_Energy>
62.7223

> <b_lp_Chiralities_Consistent>
1

> <s_lp_Variant>
AV-unprocessed.smi:21-22

> <Gold.Version>
5.8.1

> <Gold.Id.Protein>
6NUR|6NUR_protein|mol2

> <Gold.PLP.Fitness>
46.4563

> <Gold.PLP.PLP>
-37.3457

> <Gold.PLP.part.hbond>
-2.9538

> <Gold.PLP.part.metal>
0.0000

> <Gold.PLP.part.buried>
-5.6358

> <Gold.PLP.part.nonpolar>
-29.1552

> <Gold.PLP.part.repulsive>
1.0354

> <Gold.PLP.ligand.clash>
0.0000

> <Gold.PLP.ligand.torsion>
1.5304

> <Gold.PLP.Chemscore.Hbond>
3.8460

> <Gold.PLP.Chemscore.CHOScore>
0.0000

> <Gold.PLP.Chemscore.Metal>
0.0000

> <Gold.Chemscore.Hbonds>
donor molecule, donor type, donor heavy atom, donor atom, acceptor molecule, acceptor atom, score
      L1  H    27    62       P1 10957  2.00
      P1  H  7997  8008       L1    21  0.77
      P1  H 10752 10764       L1    12  0.83

> <Gold.PLP.Chemscore.Internal.Correction>
0.6335

> <Gold.Rescore>
     Score         DG    S(hbond)    S(metal)    S(lipo)     H(rot)  DE(clash)    DE(int)     intcor
     12.52     -15.09       2.18        0.00      87.30       3.08       0.04       2.53       ----

> <Gold.Chemscore.Fitness>
12.5203

> <Gold.Chemscore.DG>
-15.0873

> <Gold.Chemscore.ZeroCoef>
-5.4800

> <Gold.Chemscore.Hbond>
2.1760

> <Gold.Chemscore.Metal>
0.0000

> <Gold.Chemscore.Lipo>
87.2971

> <Gold.Chemscore.Internal_Hbond>
0.0000

> <Gold.Chemscore.DEClash>
0.0395

> <Gold.Chemscore.DEInternal>
2.5275

> <Gold.Chemscore.Rot>
3.0758

> <Gold.Chemscore.Internal.Correction>
   9.000000E+99

> <Gold.Chemscore.Hbonds>
donor molecule, donor type, donor heavy atom, donor atom, acceptor molecule, acceptor atom, score
      L1  H    27    62       P1 10957  0.98
      P1  H  7997  8008       L1    21  0.35
      P1  H 10752 10764       L1    12  0.44

> <Gold.Chemscore.Hbond.Weighted>
-7.2677

> <Gold.Chemscore.Metal.Weighted>
-0.0000

> <Gold.Chemscore.Lipo.Weighted>
-10.2138

> <Gold.Chemscore.Internal_Hbond.Weighted>
0.0000

> <Gold.Chemscore.DEClash.Weighted>
0.0395

> <Gold.Chemscore.DEInternal.Weighted>
2.5275

> <Gold.Chemscore.Rot.Weighted>
7.8741

> <Gold.Chemscore.Internal.Correction.Weighted>
   9.000000E+99

> <Gold.Protein.RotatedTorsions>
[ 6907 6896 6895 6894 ] final -179.00 input  -60.11 | X-H torsion
[ 7974 7965 7964 7962 ] final   -5.72 input  175.53 | X-H torsion
[ 8008 7997 7996 7995 ] final  -10.25 input   59.86 | X-H torsion
[ 10167 10162 10161 10158 ] final  178.66 input  -65.29 | X-H torsion
[ 10718 10713 10712 10709 ] final  125.33 input   66.30 | X-H torsion
[ 10763 10752 10751 10750 ] final  -57.99 input  -60.55 | X-H torsion
[ 11005 11000 10999 10996 ] final   12.86 input  -57.11 | X-H torsion

> <Gold.Protein.ActiveResidues>
 VAL166  LYS551  ARG553  GLY616  TRP617  ASP618  TYR619  PRO620  LYS621  CYS622 
 ASP623  PHE694  ASN695  SER759  ASP760  ASP761  ALA762  ILE779  LEU786  VAL792 
 PHE793  MET794  SER795  GLU796  ALA797  LYS798  CYS799  TRP800  GLU811  SER814 

> <Gold.Protein.RotatedAtoms>
  151.6463  133.3323  159.3141 H   0  0  0  0  0  0  0  0  0  0  0  0  # atno 6907 bound_to 6896
  150.7982  134.7062  159.6587 H   0  0  0  0  0  0  0  0  0  0  0  0  # atno 6908 bound_to 6896
  152.4072  134.6191  160.0097 H   0  0  0  0  0  0  0  0  0  0  0  0  # atno 6909 bound_to 6896
  146.2347  140.2063  142.8334 H   0  0  0  0  0  0  0  0  0  0  0  0  # atno 7974 bound_to 7965
  154.5572  140.2334  155.8392 H   0  0  0  0  0  0  0  0  0  0  0  0  # atno 8008 bound_to 7997
  156.1998  140.3055  155.9463 H   0  0  0  0  0  0  0  0  0  0  0  0  # atno 8009 bound_to 7997
  155.2958  140.0429  157.3017 H   0  0  0  0  0  0  0  0  0  0  0  0  # atno 8010 bound_to 7997
  139.5303  144.2653  152.0673 H   0  0  0  0  0  0  0  0  0  0  0  0  # atno 10167 bound_to 10162
  157.5512  131.1094  150.8699 H   0  0  0  0  0  0  0  0  0  0  0  0  # atno 10718 bound_to 10713
  154.2311  135.6360  153.5175 H   0  0  0  0  0  0  0  0  0  0  0  0  # atno 10763 bound_to 10752
  152.9949  135.5519  154.6012 H   0  0  0  0  0  0  0  0  0  0  0  0  # atno 10764 bound_to 10752
  154.5495  135.2900  155.0996 H   0  0  0  0  0  0  0  0  0  0  0  0  # atno 10765 bound_to 10752
  140.4872  134.0876  155.7763 H   0  0  0  0  0  0  0  0  0  0  0  0  # atno 11005 bound_to 11000
  144.9742  140.8398  143.5437 LP  0  0  0  0  0  0  0  0  0  0  0  0  # atno 17320 bound_to 7965
  145.2048  139.2234  143.5174 LP  0  0  0  0  0  0  0  0  0  0  0  0  # atno 17321 bound_to 7965
  140.2116  144.4557  150.6383 LP  0  0  0  0  0  0  0  0  0  0  0  0  # atno 17342 bound_to 10162
  140.6477  143.2217  151.6149 LP  0  0  0  0  0  0  0  0  0  0  0  0  # atno 17343 bound_to 10162
  156.9223  130.5319  149.5279 LP  0  0  0  0  0  0  0  0  0  0  0  0  # atno 17370 bound_to 10713
  156.0578  130.5636  150.9129 LP  0  0  0  0  0  0  0  0  0  0  0  0  # atno 17371 bound_to 10713
  141.1502  133.8983  157.2117 LP  0  0  0  0  0  0  0  0  0  0  0  0  # atno 17394 bound_to 11000
  139.9790  135.0104  156.9704 LP  0  0  0  0  0  0  0  0  0  0  0  0  # atno 17395 bound_to 11000

$$$$
