AV-unprocessed.smi:2872|AV-procd|sdf|11034|dock5
  -GOLD-   2272015503D 1   1.00000     0.00000
 Structure written by MMmdl.
 39 41  0  0  0  0  0  0  0  0  1 V2000
  152.5316  135.8864  156.9368 O   0  0  0  0  0  0  0  0  0  0  0  0
  151.3212  135.7268  156.7879 C   0  0  0  0  0  0  0  0  0  0  0  0
  150.5997  136.2683  155.7961 N   0  0  0  0  0  0  0  0  0  0  0  0
  151.1309  137.1333  154.7475 C   0  0  0  0  0  0  0  0  0  0  0  0
  150.2238  138.3174  154.5782 C   0  0  0  0  0  0  0  0  0  0  0  0
  149.0072  138.2044  154.0439 N   0  0  0  0  0  0  0  0  0  0  0  0
  148.5340  139.5013  154.0858 C   0  0  0  0  0  0  0  0  0  0  0  0
  147.2976  140.0425  153.6670 C   0  0  0  0  0  0  0  0  0  0  0  0
  147.0330  141.4195  153.8192 C   0  0  0  0  0  0  0  0  0  0  0  0
  147.9983  142.2733  154.3910 C   0  0  0  0  0  0  0  0  0  0  0  0
  149.2375  141.7546  154.8134 C   0  0  0  0  0  0  0  0  0  0  0  0
  149.4970  140.3798  154.6582 C   0  0  0  0  0  0  0  0  0  0  0  0
  150.5847  139.5680  154.9619 N   0  0  0  0  0  0  0  0  0  0  0  0
  151.8307  139.9987  155.5757 C   0  0  0  0  0  0  0  0  0  0  0  0
  151.5799  140.7328  156.8979 C   0  0  0  0  0  0  0  0  0  0  0  0
  152.6739  140.4852  157.7694 O   0  0  0  0  0  0  0  0  0  0  0  0
  152.7790  141.2454  158.9145 C   0  0  0  0  0  0  0  0  0  0  0  0
  153.6621  140.7822  159.9120 C   0  0  0  0  0  0  0  0  0  0  0  0
  153.8298  141.4950  161.1148 C   0  0  0  0  0  0  0  0  0  0  0  0
  153.1122  142.6854  161.3329 C   0  0  0  0  0  0  0  0  0  0  0  0
  152.2293  143.1608  160.3458 C   0  0  0  0  0  0  0  0  0  0  0  0
  152.0615  142.4475  159.1427 C   0  0  0  0  0  0  0  0  0  0  0  0
  150.6844  135.1196  157.4496 H   0  0  0  0  0  0  0  0  0  0  0  0
  149.6096  136.0732  155.7687 H   0  0  0  0  0  0  0  0  0  0  0  0
  152.1408  137.4699  154.9890 H   0  0  0  0  0  0  0  0  0  0  0  0
  151.2014  136.5765  153.8133 H   0  0  0  0  0  0  0  0  0  0  0  0
  146.5511  139.3966  153.2288 H   0  0  0  0  0  0  0  0  0  0  0  0
  146.0842  141.8225  153.4965 H   0  0  0  0  0  0  0  0  0  0  0  0
  147.7872  143.3265  154.5052 H   0  0  0  0  0  0  0  0  0  0  0  0
  149.9787  142.4054  155.2527 H   0  0  0  0  0  0  0  0  0  0  0  0
  152.4780  139.1359  155.7318 H   0  0  0  0  0  0  0  0  0  0  0  0
  152.3551  140.6519  154.8776 H   0  0  0  0  0  0  0  0  0  0  0  0
  151.4808  141.8034  156.7109 H   0  0  0  0  0  0  0  0  0  0  0  0
  150.6517  140.3777  157.3482 H   0  0  0  0  0  0  0  0  0  0  0  0
  154.2167  139.8690  159.7533 H   0  0  0  0  0  0  0  0  0  0  0  0
  154.5092  141.1282  161.8700 H   0  0  0  0  0  0  0  0  0  0  0  0
  153.2392  143.2332  162.2550 H   0  0  0  0  0  0  0  0  0  0  0  0
  151.6789  144.0753  160.5110 H   0  0  0  0  0  0  0  0  0  0  0  0
  151.3756  142.8447  158.4101 H   0  0  0  0  0  0  0  0  0  0  0  0
  1  2  2  0  0  0  0
  2  3  1  0  0  0  0
  2 23  1  0  0  0  0
  3  4  1  0  0  0  0
  3 24  1  0  0  0  0
  4  5  1  0  0  0  0
  4 25  1  0  0  0  0
  4 26  1  0  0  0  0
  5 13  1  0  0  0  0
  5  6  2  0  0  0  0
  6  7  1  0  0  0  0
  7 12  2  0  0  0  0
  7  8  1  0  0  0  0
  8  9  2  0  0  0  0
  8 27  1  0  0  0  0
  9 10  1  0  0  0  0
  9 28  1  0  0  0  0
 10 11  2  0  0  0  0
 10 29  1  0  0  0  0
 11 12  1  0  0  0  0
 11 30  1  0  0  0  0
 12 13  1  0  0  0  0
 13 14  1  0  0  0  0
 14 15  1  0  0  0  0
 14 31  1  0  0  0  0
 14 32  1  0  0  0  0
 15 16  1  0  0  0  0
 15 33  1  0  0  0  0
 15 34  1  0  0  0  0
 16 17  1  0  0  0  0
 17 22  1  0  0  0  0
 17 18  2  0  0  0  0
 18 19  1  0  0  0  0
 18 35  1  0  0  0  0
 19 20  2  0  0  0  0
 19 36  1  0  0  0  0
 20 21  1  0  0  0  0
 20 37  1  0  0  0  0
 21 22  2  0  0  0  0
 21 38  1  0  0  0  0
 22 39  1  0  0  0  0
M  END
> <s_m_source_file>
AV-unprocessed.smi

> <i_m_source_file_index>
2872

> <i_lp_mmshare_version>
43012

> <i_f3d_flags>
0

> <s_epik_input>
Tz1bQ0hdW05IXVtDSDJdYyhuMSluKGMoYzEyKVtjSF1bY0hdW2NIXVtjSF0yKVtDSDJdW0NIMl1PYzNbY0hdW2NIXVtjSF1bY0hdW2NIXTM=

> <s_epik_cmdline>
J2VwaWtfcHl0aG9uJywgJy1waCcsICc3LjAnLCAnLXRuJywgJzgnLCAnLW1hJywgJzIwMCcsICctbWV0YWxfYmluZGluZycsICctaW1hZScsICc8aW5maWxlLm1hZT4nLCAnLW9tYWUnLCAnPG91dGZpbGUubWFlPic=

> <r_lp_tautomer_probability>
1

> <r_epik_Ionization_Penalty>
0.0659793

> <r_epik_Ionization_Penalty_Charging>
0

> <r_epik_Ionization_Penalty_Neutral>
0.0659793

> <r_epik_State_Penalty>
0.0575748

> <r_epik_Charging_Adjusted_Penalty>
0.0575748

> <i_epik_Tot_Q>
0

> <i_epik_Tot_abs_Q>
0

> <r_epik_Metal_State_Penalty>
0.0517641

> <b_epik_Metal_Only>
0

> <s_lp_Force_Field>
OPLS_2005

> <r_lp_Energy>
12.8976

> <b_lp_Chiralities_Consistent>
1

> <s_lp_Variant>
AV-unprocessed.smi:2872-1

> <Gold.Version>
5.8.1

> <Gold.Id.Protein>
6NUR|6NUR_protein|mol2

> <Gold.PLP.Fitness>
49.5028

> <Gold.PLP.PLP>
-45.0519

> <Gold.PLP.part.hbond>
-2.0000

> <Gold.PLP.part.metal>
0.0000

> <Gold.PLP.part.buried>
1.0094

> <Gold.PLP.part.nonpolar>
-44.6106

> <Gold.PLP.part.repulsive>
1.8581

> <Gold.PLP.ligand.clash>
0.0000

> <Gold.PLP.ligand.torsion>
0.6406

> <Gold.PLP.Chemscore.Hbond>
1.8882

> <Gold.PLP.Chemscore.CHOScore>
0.0000

> <Gold.PLP.Chemscore.Metal>
0.0000

> <Gold.Chemscore.Hbonds>
donor molecule, donor type, donor heavy atom, donor atom, acceptor molecule, acceptor atom, score
      P1  H  7997  8010       L1    16  0.81
      P1  H 10752 10763       L1     1  1.00

> <Gold.PLP.Chemscore.Internal.Correction>
0.0675

> <Gold.Rescore>
     Score         DG    S(hbond)    S(metal)    S(lipo)     H(rot)  DE(clash)    DE(int)     intcor
     17.23     -19.37       1.62        0.00     125.27       2.42       1.50       0.64       ----

> <Gold.Chemscore.Fitness>
17.2309

> <Gold.Chemscore.DG>
-19.3663

> <Gold.Chemscore.ZeroCoef>
-5.4800

> <Gold.Chemscore.Hbond>
1.6245

> <Gold.Chemscore.Metal>
0.0000

> <Gold.Chemscore.Lipo>
125.2727

> <Gold.Chemscore.Internal_Hbond>
0.0000

> <Gold.Chemscore.DEClash>
1.4982

> <Gold.Chemscore.DEInternal>
0.6371

> <Gold.Chemscore.Rot>
2.4205

> <Gold.Chemscore.Internal.Correction>
   9.000000E+99

> <Gold.Chemscore.Hbonds>
donor molecule, donor type, donor heavy atom, donor atom, acceptor molecule, acceptor atom, score
      P1  H  7997  8010       L1    16  0.62
      P1  H 10752 10763       L1     1  0.70

> <Gold.Chemscore.Hbond.Weighted>
-5.4259

> <Gold.Chemscore.Metal.Weighted>
-0.0000

> <Gold.Chemscore.Lipo.Weighted>
-14.6569

> <Gold.Chemscore.Internal_Hbond.Weighted>
0.0000

> <Gold.Chemscore.DEClash.Weighted>
1.4982

> <Gold.Chemscore.DEInternal.Weighted>
0.6371

> <Gold.Chemscore.Rot.Weighted>
6.1965

> <Gold.Chemscore.Internal.Correction.Weighted>
   9.000000E+99

> <Gold.Protein.RotatedTorsions>
[ 6907 6896 6895 6894 ] final  -26.39 input  -60.11 | X-H torsion
[ 7974 7965 7964 7962 ] final    7.11 input  175.53 | X-H torsion
[ 8008 7997 7996 7995 ] final   50.75 input   59.86 | X-H torsion
[ 10167 10162 10161 10158 ] final    7.26 input  -65.29 | X-H torsion
[ 10718 10713 10712 10709 ] final  120.48 input   66.30 | X-H torsion
[ 10763 10752 10751 10750 ] final  111.22 input  -60.55 | X-H torsion
[ 11005 11000 10999 10996 ] final   98.65 input  -57.11 | X-H torsion

> <Gold.Protein.ActiveResidues>
 VAL166  LYS551  ARG553  GLY616  TRP617  ASP618  TYR619  PRO620  LYS621  CYS622 
 ASP623  PHE694  ASN695  SER759  ASP760  ASP761  ALA762  ILE779  LEU786  VAL792 
 PHE793  MET794  SER795  GLU796  ALA797  LYS798  CYS799  TRP800  GLU811  SER814 

> <Gold.Protein.RotatedAtoms>
  151.1616  135.0276  159.8712 H   0  0  0  0  0  0  0  0  0  0  0  0  # atno 6907 bound_to 6896
  152.5451  134.1272  159.8434 H   0  0  0  0  0  0  0  0  0  0  0  0  # atno 6908 bound_to 6896
  151.1368  133.4952  159.2630 H   0  0  0  0  0  0  0  0  0  0  0  0  # atno 6909 bound_to 6896
  146.2429  140.0133  142.8404 H   0  0  0  0  0  0  0  0  0  0  0  0  # atno 7974 bound_to 7965
  155.4239  140.3447  155.4274 H   0  0  0  0  0  0  0  0  0  0  0  0  # atno 8008 bound_to 7997
  156.1377  140.1532  156.9000 H   0  0  0  0  0  0  0  0  0  0  0  0  # atno 8009 bound_to 7997
  154.4945  140.0832  156.7647 H   0  0  0  0  0  0  0  0  0  0  0  0  # atno 8010 bound_to 7997
  140.6382  143.7837  150.7389 H   0  0  0  0  0  0  0  0  0  0  0  0  # atno 10167 bound_to 10162
  157.5887  131.1067  150.8042 H   0  0  0  0  0  0  0  0  0  0  0  0  # atno 10718 bound_to 10713
  153.4602  135.3724  155.2334 H   0  0  0  0  0  0  0  0  0  0  0  0  # atno 10763 bound_to 10752
  154.8757  135.3907  154.3934 H   0  0  0  0  0  0  0  0  0  0  0  0  # atno 10764 bound_to 10752
  153.4506  135.7085  153.6175 H   0  0  0  0  0  0  0  0  0  0  0  0  # atno 10765 bound_to 10752
  139.8772  134.9059  156.4488 H   0  0  0  0  0  0  0  0  0  0  0  0  # atno 11005 bound_to 11000
  145.1308  140.9517  143.4545 LP  0  0  0  0  0  0  0  0  0  0  0  0  # atno 17320 bound_to 7965
  145.0389  139.3276  143.5986 LP  0  0  0  0  0  0  0  0  0  0  0  0  # atno 17321 bound_to 7965
  140.1463  143.4397  152.2161 LP  0  0  0  0  0  0  0  0  0  0  0  0  # atno 17342 bound_to 10162
  139.5591  144.7394  151.4206 LP  0  0  0  0  0  0  0  0  0  0  0  0  # atno 17343 bound_to 10162
  156.8469  130.5067  149.5315 LP  0  0  0  0  0  0  0  0  0  0  0  0  # atno 17370 bound_to 10713
  156.0939  130.5917  150.9780 LP  0  0  0  0  0  0  0  0  0  0  0  0  # atno 17371 bound_to 10713
  140.8947  133.7823  155.9611 LP  0  0  0  0  0  0  0  0  0  0  0  0  # atno 17394 bound_to 11000
  140.8716  134.2719  157.5188 LP  0  0  0  0  0  0  0  0  0  0  0  0  # atno 17395 bound_to 11000

$$$$
