AV-unprocessed.smi:2457|AV-procd|sdf|9707|dock3
  -GOLD-   2272013343D 1   1.00000     0.00000
 Structure written by MMmdl.
 40 41  0  0  0  0  0  0  0  0  1 V2000
  145.4040  136.1131  152.4918 C   0  0  0  0  0  0  0  0  0  0  0  0
  145.9378  137.5058  152.3777 C   0  0  0  0  0  0  0  0  0  0  0  0
  146.1884  138.2030  151.2226 C   0  0  0  0  0  0  0  0  0  0  0  0
  146.8225  139.7920  151.5486 S   0  0  0  0  0  0  0  0  0  0  0  0
  146.7254  139.4455  153.2724 C   0  0  0  0  0  0  0  0  0  0  0  0
  147.1955  140.4002  154.3290 C   0  0  1  0  0  0  0  0  0  0  0  0
  146.9764  139.8471  155.7444 C   0  0  0  0  0  0  0  0  0  0  0  0
  148.6370  140.9068  154.0976 C   0  0  0  0  0  0  0  0  0  0  0  0
  149.0459  141.8831  155.1064 N   0  0  0  0  0  0  0  0  0  0  0  0
  150.0328  141.7092  155.9974 C   0  0  0  0  0  0  0  0  0  0  0  0
  150.6566  140.6580  156.1442 O   0  0  0  0  0  0  0  0  0  0  0  0
  150.2906  142.8341  156.6782 N   0  0  0  0  0  0  0  0  0  0  0  0
  151.3859  143.0024  157.6284 C   0  0  1  0  0  0  0  0  0  0  0  0
  151.3667  144.4321  158.2106 C   0  0  0  0  0  0  0  0  0  0  0  0
  152.5357  144.6912  159.1742 C   0  0  0  0  0  0  0  0  0  0  0  0
  152.5147  143.7493  160.3867 C   0  0  0  0  0  0  0  0  0  0  0  0
  152.6774  142.0165  159.8771 S   0  0  0  0  0  0  0  0  0  0  0  0
  151.2727  141.9366  158.7317 C   0  0  0  0  0  0  0  0  0  0  0  0
  146.2410  138.2278  153.5350 N   0  0  0  0  0  0  0  0  0  0  0  0
  145.0562  135.7395  151.5284 H   0  0  0  0  0  0  0  0  0  0  0  0
  144.5643  136.0677  153.1856 H   0  0  0  0  0  0  0  0  0  0  0  0
  146.1712  135.4284  152.8542 H   0  0  0  0  0  0  0  0  0  0  0  0
  146.0433  137.8782  150.2028 H   0  0  0  0  0  0  0  0  0  0  0  0
  146.5496  141.2755  154.2474 H   0  0  0  0  0  0  0  0  0  0  0  0
  145.9292  139.5906  155.9078 H   0  0  0  0  0  0  0  0  0  0  0  0
  147.2597  140.5796  156.5004 H   0  0  0  0  0  0  0  0  0  0  0  0
  147.5703  138.9484  155.9148 H   0  0  0  0  0  0  0  0  0  0  0  0
  149.3340  140.0692  154.1336 H   0  0  0  0  0  0  0  0  0  0  0  0
  148.7266  141.3314  153.0961 H   0  0  0  0  0  0  0  0  0  0  0  0
  148.5950  142.7855  155.0712 H   0  0  0  0  0  0  0  0  0  0  0  0
  149.7244  143.6475  156.4869 H   0  0  0  0  0  0  0  0  0  0  0  0
  152.3304  142.8458  157.1036 H   0  0  0  0  0  0  0  0  0  0  0  0
  151.4137  145.1617  157.4009 H   0  0  0  0  0  0  0  0  0  0  0  0
  150.4216  144.6122  158.7249 H   0  0  0  0  0  0  0  0  0  0  0  0
  153.4823  144.5870  158.6423 H   0  0  0  0  0  0  0  0  0  0  0  0
  152.4920  145.7240  159.5214 H   0  0  0  0  0  0  0  0  0  0  0  0
  153.3319  143.9908  161.0667 H   0  0  0  0  0  0  0  0  0  0  0  0
  151.5867  143.8701  160.9464 H   0  0  0  0  0  0  0  0  0  0  0  0
  150.3489  142.0647  159.2969 H   0  0  0  0  0  0  0  0  0  0  0  0
  151.2456  140.9375  158.2954 H   0  0  0  0  0  0  0  0  0  0  0  0
  1  2  1  0  0  0  0
  1 20  1  0  0  0  0
  1 21  1  0  0  0  0
  1 22  1  0  0  0  0
  2 19  1  0  0  0  0
  2  3  2  0  0  0  0
  3  4  1  0  0  0  0
  3 23  1  0  0  0  0
  4  5  1  0  0  0  0
  5  6  1  0  0  0  0
  5 19  2  0  0  0  0
  6  7  1  0  0  0  0
  6  8  1  0  0  0  0
  6 24  1  0  0  0  0
  7 25  1  0  0  0  0
  7 26  1  0  0  0  0
  7 27  1  0  0  0  0
  8  9  1  0  0  0  0
  8 28  1  0  0  0  0
  8 29  1  0  0  0  0
  9 10  1  0  0  0  0
  9 30  1  0  0  0  0
 10 11  2  0  0  0  0
 10 12  1  0  0  0  0
 12 13  1  0  0  0  0
 12 31  1  0  0  0  0
 13 18  1  0  0  0  0
 13 14  1  0  0  0  0
 13 32  1  0  0  0  0
 14 15  1  0  0  0  0
 14 33  1  0  0  0  0
 14 34  1  0  0  0  0
 15 16  1  0  0  0  0
 15 35  1  0  0  0  0
 15 36  1  0  0  0  0
 16 17  1  0  0  0  0
 16 37  1  0  0  0  0
 16 38  1  0  0  0  0
 17 18  1  0  0  0  0
 18 39  1  0  0  0  0
 18 40  1  0  0  0  0
M  END
> <s_m_source_file>
AV-unprocessed.smi

> <i_m_source_file_index>
2457

> <i_lp_mmshare_version>
43012

> <i_f3d_flags>
0

> <s_epik_input>
W0NIM11jMVtjSF1zYyhuMSlbQ0BIXShbQ0gzXSlbQ0gyXVtOSF1DKD1PKVtOSF1bQ0BASF0yW0NIMl1bQ0gyXVtDSDJdU1tDSDJdMg==

> <s_epik_cmdline>
J2VwaWtfcHl0aG9uJywgJy1waCcsICc3LjAnLCAnLXRuJywgJzgnLCAnLW1hJywgJzIwMCcsICctbWV0YWxfYmluZGluZycsICctaW1hZScsICc8aW5maWxlLm1hZT4nLCAnLW9tYWUnLCAnPG91dGZpbGUubWFlPic=

> <r_epik_Ionization_Penalty>
0.00154805

> <r_epik_Ionization_Penalty_Charging>
0

> <r_epik_Ionization_Penalty_Neutral>
0.00154805

> <r_epik_State_Penalty>
0.00100357

> <r_epik_Charging_Adjusted_Penalty>
0.00100357

> <i_epik_Tot_Q>
0

> <i_epik_Tot_abs_Q>
0

> <r_epik_Metal_State_Penalty>
-0

> <b_epik_Metal_Only>
0

> <s_lp_Force_Field>
OPLS_2005

> <r_lp_Energy>
-7.34104

> <b_lp_Chiralities_Consistent>
1

> <s_lp_Variant>
AV-unprocessed.smi:2457-4

> <Gold.Version>
5.8.1

> <Gold.Id.Protein>
6NUR|6NUR_protein|mol2

> <Gold.PLP.Fitness>
44.7693

> <Gold.PLP.PLP>
-38.0360

> <Gold.PLP.part.hbond>
-2.0000

> <Gold.PLP.part.metal>
0.0000

> <Gold.PLP.part.buried>
1.1856

> <Gold.PLP.part.nonpolar>
-38.9702

> <Gold.PLP.part.repulsive>
0.4526

> <Gold.PLP.ligand.clash>
0.0000

> <Gold.PLP.ligand.torsion>
0.0832

> <Gold.PLP.Chemscore.Hbond>
1.8160

> <Gold.PLP.Chemscore.CHOScore>
0.4427

> <Gold.PLP.Chemscore.Metal>
0.0000

> <Gold.Chemscore.Hbonds>
donor molecule, donor type, donor heavy atom, donor atom, acceptor molecule, acceptor atom, score
      L1  H     9    30       P1  8028  0.83
      L1  H    12    31       P1  8028  1.00
      L1  C     3    23       P1 10171  0.44

> <Gold.PLP.Chemscore.Internal.Correction>
0.1235

> <Gold.Rescore>
     Score         DG    S(hbond)    S(metal)    S(lipo)     H(rot)  DE(clash)    DE(int)     intcor
     18.55     -20.84       1.78        0.00     112.37       1.46       1.03       1.26       ----

> <Gold.Chemscore.Fitness>
18.5487

> <Gold.Chemscore.DG>
-20.8380

> <Gold.Chemscore.ZeroCoef>
-5.4800

> <Gold.Chemscore.Hbond>
1.7822

> <Gold.Chemscore.Metal>
0.0000

> <Gold.Chemscore.Lipo>
112.3675

> <Gold.Chemscore.Internal_Hbond>
0.0000

> <Gold.Chemscore.DEClash>
1.0318

> <Gold.Chemscore.DEInternal>
1.2575

> <Gold.Chemscore.Rot>
1.4616

> <Gold.Chemscore.Internal.Correction>
   9.000000E+99

> <Gold.Chemscore.Hbonds>
donor molecule, donor type, donor heavy atom, donor atom, acceptor molecule, acceptor atom, score
      L1  H     9    30       P1  8028  0.78
      L1  H    12    31       P1  8028  0.97

> <Gold.Chemscore.Hbond.Weighted>
-5.9526

> <Gold.Chemscore.Metal.Weighted>
-0.0000

> <Gold.Chemscore.Lipo.Weighted>
-13.1470

> <Gold.Chemscore.Internal_Hbond.Weighted>
0.0000

> <Gold.Chemscore.DEClash.Weighted>
1.0318

> <Gold.Chemscore.DEInternal.Weighted>
1.2575

> <Gold.Chemscore.Rot.Weighted>
3.7416

> <Gold.Chemscore.Internal.Correction.Weighted>
   9.000000E+99

> <Gold.Protein.RotatedTorsions>
[ 6907 6896 6895 6894 ] final  169.31 input  -60.11 | X-H torsion
[ 7974 7965 7964 7962 ] final -137.12 input  175.53 | X-H torsion
[ 8008 7997 7996 7995 ] final  137.05 input   59.86 | X-H torsion
[ 10167 10162 10161 10158 ] final    4.39 input  -65.29 | X-H torsion
[ 10718 10713 10712 10709 ] final -144.36 input   66.30 | X-H torsion
[ 10763 10752 10751 10750 ] final -110.99 input  -60.55 | X-H torsion
[ 11005 11000 10999 10996 ] final -138.97 input  -57.11 | X-H torsion

> <Gold.Protein.ActiveResidues>
 VAL166  LYS551  ARG553  GLY616  TRP617  ASP618  TYR619  PRO620  LYS621  CYS622 
 ASP623  PHE694  ASN695  SER759  ASP760  ASP761  ALA762  ILE779  LEU786  VAL792 
 PHE793  MET794  SER795  GLU796  ALA797  LYS798  CYS799  TRP800  GLU811  SER814 

> <Gold.Protein.RotatedAtoms>
  151.8339  133.3413  159.3621 H   0  0  0  0  0  0  0  0  0  0  0  0  # atno 6907 bound_to 6896
  150.7255  134.5456  159.5778 H   0  0  0  0  0  0  0  0  0  0  0  0  # atno 6908 bound_to 6896
  152.2915  134.7717  160.0428 H   0  0  0  0  0  0  0  0  0  0  0  0  # atno 6909 bound_to 6896
  144.8868  140.6586  143.5170 H   0  0  0  0  0  0  0  0  0  0  0  0  # atno 7974 bound_to 7965
  156.3003  140.2429  156.3846 H   0  0  0  0  0  0  0  0  0  0  0  0  # atno 8008 bound_to 7997
  154.8670  140.0417  157.1720 H   0  0  0  0  0  0  0  0  0  0  0  0  # atno 8009 bound_to 7997
  154.8836  140.2953  155.5415 H   0  0  0  0  0  0  0  0  0  0  0  0  # atno 8010 bound_to 7997
  140.6537  143.7480  150.7618 H   0  0  0  0  0  0  0  0  0  0  0  0  # atno 10167 bound_to 10162
  156.3691  130.7778  151.1957 H   0  0  0  0  0  0  0  0  0  0  0  0  # atno 10718 bound_to 10713
  154.8277  135.4544  154.0971 H   0  0  0  0  0  0  0  0  0  0  0  0  # atno 10763 bound_to 10752
  153.2270  135.6901  153.7939 H   0  0  0  0  0  0  0  0  0  0  0  0  # atno 10764 bound_to 10752
  153.7336  135.3323  155.3267 H   0  0  0  0  0  0  0  0  0  0  0  0  # atno 10765 bound_to 10752
  140.8564  134.2222  157.4732 H   0  0  0  0  0  0  0  0  0  0  0  0  # atno 11005 bound_to 11000
  145.3854  139.1628  143.4258 LP  0  0  0  0  0  0  0  0  0  0  0  0  # atno 17320 bound_to 7965
  146.3029  140.3938  142.8697 LP  0  0  0  0  0  0  0  0  0  0  0  0  # atno 17321 bound_to 7965
  140.1136  143.4676  152.2355 LP  0  0  0  0  0  0  0  0  0  0  0  0  # atno 17342 bound_to 10162
  139.5756  144.7485  151.3774 LP  0  0  0  0  0  0  0  0  0  0  0  0  # atno 17343 bound_to 10162
  157.7482  131.0377  150.4470 LP  0  0  0  0  0  0  0  0  0  0  0  0  # atno 17370 bound_to 10713
  156.4694  130.4049  149.6527 LP  0  0  0  0  0  0  0  0  0  0  0  0  # atno 17371 bound_to 10713
  139.8705  134.9708  156.4716 LP  0  0  0  0  0  0  0  0  0  0  0  0  # atno 17394 bound_to 11000
  140.8732  133.7973  155.9386 LP  0  0  0  0  0  0  0  0  0  0  0  0  # atno 17395 bound_to 11000

$$$$
