AV-unprocessed.smi:3211|AV-procd|sdf|12276|dock3
  -GOLD-   2272018113D 1   1.00000     0.00000
 Structure written by MMmdl.
 34 35  0  0  0  0  0  0  0  0  1 V2000
  152.9416  142.5904  162.5081 C   0  0  0  0  0  0  0  0  0  0  0  0
  152.5334  143.9984  162.0615 C   0  0  0  0  0  0  0  0  0  0  0  0
  151.8187  144.0003  160.7517 C   0  0  0  0  0  0  0  0  0  0  0  0
  151.2916  142.9050  160.1976 N   0  0  0  0  0  0  0  0  0  0  0  0
  150.6519  143.1702  158.9826 C   0  0  0  0  0  0  0  0  0  0  0  0
  150.0194  142.0535  158.2087 C   0  0  0  0  0  0  0  0  0  0  0  0
  150.7157  141.8190  156.8582 C   0  0  0  0  0  0  0  0  0  0  0  0
  149.8092  142.0477  155.7386 N   0  0  0  0  0  0  0  0  0  0  0  0
  149.6968  141.2529  154.6634 C   0  0  0  0  0  0  0  0  0  0  0  0
  150.3685  140.2307  154.5187 O   0  0  0  0  0  0  0  0  0  0  0  0
  148.6769  141.7211  153.6718 C   0  0  2  0  0  0  0  0  0  0  0  0
  147.2611  141.9477  154.1648 C   0  0  0  0  0  0  0  0  0  0  0  0
  147.5491  140.7957  153.2321 C   0  0  2  0  0  0  0  0  0  0  0  0
  147.3846  139.3599  153.6991 C   0  0  0  0  0  0  0  0  0  0  0  0
  150.6883  144.4963  158.6304 C   0  0  0  0  0  0  0  0  0  0  0  0
  151.5287  145.4604  159.8130 S   0  0  0  0  0  0  0  0  0  0  0  0
  153.4640  142.6222  163.4645 H   0  0  0  0  0  0  0  0  0  0  0  0
  153.6067  142.1245  161.7804 H   0  0  0  0  0  0  0  0  0  0  0  0
  152.0692  141.9466  162.6254 H   0  0  0  0  0  0  0  0  0  0  0  0
  151.8868  144.4539  162.8122 H   0  0  0  0  0  0  0  0  0  0  0  0
  153.4160  144.6344  161.9829 H   0  0  0  0  0  0  0  0  0  0  0  0
  150.0447  141.1342  158.7952 H   0  0  0  0  0  0  0  0  0  0  0  0
  148.9637  142.2728  158.0439 H   0  0  0  0  0  0  0  0  0  0  0  0
  151.5949  142.4591  156.7665 H   0  0  0  0  0  0  0  0  0  0  0  0
  151.0745  140.7911  156.7980 H   0  0  0  0  0  0  0  0  0  0  0  0
  149.2211  142.8671  155.7875 H   0  0  0  0  0  0  0  0  0  0  0  0
  149.0435  142.4060  152.9084 H   0  0  0  0  0  0  0  0  0  0  0  0
  147.0268  141.7124  155.2017 H   0  0  0  0  0  0  0  0  0  0  0  0
  146.7301  142.8078  153.7621 H   0  0  0  0  0  0  0  0  0  0  0  0
  147.2504  140.9265  152.1938 H   0  0  0  0  0  0  0  0  0  0  0  0
  147.4672  139.2764  154.7821 H   0  0  0  0  0  0  0  0  0  0  0  0
  148.1419  138.7262  153.2375 H   0  0  0  0  0  0  0  0  0  0  0  0
  146.4010  138.9889  153.4109 H   0  0  0  0  0  0  0  0  0  0  0  0
  150.2720  144.9629  157.7499 H   0  0  0  0  0  0  0  0  0  0  0  0
  1  2  1  0  0  0  0
  1 17  1  0  0  0  0
  1 18  1  0  0  0  0
  1 19  1  0  0  0  0
  2  3  1  0  0  0  0
  2 20  1  0  0  0  0
  2 21  1  0  0  0  0
  3 16  1  0  0  0  0
  3  4  2  0  0  0  0
  4  5  1  0  0  0  0
  5  6  1  0  0  0  0
  5 15  2  0  0  0  0
  6  7  1  0  0  0  0
  6 22  1  0  0  0  0
  6 23  1  0  0  0  0
  7  8  1  0  0  0  0
  7 24  1  0  0  0  0
  7 25  1  0  0  0  0
  8  9  1  0  0  0  0
  8 26  1  0  0  0  0
  9 10  2  0  0  0  0
  9 11  1  0  0  0  0
 11 13  1  0  0  0  0
 11 12  1  0  0  0  0
 11 27  1  0  0  0  0
 12 13  1  0  0  0  0
 12 28  1  0  0  0  0
 12 29  1  0  0  0  0
 13 14  1  0  0  0  0
 13 30  1  0  0  0  0
 14 31  1  0  0  0  0
 14 32  1  0  0  0  0
 14 33  1  0  0  0  0
 15 16  1  0  0  0  0
 15 34  1  0  0  0  0
M  END
> <s_m_source_file>
AV-unprocessed.smi

> <i_m_source_file_index>
3211

> <i_lp_mmshare_version>
43012

> <i_f3d_flags>
0

> <s_epik_input>
W0NIM11bQ0gyXWMxbmMoW2NIXXMxKVtDSDJdW0NIMl1bTkhdQyg9TylbQ0BASF0yW0NIMl1bQ0BIXTJbQ0gzXQ==

> <s_epik_cmdline>
J2VwaWtfcHl0aG9uJywgJy1waCcsICc3LjAnLCAnLXRuJywgJzgnLCAnLW1hJywgJzIwMCcsICctbWV0YWxfYmluZGluZycsICctaW1hZScsICc8aW5maWxlLm1hZT4nLCAnLW9tYWUnLCAnPG91dGZpbGUubWFlPic=

> <r_epik_Ionization_Penalty>
0.00109667

> <r_epik_Ionization_Penalty_Charging>
0

> <r_epik_Ionization_Penalty_Neutral>
0.00109667

> <r_epik_State_Penalty>
0.000719322

> <r_epik_Charging_Adjusted_Penalty>
0.000719322

> <i_epik_Tot_Q>
0

> <i_epik_Tot_abs_Q>
0

> <r_epik_Metal_State_Penalty>
-0

> <b_epik_Metal_Only>
0

> <s_lp_Force_Field>
OPLS_2005

> <r_lp_Energy>
-0.716075

> <b_lp_Chiralities_Consistent>
1

> <s_lp_Variant>
AV-unprocessed.smi:3211-3

> <Gold.Version>
5.8.1

> <Gold.Id.Protein>
6NUR|6NUR_protein|mol2

> <Gold.PLP.Fitness>
47.3463

> <Gold.PLP.PLP>
-39.7871

> <Gold.PLP.part.hbond>
-3.0000

> <Gold.PLP.part.metal>
0.0000

> <Gold.PLP.part.buried>
-4.0562

> <Gold.PLP.part.nonpolar>
-32.2195

> <Gold.PLP.part.repulsive>
0.2584

> <Gold.PLP.ligand.clash>
0.0000

> <Gold.PLP.ligand.torsion>
0.7266

> <Gold.PLP.Chemscore.Hbond>
2.0000

> <Gold.PLP.Chemscore.CHOScore>
0.9696

> <Gold.PLP.Chemscore.Metal>
0.0000

> <Gold.Chemscore.Hbonds>
donor molecule, donor type, donor heavy atom, donor atom, acceptor molecule, acceptor atom, score
      L1  H     8    26       P1  8028  1.00
      P1  H  7989  7998       L1    10  0.95
      L1  C    15    34       P1  8028  0.64
      L1  C    15    34       P1  8029  0.32

> <Gold.PLP.Chemscore.Internal.Correction>
0.1035

> <Gold.Rescore>
     Score         DG    S(hbond)    S(metal)    S(lipo)     H(rot)  DE(clash)    DE(int)     intcor
     17.40     -18.45       1.50        0.00     101.11       1.51       0.46       0.60       ----

> <Gold.Chemscore.Fitness>
17.3950

> <Gold.Chemscore.DG>
-18.4539

> <Gold.Chemscore.ZeroCoef>
-5.4800

> <Gold.Chemscore.Hbond>
1.4997

> <Gold.Chemscore.Metal>
0.0000

> <Gold.Chemscore.Lipo>
101.1059

> <Gold.Chemscore.Internal_Hbond>
0.0000

> <Gold.Chemscore.DEClash>
0.4564

> <Gold.Chemscore.DEInternal>
0.6025

> <Gold.Chemscore.Rot>
1.5096

> <Gold.Chemscore.Internal.Correction>
   9.000000E+99

> <Gold.Chemscore.Hbonds>
donor molecule, donor type, donor heavy atom, donor atom, acceptor molecule, acceptor atom, score
      L1  H     8    26       P1  8028  0.97
      P1  H  7989  7998       L1    10  0.21

> <Gold.Chemscore.Hbond.Weighted>
-5.0091

> <Gold.Chemscore.Metal.Weighted>
-0.0000

> <Gold.Chemscore.Lipo.Weighted>
-11.8294

> <Gold.Chemscore.Internal_Hbond.Weighted>
0.0000

> <Gold.Chemscore.DEClash.Weighted>
0.4564

> <Gold.Chemscore.DEInternal.Weighted>
0.6025

> <Gold.Chemscore.Rot.Weighted>
3.8646

> <Gold.Chemscore.Internal.Correction.Weighted>
   9.000000E+99

> <Gold.Protein.RotatedTorsions>
[ 6907 6896 6895 6894 ] final   88.38 input  -60.11 | X-H torsion
[ 7974 7965 7964 7962 ] final -143.20 input  175.53 | X-H torsion
[ 8008 7997 7996 7995 ] final  172.51 input   59.86 | X-H torsion
[ 10167 10162 10161 10158 ] final   29.25 input  -65.29 | X-H torsion
[ 10718 10713 10712 10709 ] final  -51.50 input   66.30 | X-H torsion
[ 10763 10752 10751 10750 ] final   -9.42 input  -60.55 | X-H torsion
[ 11005 11000 10999 10996 ] final  -15.57 input  -57.11 | X-H torsion

> <Gold.Protein.ActiveResidues>
 VAL166  LYS551  ARG553  GLY616  TRP617  ASP618  TYR619  PRO620  LYS621  CYS622 
 ASP623  PHE694  ASN695  SER759  ASP760  ASP761  ALA762  ILE779  LEU786  VAL792 
 PHE793  MET794  SER795  GLU796  ALA797  LYS798  CYS799  TRP800  GLU811  SER814 

> <Gold.Protein.RotatedAtoms>
  152.5424  134.2130  159.8757 H   0  0  0  0  0  0  0  0  0  0  0  0  # atno 6907 bound_to 6896
  151.2111  133.4548  159.2606 H   0  0  0  0  0  0  0  0  0  0  0  0  # atno 6908 bound_to 6896
  151.0896  134.9920  159.8452 H   0  0  0  0  0  0  0  0  0  0  0  0  # atno 6909 bound_to 6896
  144.8387  140.5864  143.5467 H   0  0  0  0  0  0  0  0  0  0  0  0  # atno 7974 bound_to 7965
  156.1167  140.1484  156.9262 H   0  0  0  0  0  0  0  0  0  0  0  0  # atno 8008 bound_to 7997
  154.4806  140.0880  156.7410 H   0  0  0  0  0  0  0  0  0  0  0  0  # atno 8009 bound_to 7997
  155.4501  140.3434  155.4302 H   0  0  0  0  0  0  0  0  0  0  0  0  # atno 8010 bound_to 7997
  140.4782  144.0657  150.6257 H   0  0  0  0  0  0  0  0  0  0  0  0  # atno 10167 bound_to 10162
  156.1704  130.4149  149.9656 H   0  0  0  0  0  0  0  0  0  0  0  0  # atno 10718 bound_to 10713
  153.4545  135.7015  153.6088 H   0  0  0  0  0  0  0  0  0  0  0  0  # atno 10763 bound_to 10752
  153.4409  135.3780  155.2227 H   0  0  0  0  0  0  0  0  0  0  0  0  # atno 10764 bound_to 10752
  154.8728  135.3973  154.3962 H   0  0  0  0  0  0  0  0  0  0  0  0  # atno 10765 bound_to 10752
  140.7980  133.8236  155.9443 H   0  0  0  0  0  0  0  0  0  0  0  0  # atno 11005 bound_to 11000
  145.4740  139.1501  143.3798 LP  0  0  0  0  0  0  0  0  0  0  0  0  # atno 17320 bound_to 7965
  146.2682  140.4874  142.8825 LP  0  0  0  0  0  0  0  0  0  0  0  0  # atno 17321 bound_to 7965
  140.3891  143.2762  152.0081 LP  0  0  0  0  0  0  0  0  0  0  0  0  # atno 17342 bound_to 10162
  139.4829  144.6092  151.7465 LP  0  0  0  0  0  0  0  0  0  0  0  0  # atno 17343 bound_to 10162
  156.7458  130.9096  151.3635 LP  0  0  0  0  0  0  0  0  0  0  0  0  # atno 17370 bound_to 10713
  157.6798  130.9129  150.0240 LP  0  0  0  0  0  0  0  0  0  0  0  0  # atno 17371 bound_to 10713
  140.9323  134.2006  157.4855 LP  0  0  0  0  0  0  0  0  0  0  0  0  # atno 17394 bound_to 11000
  139.8724  134.9838  156.5212 LP  0  0  0  0  0  0  0  0  0  0  0  0  # atno 17395 bound_to 11000

$$$$
