#       Name:                AV-unprocessed.smi:2671
#       Creating user name   scv26
#       Creation time:       Fri Mar 27 14:37:39 2020


#       File generated by GOLD software.
#

@<TRIPOS>MOLECULE
AV-unprocessed.smi:2671
    34    35     1
SMALL
NO_CHARGES


@<TRIPOS>ATOM
      1 ****        -4.2804  -1.5168   0.0838 O.2            1 S1                 0.0000
      2 ****        -3.5724  -0.5869   0.4644 C.2            1 S1                 0.0000
      3 ****        -4.1051   0.4535   1.3526 C.2            1 S1                 0.0000
      4 ****        -3.3059   1.4623   1.7543 C.2            1 S1                 0.0000
      5 ****        -3.7764   2.5773   2.6745 C.3            1 S1                 0.0000
      6 ****        -4.7779   3.2485   2.1070 F              1 S1                 0.0000
      7 ****        -4.2170   2.0694   3.8250 F              1 S1                 0.0000
      8 ****        -2.7959   3.4408   2.9470 F              1 S1                 0.0000
      9 ****        -1.9869   1.5188   1.3343 N.pl3          1 S1                 0.0000
     10 ****        -1.5068   0.5227   0.4932 C.2            1 S1                 0.0000
     11 ****         0.2381   0.8350   0.0950 S.3            1 S1                 0.0000
     12 ****         0.6231  -0.5696  -0.9906 C.3            1 S1                 0.0000
     13 ****         2.0796  -0.5360  -1.4729 C.3            1 S1                 0.0000
     14 ****         3.1212  -0.7735  -0.3780 C.3            1 S1                 0.0000
     15 ****         4.2982  -1.3878  -1.1222 C.3            1 S1                 0.0000
     16 ****         3.7374  -1.7167  -2.5082 C.3            1 S1                 0.0000
     17 ****         2.3285  -1.6079  -2.3676 O.3            1 S1                 0.0000
     18 ****        -2.2291  -0.4755   0.0701 N.2            1 S1                 0.0000
     19 ****        -1.4193   2.2892   1.6579 H              1 S1                 0.0000
     20 ****        -5.1332   0.4085   1.6818 H              1 S1                 0.0000
     21 ****        -0.0470  -0.5357  -1.8499 H              1 S1                 0.0000
     22 ****         0.4198  -1.5021  -0.4629 H              1 S1                 0.0000
     23 ****         2.2855   0.4028  -1.9909 H              1 S1                 0.0000
     24 ****         3.3866   0.1427   0.1504 H              1 S1                 0.0000
     25 ****         2.7443  -1.4862   0.3569 H              1 S1                 0.0000
     26 ****         5.1374  -0.6955  -1.1968 H              1 S1                 0.0000
     27 ****         4.6478  -2.2855  -0.6111 H              1 S1                 0.0000
     28 ****         4.0805  -0.9873  -3.2434 H              1 S1                 0.0000
     29 ****         4.0254  -2.7096  -2.8539 H              1 S1                 0.0000
     30 ****        -3.9027  -2.2175  -0.5215 LP             1 S1                 0.0000
     31 ****        -5.2341  -1.5726   0.3795 LP             1 S1                 0.0000
     32 ****         1.9089  -1.4181  -3.2553 LP             1 S1                 0.0000
     33 ****         1.9542  -2.4579  -1.9969 LP             1 S1                 0.0000
     34 ****        -1.8271  -1.1623  -0.5354 LP             1 S1                 0.0000
@<TRIPOS>BOND
    1    1    2 2     
    2    2   18 1     
    3    2    3 1     
    4    3   20 1     
    5    3    4 2     
    6    4    5 1     
    7    4    9 1     
    8    5    6 1     
    9    5    7 1     
   10    5    8 1     
   11    9   10 1     
   12    9   19 1     
   13   10   11 1     
   14   10   18 2     
   15   11   12 1     
   16   12   13 1     
   17   12   21 1     
   18   12   22 1     
   19   13   17 1     
   20   13   14 1     
   21   13   23 1     
   22   14   15 1     
   23   14   24 1     
   24   14   25 1     
   25   15   16 1     
   26   15   26 1     
   27   15   27 1     
   28   16   17 1     
   29   16   28 1     
   30   16   29 1     
   31    1   30 1     
   32    1   31 1     
   33   17   32 1     
   34   17   33 1     
   35   18   34 1     
@<TRIPOS>SUBSTRUCTURE
      1 S1             1
@<TRIPOS>SET
LONE_PAIRS      STATIC     ATOMS    <user>   **** ""
5 30 31 32 33 34
DONOR_HYDROGENS      STATIC     ATOMS    <user>   **** ""
1 19
ATOM$BLUE        STATIC     ATOMS    COLORGROUP SYSTEM
5 30 31 32 33 34
ATOM$RED        STATIC     ATOMS    COLORGROUP SYSTEM
1 19
