AV-unprocessed.smi:2526|AV-procd|sdf|9940|dock8
  -GOLD-   2272013583D 1   1.00000     0.00000
 Structure written by MMmdl.
 28 29  0  0  0  0  0  0  0  0  1 V2000
  145.2974  136.1910  151.6102 C   0  0  0  0  0  0  0  0  0  0  0  0
  145.9359  137.2021  152.4252 N   0  0  0  0  0  0  0  0  0  0  0  0
  146.2550  138.5002  152.0925 C   0  0  0  0  0  0  0  0  0  0  0  0
  146.8523  139.0741  153.1822 C   0  0  0  0  0  0  0  0  0  0  0  0
  147.3997  140.4777  153.3585 C   0  0  2  0  0  0  0  0  0  0  0  0
  148.8566  140.4486  153.5160 N   0  0  0  0  0  0  0  0  0  0  0  0
  149.5405  140.5074  154.6745 C   0  0  0  0  0  0  0  0  0  0  0  0
  150.7596  140.3570  154.7056 O   0  0  0  0  0  0  0  0  0  0  0  0
  148.7871  140.8198  155.9791 C   0  0  0  0  0  0  0  0  0  0  0  0
  147.2575  140.6824  155.8766 C   0  0  0  0  0  0  0  0  0  0  0  0
  146.7497  141.2386  154.5404 C   0  0  2  0  0  0  0  0  0  0  0  0
  145.2989  141.2164  154.4875 N   0  0  0  0  0  0  0  0  0  0  0  0
  146.8421  138.0224  154.1443 C   0  0  0  0  0  0  0  0  0  0  0  0
  146.2953  136.9069  153.6902 N   0  0  0  0  0  0  0  0  0  0  0  0
  145.0980  136.5853  150.6134 H   0  0  0  0  0  0  0  0  0  0  0  0
  144.3545  135.8892  152.0672 H   0  0  0  0  0  0  0  0  0  0  0  0
  145.9493  135.3213  151.5227 H   0  0  0  0  0  0  0  0  0  0  0  0
  146.0378  138.9045  151.1147 H   0  0  0  0  0  0  0  0  0  0  0  0
  147.2069  141.0510  152.4511 H   0  0  0  0  0  0  0  0  0  0  0  0
  149.3910  140.2870  152.6746 H   0  0  0  0  0  0  0  0  0  0  0  0
  149.1660  140.1851  156.7805 H   0  0  0  0  0  0  0  0  0  0  0  0
  149.0354  141.8454  156.2537 H   0  0  0  0  0  0  0  0  0  0  0  0
  146.9724  139.6351  155.9862 H   0  0  0  0  0  0  0  0  0  0  0  0
  146.7917  141.2134  156.7076 H   0  0  0  0  0  0  0  0  0  0  0  0
  147.0476  142.2863  154.4791 H   0  0  0  0  0  0  0  0  0  0  0  0
  144.9955  140.8578  153.5933 H   0  0  0  0  0  0  0  0  0  0  0  0
  144.9413  140.5845  155.1896 H   0  0  0  0  0  0  0  0  0  0  0  0
  147.2182  138.0386  155.1566 H   0  0  0  0  0  0  0  0  0  0  0  0
  1  2  1  0  0  0  0
  1 15  1  0  0  0  0
  1 16  1  0  0  0  0
  1 17  1  0  0  0  0
  2 14  1  0  0  0  0
  2  3  1  0  0  0  0
  3  4  2  0  0  0  0
  3 18  1  0  0  0  0
  4  5  1  0  0  0  0
  4 13  1  0  0  0  0
  5 11  1  0  0  0  0
  5  6  1  0  0  0  0
  5 19  1  0  0  0  0
  6  7  1  0  0  0  0
  6 20  1  0  0  0  0
  7  8  2  0  0  0  0
  7  9  1  0  0  0  0
  9 10  1  0  0  0  0
  9 21  1  0  0  0  0
  9 22  1  0  0  0  0
 10 11  1  0  0  0  0
 10 23  1  0  0  0  0
 10 24  1  0  0  0  0
 11 12  1  0  0  0  0
 11 25  1  0  0  0  0
 12 26  1  0  0  0  0
 12 27  1  0  0  0  0
 13 14  2  0  0  0  0
 13 28  1  0  0  0  0
M  END
> <s_m_source_file>
AV-unprocessed.smi

> <i_m_source_file_index>
2526

> <i_lp_mmshare_version>
43012

> <i_f3d_flags>
0

> <s_epik_input>
W0NIM11uMVtjSF1jKFtjSF1uMSlbQ0BASF0yW05IXUMoPU8pW0NIMl1bQ0gyXVtDQEhdMltOSDJd

> <s_epik_cmdline>
J2VwaWtfcHl0aG9uJywgJy1waCcsICc3LjAnLCAnLXRuJywgJzgnLCAnLW1hJywgJzIwMCcsICctbWV0YWxfYmluZGluZycsICctaW1hZScsICc8aW5maWxlLm1hZT4nLCAnLW9tYWUnLCAnPG91dGZpbGUubWFlPic=

> <r_lp_tautomer_probability>
1

> <r_epik_Ionization_Penalty>
2.50279

> <r_epik_Ionization_Penalty_Charging>
0

> <r_epik_Ionization_Penalty_Neutral>
2.50279

> <r_epik_State_Penalty>
2.66754

> <r_epik_Charging_Adjusted_Penalty>
2.66754

> <i_epik_Tot_Q>
0

> <i_epik_Tot_abs_Q>
0

> <r_epik_Metal_State_Penalty>
2.66721

> <b_epik_Metal_Only>
0

> <s_lp_Force_Field>
OPLS_2005

> <r_lp_Energy>
9.07017

> <b_lp_Chiralities_Consistent>
1

> <s_lp_Variant>
AV-unprocessed.smi:2526-7

> <Gold.Version>
5.8.1

> <Gold.Id.Protein>
6NUR|6NUR_protein|mol2

> <Gold.PLP.Fitness>
32.6720

> <Gold.PLP.PLP>
-20.9590

> <Gold.PLP.part.hbond>
-2.9250

> <Gold.PLP.part.metal>
0.0000

> <Gold.PLP.part.buried>
-1.9457

> <Gold.PLP.part.nonpolar>
-17.6512

> <Gold.PLP.part.repulsive>
0.3648

> <Gold.PLP.ligand.clash>
0.0000

> <Gold.PLP.ligand.torsion>
0.0507

> <Gold.PLP.Chemscore.Hbond>
2.9920

> <Gold.PLP.Chemscore.CHOScore>
0.9403

> <Gold.PLP.Chemscore.Metal>
0.0000

> <Gold.Chemscore.Hbonds>
donor molecule, donor type, donor heavy atom, donor atom, acceptor molecule, acceptor atom, score
      L1  H     6    20       P1  7957  1.00
      L1  H    12    26       P1 10175  0.98
      P1  H  7989  7998       L1     8  1.00
      L1  C     3    18       P1 10171  0.94

> <Gold.PLP.Chemscore.Internal.Correction>
0.0176

> <Gold.Rescore>
     Score         DG    S(hbond)    S(metal)    S(lipo)     H(rot)  DE(clash)    DE(int)     intcor
     17.33     -17.38       2.87        0.00      41.59       1.00       0.04       0.01       ----

> <Gold.Chemscore.Fitness>
17.3286

> <Gold.Chemscore.DG>
-17.3810

> <Gold.Chemscore.ZeroCoef>
-5.4800

> <Gold.Chemscore.Hbond>
2.8727

> <Gold.Chemscore.Metal>
0.0000

> <Gold.Chemscore.Lipo>
41.5908

> <Gold.Chemscore.Internal_Hbond>
0.0000

> <Gold.Chemscore.DEClash>
0.0383

> <Gold.Chemscore.DEInternal>
0.0140

> <Gold.Chemscore.Rot>
1.0000

> <Gold.Chemscore.Internal.Correction>
   9.000000E+99

> <Gold.Chemscore.Hbonds>
donor molecule, donor type, donor heavy atom, donor atom, acceptor molecule, acceptor atom, score
      L1  H     6    20       P1  7957  0.94
      L1  H    12    26       P1 10175  0.80
      P1  H  7989  7998       L1     8  0.93

> <Gold.Chemscore.Hbond.Weighted>
-9.5948

> <Gold.Chemscore.Metal.Weighted>
-0.0000

> <Gold.Chemscore.Lipo.Weighted>
-4.8661

> <Gold.Chemscore.Internal_Hbond.Weighted>
0.0000

> <Gold.Chemscore.DEClash.Weighted>
0.0383

> <Gold.Chemscore.DEInternal.Weighted>
0.0140

> <Gold.Chemscore.Rot.Weighted>
2.5600

> <Gold.Chemscore.Internal.Correction.Weighted>
   9.000000E+99

> <Gold.Protein.RotatedTorsions>
[ 6907 6896 6895 6894 ] final   98.33 input  -60.11 | X-H torsion
[ 7974 7965 7964 7962 ] final  -94.32 input  175.53 | X-H torsion
[ 8008 7997 7996 7995 ] final -166.80 input   59.86 | X-H torsion
[ 10167 10162 10161 10158 ] final -146.10 input  -65.29 | X-H torsion
[ 10718 10713 10712 10709 ] final    5.52 input   66.30 | X-H torsion
[ 10763 10752 10751 10750 ] final   20.04 input  -60.55 | X-H torsion
[ 11005 11000 10999 10996 ] final  -33.22 input  -57.11 | X-H torsion

> <Gold.Protein.ActiveResidues>
 VAL166  LYS551  ARG553  GLY616  TRP617  ASP618  TYR619  PRO620  LYS621  CYS622 
 ASP623  PHE694  ASN695  SER759  ASP760  ASP761  ALA762  ILE779  LEU786  VAL792 
 PHE793  MET794  SER795  GLU796  ALA797  LYS798  CYS799  TRP800  GLU811  SER814 

> <Gold.Protein.RotatedAtoms>
  152.5411  134.0597  159.8146 H   0  0  0  0  0  0  0  0  0  0  0  0  # atno 6907 bound_to 6896
  151.0726  133.5446  159.2633 H   0  0  0  0  0  0  0  0  0  0  0  0  # atno 6908 bound_to 6896
  151.2303  135.0560  159.9039 H   0  0  0  0  0  0  0  0  0  0  0  0  # atno 6909 bound_to 6896
  145.3748  140.9510  143.2427 H   0  0  0  0  0  0  0  0  0  0  0  0  # atno 7974 bound_to 7965
  155.8689  140.0990  157.1564 H   0  0  0  0  0  0  0  0  0  0  0  0  # atno 8008 bound_to 7997
  154.3995  140.1351  156.4116 H   0  0  0  0  0  0  0  0  0  0  0  0  # atno 8009 bound_to 7997
  155.7773  140.3459  155.5281 H   0  0  0  0  0  0  0  0  0  0  0  0  # atno 8010 bound_to 7997
  139.7745  143.8190  152.2629 H   0  0  0  0  0  0  0  0  0  0  0  0  # atno 10167 bound_to 10162
  156.9086  130.5748  149.5647 H   0  0  0  0  0  0  0  0  0  0  0  0  # atno 10718 bound_to 10713
  153.1111  135.6697  153.9499 H   0  0  0  0  0  0  0  0  0  0  0  0  # atno 10763 bound_to 10752
  153.9042  135.3032  155.3450 H   0  0  0  0  0  0  0  0  0  0  0  0  # atno 10764 bound_to 10752
  154.7530  135.5025  153.9401 H   0  0  0  0  0  0  0  0  0  0  0  0  # atno 10765 bound_to 10752
  140.9617  133.7161  156.1379 H   0  0  0  0  0  0  0  0  0  0  0  0  # atno 11005 bound_to 11000
  144.8550  139.5263  143.6839 LP  0  0  0  0  0  0  0  0  0  0  0  0  # atno 17320 bound_to 7965
  146.2869  139.7029  142.9189 LP  0  0  0  0  0  0  0  0  0  0  0  0  # atno 17321 bound_to 7965
  139.8234  144.7285  150.9543 LP  0  0  0  0  0  0  0  0  0  0  0  0  # atno 17342 bound_to 10162
  140.7815  143.4137  151.0951 LP  0  0  0  0  0  0  0  0  0  0  0  0  # atno 17343 bound_to 10162
  156.0547  130.5610  150.9065 LP  0  0  0  0  0  0  0  0  0  0  0  0  # atno 17370 bound_to 10713
  157.5981  131.0942  150.9006 LP  0  0  0  0  0  0  0  0  0  0  0  0  # atno 17371 bound_to 10713
  140.7458  134.4099  157.5548 LP  0  0  0  0  0  0  0  0  0  0  0  0  # atno 17394 bound_to 11000
  139.8880  134.8867  156.2497 LP  0  0  0  0  0  0  0  0  0  0  0  0  # atno 17395 bound_to 11000

$$$$
