AV-unprocessed.smi:658|AV-procd|sdf|3233|dock10
  -GOLD-   22720 0183D 1   1.00000     0.00000
 Structure written by MMmdl.
 38 38  0  0  0  0  0  0  0  0  2 V2000
  150.4881  140.2854  155.2840 C   0  0  0  0  0  0  0  0  0  0  0  0
  150.4955  141.5688  156.1308 C   0  0  1  0  0  0  0  0  0  0  0  0
  149.1813  142.2392  155.9956 N   0  3  0  0  0  0  0  0  0  0  0  0
  148.1784  141.8448  157.0044 C   0  0  0  0  0  0  0  0  0  0  0  0
  146.7795  142.3281  156.6054 C   0  0  0  0  0  0  0  0  0  0  0  0
  145.6932  141.8367  157.5720 C   0  0  0  0  0  0  0  0  0  0  0  0
  145.6204  142.8737  159.0953 S   0  0  0  0  0  0  0  0  0  0  0  0
  145.5705  144.4654  158.4467 N   0  0  0  0  0  0  0  0  0  0  0  0
  144.3409  142.6377  159.7812 O   0  0  0  0  0  0  0  0  0  0  0  0
  146.8967  142.7384  159.8126 O   0  0  0  0  0  0  0  0  0  0  0  0
  150.8096  141.3099  157.6267 C   0  0  1  0  0  0  0  0  0  0  0  0
  151.8767  140.2213  157.8478 C   0  0  0  0  0  0  0  0  0  0  0  0
  151.2145  142.5462  158.2878 N   0  0  0  0  0  0  0  0  0  0  0  0
  151.2920  143.8233  157.7673 C   0  0  0  0  0  0  0  0  0  0  0  0
  151.6686  144.6562  158.7814 C   0  0  0  0  0  0  0  0  0  0  0  0
  151.7906  143.7900  159.9028 C   0  0  0  0  0  0  0  0  0  0  0  0
  151.5085  142.5315  159.6068 N   0  0  0  0  0  0  0  0  0  0  0  0
  151.4700  139.8135  155.2577 H   0  0  0  0  0  0  0  0  0  0  0  0
  150.2126  140.5009  154.2510 H   0  0  0  0  0  0  0  0  0  0  0  0
  149.7756  139.5565  155.6720 H   0  0  0  0  0  0  0  0  0  0  0  0
  151.2724  142.2237  155.7317 H   0  0  0  0  0  0  0  0  0  0  0  0
  149.3183  143.2390  156.0377 H   0  0  0  0  0  0  0  0  0  0  0  0
  148.1783  140.7580  157.1016 H   0  0  0  0  0  0  0  0  0  0  0  0
  148.4602  142.2590  157.9733 H   0  0  0  0  0  0  0  0  0  0  0  0
  146.7671  143.4181  156.5702 H   0  0  0  0  0  0  0  0  0  0  0  0
  146.5519  141.9810  155.5967 H   0  0  0  0  0  0  0  0  0  0  0  0
  144.7166  141.8940  157.0904 H   0  0  0  0  0  0  0  0  0  0  0  0
  145.8508  140.7994  157.8690 H   0  0  0  0  0  0  0  0  0  0  0  0
  144.6538  144.7198  158.0790 H   0  0  0  0  0  0  0  0  0  0  0  0
  146.3561  144.6729  157.8302 H   0  0  0  0  0  0  0  0  0  0  0  0
  149.8946  140.9636  158.1119 H   0  0  0  0  0  0  0  0  0  0  0  0
  151.5267  139.2431  157.5191 H   0  0  0  0  0  0  0  0  0  0  0  0
  152.1271  140.1291  158.9054 H   0  0  0  0  0  0  0  0  0  0  0  0
  152.7970  140.4443  157.3073 H   0  0  0  0  0  0  0  0  0  0  0  0
  151.0716  144.0335  156.7312 H   0  0  0  0  0  0  0  0  0  0  0  0
  151.8287  145.7232  158.7308 H   0  0  0  0  0  0  0  0  0  0  0  0
  152.0672  144.0375  160.9172 H   0  0  0  0  0  0  0  0  0  0  0  0
  148.8106  142.0057  155.0848 H   0  0  0  0  0  0  0  0  0  0  0  0
  1  2  1  0  0  0  0
  1 18  1  0  0  0  0
  1 19  1  0  0  0  0
  1 20  1  0  0  0  0
  2  3  1  0  0  0  0
  2 11  1  0  0  0  0
  2 21  1  0  0  0  0
  3  4  1  0  0  0  0
  3 22  1  0  0  0  0
  3 38  1  0  0  0  0
  4  5  1  0  0  0  0
  4 23  1  0  0  0  0
  4 24  1  0  0  0  0
  5  6  1  0  0  0  0
  5 25  1  0  0  0  0
  5 26  1  0  0  0  0
  6  7  1  0  0  0  0
  6 27  1  0  0  0  0
  6 28  1  0  0  0  0
  7  8  1  0  0  0  0
  7  9  2  0  0  0  0
  7 10  2  0  0  0  0
  8 29  1  0  0  0  0
  8 30  1  0  0  0  0
 11 12  1  0  0  0  0
 11 13  1  0  0  0  0
 11 31  1  0  0  0  0
 12 32  1  0  0  0  0
 12 33  1  0  0  0  0
 12 34  1  0  0  0  0
 13 17  1  0  0  0  0
 13 14  1  0  0  0  0
 14 15  2  0  0  0  0
 14 35  1  0  0  0  0
 15 16  1  0  0  0  0
 15 36  1  0  0  0  0
 16 17  2  0  0  0  0
 16 37  1  0  0  0  0
M  CHG  1   3   1
M  END
> <s_m_source_file>
AV-unprocessed.smi

> <i_m_source_file_index>
658

> <i_lp_mmshare_version>
43012

> <i_f3d_flags>
0

> <s_epik_input>
bjFbY0hdW2NIXVtjSF1uMVtDQEBIXShbQ0gzXSlbQ0BIXShbQ0gzXSlbTkhdW0NIMl1bQ0gyXVtDSDJdUyg9TykoPU8pW05IMl0=

> <s_epik_cmdline>
J2VwaWtfcHl0aG9uJywgJy1waCcsICc3LjAnLCAnLXRuJywgJzgnLCAnLW1hJywgJzIwMCcsICctbWV0YWxfYmluZGluZycsICctaW1hZScsICc8aW5maWxlLm1hZT4nLCAnLW9tYWUnLCAnPG91dGZpbGUubWFlPic=

> <r_lp_tautomer_probability>
1

> <r_epik_Ionization_Penalty>
0.00535781

> <r_epik_Ionization_Penalty_Charging>
0.00511015

> <r_epik_Ionization_Penalty_Neutral>
0.000247661

> <r_epik_State_Penalty>
-0

> <r_epik_Charging_Adjusted_Penalty>
0.00511015

> <i_epik_Tot_Q>
1

> <i_epik_Tot_abs_Q>
1

> <r_epik_Metal_State_Penalty>
0.149106

> <b_epik_Metal_Only>
0

> <s_lp_Force_Field>
OPLS_2005

> <r_lp_Energy>
6.97458

> <b_lp_Chiralities_Consistent>
1

> <s_lp_Variant>
AV-unprocessed.smi:658-4

> <Gold.Version>
5.8.1

> <Gold.Id.Protein>
6NUR|6NUR_protein|mol2

> <Gold.PLP.Fitness>
45.2805

> <Gold.PLP.PLP>
-30.4096

> <Gold.PLP.part.hbond>
-3.9419

> <Gold.PLP.part.metal>
0.0000

> <Gold.PLP.part.buried>
-4.2568

> <Gold.PLP.part.nonpolar>
-24.2798

> <Gold.PLP.part.repulsive>
0.1265

> <Gold.PLP.ligand.clash>
0.0000

> <Gold.PLP.ligand.torsion>
1.0525

> <Gold.PLP.Chemscore.Hbond>
4.5746

> <Gold.PLP.Chemscore.CHOScore>
1.0000

> <Gold.PLP.Chemscore.Metal>
0.0000

> <Gold.Chemscore.Hbonds>
donor molecule, donor type, donor heavy atom, donor atom, acceptor molecule, acceptor atom, score
      L1  H     3    22       P1  8028  2.00
      L1  H     8    30       P1  8029  0.99
      P1  H  6933  6944       L1    10  0.24
      P1  H  6934  6946       L1    10  0.81
      L1  C    14    35       P1  8028  0.99

> <Gold.PLP.Chemscore.Internal.Correction>
0.2521

> <Gold.Rescore>
     Score         DG    S(hbond)    S(metal)    S(lipo)     H(rot)  DE(clash)    DE(int)     intcor
     14.91     -15.96       3.34        0.00      62.86       3.13       0.00       1.05       ----

> <Gold.Chemscore.Fitness>
14.9053

> <Gold.Chemscore.DG>
-15.9595

> <Gold.Chemscore.ZeroCoef>
-5.4800

> <Gold.Chemscore.Hbond>
3.3357

> <Gold.Chemscore.Metal>
0.0000

> <Gold.Chemscore.Lipo>
62.8556

> <Gold.Chemscore.Internal_Hbond>
0.0000

> <Gold.Chemscore.DEClash>
0.0000

> <Gold.Chemscore.DEInternal>
1.0542

> <Gold.Chemscore.Rot>
3.1312

> <Gold.Chemscore.Internal.Correction>
   9.000000E+99

> <Gold.Chemscore.Hbonds>
donor molecule, donor type, donor heavy atom, donor atom, acceptor molecule, acceptor atom, score
      L1  H     3    22       P1  8028  0.93
      L1  H     8    30       P1  8029  0.35
      P1  H  6933  6944       L1    10  0.23
      P1  H  6934  6946       L1    10  0.51

> <Gold.Chemscore.Hbond.Weighted>
-11.1414

> <Gold.Chemscore.Metal.Weighted>
-0.0000

> <Gold.Chemscore.Lipo.Weighted>
-7.3541

> <Gold.Chemscore.Internal_Hbond.Weighted>
0.0000

> <Gold.Chemscore.DEClash.Weighted>
0.0000

> <Gold.Chemscore.DEInternal.Weighted>
1.0542

> <Gold.Chemscore.Rot.Weighted>
8.0160

> <Gold.Chemscore.Internal.Correction.Weighted>
   9.000000E+99

> <Gold.Protein.RotatedTorsions>
[ 6907 6896 6895 6894 ] final  -88.97 input  -60.11 | X-H torsion
[ 7974 7965 7964 7962 ] final -176.33 input  175.53 | X-H torsion
[ 8008 7997 7996 7995 ] final  175.27 input   59.86 | X-H torsion
[ 10167 10162 10161 10158 ] final   83.72 input  -65.29 | X-H torsion
[ 10718 10713 10712 10709 ] final  -40.59 input   66.30 | X-H torsion
[ 10763 10752 10751 10750 ] final  113.39 input  -60.55 | X-H torsion
[ 11005 11000 10999 10996 ] final  -89.21 input  -57.11 | X-H torsion

> <Gold.Protein.ActiveResidues>
 VAL166  LYS551  ARG553  GLY616  TRP617  ASP618  TYR619  PRO620  LYS621  CYS622 
 ASP623  PHE694  ASN695  SER759  ASP760  ASP761  ALA762  ILE779  LEU786  VAL792 
 PHE793  MET794  SER795  GLU796  ALA797  LYS798  CYS799  TRP800  GLU811  SER814 

> <Gold.Protein.RotatedAtoms>
  150.6871  134.2659  159.4567 H   0  0  0  0  0  0  0  0  0  0  0  0  # atno 6907 bound_to 6896
  152.0585  134.9607  160.0584 H   0  0  0  0  0  0  0  0  0  0  0  0  # atno 6908 bound_to 6896
  152.1043  133.4231  159.4638 H   0  0  0  0  0  0  0  0  0  0  0  0  # atno 6909 bound_to 6896
  144.7127  140.1186  143.6406 H   0  0  0  0  0  0  0  0  0  0  0  0  # atno 7974 bound_to 7965
  156.0888  140.1413  156.9618 H   0  0  0  0  0  0  0  0  0  0  0  0  # atno 8008 bound_to 7997
  154.4629  140.0936  156.6990 H   0  0  0  0  0  0  0  0  0  0  0  0  # atno 8009 bound_to 7997
  155.4954  140.3449  155.4364 H   0  0  0  0  0  0  0  0  0  0  0  0  # atno 8010 bound_to 7997
  139.9154  144.6246  150.8494 H   0  0  0  0  0  0  0  0  0  0  0  0  # atno 10167 bound_to 10162
  156.2797  130.4216  149.8350 H   0  0  0  0  0  0  0  0  0  0  0  0  # atno 10718 bound_to 10713
  153.4918  135.3657  155.2495 H   0  0  0  0  0  0  0  0  0  0  0  0  # atno 10763 bound_to 10752
  154.8752  135.3979  154.3580 H   0  0  0  0  0  0  0  0  0  0  0  0  # atno 10764 bound_to 10752
  153.4201  135.7080  153.6365 H   0  0  0  0  0  0  0  0  0  0  0  0  # atno 10765 bound_to 10752
  141.1588  133.7616  156.9562 H   0  0  0  0  0  0  0  0  0  0  0  0  # atno 11005 bound_to 11000
  145.9391  139.2657  143.1279 LP  0  0  0  0  0  0  0  0  0  0  0  0  # atno 17320 bound_to 7965
  145.9443  140.8956  143.0292 LP  0  0  0  0  0  0  0  0  0  0  0  0  # atno 17321 bound_to 7965
  140.7675  143.3335  151.2359 LP  0  0  0  0  0  0  0  0  0  0  0  0  # atno 17342 bound_to 10162
  139.6906  143.9698  152.2857 LP  0  0  0  0  0  0  0  0  0  0  0  0  # atno 17343 bound_to 10162
  156.5802  130.8462  151.3381 LP  0  0  0  0  0  0  0  0  0  0  0  0  # atno 17370 bound_to 10713
  157.7310  130.9694  150.1861 LP  0  0  0  0  0  0  0  0  0  0  0  0  # atno 17371 bound_to 10713
  140.1224  134.9409  157.2222 LP  0  0  0  0  0  0  0  0  0  0  0  0  # atno 17394 bound_to 11000
  140.3056  134.3082  155.7279 LP  0  0  0  0  0  0  0  0  0  0  0  0  # atno 17395 bound_to 11000

$$$$
