#       Name:                AV-unprocessed.smi:1023
#       Creating user name   scv26
#       Creation time:       Fri Mar 27 02:43:48 2020


#       File generated by GOLD software.
#

@<TRIPOS>MOLECULE
AV-unprocessed.smi:1023
    36    37     1
SMALL
NO_CHARGES


@<TRIPOS>ATOM
      1 ****        -1.9573   2.4892  -2.3342 C.3            1 S1                 0.0000
      2 ****        -1.4618   3.1257  -1.0237 C.3            1 S1                 0.0000
      3 ****        -1.8389   4.6136  -0.9722 C.3            1 S1                 0.0000
      4 ****         0.0545   2.9417  -0.8062 C.3            1 S1                 0.0000
      5 ****         0.4301   1.5342  -0.7083 N.am           1 S1                 0.0000
      6 ****         1.0515   0.8160  -1.6590 C.2            1 S1                 0.0000
      7 ****         1.3936   1.2948  -2.7388 O.2            1 S1                 0.0000
      8 ****         1.2919  -0.4810  -1.3700 N.am           1 S1                 0.0000
      9 ****         1.9160  -1.5202  -2.1200 C.2            1 S1                 0.0000
     10 ****         2.5110  -1.3510  -3.3097 N.2            1 S1                 0.0000
     11 ****         3.0439  -2.5342  -3.7996 N.2            1 S1                 0.0000
     12 ****         2.8454  -3.5632  -2.9677 C.2            1 S1                 0.0000
     13 ****         3.3291  -4.9412  -3.2754 C.3            1 S1                 0.0000
     14 ****         2.6425  -5.7848  -4.3248 C.3            1 S1                 0.0000
     15 ****         2.5392  -6.1669  -2.8706 C.3            1 S1                 0.0000
     16 ****         1.9778  -3.1582  -1.4906 S.3            1 S1                 0.0000
     17 ****        -1.4376   2.9067  -3.1971 H              1 S1                 0.0000
     18 ****        -3.0249   2.6602  -2.4739 H              1 S1                 0.0000
     19 ****        -1.8021   1.4103  -2.3412 H              1 S1                 0.0000
     20 ****        -1.9806   2.6313  -0.2011 H              1 S1                 0.0000
     21 ****        -1.3550   5.1732  -1.7735 H              1 S1                 0.0000
     22 ****        -1.5397   5.0627  -0.0248 H              1 S1                 0.0000
     23 ****        -2.9159   4.7506  -1.0738 H              1 S1                 0.0000
     24 ****         0.6148   3.4478  -1.5941 H              1 S1                 0.0000
     25 ****         0.3503   3.4199   0.1280 H              1 S1                 0.0000
     26 ****         0.1853   1.0607   0.1499 H              1 S1                 0.0000
     27 ****         1.0076  -0.7567  -0.4414 H              1 S1                 0.0000
     28 ****         4.4144  -4.9909  -3.2111 H              1 S1                 0.0000
     29 ****         1.7529  -5.3759  -4.8001 H              1 S1                 0.0000
     30 ****         3.2726  -6.3993  -4.9644 H              1 S1                 0.0000
     31 ****         3.1003  -7.0382  -2.5393 H              1 S1                 0.0000
     32 ****         1.5751  -6.0228  -2.3869 H              1 S1                 0.0000
     33 ****         1.2115   2.2575  -2.9391 LP             1 S1                 0.0000
     34 ****         1.8538   0.7215  -3.4167 LP             1 S1                 0.0000
     35 ****         2.5642  -0.4744  -3.7879 LP             1 S1                 0.0000
     36 ****         3.5219  -2.6096  -4.6747 LP             1 S1                 0.0000
@<TRIPOS>BOND
    1    1    2 1     
    2    1   17 1     
    3    1   18 1     
    4    1   19 1     
    5    2    3 1     
    6    2    4 1     
    7    2   20 1     
    8    3   21 1     
    9    3   22 1     
   10    3   23 1     
   11    4    5 1     
   12    4   24 1     
   13    4   25 1     
   14    5    6 am    
   15    5   26 1     
   16    6    7 2     
   17    6    8 am    
   18    8    9 1     
   19    8   27 1     
   20    9   16 1     
   21    9   10 2     
   22   10   11 1     
   23   11   12 2     
   24   12   13 1     
   25   12   16 1     
   26   13   15 1     
   27   13   14 1     
   28   13   28 1     
   29   14   15 1     
   30   14   29 1     
   31   14   30 1     
   32   15   31 1     
   33   15   32 1     
   34    7   33 1     
   35    7   34 1     
   36   10   35 1     
   37   11   36 1     
@<TRIPOS>SUBSTRUCTURE
      1 S1             1
@<TRIPOS>SET
LONE_PAIRS      STATIC     ATOMS    <user>   **** ""
4 33 34 35 36
DONOR_HYDROGENS      STATIC     ATOMS    <user>   **** ""
2 26 27
ATOM$BLUE        STATIC     ATOMS    COLORGROUP SYSTEM
4 33 34 35 36
ATOM$RED        STATIC     ATOMS    COLORGROUP SYSTEM
2 26 27
