AV-unprocessed.smi:2299|AV-procd|sdf|9229|dock2
  -GOLD-   2272012443D 1   1.00000     0.00000
 Structure written by MMmdl.
 43 44  0  0  0  0  0  0  0  0  2 V2000
  152.8634  142.6025  162.1237 C   0  0  0  0  0  0  0  0  0  0  0  0
  152.5414  142.4919  160.6264 C   0  0  0  0  0  0  0  0  0  0  0  0
  153.8231  142.4028  159.7821 C   0  0  0  0  0  0  0  0  0  0  0  0
  151.6428  143.6124  160.1787 C   0  0  0  0  0  0  0  0  0  0  0  0
  150.9362  144.4089  160.9912 N   0  3  0  0  0  0  0  0  0  0  0  0
  150.2009  145.3064  160.2675 C   0  0  0  0  0  0  0  0  0  0  0  0
  150.4517  145.0351  158.9491 C   0  0  0  0  0  0  0  0  0  0  0  0
  151.3302  143.9809  158.9213 N   0  0  0  0  0  0  0  0  0  0  0  0
  151.8696  143.3503  157.7081 C   0  0  0  0  0  0  0  0  0  0  0  0
  151.0189  142.1502  157.2906 C   0  0  0  0  0  0  0  0  0  0  0  0
  151.1704  141.0633  157.8476 O   0  0  0  0  0  0  0  0  0  0  0  0
  150.1416  142.3574  156.2956 N   0  0  0  0  0  0  0  0  0  0  0  0
  149.2709  141.3406  155.7017 C   0  0  1  0  0  0  0  0  0  0  0  0
  148.5376  141.9995  154.5106 C   0  0  0  0  0  0  0  0  0  0  0  0
  147.2372  141.2846  154.1054 C   0  0  0  0  0  0  0  0  0  0  0  0
  147.4254  139.8630  153.5555 C   0  0  0  0  0  0  0  0  0  0  0  0
  148.0286  138.8829  154.5756 C   0  0  0  0  0  0  0  0  0  0  0  0
  149.4679  139.0587  154.7209 N   0  0  0  0  0  0  0  0  0  0  0  0
  150.1051  140.1424  155.1898 C   0  0  0  0  0  0  0  0  0  0  0  0
  151.3359  140.1800  155.2088 O   0  0  0  0  0  0  0  0  0  0  0  0
  151.9548  142.5994  162.7262 H   0  0  0  0  0  0  0  0  0  0  0  0
  153.4051  143.5228  162.3454 H   0  0  0  0  0  0  0  0  0  0  0  0
  153.4790  141.7660  162.4554 H   0  0  0  0  0  0  0  0  0  0  0  0
  151.9857  141.5697  160.4598 H   0  0  0  0  0  0  0  0  0  0  0  0
  153.5880  142.2878  158.7234 H   0  0  0  0  0  0  0  0  0  0  0  0
  154.4271  141.5448  160.0783 H   0  0  0  0  0  0  0  0  0  0  0  0
  154.4419  143.2940  159.8933 H   0  0  0  0  0  0  0  0  0  0  0  0
  149.5690  146.0488  160.7328 H   0  0  0  0  0  0  0  0  0  0  0  0
  150.0785  145.5017  158.0489 H   0  0  0  0  0  0  0  0  0  0  0  0
  151.9196  144.0814  156.9015 H   0  0  0  0  0  0  0  0  0  0  0  0
  152.8950  143.0425  157.9185 H   0  0  0  0  0  0  0  0  0  0  0  0
  150.0895  143.2828  155.8953 H   0  0  0  0  0  0  0  0  0  0  0  0
  148.5505  141.0043  156.4499 H   0  0  0  0  0  0  0  0  0  0  0  0
  148.2662  143.0209  154.7827 H   0  0  0  0  0  0  0  0  0  0  0  0
  149.1998  142.0939  153.6480 H   0  0  0  0  0  0  0  0  0  0  0  0
  146.5571  141.2574  154.9578 H   0  0  0  0  0  0  0  0  0  0  0  0
  146.7349  141.8841  153.3457 H   0  0  0  0  0  0  0  0  0  0  0  0
  146.4485  139.4864  153.2505 H   0  0  0  0  0  0  0  0  0  0  0  0
  148.0326  139.8858  152.6494 H   0  0  0  0  0  0  0  0  0  0  0  0
  147.5328  138.9639  155.5441 H   0  0  0  0  0  0  0  0  0  0  0  0
  147.8636  137.8617  154.2314 H   0  0  0  0  0  0  0  0  0  0  0  0
  150.0424  138.2901  154.4061 H   0  0  0  0  0  0  0  0  0  0  0  0
  150.9531  144.3556  162.0019 H   0  0  0  0  0  0  0  0  0  0  0  0
  1  2  1  0  0  0  0
  1 21  1  0  0  0  0
  1 22  1  0  0  0  0
  1 23  1  0  0  0  0
  2  3  1  0  0  0  0
  2  4  1  0  0  0  0
  2 24  1  0  0  0  0
  3 25  1  0  0  0  0
  3 26  1  0  0  0  0
  3 27  1  0  0  0  0
  4  8  1  0  0  0  0
  4  5  2  0  0  0  0
  5  6  1  0  0  0  0
  5 43  1  0  0  0  0
  6  7  2  0  0  0  0
  6 28  1  0  0  0  0
  7  8  1  0  0  0  0
  7 29  1  0  0  0  0
  8  9  1  0  0  0  0
  9 10  1  0  0  0  0
  9 30  1  0  0  0  0
  9 31  1  0  0  0  0
 10 11  2  0  0  0  0
 10 12  1  0  0  0  0
 12 13  1  0  0  0  0
 12 32  1  0  0  0  0
 13 19  1  0  0  0  0
 13 14  1  0  0  0  0
 13 33  1  0  0  0  0
 14 15  1  0  0  0  0
 14 34  1  0  0  0  0
 14 35  1  0  0  0  0
 15 16  1  0  0  0  0
 15 36  1  0  0  0  0
 15 37  1  0  0  0  0
 16 17  1  0  0  0  0
 16 38  1  0  0  0  0
 16 39  1  0  0  0  0
 17 18  1  0  0  0  0
 17 40  1  0  0  0  0
 17 41  1  0  0  0  0
 18 19  1  0  0  0  0
 18 42  1  0  0  0  0
 19 20  2  0  0  0  0
M  CHG  1   5   1
M  END
> <s_m_source_file>
AV-unprocessed.smi

> <i_m_source_file_index>
2299

> <i_lp_mmshare_version>
43012

> <i_f3d_flags>
0

> <s_epik_input>
W0NIM11bQ0hdKFtDSDNdKWMxbltjSF1bY0hdbjFbQ0gyXUMoPU8pW05IXVtDQEBIXTJbQ0gyXVtDSDJdW0NIMl1bQ0gyXVtOSF1DMj1P

> <s_epik_cmdline>
J2VwaWtfcHl0aG9uJywgJy1waCcsICc3LjAnLCAnLXRuJywgJzgnLCAnLW1hJywgJzIwMCcsICctbWV0YWxfYmluZGluZycsICctaW1hZScsICc8aW5maWxlLm1hZT4nLCAnLW9tYWUnLCAnPG91dGZpbGUubWFlPic=

> <r_lp_tautomer_probability>
1

> <r_epik_Ionization_Penalty>
0.292878

> <r_epik_Ionization_Penalty_Charging>
0

> <r_epik_Ionization_Penalty_Neutral>
0.292878

> <r_epik_State_Penalty>
0.286008

> <r_epik_Charging_Adjusted_Penalty>
0.286008

> <i_epik_Tot_Q>
1

> <i_epik_Tot_abs_Q>
1

> <r_epik_Metal_State_Penalty>
0.563502

> <b_epik_Metal_Only>
0

> <s_lp_Force_Field>
OPLS_2005

> <r_lp_Energy>
15.0936

> <b_lp_Chiralities_Consistent>
1

> <s_lp_Variant>
AV-unprocessed.smi:2299-2

> <Gold.Version>
5.8.1

> <Gold.Id.Protein>
6NUR|6NUR_protein|mol2

> <Gold.PLP.Fitness>
47.0244

> <Gold.PLP.PLP>
-40.5252

> <Gold.PLP.part.hbond>
-2.3043

> <Gold.PLP.part.metal>
0.0000

> <Gold.PLP.part.buried>
-3.7551

> <Gold.PLP.part.nonpolar>
-35.5437

> <Gold.PLP.part.repulsive>
0.2990

> <Gold.PLP.ligand.clash>
0.0000

> <Gold.PLP.ligand.torsion>
1.1122

> <Gold.PLP.Chemscore.Hbond>
1.8800

> <Gold.PLP.Chemscore.CHOScore>
1.0098

> <Gold.PLP.Chemscore.Metal>
0.0000

> <Gold.Chemscore.Hbonds>
donor molecule, donor type, donor heavy atom, donor atom, acceptor molecule, acceptor atom, score
      L1  H    12    32       P1  8028  0.83
      P1  H  7989  7998       L1    20  1.00
      L1  C     7    29       P1  8028  0.01
      L1  C     7    29       P1  8029  0.90

> <Gold.PLP.Chemscore.Internal.Correction>
0.0542

> <Gold.Rescore>
     Score         DG    S(hbond)    S(metal)    S(lipo)     H(rot)  DE(clash)    DE(int)     intcor
     14.41     -17.60       1.95        0.00      86.09       1.75       0.18       3.01       ----

> <Gold.Chemscore.Fitness>
14.4058

> <Gold.Chemscore.DG>
-17.5967

> <Gold.Chemscore.ZeroCoef>
-5.4800

> <Gold.Chemscore.Hbond>
1.9539

> <Gold.Chemscore.Metal>
0.0000

> <Gold.Chemscore.Lipo>
86.0909

> <Gold.Chemscore.Internal_Hbond>
0.0000

> <Gold.Chemscore.DEClash>
0.1837

> <Gold.Chemscore.DEInternal>
3.0071

> <Gold.Chemscore.Rot>
1.7508

> <Gold.Chemscore.Internal.Correction>
   9.000000E+99

> <Gold.Chemscore.Hbonds>
donor molecule, donor type, donor heavy atom, donor atom, acceptor molecule, acceptor atom, score
      L1  H    12    32       P1  8028  0.83
      P1  H  7989  7998       L1    20  0.25

> <Gold.Chemscore.Hbond.Weighted>
-6.5261

> <Gold.Chemscore.Metal.Weighted>
-0.0000

> <Gold.Chemscore.Lipo.Weighted>
-10.0726

> <Gold.Chemscore.Internal_Hbond.Weighted>
0.0000

> <Gold.Chemscore.DEClash.Weighted>
0.1837

> <Gold.Chemscore.DEInternal.Weighted>
3.0071

> <Gold.Chemscore.Rot.Weighted>
4.4821

> <Gold.Chemscore.Internal.Correction.Weighted>
   9.000000E+99

> <Gold.Protein.RotatedTorsions>
[ 6907 6896 6895 6894 ] final  -83.19 input  -60.11 | X-H torsion
[ 7974 7965 7964 7962 ] final   57.68 input  175.53 | X-H torsion
[ 8008 7997 7996 7995 ] final    1.40 input   59.86 | X-H torsion
[ 10167 10162 10161 10158 ] final  -90.28 input  -65.29 | X-H torsion
[ 10718 10713 10712 10709 ] final  132.37 input   66.30 | X-H torsion
[ 10763 10752 10751 10750 ] final -135.93 input  -60.55 | X-H torsion
[ 11005 11000 10999 10996 ] final -170.61 input  -57.11 | X-H torsion

> <Gold.Protein.ActiveResidues>
 VAL166  LYS551  ARG553  GLY616  TRP617  ASP618  TYR619  PRO620  LYS621  CYS622 
 ASP623  PHE694  ASN695  SER759  ASP760  ASP761  ALA762  ILE779  LEU786  VAL792 
 PHE793  MET794  SER795  GLU796  ALA797  LYS798  CYS799  TRP800  GLU811  SER814 

> <Gold.Protein.RotatedAtoms>
  150.6888  134.3550  159.4925 H   0  0  0  0  0  0  0  0  0  0  0  0  # atno 6907 bound_to 6896
  152.1386  134.9077  160.0564 H   0  0  0  0  0  0  0  0  0  0  0  0  # atno 6908 bound_to 6896
  152.0219  133.3867  159.4299 H   0  0  0  0  0  0  0  0  0  0  0  0  # atno 6909 bound_to 6896
  145.9264  139.3771  143.0447 H   0  0  0  0  0  0  0  0  0  0  0  0  # atno 7974 bound_to 7965
  154.6792  140.2629  155.6925 H   0  0  0  0  0  0  0  0  0  0  0  0  # atno 8008 bound_to 7997
  156.2690  140.2813  156.1253 H   0  0  0  0  0  0  0  0  0  0  0  0  # atno 8009 bound_to 7997
  155.1055  140.0375  157.2699 H   0  0  0  0  0  0  0  0  0  0  0  0  # atno 8010 bound_to 7997
  140.3565  143.2864  151.9665 H   0  0  0  0  0  0  0  0  0  0  0  0  # atno 10167 bound_to 10162
  157.4878  131.1089  150.9597 H   0  0  0  0  0  0  0  0  0  0  0  0  # atno 10718 bound_to 10713
  154.8694  135.3688  154.4978 H   0  0  0  0  0  0  0  0  0  0  0  0  # atno 10763 bound_to 10752
  153.5620  135.7022  153.5548 H   0  0  0  0  0  0  0  0  0  0  0  0  # atno 10764 bound_to 10752
  153.3619  135.4044  155.1688 H   0  0  0  0  0  0  0  0  0  0  0  0  # atno 10765 bound_to 10752
  140.5175  134.5742  157.5038 H   0  0  0  0  0  0  0  0  0  0  0  0  # atno 11005 bound_to 11000
  145.8483  140.9543  143.0763 LP  0  0  0  0  0  0  0  0  0  0  0  0  # atno 17320 bound_to 7965
  144.6759  140.0374  143.7481 LP  0  0  0  0  0  0  0  0  0  0  0  0  # atno 17321 bound_to 7965
  139.4819  144.6030  151.7571 LP  0  0  0  0  0  0  0  0  0  0  0  0  # atno 17342 bound_to 10162
  140.5169  144.0939  150.6011 LP  0  0  0  0  0  0  0  0  0  0  0  0  # atno 17343 bound_to 10162
  157.0309  130.5711  149.5343 LP  0  0  0  0  0  0  0  0  0  0  0  0  # atno 17370 bound_to 10713
  156.0156  130.5250  150.8125 LP  0  0  0  0  0  0  0  0  0  0  0  0  # atno 17371 bound_to 10713
  139.9624  134.7430  156.0209 LP  0  0  0  0  0  0  0  0  0  0  0  0  # atno 17394 bound_to 11000
  141.1352  133.6577  156.3574 LP  0  0  0  0  0  0  0  0  0  0  0  0  # atno 17395 bound_to 11000

$$$$
