AV-unprocessed.smi:477|AV-procd|sdf|2670|dock5
  -GOLD-   2262023 83D 1   1.00000     0.00000
 Structure written by MMmdl.
 45 46  0  0  0  0  0  0  0  0  1 V2000
  147.7620  136.1582  163.2205 C   0  0  0  0  0  0  0  0  0  0  0  0
  148.1334  135.5664  161.8874 C   0  0  0  0  0  0  0  0  0  0  0  0
  148.4610  136.3985  160.9544 N   0  0  0  0  0  0  0  0  0  0  0  0
  148.8200  135.9618  159.6937 N   0  0  0  0  0  0  0  0  0  0  0  0
  149.1877  137.0459  158.7714 C   0  0  0  0  0  0  0  0  0  0  0  0
  150.6978  137.3225  158.7315 C   0  0  0  0  0  0  0  0  0  0  0  0
  151.5159  136.4309  158.9624 O   0  0  0  0  0  0  0  0  0  0  0  0
  151.0508  138.5830  158.4393 N   0  0  0  0  0  0  0  0  0  0  0  0
  152.4208  139.0811  158.3933 C   0  0  0  0  0  0  0  0  0  0  0  0
  152.7851  139.9686  159.6015 C   0  0  0  0  0  0  0  0  0  0  0  0
  152.4210  141.4353  159.4230 C   0  0  0  0  0  0  0  0  0  0  0  0
  151.5635  141.8380  158.4653 C   0  0  0  0  0  0  0  0  0  0  0  0
  151.1885  143.2870  158.2086 C   0  0  0  0  0  0  0  0  0  0  0  0
  152.1475  144.2714  158.8986 C   0  0  0  0  0  0  0  0  0  0  0  0
  152.4663  143.8230  160.3301 C   0  0  0  0  0  0  0  0  0  0  0  0
  153.1168  142.4285  160.3493 C   0  0  0  0  0  0  0  0  0  0  0  0
  148.8595  134.6540  159.3070 C   0  0  0  0  0  0  0  0  0  0  0  0
  149.1849  134.3078  158.1704 O   0  0  0  0  0  0  0  0  0  0  0  0
  148.4861  133.7169  160.3689 C   0  0  0  0  0  0  0  0  0  0  0  0
  148.5139  132.3367  160.0058 C   0  0  0  0  0  0  0  0  0  0  0  0
  148.5493  131.2138  159.7266 N   0  0  0  0  0  0  0  0  0  0  0  0
  148.1391  134.1330  161.6126 C   0  0  0  0  0  0  0  0  0  0  0  0
  147.7459  133.1995  162.7494 C   0  0  0  0  0  0  0  0  0  0  0  0
  146.7778  135.8134  163.5385 H   0  0  0  0  0  0  0  0  0  0  0  0
  147.7318  137.2484  163.1875 H   0  0  0  0  0  0  0  0  0  0  0  0
  148.4847  135.8710  163.9846 H   0  0  0  0  0  0  0  0  0  0  0  0
  148.8431  136.8333  157.7582 H   0  0  0  0  0  0  0  0  0  0  0  0
  148.6715  137.9619  159.0660 H   0  0  0  0  0  0  0  0  0  0  0  0
  150.3164  139.2526  158.2603 H   0  0  0  0  0  0  0  0  0  0  0  0
  153.1169  138.2438  158.3217 H   0  0  0  0  0  0  0  0  0  0  0  0
  152.5379  139.6520  157.4718 H   0  0  0  0  0  0  0  0  0  0  0  0
  152.3180  139.5910  160.5119 H   0  0  0  0  0  0  0  0  0  0  0  0
  153.8604  139.8991  159.7700 H   0  0  0  0  0  0  0  0  0  0  0  0
  151.0877  141.1043  157.8307 H   0  0  0  0  0  0  0  0  0  0  0  0
  151.1786  143.4714  157.1341 H   0  0  0  0  0  0  0  0  0  0  0  0
  150.1699  143.4400  158.5662 H   0  0  0  0  0  0  0  0  0  0  0  0
  153.0758  144.3351  158.3292 H   0  0  0  0  0  0  0  0  0  0  0  0
  151.7169  145.2730  158.8998 H   0  0  0  0  0  0  0  0  0  0  0  0
  153.1217  144.5455  160.8172 H   0  0  0  0  0  0  0  0  0  0  0  0
  151.5442  143.8016  160.9125 H   0  0  0  0  0  0  0  0  0  0  0  0
  153.1287  142.0546  161.3717 H   0  0  0  0  0  0  0  0  0  0  0  0
  154.1585  142.5018  160.0353 H   0  0  0  0  0  0  0  0  0  0  0  0
  147.8699  132.1503  162.4826 H   0  0  0  0  0  0  0  0  0  0  0  0
  146.7004  133.3501  163.0203 H   0  0  0  0  0  0  0  0  0  0  0  0
  148.3604  133.3844  163.6312 H   0  0  0  0  0  0  0  0  0  0  0  0
  1  2  1  0  0  0  0
  1 24  1  0  0  0  0
  1 25  1  0  0  0  0
  1 26  1  0  0  0  0
  2 22  1  0  0  0  0
  2  3  2  0  0  0  0
  3  4  1  0  0  0  0
  4  5  1  0  0  0  0
  4 17  1  0  0  0  0
  5  6  1  0  0  0  0
  5 27  1  0  0  0  0
  5 28  1  0  0  0  0
  6  7  2  0  0  0  0
  6  8  1  0  0  0  0
  8  9  1  0  0  0  0
  8 29  1  0  0  0  0
  9 10  1  0  0  0  0
  9 30  1  0  0  0  0
  9 31  1  0  0  0  0
 10 11  1  0  0  0  0
 10 32  1  0  0  0  0
 10 33  1  0  0  0  0
 11 16  1  0  0  0  0
 11 12  2  0  0  0  0
 12 13  1  0  0  0  0
 12 34  1  0  0  0  0
 13 14  1  0  0  0  0
 13 35  1  0  0  0  0
 13 36  1  0  0  0  0
 14 15  1  0  0  0  0
 14 37  1  0  0  0  0
 14 38  1  0  0  0  0
 15 16  1  0  0  0  0
 15 39  1  0  0  0  0
 15 40  1  0  0  0  0
 16 41  1  0  0  0  0
 16 42  1  0  0  0  0
 17 18  2  0  0  0  0
 17 19  1  0  0  0  0
 19 20  1  0  0  0  0
 19 22  2  0  0  0  0
 20 21  3  0  0  0  0
 22 23  1  0  0  0  0
 23 43  1  0  0  0  0
 23 44  1  0  0  0  0
 23 45  1  0  0  0  0
M  END
> <s_m_source_file>
AV-unprocessed.smi

> <i_m_source_file_index>
477

> <i_lp_mmshare_version>
43012

> <i_f3d_flags>
0

> <s_epik_input>
TiNDYyhjMVtDSDNdKWMoPU8pbihuYzFbQ0gzXSlbQ0gyXUMoPU8pW05IXVtDSDJdW0NIMl1DMj1bQ0hdW0NIMl1bQ0gyXVtDSDJdW0NIMl0y

> <s_epik_cmdline>
J2VwaWtfcHl0aG9uJywgJy1waCcsICc3LjAnLCAnLXRuJywgJzgnLCAnLW1hJywgJzIwMCcsICctbWV0YWxfYmluZGluZycsICctaW1hZScsICc8aW5maWxlLm1hZT4nLCAnLW9tYWUnLCAnPG91dGZpbGUubWFlPic=

> <r_lp_tautomer_probability>
1

> <r_epik_Ionization_Penalty>
1.81256e-08

> <r_epik_Ionization_Penalty_Charging>
2.1856e-11

> <r_epik_Ionization_Penalty_Neutral>
1.81037e-08

> <r_epik_State_Penalty>
-0

> <r_epik_Charging_Adjusted_Penalty>
2.1856e-11

> <i_epik_Tot_Q>
0

> <i_epik_Tot_abs_Q>
0

> <r_epik_Metal_State_Penalty>
-0

> <b_epik_Metal_Only>
0

> <s_lp_Force_Field>
OPLS_2005

> <r_lp_Energy>
23.5318

> <b_lp_Chiralities_Consistent>
1

> <s_lp_Variant>
AV-unprocessed.smi:477-1

> <Gold.Version>
5.8.1

> <Gold.Id.Protein>
6NUR|6NUR_protein|mol2

> <Gold.PLP.Fitness>
55.7715

> <Gold.PLP.PLP>
-48.3157

> <Gold.PLP.part.hbond>
-4.0000

> <Gold.PLP.part.metal>
0.0000

> <Gold.PLP.part.buried>
-3.4921

> <Gold.PLP.part.nonpolar>
-42.3129

> <Gold.PLP.part.repulsive>
0.1072

> <Gold.PLP.ligand.clash>
0.0000

> <Gold.PLP.ligand.torsion>
1.1938

> <Gold.PLP.Chemscore.Hbond>
3.2600

> <Gold.PLP.Chemscore.CHOScore>
0.0000

> <Gold.PLP.Chemscore.Metal>
0.0000

> <Gold.Chemscore.Hbonds>
donor molecule, donor type, donor heavy atom, donor atom, acceptor molecule, acceptor atom, score
      P1  H  6896  6909       L1     7  0.62
      P1  H  6931  6943       L1     3  0.70

> <Gold.PLP.Chemscore.Internal.Correction>
0.0634

> <Gold.Rescore>
     Score         DG    S(hbond)    S(metal)    S(lipo)     H(rot)  DE(clash)    DE(int)     intcor
     19.43     -22.43       2.03        0.00     126.93       1.83       1.55       1.44       ----

> <Gold.Chemscore.Fitness>
19.4334

> <Gold.Chemscore.DG>
-22.4252

> <Gold.Chemscore.ZeroCoef>
-5.4800

> <Gold.Chemscore.Hbond>
2.0302

> <Gold.Chemscore.Metal>
0.0000

> <Gold.Chemscore.Lipo>
126.9261

> <Gold.Chemscore.Internal_Hbond>
0.0000

> <Gold.Chemscore.DEClash>
1.5496

> <Gold.Chemscore.DEInternal>
1.4422

> <Gold.Chemscore.Rot>
1.8305

> <Gold.Chemscore.Internal.Correction>
   9.000000E+99

> <Gold.Chemscore.Hbonds>
donor molecule, donor type, donor heavy atom, donor atom, acceptor molecule, acceptor atom, score
      P1  H  6896  6909       L1     7  0.62
      P1  H  6931  6943       L1     3  0.45

> <Gold.Chemscore.Hbond.Weighted>
-6.7809

> <Gold.Chemscore.Metal.Weighted>
-0.0000

> <Gold.Chemscore.Lipo.Weighted>
-14.8504

> <Gold.Chemscore.Internal_Hbond.Weighted>
0.0000

> <Gold.Chemscore.DEClash.Weighted>
1.5496

> <Gold.Chemscore.DEInternal.Weighted>
1.4422

> <Gold.Chemscore.Rot.Weighted>
4.6860

> <Gold.Chemscore.Internal.Correction.Weighted>
   9.000000E+99

> <Gold.Protein.RotatedTorsions>
[ 6907 6896 6895 6894 ] final  133.45 input  -60.11 | X-H torsion
[ 7974 7965 7964 7962 ] final  104.27 input  175.53 | X-H torsion
[ 8008 7997 7996 7995 ] final   91.24 input   59.86 | X-H torsion
[ 10167 10162 10161 10158 ] final -131.05 input  -65.29 | X-H torsion
[ 10718 10713 10712 10709 ] final  143.79 input   66.30 | X-H torsion
[ 10763 10752 10751 10750 ] final  139.20 input  -60.55 | X-H torsion
[ 11005 11000 10999 10996 ] final   87.54 input  -57.11 | X-H torsion

> <Gold.Protein.ActiveResidues>
 VAL166  LYS551  ARG553  GLY616  TRP617  ASP618  TYR619  PRO620  LYS621  CYS622 
 ASP623  PHE694  ASN695  SER759  ASP760  ASP761  ALA762  ILE779  LEU786  VAL792 
 PHE793  MET794  SER795  GLU796  ALA797  LYS798  CYS799  TRP800  GLU811  SER814 

> <Gold.Protein.RotatedAtoms>
  152.3218  133.5862  159.5749 H   0  0  0  0  0  0  0  0  0  0  0  0  # atno 6907 bound_to 6896
  150.7375  133.9999  159.3644 H   0  0  0  0  0  0  0  0  0  0  0  0  # atno 6908 bound_to 6896
  151.7883  135.0743  160.0434 H   0  0  0  0  0  0  0  0  0  0  0  0  # atno 6909 bound_to 6896
  145.3350  139.2477  143.3640 H   0  0  0  0  0  0  0  0  0  0  0  0  # atno 7974 bound_to 7965
  156.0214  140.3340  155.7043 H   0  0  0  0  0  0  0  0  0  0  0  0  # atno 8008 bound_to 7997
  155.6017  140.0656  157.2749 H   0  0  0  0  0  0  0  0  0  0  0  0  # atno 8009 bound_to 7997
  154.4317  140.1809  156.1168 H   0  0  0  0  0  0  0  0  0  0  0  0  # atno 8010 bound_to 7997
  139.9229  143.6361  152.2549 H   0  0  0  0  0  0  0  0  0  0  0  0  # atno 10167 bound_to 10162
  157.3648  131.0970  151.0882 H   0  0  0  0  0  0  0  0  0  0  0  0  # atno 10718 bound_to 10713
  153.9021  135.3021  155.3448 H   0  0  0  0  0  0  0  0  0  0  0  0  # atno 10763 bound_to 10752
  154.7665  135.4908  153.9567 H   0  0  0  0  0  0  0  0  0  0  0  0  # atno 10764 bound_to 10752
  153.1239  135.6788  153.9390 H   0  0  0  0  0  0  0  0  0  0  0  0  # atno 10765 bound_to 10752
  139.8917  134.8429  156.2874 H   0  0  0  0  0  0  0  0  0  0  0  0  # atno 11005 bound_to 11000
  146.3030  140.3936  142.8697 LP  0  0  0  0  0  0  0  0  0  0  0  0  # atno 17320 bound_to 7965
  144.8834  140.7430  143.5972 LP  0  0  0  0  0  0  0  0  0  0  0  0  # atno 17321 bound_to 7965
  139.6846  144.7652  151.1546 LP  0  0  0  0  0  0  0  0  0  0  0  0  # atno 17342 bound_to 10162
  140.7657  143.5675  150.9031 LP  0  0  0  0  0  0  0  0  0  0  0  0  # atno 17343 bound_to 10162
  157.2009  130.6394  149.5738 LP  0  0  0  0  0  0  0  0  0  0  0  0  # atno 17370 bound_to 10713
  155.9744  130.4691  150.6384 LP  0  0  0  0  0  0  0  0  0  0  0  0  # atno 17371 bound_to 10713
  140.9998  133.7158  156.0943 LP  0  0  0  0  0  0  0  0  0  0  0  0  # atno 17394 bound_to 11000
  140.7512  134.4042  157.5541 LP  0  0  0  0  0  0  0  0  0  0  0  0  # atno 17395 bound_to 11000

$$$$
