AV-unprocessed.smi:2881|AV-procd|sdf|11064|dock1
  -GOLD-   2272015533D 1   1.00000     0.00000
 Structure written by MMmdl.
 40 42  0  0  0  0  0  0  0  0  1 V2000
  151.9523  145.4909  160.0942 C   0  0  0  0  0  0  0  0  0  0  0  0
  151.6228  144.4066  159.1113 C   0  0  0  0  0  0  0  0  0  0  0  0
  151.9308  143.0172  159.1978 C   0  0  0  0  0  0  0  0  0  0  0  0
  151.4054  142.4825  158.0547 C   0  0  0  0  0  0  0  0  0  0  0  0
  151.3900  141.0775  157.5372 C   0  0  0  0  0  0  0  0  0  0  0  0
  150.7883  140.9630  156.1316 C   0  0  0  0  0  0  0  0  0  0  0  0
  151.4892  140.6783  155.1594 O   0  0  0  0  0  0  0  0  0  0  0  0
  149.4714  141.2046  156.0449 N   0  0  0  0  0  0  0  0  0  0  0  0
  148.6721  141.1719  154.8183 C   0  0  1  0  0  0  0  0  0  0  0  0
  148.6839  139.7736  154.1503 C   0  0  1  0  0  0  0  0  0  0  0  0
  148.3470  138.6610  155.1661 C   0  0  0  0  0  0  0  0  0  0  0  0
  146.8573  138.9153  155.4581 C   0  0  0  0  0  0  0  0  0  0  0  0
  146.5211  140.1031  154.5313 C   0  0  2  0  0  0  0  0  0  0  0  0
  147.4017  139.8012  153.3245 C   0  0  0  0  0  0  0  0  0  0  0  0
  147.1497  141.4235  155.0346 C   0  0  1  0  0  0  0  0  0  0  0  0
  146.6668  141.8774  156.4311 C   0  0  0  0  0  0  0  0  0  0  0  0
  147.6518  142.6671  157.0639 O   0  0  0  0  0  0  0  0  0  0  0  0
  150.8384  143.5323  157.3669 N   0  0  0  0  0  0  0  0  0  0  0  0
  150.9637  144.7114  158.0034 N   0  0  0  0  0  0  0  0  0  0  0  0
  150.3638  143.4580  156.4784 H   0  0  0  0  0  0  0  0  0  0  0  0
  152.5957  145.1175  160.8911 H   0  0  0  0  0  0  0  0  0  0  0  0
  151.0482  145.8883  160.5565 H   0  0  0  0  0  0  0  0  0  0  0  0
  152.4716  146.3179  159.6094 H   0  0  0  0  0  0  0  0  0  0  0  0
  152.4560  142.4928  159.9824 H   0  0  0  0  0  0  0  0  0  0  0  0
  150.8135  140.4428  158.2111 H   0  0  0  0  0  0  0  0  0  0  0  0
  152.4054  140.6791  157.5266 H   0  0  0  0  0  0  0  0  0  0  0  0
  148.9783  141.4318  156.8963 H   0  0  0  0  0  0  0  0  0  0  0  0
  149.0529  141.9020  154.1011 H   0  0  0  0  0  0  0  0  0  0  0  0
  149.5898  139.5746  153.5772 H   0  0  0  0  0  0  0  0  0  0  0  0
  148.4788  137.6794  154.7090 H   0  0  0  0  0  0  0  0  0  0  0  0
  148.9631  138.6795  156.0646 H   0  0  0  0  0  0  0  0  0  0  0  0
  146.2660  138.0393  155.1888 H   0  0  0  0  0  0  0  0  0  0  0  0
  146.6661  139.1242  156.5098 H   0  0  0  0  0  0  0  0  0  0  0  0
  145.4580  140.1898  154.3046 H   0  0  0  0  0  0  0  0  0  0  0  0
  147.3901  140.5879  152.5679 H   0  0  0  0  0  0  0  0  0  0  0  0
  147.1720  138.8469  152.8469 H   0  0  0  0  0  0  0  0  0  0  0  0
  146.8423  142.1992  154.3301 H   0  0  0  0  0  0  0  0  0  0  0  0
  145.7667  142.4846  156.3326 H   0  0  0  0  0  0  0  0  0  0  0  0
  146.4125  141.0357  157.0747 H   0  0  0  0  0  0  0  0  0  0  0  0
  148.0307  143.2487  156.4227 H   0  0  0  0  0  0  0  0  0  0  0  0
  1 21  1  0  0  0  0
  1 22  1  0  0  0  0
  1 23  1  0  0  0  0
  1  2  1  0  0  0  0
  2 19  2  0  0  0  0
  2  3  1  0  0  0  0
  3  4  2  0  0  0  0
  3 24  1  0  0  0  0
  4 18  1  0  0  0  0
  4  5  1  0  0  0  0
  5  6  1  0  0  0  0
  5 25  1  0  0  0  0
  5 26  1  0  0  0  0
  6  7  2  0  0  0  0
  6  8  1  0  0  0  0
  8  9  1  0  0  0  0
  8 27  1  0  0  0  0
  9 15  1  0  0  0  0
  9 10  1  0  0  0  0
  9 28  1  0  0  0  0
 10 14  1  0  0  0  0
 10 11  1  0  0  0  0
 10 29  1  0  0  0  0
 11 12  1  0  0  0  0
 11 30  1  0  0  0  0
 11 31  1  0  0  0  0
 12 13  1  0  0  0  0
 12 32  1  0  0  0  0
 12 33  1  0  0  0  0
 13 14  1  0  0  0  0
 13 15  1  0  0  0  0
 13 34  1  0  0  0  0
 14 35  1  0  0  0  0
 14 36  1  0  0  0  0
 15 16  1  0  0  0  0
 15 37  1  0  0  0  0
 16 17  1  0  0  0  0
 16 38  1  0  0  0  0
 16 39  1  0  0  0  0
 17 40  1  0  0  0  0
 18 19  1  0  0  0  0
 18 20  1  0  0  0  0
M  END
> <s_m_source_file>
AV-unprocessed.smi

> <i_m_source_file_index>
2881

> <i_lp_mmshare_version>
43012

> <i_f3d_flags>
0

> <s_epik_input>
W0NIM11jMVtjSF1jKG5bbkhdMSlbQ0gyXUMoPU8pW05IXVtDQEhdKFtDQEBIXTIzKVtDQEhdKFtDSDJdW09IXSlbQ0BASF0oW0NIMl0zKVtDSDJdW0NIMl0y

> <s_epik_cmdline>
J2VwaWtfcHl0aG9uJywgJy1waCcsICc3LjAnLCAnLXRuJywgJzgnLCAnLW1hJywgJzIwMCcsICctbWV0YWxfYmluZGluZycsICctaW1hZScsICc8aW5maWxlLm1hZT4nLCAnLW9tYWUnLCAnPG91dGZpbGUubWFlPic=

> <r_lp_tautomer_probability>
0.5

> <r_epik_Ionization_Penalty>
0.00013396

> <r_epik_Ionization_Penalty_Charging>
0

> <r_epik_Ionization_Penalty_Neutral>
0.00013396

> <r_epik_State_Penalty>
0.41068

> <r_epik_Charging_Adjusted_Penalty>
0.41068

> <i_epik_Tot_Q>
0

> <i_epik_Tot_abs_Q>
0

> <r_epik_Metal_State_Penalty>
0.41066

> <b_epik_Metal_Only>
0

> <s_lp_Force_Field>
OPLS_2005

> <r_lp_Energy>
49.8973

> <b_lp_Chiralities_Consistent>
1

> <s_lp_Variant>
AV-unprocessed.smi:2881-10

> <Gold.Version>
5.8.1

> <Gold.Id.Protein>
6NUR|6NUR_protein|mol2

> <Gold.PLP.Fitness>
37.5595

> <Gold.PLP.PLP>
-31.7252

> <Gold.PLP.part.hbond>
-3.4015

> <Gold.PLP.part.metal>
0.0000

> <Gold.PLP.part.buried>
-2.2503

> <Gold.PLP.part.nonpolar>
-25.9485

> <Gold.PLP.part.repulsive>
0.4292

> <Gold.PLP.ligand.clash>
0.0000

> <Gold.PLP.ligand.torsion>
0.4254

> <Gold.PLP.Chemscore.Hbond>
2.2210

> <Gold.PLP.Chemscore.CHOScore>
0.0000

> <Gold.PLP.Chemscore.Metal>
0.0000

> <Gold.Chemscore.Hbonds>
donor molecule, donor type, donor heavy atom, donor atom, acceptor molecule, acceptor atom, score
      L1  H    17    40       P1  8028  0.95
      L1  H    18    20       P1  8028  0.46
      P1  H  7989  7998       L1     7  0.77

> <Gold.PLP.Chemscore.Internal.Correction>
0.0223

> <Gold.Rescore>
     Score         DG    S(hbond)    S(metal)    S(lipo)     H(rot)  DE(clash)    DE(int)     intcor
     11.62     -15.39       1.84        0.00      82.14       2.28       0.32       3.46       ----

> <Gold.Chemscore.Fitness>
11.6217

> <Gold.Chemscore.DG>
-15.3945

> <Gold.Chemscore.ZeroCoef>
-5.4800

> <Gold.Chemscore.Hbond>
1.8353

> <Gold.Chemscore.Metal>
0.0000

> <Gold.Chemscore.Lipo>
82.1357

> <Gold.Chemscore.Internal_Hbond>
0.0000

> <Gold.Chemscore.DEClash>
0.3167

> <Gold.Chemscore.DEInternal>
3.4562

> <Gold.Chemscore.Rot>
2.2755

> <Gold.Chemscore.Internal.Correction>
   9.000000E+99

> <Gold.Chemscore.Hbonds>
donor molecule, donor type, donor heavy atom, donor atom, acceptor molecule, acceptor atom, score
      L1  H    17    40       P1  8028  0.21
      L1  H    18    20       P1  8028  0.45
      P1  H  7989  7998       L1     7  0.78

> <Gold.Chemscore.Hbond.Weighted>
-6.1299

> <Gold.Chemscore.Metal.Weighted>
-0.0000

> <Gold.Chemscore.Lipo.Weighted>
-9.6099

> <Gold.Chemscore.Internal_Hbond.Weighted>
0.0000

> <Gold.Chemscore.DEClash.Weighted>
0.3167

> <Gold.Chemscore.DEInternal.Weighted>
3.4562

> <Gold.Chemscore.Rot.Weighted>
5.8252

> <Gold.Chemscore.Internal.Correction.Weighted>
   9.000000E+99

> <Gold.Protein.RotatedTorsions>
[ 6907 6896 6895 6894 ] final  -84.04 input  -60.11 | X-H torsion
[ 7974 7965 7964 7962 ] final  -63.45 input  175.53 | X-H torsion
[ 8008 7997 7996 7995 ] final   19.91 input   59.86 | X-H torsion
[ 10167 10162 10161 10158 ] final  -61.08 input  -65.29 | X-H torsion
[ 10718 10713 10712 10709 ] final   56.01 input   66.30 | X-H torsion
[ 10763 10752 10751 10750 ] final  -64.26 input  -60.55 | X-H torsion
[ 11005 11000 10999 10996 ] final  129.56 input  -57.11 | X-H torsion

> <Gold.Protein.ActiveResidues>
 VAL166  LYS551  ARG553  GLY616  TRP617  ASP618  TYR619  PRO620  LYS621  CYS622 
 ASP623  PHE694  ASN695  SER759  ASP760  ASP761  ALA762  ILE779  LEU786  VAL792 
 PHE793  MET794  SER795  GLU796  ALA797  LYS798  CYS799  TRP800  GLU811  SER814 

> <Gold.Protein.RotatedAtoms>
  150.6880  134.3420  159.4871 H   0  0  0  0  0  0  0  0  0  0  0  0  # atno 6907 bound_to 6896
  152.1272  134.9159  160.0569 H   0  0  0  0  0  0  0  0  0  0  0  0  # atno 6908 bound_to 6896
  152.0343  133.3915  159.4347 H   0  0  0  0  0  0  0  0  0  0  0  0  # atno 6909 bound_to 6896
  145.7789  140.8773  143.0341 H   0  0  0  0  0  0  0  0  0  0  0  0  # atno 7974 bound_to 7965
  154.9278  140.3036  155.5183 H   0  0  0  0  0  0  0  0  0  0  0  0  # atno 8008 bound_to 7997
  156.3005  140.2359  156.4271 H   0  0  0  0  0  0  0  0  0  0  0  0  # atno 8009 bound_to 7997
  154.8267  140.0420  157.1437 H   0  0  0  0  0  0  0  0  0  0  0  0  # atno 8010 bound_to 7997
  140.6029  143.2366  151.5887 H   0  0  0  0  0  0  0  0  0  0  0  0  # atno 10167 bound_to 10162
  157.5394  130.8686  149.8800 H   0  0  0  0  0  0  0  0  0  0  0  0  # atno 10718 bound_to 10713
  154.3274  135.6184  153.5535 H   0  0  0  0  0  0  0  0  0  0  0  0  # atno 10763 bound_to 10752
  152.9814  135.5738  154.5001 H   0  0  0  0  0  0  0  0  0  0  0  0  # atno 10764 bound_to 10752
  154.4681  135.2858  155.1640 H   0  0  0  0  0  0  0  0  0  0  0  0  # atno 10765 bound_to 10752
  139.9622  134.9599  156.9165 H   0  0  0  0  0  0  0  0  0  0  0  0  # atno 11005 bound_to 11000
  144.6800  139.9961  143.7484 LP  0  0  0  0  0  0  0  0  0  0  0  0  # atno 17320 bound_to 7965
  146.0094  139.3157  143.0879 LP  0  0  0  0  0  0  0  0  0  0  0  0  # atno 17321 bound_to 7965
  139.5304  144.2933  152.1134 LP  0  0  0  0  0  0  0  0  0  0  0  0  # atno 17342 bound_to 10162
  140.2118  144.4555  150.6382 LP  0  0  0  0  0  0  0  0  0  0  0  0  # atno 17343 bound_to 10162
  156.0484  130.3723  150.1260 LP  0  0  0  0  0  0  0  0  0  0  0  0  # atno 17370 bound_to 10713
  156.9440  130.9753  151.3511 LP  0  0  0  0  0  0  0  0  0  0  0  0  # atno 17371 bound_to 10713
  140.5475  134.0659  155.7359 LP  0  0  0  0  0  0  0  0  0  0  0  0  # atno 17394 bound_to 11000
  141.1300  133.9318  157.2556 LP  0  0  0  0  0  0  0  0  0  0  0  0  # atno 17395 bound_to 11000

$$$$
