#       Name:                AV-unprocessed.smi:1946
#       Creating user name   scv26
#       Creation time:       Fri Mar 27 10:01:21 2020


#       File generated by GOLD software.
#

@<TRIPOS>MOLECULE
AV-unprocessed.smi:1946
    41    43     1
SMALL
NO_CHARGES


@<TRIPOS>ATOM
      1 ****        -6.1073   0.9819   0.6413 C.3            1 S1                 0.0000
      2 ****        -5.6809   0.2779  -1.0028 S.o2           1 S1                 0.0000
      3 ****        -6.1416  -1.1191  -1.0343 O.2            1 S1                 0.0000
      4 ****        -6.1415   1.2195  -2.0352 O.2            1 S1                 0.0000
      5 ****        -3.8920   0.2735  -1.0097 C.ar           1 S1                 0.0000
      6 ****        -3.1955  -0.8334  -0.4861 C.ar           1 S1                 0.0000
      7 ****        -1.7874  -0.8237  -0.4654 C.ar           1 S1                 0.0000
      8 ****        -1.0740   0.2913  -0.9598 C.ar           1 S1                 0.0000
      9 ****         0.4465   0.3053  -0.9378 C.3            1 S1                 0.0000
     10 ****         0.9952  -0.8931  -1.4508 O.3            1 S1                 0.0000
     11 ****         0.9842   0.5726   0.4828 C.3            1 S1                 0.0000
     12 ****         2.4507   0.6644   0.5345 N.pl3          1 S1                 0.0000
     13 ****         3.2620   1.7327   0.3070 C.2            1 S1                 0.0000
     14 ****         4.5477   1.3179   0.4786 N.pl3          1 S1                 1.0000
     15 ****         4.5594  -0.0358   0.8208 C.ar           1 S1                 0.0000
     16 ****         5.6181  -0.8969   1.0927 C.ar           1 S1                 0.0000
     17 ****         5.2843  -2.2302   1.4085 C.ar           1 S1                 0.0000
     18 ****         3.9428  -2.6628   1.4443 C.ar           1 S1                 0.0000
     19 ****         2.8773  -1.7809   1.1674 C.ar           1 S1                 0.0000
     20 ****         3.2150  -0.4635   0.8579 C.ar           1 S1                 0.0000
     21 ****        -1.7829   1.4034  -1.4648 C.ar           1 S1                 0.0000
     22 ****        -3.1912   1.3988  -1.4865 C.ar           1 S1                 0.0000
     23 ****        -7.1911   1.0246   0.7469 H              1 S1                 0.0000
     24 ****        -5.6951   1.9873   0.7254 H              1 S1                 0.0000
     25 ****        -5.6909   0.3514   1.4267 H              1 S1                 0.0000
     26 ****        -3.7329  -1.6876  -0.1013 H              1 S1                 0.0000
     27 ****        -1.2560  -1.6750  -0.0657 H              1 S1                 0.0000
     28 ****         0.7899   1.1061  -1.5943 H              1 S1                 0.0000
     29 ****         0.7229  -0.9847  -2.3513 H              1 S1                 0.0000
     30 ****         0.5927   1.5212   0.8528 H              1 S1                 0.0000
     31 ****         0.6473  -0.1893   1.1861 H              1 S1                 0.0000
     32 ****         2.9436   2.7298   0.0392 H              1 S1                 0.0000
     33 ****         6.6468  -0.5688   1.0641 H              1 S1                 0.0000
     34 ****         6.0730  -2.9358   1.6261 H              1 S1                 0.0000
     35 ****         3.7258  -3.6929   1.6872 H              1 S1                 0.0000
     36 ****         1.8543  -2.1254   1.1913 H              1 S1                 0.0000
     37 ****        -1.2495   2.2661  -1.8360 H              1 S1                 0.0000
     38 ****        -3.7251   2.2560  -1.8689 H              1 S1                 0.0000
     39 ****         5.3560   1.9170   0.3694 H              1 S1                 0.0000
     40 ****         0.6645  -1.6715  -0.9172 LP             1 S1                 0.0000
     41 ****         1.9933  -0.8555  -1.4020 LP             1 S1                 0.0000
@<TRIPOS>BOND
    1    1    2 1     
    2    1   23 1     
    3    1   24 1     
    4    1   25 1     
    5    2    3 2     
    6    2    4 2     
    7    2    5 1     
    8    5   22 ar    
    9    5    6 ar    
   10    6    7 ar    
   11    6   26 1     
   12    7    8 ar    
   13    7   27 1     
   14    8    9 1     
   15    8   21 ar    
   16    9   10 1     
   17    9   11 1     
   18    9   28 1     
   19   10   29 1     
   20   11   12 1     
   21   11   30 1     
   22   11   31 1     
   23   12   20 1     
   24   12   13 1     
   25   13   14 2     
   26   13   32 1     
   27   14   15 1     
   28   14   39 1     
   29   15   20 ar    
   30   15   16 ar    
   31   16   17 ar    
   32   16   33 1     
   33   17   18 ar    
   34   17   34 1     
   35   18   19 ar    
   36   18   35 1     
   37   19   20 ar    
   38   19   36 1     
   39   21   22 ar    
   40   21   37 1     
   41   22   38 1     
   42   10   40 1     
   43   10   41 1     
@<TRIPOS>SUBSTRUCTURE
      1 S1             1
@<TRIPOS>SET
LONE_PAIRS      STATIC     ATOMS    <user>   **** ""
4 3 4 40 41
DONOR_HYDROGENS      STATIC     ATOMS    <user>   **** ""
2 29 39
ATOM$BLUE        STATIC     ATOMS    COLORGROUP SYSTEM
4 3 4 40 41
ATOM$RED        STATIC     ATOMS    COLORGROUP SYSTEM
2 29 39
