AV-unprocessed.smi:82|AV-procd|sdf|797|dock10
  -GOLD-   2262017173D 1   1.00000     0.00000
 Structure written by MMmdl.
 59 62  0  0  0  0  0  0  0  0  2 V2000
  144.0824  145.3257  156.6768 C   0  0  0  0  0  0  0  0  0  0  0  0
  144.4141  143.9860  156.9983 O   0  0  0  0  0  0  0  0  0  0  0  0
  145.1216  143.3350  155.9560 C   0  0  0  0  0  0  0  0  0  0  0  0
  145.6678  141.9991  156.4858 C   0  0  0  0  0  0  0  0  0  0  0  0
  146.4091  141.2290  155.4458 N   0  3  1  0  0  0  0  0  0  0  0  0
  147.5296  142.0296  154.8738 C   0  0  0  0  0  0  0  0  0  0  0  0
  148.2682  141.2833  153.7512 C   0  0  0  0  0  0  0  0  0  0  0  0
  148.6818  139.9548  154.1737 N   0  0  0  0  0  0  0  0  0  0  0  0
  149.9017  139.8611  154.7469 C   0  0  0  0  0  0  0  0  0  0  0  0
  150.9055  139.2040  154.1112 N   0  0  0  0  0  0  0  0  0  0  0  0
  152.1094  139.1131  154.6841 C   0  0  0  0  0  0  0  0  0  0  0  0
  152.5119  139.5989  155.8604 N   0  0  0  0  0  0  0  0  0  0  0  0
  151.5046  140.2616  156.4999 C   0  0  0  0  0  0  0  0  0  0  0  0
  150.1788  140.4369  156.0138 C   0  0  0  0  0  0  0  0  0  0  0  0
  149.4251  141.1616  156.9264 N   0  0  0  0  0  0  0  0  0  0  0  0
  150.2588  141.4029  157.9014 C   0  0  0  0  0  0  0  0  0  0  0  0
  151.5302  140.8994  157.7304 N   0  0  0  0  0  0  0  0  0  0  0  0
  152.6260  141.0236  158.6510 C   0  0  0  0  0  0  0  0  0  0  0  0
  152.5145  140.5384  160.0976 C   0  0  0  0  0  0  0  0  0  0  0  0
  153.4607  141.6774  160.5439 C   0  0  0  0  0  0  0  0  0  0  0  0
  153.0453  142.3686  161.8545 C   0  0  0  0  0  0  0  0  0  0  0  0
  151.6803  142.7329  161.8532 O   0  0  0  0  0  0  0  0  0  0  0  0
  154.9416  141.2533  160.6377 C   0  0  0  0  0  0  0  0  0  0  0  0
  155.2222  140.5395  161.8242 O   0  0  0  0  0  0  0  0  0  0  0  0
  153.0259  142.3786  159.2353 C   0  0  0  0  0  0  0  0  0  0  0  0
  147.6296  139.1394  154.7622 C   0  0  0  0  0  0  0  0  0  0  0  0
  146.8542  139.8670  155.8872 C   0  0  2  0  0  0  0  0  0  0  0  0
  145.6854  138.9595  156.3227 C   0  0  0  0  0  0  0  0  0  0  0  0
  143.5476  145.7808  157.5106 H   0  0  0  0  0  0  0  0  0  0  0  0
  143.4375  145.3729  155.7981 H   0  0  0  0  0  0  0  0  0  0  0  0
  144.9777  145.9193  156.4869 H   0  0  0  0  0  0  0  0  0  0  0  0
  144.4847  143.1985  155.0823 H   0  0  0  0  0  0  0  0  0  0  0  0
  145.9561  143.9627  155.6401 H   0  0  0  0  0  0  0  0  0  0  0  0
  146.3165  142.1690  157.3461 H   0  0  0  0  0  0  0  0  0  0  0  0
  144.8123  141.4466  156.8649 H   0  0  0  0  0  0  0  0  0  0  0  0
  147.1631  142.9707  154.4681 H   0  0  0  0  0  0  0  0  0  0  0  0
  148.2275  142.2905  155.6700 H   0  0  0  0  0  0  0  0  0  0  0  0
  147.6136  141.1760  152.8856 H   0  0  0  0  0  0  0  0  0  0  0  0
  149.1320  141.8602  153.4171 H   0  0  0  0  0  0  0  0  0  0  0  0
  152.8572  138.5747  154.1207 H   0  0  0  0  0  0  0  0  0  0  0  0
  149.9639  141.9595  158.7794 H   0  0  0  0  0  0  0  0  0  0  0  0
  153.4893  140.5606  158.1692 H   0  0  0  0  0  0  0  0  0  0  0  0
  151.5058  140.6349  160.5011 H   0  0  0  0  0  0  0  0  0  0  0  0
  152.8989  139.5314  160.2631 H   0  0  0  0  0  0  0  0  0  0  0  0
  153.2019  141.7066  162.7067 H   0  0  0  0  0  0  0  0  0  0  0  0
  153.6489  143.2570  162.0430 H   0  0  0  0  0  0  0  0  0  0  0  0
  151.5880  143.5540  161.3948 H   0  0  0  0  0  0  0  0  0  0  0  0
  155.2284  140.6382  159.7841 H   0  0  0  0  0  0  0  0  0  0  0  0
  155.6003  142.1217  160.6169 H   0  0  0  0  0  0  0  0  0  0  0  0
  154.4128  140.4003  162.2911 H   0  0  0  0  0  0  0  0  0  0  0  0
  153.8265  142.8820  158.6927 H   0  0  0  0  0  0  0  0  0  0  0  0
  152.1770  143.0489  159.3792 H   0  0  0  0  0  0  0  0  0  0  0  0
  146.9430  138.8624  153.9613 H   0  0  0  0  0  0  0  0  0  0  0  0
  148.0534  138.2061  155.1368 H   0  0  0  0  0  0  0  0  0  0  0  0
  147.5197  139.9948  156.7418 H   0  0  0  0  0  0  0  0  0  0  0  0
  146.0241  137.9316  156.4571 H   0  0  0  0  0  0  0  0  0  0  0  0
  144.8918  138.9465  155.5748 H   0  0  0  0  0  0  0  0  0  0  0  0
  145.2520  139.2567  157.2762 H   0  0  0  0  0  0  0  0  0  0  0  0
  145.7543  141.0694  154.6933 H   0  0  0  0  0  0  0  0  0  0  0  0
  1  2  1  0  0  0  0
  1 29  1  0  0  0  0
  1 30  1  0  0  0  0
  1 31  1  0  0  0  0
  2  3  1  0  0  0  0
  3  4  1  0  0  0  0
  3 32  1  0  0  0  0
  3 33  1  0  0  0  0
  4  5  1  0  0  0  0
  4 34  1  0  0  0  0
  4 35  1  0  0  0  0
  5 27  1  0  0  0  0
  5  6  1  0  0  0  0
  5 59  1  0  0  0  0
  6  7  1  0  0  0  0
  6 36  1  0  0  0  0
  6 37  1  0  0  0  0
  7  8  1  0  0  0  0
  7 38  1  0  0  0  0
  7 39  1  0  0  0  0
  8  9  1  0  0  0  0
  8 26  1  0  0  0  0
  9 14  1  0  0  0  0
  9 10  2  0  0  0  0
 10 11  1  0  0  0  0
 11 12  2  0  0  0  0
 11 40  1  0  0  0  0
 12 13  1  0  0  0  0
 13 17  1  0  0  0  0
 13 14  2  0  0  0  0
 14 15  1  0  0  0  0
 15 16  2  0  0  0  0
 16 17  1  0  0  0  0
 16 41  1  0  0  0  0
 17 18  1  0  0  0  0
 18 25  1  0  0  0  0
 18 19  1  0  0  0  0
 18 42  1  0  0  0  0
 19 20  1  0  0  0  0
 19 43  1  0  0  0  0
 19 44  1  0  0  0  0
 20 21  1  0  0  0  0
 20 23  1  0  0  0  0
 20 25  1  0  0  0  0
 21 22  1  0  0  0  0
 21 45  1  0  0  0  0
 21 46  1  0  0  0  0
 22 47  1  0  0  0  0
 23 24  1  0  0  0  0
 23 48  1  0  0  0  0
 23 49  1  0  0  0  0
 24 50  1  0  0  0  0
 25 51  1  0  0  0  0
 25 52  1  0  0  0  0
 26 27  1  0  0  0  0
 26 53  1  0  0  0  0
 26 54  1  0  0  0  0
 27 28  1  0  0  0  0
 27 55  1  0  0  0  0
 28 56  1  0  0  0  0
 28 57  1  0  0  0  0
 28 58  1  0  0  0  0
M  CHG  1   5   1
M  END
> <s_m_source_file>
AV-unprocessed.smi

> <i_m_source_file_index>
82

> <i_lp_mmshare_version>
43012

> <i_f3d_flags>
0

> <s_epik_input>
W0NIM11PW0NIMl1bQ0gyXU4xW0NIMl1bQ0gyXU4oW0NIMl1bQ0BIXTFbQ0gzXSljKG5bY0hdbjIpYyhjMjMpbltjSF1uM1tDSF0oW0NIMl00KVtDSDJdQzQoW0NIMl1bT0hdKVtDSDJdW09IXQ==

> <s_epik_cmdline>
J2VwaWtfcHl0aG9uJywgJy1waCcsICc3LjAnLCAnLXRuJywgJzgnLCAnLW1hJywgJzIwMCcsICctbWV0YWxfYmluZGluZycsICctaW1hZScsICc8aW5maWxlLm1hZT4nLCAnLW9tYWUnLCAnPG91dGZpbGUubWFlPic=

> <r_lp_tautomer_probability>
1

> <r_epik_Ionization_Penalty>
0.304275

> <r_epik_Ionization_Penalty_Charging>
0.304214

> <r_epik_Ionization_Penalty_Neutral>
6.13137e-05

> <r_epik_State_Penalty>
0.300354

> <r_epik_Charging_Adjusted_Penalty>
0.604567

> <i_epik_Tot_Q>
1

> <i_epik_Tot_abs_Q>
1

> <r_epik_Metal_State_Penalty>
0.301147

> <b_epik_Metal_Only>
0

> <s_lp_Force_Field>
OPLS_2005

> <r_lp_Energy>
60.5055

> <b_lp_Chiralities_Consistent>
1

> <s_lp_Variant>
AV-unprocessed.smi:82-4

> <Gold.Version>
5.8.1

> <Gold.Id.Protein>
6NUR|6NUR_protein|mol2

> <Gold.PLP.Fitness>
47.9728

> <Gold.PLP.PLP>
-42.7300

> <Gold.PLP.part.hbond>
-4.8319

> <Gold.PLP.part.metal>
0.0000

> <Gold.PLP.part.buried>
-2.2867

> <Gold.PLP.part.nonpolar>
-35.3726

> <Gold.PLP.part.repulsive>
0.4600

> <Gold.PLP.ligand.clash>
0.0000

> <Gold.PLP.ligand.torsion>
0.5225

> <Gold.PLP.Chemscore.Hbond>
1.8110

> <Gold.PLP.Chemscore.CHOScore>
0.0000

> <Gold.PLP.Chemscore.Metal>
0.0000

> <Gold.Chemscore.Hbonds>
donor molecule, donor type, donor heavy atom, donor atom, acceptor molecule, acceptor atom, score
      P1  H  6933  6945       L1    22  0.75
      P1  H  7989  7998       L1    10  0.05
      P1  H  7997  8008       L1    12  1.00

> <Gold.PLP.Chemscore.Internal.Correction>
0.8548

> <Gold.Rescore>
     Score         DG    S(hbond)    S(metal)    S(lipo)     H(rot)  DE(clash)    DE(int)     intcor
      8.60     -11.14       1.61        0.00      87.93       3.91       0.68       1.86       ----

> <Gold.Chemscore.Fitness>
8.6008

> <Gold.Chemscore.DG>
-11.1403

> <Gold.Chemscore.ZeroCoef>
-5.4800

> <Gold.Chemscore.Hbond>
1.6081

> <Gold.Chemscore.Metal>
0.0000

> <Gold.Chemscore.Lipo>
87.9263

> <Gold.Chemscore.Internal_Hbond>
0.0000

> <Gold.Chemscore.DEClash>
0.6830

> <Gold.Chemscore.DEInternal>
1.8565

> <Gold.Chemscore.Rot>
3.9055

> <Gold.Chemscore.Internal.Correction>
   9.000000E+99

> <Gold.Chemscore.Hbonds>
donor molecule, donor type, donor heavy atom, donor atom, acceptor molecule, acceptor atom, score
      P1  H  6933  6945       L1    22  0.70
      P1  H  7997  8008       L1    12  0.95

> <Gold.Chemscore.Hbond.Weighted>
-5.3710

> <Gold.Chemscore.Metal.Weighted>
-0.0000

> <Gold.Chemscore.Lipo.Weighted>
-10.2874

> <Gold.Chemscore.Internal_Hbond.Weighted>
0.0000

> <Gold.Chemscore.DEClash.Weighted>
0.6830

> <Gold.Chemscore.DEInternal.Weighted>
1.8565

> <Gold.Chemscore.Rot.Weighted>
9.9980

> <Gold.Chemscore.Internal.Correction.Weighted>
   9.000000E+99

> <Gold.Protein.RotatedTorsions>
[ 6907 6896 6895 6894 ] final -171.69 input  -60.11 | X-H torsion
[ 7974 7965 7964 7962 ] final -104.76 input  175.53 | X-H torsion
[ 8008 7997 7996 7995 ] final  -32.36 input   59.86 | X-H torsion
[ 10167 10162 10161 10158 ] final    2.60 input  -65.29 | X-H torsion
[ 10718 10713 10712 10709 ] final -178.47 input   66.30 | X-H torsion
[ 10763 10752 10751 10750 ] final    4.48 input  -60.55 | X-H torsion
[ 11005 11000 10999 10996 ] final  -32.67 input  -57.11 | X-H torsion

> <Gold.Protein.ActiveResidues>
 VAL166  LYS551  ARG553  GLY616  TRP617  ASP618  TYR619  PRO620  LYS621  CYS622 
 ASP623  PHE694  ASN695  SER759  ASP760  ASP761  ALA762  ILE779  LEU786  VAL792 
 PHE793  MET794  SER795  GLU796  ALA797  LYS798  CYS799  TRP800  GLU811  SER814 

> <Gold.Protein.RotatedAtoms>
  151.5279  133.3454  159.2912 H   0  0  0  0  0  0  0  0  0  0  0  0  # atno 6907 bound_to 6896
  150.8611  134.7966  159.7095 H   0  0  0  0  0  0  0  0  0  0  0  0  # atno 6908 bound_to 6896
  152.4630  134.5148  159.9816 H   0  0  0  0  0  0  0  0  0  0  0  0  # atno 6909 bound_to 6896
  145.2391  140.9198  143.3160 H   0  0  0  0  0  0  0  0  0  0  0  0  # atno 7974 bound_to 7965
  154.4182  140.1739  156.1715 H   0  0  0  0  0  0  0  0  0  0  0  0  # atno 8008 bound_to 7997
  155.9756  140.3382  155.6592 H   0  0  0  0  0  0  0  0  0  0  0  0  # atno 8009 bound_to 7997
  155.6567  140.0696  157.2559 H   0  0  0  0  0  0  0  0  0  0  0  0  # atno 8010 bound_to 7997
  140.6627  143.7261  150.7769 H   0  0  0  0  0  0  0  0  0  0  0  0  # atno 10167 bound_to 10162
  156.8448  130.9699  151.3097 H   0  0  0  0  0  0  0  0  0  0  0  0  # atno 10718 bound_to 10713
  153.2707  135.6932  153.7483 H   0  0  0  0  0  0  0  0  0  0  0  0  # atno 10763 bound_to 10752
  153.6507  135.3377  155.3100 H   0  0  0  0  0  0  0  0  0  0  0  0  # atno 10764 bound_to 10752
  154.8463  135.4454  154.1729 H   0  0  0  0  0  0  0  0  0  0  0  0  # atno 10765 bound_to 10752
  140.9572  133.7186  156.1311 H   0  0  0  0  0  0  0  0  0  0  0  0  # atno 11005 bound_to 11000
  144.9606  139.3984  143.6358 LP  0  0  0  0  0  0  0  0  0  0  0  0  # atno 17320 bound_to 7965
  146.3333  139.8657  142.8848 LP  0  0  0  0  0  0  0  0  0  0  0  0  # atno 17321 bound_to 7965
  140.0933  143.4857  152.2467 LP  0  0  0  0  0  0  0  0  0  0  0  0  # atno 17342 bound_to 10162
  139.5866  144.7533  151.3505 LP  0  0  0  0  0  0  0  0  0  0  0  0  # atno 17343 bound_to 10162
  157.6336  130.8748  149.9318 LP  0  0  0  0  0  0  0  0  0  0  0  0  # atno 17370 bound_to 10713
  156.0860  130.3668  150.0486 LP  0  0  0  0  0  0  0  0  0  0  0  0  # atno 17371 bound_to 10713
  140.7520  134.4035  157.5540 LP  0  0  0  0  0  0  0  0  0  0  0  0  # atno 17394 bound_to 11000
  139.8866  134.8905  156.2576 LP  0  0  0  0  0  0  0  0  0  0  0  0  # atno 17395 bound_to 11000

$$$$
