AV-unprocessed.smi:1630|AV-procd|sdf|6525|dock4
  -GOLD-   22720 7203D 1   1.00000     0.00000
 Structure written by MMmdl.
 36 37  0  0  0  0  0  0  0  0  1 V2000
  146.0862  137.8780  152.0268 C   0  0  0  0  0  0  0  0  0  0  0  0
  146.1033  137.7034  153.8575 S   0  0  0  0  0  0  0  0  0  0  0  0
  144.7265  137.8667  154.3496 O   0  0  0  0  0  0  0  0  0  0  0  0
  146.8516  136.4801  154.1872 O   0  0  0  0  0  0  0  0  0  0  0  0
  147.0567  139.1130  154.4116 C   0  0  0  0  0  0  0  0  0  0  0  0
  147.0040  140.3327  153.7073 C   0  0  0  0  0  0  0  0  0  0  0  0
  147.7473  141.4201  154.2053 C   0  0  0  0  0  0  0  0  0  0  0  0
  148.4969  141.2501  155.3956 C   0  0  0  0  0  0  0  0  0  0  0  0
  149.3023  142.2576  155.9934 N   0  0  0  0  0  0  0  0  0  0  0  0
  150.3820  142.1256  156.7894 C   0  0  0  0  0  0  0  0  0  0  0  0
  150.8849  141.0541  157.1195 O   0  0  0  0  0  0  0  0  0  0  0  0
  150.9002  143.2940  157.2104 N   0  0  0  0  0  0  0  0  0  0  0  0
  152.0611  143.5115  158.0777 C   0  0  0  0  0  0  0  0  0  0  0  0
  151.9181  142.7123  159.3869 C   0  0  0  0  0  0  0  0  0  0  0  0
  152.2942  143.6758  160.5131 C   0  0  0  0  0  0  0  0  0  0  0  0
  151.8749  145.0447  159.9889 C   0  0  0  0  0  0  0  0  0  0  0  0
  152.1999  144.9908  158.4955 C   0  0  0  0  0  0  0  0  0  0  0  0
  148.4687  139.9827  156.0165 C   0  0  0  0  0  0  0  0  0  0  0  0
  147.7601  138.9333  155.5495 N   0  0  0  0  0  0  0  0  0  0  0  0
  145.5177  137.0575  151.5896 H   0  0  0  0  0  0  0  0  0  0  0  0
  147.1081  137.8540  151.6492 H   0  0  0  0  0  0  0  0  0  0  0  0
  145.6212  138.8259  151.7565 H   0  0  0  0  0  0  0  0  0  0  0  0
  146.4185  140.4368  152.8058 H   0  0  0  0  0  0  0  0  0  0  0  0
  147.7331  142.3494  153.6587 H   0  0  0  0  0  0  0  0  0  0  0  0
  149.0467  143.2062  155.7601 H   0  0  0  0  0  0  0  0  0  0  0  0
  150.4182  144.1298  156.9113 H   0  0  0  0  0  0  0  0  0  0  0  0
  152.9701  143.1892  157.5667 H   0  0  0  0  0  0  0  0  0  0  0  0
  150.8847  142.3914  159.5297 H   0  0  0  0  0  0  0  0  0  0  0  0
  152.5369  141.8145  159.3931 H   0  0  0  0  0  0  0  0  0  0  0  0
  151.8157  143.4231  161.4598 H   0  0  0  0  0  0  0  0  0  0  0  0
  153.3736  143.6576  160.6688 H   0  0  0  0  0  0  0  0  0  0  0  0
  150.8011  145.1773  160.1276 H   0  0  0  0  0  0  0  0  0  0  0  0
  152.3810  145.8643  160.4997 H   0  0  0  0  0  0  0  0  0  0  0  0
  153.2309  145.3109  158.3397 H   0  0  0  0  0  0  0  0  0  0  0  0
  151.5665  145.6677  157.9208 H   0  0  0  0  0  0  0  0  0  0  0  0
  149.0302  139.8047  156.9220 H   0  0  0  0  0  0  0  0  0  0  0  0
  1  2  1  0  0  0  0
  1 20  1  0  0  0  0
  1 21  1  0  0  0  0
  1 22  1  0  0  0  0
  2  3  2  0  0  0  0
  2  4  2  0  0  0  0
  2  5  1  0  0  0  0
  5 19  1  0  0  0  0
  5  6  2  0  0  0  0
  6  7  1  0  0  0  0
  6 23  1  0  0  0  0
  7  8  2  0  0  0  0
  7 24  1  0  0  0  0
  8  9  1  0  0  0  0
  8 18  1  0  0  0  0
  9 10  1  0  0  0  0
  9 25  1  0  0  0  0
 10 11  2  0  0  0  0
 10 12  1  0  0  0  0
 12 13  1  0  0  0  0
 12 26  1  0  0  0  0
 13 17  1  0  0  0  0
 13 14  1  0  0  0  0
 13 27  1  0  0  0  0
 14 15  1  0  0  0  0
 14 28  1  0  0  0  0
 14 29  1  0  0  0  0
 15 16  1  0  0  0  0
 15 30  1  0  0  0  0
 15 31  1  0  0  0  0
 16 17  1  0  0  0  0
 16 32  1  0  0  0  0
 16 33  1  0  0  0  0
 17 34  1  0  0  0  0
 17 35  1  0  0  0  0
 18 19  2  0  0  0  0
 18 36  1  0  0  0  0
M  END
> <s_m_source_file>
AV-unprocessed.smi

> <i_m_source_file_index>
1630

> <i_lp_mmshare_version>
43012

> <i_f3d_flags>
0

> <s_epik_input>
W0NIM11TKD1PKSg9TyljMVtjSF1bY0hdYyhbY0hdbjEpW05IXUMoPU8pW05IXVtDSF0yW0NIMl1bQ0gyXVtDSDJdW0NIMl0y

> <s_epik_cmdline>
J2VwaWtfcHl0aG9uJywgJy1waCcsICc3LjAnLCAnLXRuJywgJzgnLCAnLW1hJywgJzIwMCcsICctbWV0YWxfYmluZGluZycsICctaW1hZScsICc8aW5maWxlLm1hZT4nLCAnLW9tYWUnLCAnPG91dGZpbGUubWFlPic=

> <r_lp_tautomer_probability>
1

> <r_epik_Ionization_Penalty>
4.04514e-05

> <r_epik_Ionization_Penalty_Charging>
0

> <r_epik_Ionization_Penalty_Neutral>
4.04514e-05

> <r_epik_State_Penalty>
-0

> <r_epik_Charging_Adjusted_Penalty>
0

> <i_epik_Tot_Q>
0

> <i_epik_Tot_abs_Q>
0

> <r_epik_Metal_State_Penalty>
-0

> <b_epik_Metal_Only>
0

> <s_lp_Force_Field>
OPLS_2005

> <r_lp_Energy>
32.1208

> <b_lp_Chiralities_Consistent>
1

> <s_lp_Variant>
AV-unprocessed.smi:1630-1

> <Gold.Version>
5.8.1

> <Gold.Id.Protein>
6NUR|6NUR_protein|mol2

> <Gold.PLP.Fitness>
39.0252

> <Gold.PLP.PLP>
-34.2661

> <Gold.PLP.part.hbond>
-1.9833

> <Gold.PLP.part.metal>
0.0000

> <Gold.PLP.part.buried>
-4.8824

> <Gold.PLP.part.nonpolar>
-29.5114

> <Gold.PLP.part.repulsive>
1.1225

> <Gold.PLP.ligand.clash>
0.0000

> <Gold.PLP.ligand.torsion>
1.3728

> <Gold.PLP.Chemscore.Hbond>
1.8268

> <Gold.PLP.Chemscore.CHOScore>
0.0000

> <Gold.PLP.Chemscore.Metal>
0.0000

> <Gold.Chemscore.Hbonds>
donor molecule, donor type, donor heavy atom, donor atom, acceptor molecule, acceptor atom, score
      L1  H     9    25       P1  8028  0.98
      L1  H    12    26       P1  8028  0.81

> <Gold.PLP.Chemscore.Internal.Correction>
2.0244

> <Gold.Rescore>
     Score         DG    S(hbond)    S(metal)    S(lipo)     H(rot)  DE(clash)    DE(int)     intcor
     15.73     -19.53       1.92        0.00      87.15       1.00       0.02       3.79       ----

> <Gold.Chemscore.Fitness>
15.7273

> <Gold.Chemscore.DG>
-19.5307

> <Gold.Chemscore.ZeroCoef>
-5.4800

> <Gold.Chemscore.Hbond>
1.9204

> <Gold.Chemscore.Metal>
0.0000

> <Gold.Chemscore.Lipo>
87.1505

> <Gold.Chemscore.Internal_Hbond>
0.0000

> <Gold.Chemscore.DEClash>
0.0176

> <Gold.Chemscore.DEInternal>
3.7858

> <Gold.Chemscore.Rot>
1.0000

> <Gold.Chemscore.Internal.Correction>
   9.000000E+99

> <Gold.Chemscore.Hbonds>
donor molecule, donor type, donor heavy atom, donor atom, acceptor molecule, acceptor atom, score
      L1  H     9    25       P1  8028  0.92
      L1  H    12    26       P1  8028  0.74

> <Gold.Chemscore.Hbond.Weighted>
-6.4141

> <Gold.Chemscore.Metal.Weighted>
-0.0000

> <Gold.Chemscore.Lipo.Weighted>
-10.1966

> <Gold.Chemscore.Internal_Hbond.Weighted>
0.0000

> <Gold.Chemscore.DEClash.Weighted>
0.0176

> <Gold.Chemscore.DEInternal.Weighted>
3.7858

> <Gold.Chemscore.Rot.Weighted>
2.5600

> <Gold.Chemscore.Internal.Correction.Weighted>
   9.000000E+99

> <Gold.Protein.RotatedTorsions>
[ 6907 6896 6895 6894 ] final  140.34 input  -60.11 | X-H torsion
[ 7974 7965 7964 7962 ] final   33.38 input  175.53 | X-H torsion
[ 8008 7997 7996 7995 ] final -167.62 input   59.86 | X-H torsion
[ 10167 10162 10161 10158 ] final  146.71 input  -65.29 | X-H torsion
[ 10718 10713 10712 10709 ] final  143.09 input   66.30 | X-H torsion
[ 10763 10752 10751 10750 ] final   55.73 input  -60.55 | X-H torsion
[ 11005 11000 10999 10996 ] final  114.00 input  -57.11 | X-H torsion

> <Gold.Protein.ActiveResidues>
 VAL166  LYS551  ARG553  GLY616  TRP617  ASP618  TYR619  PRO620  LYS621  CYS622 
 ASP623  PHE694  ASN695  SER759  ASP760  ASP761  ALA762  ILE779  LEU786  VAL792 
 PHE793  MET794  SER795  GLU796  ALA797  LYS798  CYS799  TRP800  GLU811  SER814 

> <Gold.Protein.RotatedAtoms>
  152.2442  133.5161  159.5287 H   0  0  0  0  0  0  0  0  0  0  0  0  # atno 6907 bound_to 6896
  150.7073  134.1047  159.3987 H   0  0  0  0  0  0  0  0  0  0  0  0  # atno 6908 bound_to 6896
  151.8968  135.0394  160.0553 H   0  0  0  0  0  0  0  0  0  0  0  0  # atno 6909 bound_to 6896
  146.1424  139.6404  142.9154 H   0  0  0  0  0  0  0  0  0  0  0  0  # atno 7974 bound_to 7965
  155.8802  140.1007  157.1491 H   0  0  0  0  0  0  0  0  0  0  0  0  # atno 8008 bound_to 7997
  154.4004  140.1330  156.4250 H   0  0  0  0  0  0  0  0  0  0  0  0  # atno 8009 bound_to 7997
  155.7652  140.3462  155.5220 H   0  0  0  0  0  0  0  0  0  0  0  0  # atno 8010 bound_to 7997
  139.4902  144.5809  151.6873 H   0  0  0  0  0  0  0  0  0  0  0  0  # atno 10167 bound_to 10162
  157.3730  131.0981  151.0810 H   0  0  0  0  0  0  0  0  0  0  0  0  # atno 10718 bound_to 10713
  152.9821  135.5700  154.5115 H   0  0  0  0  0  0  0  0  0  0  0  0  # atno 10763 bound_to 10752
  154.4618  135.2782  155.1709 H   0  0  0  0  0  0  0  0  0  0  0  0  # atno 10764 bound_to 10752
  154.3294  135.6252  153.5598 H   0  0  0  0  0  0  0  0  0  0  0  0  # atno 10765 bound_to 10752
  139.8968  134.9560  156.6826 H   0  0  0  0  0  0  0  0  0  0  0  0  # atno 11005 bound_to 11000
  145.5016  141.0437  143.2537 LP  0  0  0  0  0  0  0  0  0  0  0  0  # atno 17320 bound_to 7965
  144.7807  139.6531  143.7155 LP  0  0  0  0  0  0  0  0  0  0  0  0  # atno 17321 bound_to 7965
  140.5415  144.0571  150.6090 LP  0  0  0  0  0  0  0  0  0  0  0  0  # atno 17342 bound_to 10162
  140.3595  143.2916  152.0399 LP  0  0  0  0  0  0  0  0  0  0  0  0  # atno 17343 bound_to 10162
  157.1908  130.6351  149.5703 LP  0  0  0  0  0  0  0  0  0  0  0  0  # atno 17370 bound_to 10713
  155.9759  130.4723  150.6494 LP  0  0  0  0  0  0  0  0  0  0  0  0  # atno 17371 bound_to 10713
  140.7288  133.9077  155.8196 LP  0  0  0  0  0  0  0  0  0  0  0  0  # atno 17394 bound_to 11000
  141.0170  134.0942  157.4161 LP  0  0  0  0  0  0  0  0  0  0  0  0  # atno 17395 bound_to 11000

$$$$
