AV-unprocessed.smi:1420|AV-procd|sdf|5787|dock3
  -GOLD-   22720 5433D 1   1.00000     0.00000
 Structure written by MMmdl.
 38 39  0  0  0  0  0  0  0  0  1 V2000
  148.5928  141.2831  154.3436 C   0  0  0  0  0  0  0  0  0  0  0  0
  149.8493  141.1774  155.2454 C   0  0  1  0  0  0  0  0  0  0  0  0
  149.3926  141.0538  156.7286 C   0  0  0  0  0  0  0  0  0  0  0  0
  148.3663  142.0228  157.1026 N   0  0  0  0  0  0  0  0  0  0  0  0
  147.2531  141.7392  157.7968 C   0  0  0  0  0  0  0  0  0  0  0  0
  146.9721  140.6097  158.1970 O   0  0  0  0  0  0  0  0  0  0  0  0
  146.3148  142.9102  158.0917 C   0  0  0  0  0  0  0  0  0  0  0  0
  146.2186  143.1617  159.5186 N   0  0  0  0  0  0  0  0  0  0  0  0
  146.6655  144.2575  160.2276 C   0  0  0  0  0  0  0  0  0  0  0  0
  146.3544  144.0469  161.5404 C   0  0  0  0  0  0  0  0  0  0  0  0
  145.7104  142.7780  161.5360 C   0  0  0  0  0  0  0  0  0  0  0  0
  145.6306  142.2503  160.3250 N   0  0  0  0  0  0  0  0  0  0  0  0
  150.7690  140.0954  154.8222 N   0  0  0  0  0  0  0  0  0  0  0  0
  151.8483  139.8655  155.7898 C   0  0  0  0  0  0  0  0  0  0  0  0
  152.7925  138.7243  155.3739 C   0  0  0  0  0  0  0  0  0  0  0  0
  152.0457  137.5302  155.1874 O   0  0  0  0  0  0  0  0  0  0  0  0
  151.0363  137.6826  154.1996 C   0  0  0  0  0  0  0  0  0  0  0  0
  150.0797  138.8180  154.6042 C   0  0  0  0  0  0  0  0  0  0  0  0
  147.8939  142.0433  154.6902 H   0  0  0  0  0  0  0  0  0  0  0  0
  148.0538  140.3358  154.3060 H   0  0  0  0  0  0  0  0  0  0  0  0
  148.8402  141.5717  153.3230 H   0  0  0  0  0  0  0  0  0  0  0  0
  150.3854  142.1230  155.1521 H   0  0  0  0  0  0  0  0  0  0  0  0
  148.9977  140.0542  156.9127 H   0  0  0  0  0  0  0  0  0  0  0  0
  150.2177  141.1904  157.4259 H   0  0  0  0  0  0  0  0  0  0  0  0
  148.5126  142.9789  156.8115 H   0  0  0  0  0  0  0  0  0  0  0  0
  146.6800  143.8139  157.6021 H   0  0  0  0  0  0  0  0  0  0  0  0
  145.3228  142.7043  157.6858 H   0  0  0  0  0  0  0  0  0  0  0  0
  147.1631  145.0851  159.7435 H   0  0  0  0  0  0  0  0  0  0  0  0
  146.5561  144.6998  162.3766 H   0  0  0  0  0  0  0  0  0  0  0  0
  145.3013  142.2287  162.3712 H   0  0  0  0  0  0  0  0  0  0  0  0
  152.4598  140.7586  155.9023 H   0  0  0  0  0  0  0  0  0  0  0  0
  151.4248  139.6445  156.7708 H   0  0  0  0  0  0  0  0  0  0  0  0
  153.3253  138.9778  154.4561 H   0  0  0  0  0  0  0  0  0  0  0  0
  153.5449  138.5560  156.1446 H   0  0  0  0  0  0  0  0  0  0  0  0
  151.4923  137.8887  153.2298 H   0  0  0  0  0  0  0  0  0  0  0  0
  150.4898  136.7444  154.1029 H   0  0  0  0  0  0  0  0  0  0  0  0
  149.5380  138.5308  155.5068 H   0  0  0  0  0  0  0  0  0  0  0  0
  149.3443  138.9060  153.8074 H   0  0  0  0  0  0  0  0  0  0  0  0
  1  2  1  0  0  0  0
  1 19  1  0  0  0  0
  1 20  1  0  0  0  0
  1 21  1  0  0  0  0
  2  3  1  0  0  0  0
  2 13  1  0  0  0  0
  2 22  1  0  0  0  0
  3  4  1  0  0  0  0
  3 23  1  0  0  0  0
  3 24  1  0  0  0  0
  4  5  1  0  0  0  0
  4 25  1  0  0  0  0
  5  6  2  0  0  0  0
  5  7  1  0  0  0  0
  7  8  1  0  0  0  0
  7 26  1  0  0  0  0
  7 27  1  0  0  0  0
  8 12  1  0  0  0  0
  8  9  1  0  0  0  0
  9 10  2  0  0  0  0
  9 28  1  0  0  0  0
 10 11  1  0  0  0  0
 10 29  1  0  0  0  0
 11 12  2  0  0  0  0
 11 30  1  0  0  0  0
 13 18  1  0  0  0  0
 13 14  1  0  0  0  0
 14 15  1  0  0  0  0
 14 31  1  0  0  0  0
 14 32  1  0  0  0  0
 15 16  1  0  0  0  0
 15 33  1  0  0  0  0
 15 34  1  0  0  0  0
 16 17  1  0  0  0  0
 17 18  1  0  0  0  0
 17 35  1  0  0  0  0
 17 36  1  0  0  0  0
 18 37  1  0  0  0  0
 18 38  1  0  0  0  0
M  END
> <s_m_source_file>
AV-unprocessed.smi

> <i_m_source_file_index>
1420

> <i_lp_mmshare_version>
43012

> <i_f3d_flags>
0

> <s_epik_input>
W0NIMl0xW0NIMl1PW0NIMl1bQ0gyXU4xW0NASF0oW0NIM10pW0NIMl1bTkhdQyg9TylbQ0gyXW4yW2NIXVtjSF1bY0hdbjI=

> <s_epik_cmdline>
J2VwaWtfcHl0aG9uJywgJy1waCcsICc3LjAnLCAnLXRuJywgJzgnLCAnLW1hJywgJzIwMCcsICctbWV0YWxfYmluZGluZycsICctaW1hZScsICc8aW5maWxlLm1hZT4nLCAnLW9tYWUnLCAnPG91dGZpbGUubWFlPic=

> <r_lp_tautomer_probability>
1

> <r_epik_Ionization_Penalty>
0.196927

> <r_epik_Ionization_Penalty_Charging>
0

> <r_epik_Ionization_Penalty_Neutral>
0.196927

> <r_epik_State_Penalty>
0.186684

> <r_epik_Charging_Adjusted_Penalty>
0.186684

> <i_epik_Tot_Q>
0

> <i_epik_Tot_abs_Q>
0

> <r_epik_Metal_State_Penalty>
0.186682

> <b_epik_Metal_Only>
0

> <s_lp_Force_Field>
OPLS_2005

> <r_lp_Energy>
28.9216

> <b_lp_Chiralities_Consistent>
1

> <s_lp_Variant>
AV-unprocessed.smi:1420-2

> <Gold.Version>
5.8.1

> <Gold.Id.Protein>
6NUR|6NUR_protein|mol2

> <Gold.PLP.Fitness>
49.1470

> <Gold.PLP.PLP>
-36.4117

> <Gold.PLP.part.hbond>
-4.8836

> <Gold.PLP.part.metal>
0.0000

> <Gold.PLP.part.buried>
-4.1288

> <Gold.PLP.part.nonpolar>
-27.6868

> <Gold.PLP.part.repulsive>
0.1620

> <Gold.PLP.ligand.clash>
0.0000

> <Gold.PLP.ligand.torsion>
0.3492

> <Gold.PLP.Chemscore.Hbond>
3.4597

> <Gold.PLP.Chemscore.CHOScore>
1.0000

> <Gold.PLP.Chemscore.Metal>
0.0000

> <Gold.Chemscore.Hbonds>
donor molecule, donor type, donor heavy atom, donor atom, acceptor molecule, acceptor atom, score
      L1  H     4    25       P1  8028  0.80
      P1  H  6934  6946       L1    12  0.65
      P1  H  7989  7998       L1    13  1.00
      P1  H 10752 10765       L1    16  0.48
      L1  C     9    28       P1  8029  0.58

> <Gold.PLP.Chemscore.Internal.Correction>
0.0547

> <Gold.Rescore>
     Score         DG    S(hbond)    S(metal)    S(lipo)     H(rot)  DE(clash)    DE(int)     intcor
     14.14     -15.83       2.12        0.00      68.69       1.87       0.39       1.29       ----

> <Gold.Chemscore.Fitness>
14.1448

> <Gold.Chemscore.DG>
-15.8289

> <Gold.Chemscore.ZeroCoef>
-5.4800

> <Gold.Chemscore.Hbond>
2.1232

> <Gold.Chemscore.Metal>
0.0000

> <Gold.Chemscore.Lipo>
68.6885

> <Gold.Chemscore.Internal_Hbond>
0.0000

> <Gold.Chemscore.DEClash>
0.3947

> <Gold.Chemscore.DEInternal>
1.2894

> <Gold.Chemscore.Rot>
1.8669

> <Gold.Chemscore.Internal.Correction>
   9.000000E+99

> <Gold.Chemscore.Hbonds>
donor molecule, donor type, donor heavy atom, donor atom, acceptor molecule, acceptor atom, score
      L1  H     4    25       P1  8028  0.51
      P1  H  6934  6946       L1    12  0.04
      P1  H  7989  7998       L1    13  0.10
      P1  H 10752 10765       L1    16  0.19

> <Gold.Chemscore.Hbond.Weighted>
-7.0916

> <Gold.Chemscore.Metal.Weighted>
-0.0000

> <Gold.Chemscore.Lipo.Weighted>
-8.0366

> <Gold.Chemscore.Internal_Hbond.Weighted>
0.0000

> <Gold.Chemscore.DEClash.Weighted>
0.3947

> <Gold.Chemscore.DEInternal.Weighted>
1.2894

> <Gold.Chemscore.Rot.Weighted>
4.7792

> <Gold.Chemscore.Internal.Correction.Weighted>
   9.000000E+99

> <Gold.Protein.RotatedTorsions>
[ 6907 6896 6895 6894 ] final -137.91 input  -60.11 | X-H torsion
[ 7974 7965 7964 7962 ] final   88.90 input  175.53 | X-H torsion
[ 8008 7997 7996 7995 ] final   41.10 input   59.86 | X-H torsion
[ 10167 10162 10161 10158 ] final   79.95 input  -65.29 | X-H torsion
[ 10718 10713 10712 10709 ] final  159.54 input   66.30 | X-H torsion
[ 10763 10752 10751 10750 ] final -176.56 input  -60.55 | X-H torsion
[ 11005 11000 10999 10996 ] final -171.21 input  -57.11 | X-H torsion

> <Gold.Protein.ActiveResidues>
 VAL166  LYS551  ARG553  GLY616  TRP617  ASP618  TYR619  PRO620  LYS621  CYS622 
 ASP623  PHE694  ASN695  SER759  ASP760  ASP761  ALA762  ILE779  LEU786  VAL792 
 PHE793  MET794  SER795  GLU796  ALA797  LYS798  CYS799  TRP800  GLU811  SER814 

> <Gold.Protein.RotatedAtoms>
  151.0283  133.5813  159.2663 H   0  0  0  0  0  0  0  0  0  0  0  0  # atno 6907 bound_to 6896
  151.2904  135.0739  159.9212 H   0  0  0  0  0  0  0  0  0  0  0  0  # atno 6908 bound_to 6896
  152.5339  133.9983  159.7937 H   0  0  0  0  0  0  0  0  0  0  0  0  # atno 6909 bound_to 6896
  145.5395  139.2288  143.2574 H   0  0  0  0  0  0  0  0  0  0  0  0  # atno 7974 bound_to 7965
  155.2640  140.3361  155.4270 H   0  0  0  0  0  0  0  0  0  0  0  0  # atno 8008 bound_to 7997
  156.2162  140.1790  156.7626 H   0  0  0  0  0  0  0  0  0  0  0  0  # atno 8009 bound_to 7997
  154.5757  140.0662  156.9015 H   0  0  0  0  0  0  0  0  0  0  0  0  # atno 8010 bound_to 7997
  139.9549  144.6001  150.8126 H   0  0  0  0  0  0  0  0  0  0  0  0  # atno 10167 bound_to 10162
  157.1627  131.0591  151.2224 H   0  0  0  0  0  0  0  0  0  0  0  0  # atno 10718 bound_to 10713
  154.5708  135.2828  155.0829 H   0  0  0  0  0  0  0  0  0  0  0  0  # atno 10763 bound_to 10752
  154.2202  135.6392  153.5146 H   0  0  0  0  0  0  0  0  0  0  0  0  # atno 10764 bound_to 10752
  153.0057  135.5512  154.6331 H   0  0  0  0  0  0  0  0  0  0  0  0  # atno 10765 bound_to 10752
  140.5107  134.5804  157.5018 H   0  0  0  0  0  0  0  0  0  0  0  0  # atno 11005 bound_to 11000
  146.1991  140.6214  142.9111 LP  0  0  0  0  0  0  0  0  0  0  0  0  # atno 17320 bound_to 7965
  144.7584  140.5364  143.6752 LP  0  0  0  0  0  0  0  0  0  0  0  0  # atno 17321 bound_to 7965
  140.7571  143.3080  151.2914 LP  0  0  0  0  0  0  0  0  0  0  0  0  # atno 17342 bound_to 10162
  139.6599  144.0207  152.2685 LP  0  0  0  0  0  0  0  0  0  0  0  0  # atno 17343 bound_to 10162
  157.4117  130.7389  149.6844 LP  0  0  0  0  0  0  0  0  0  0  0  0  # atno 17370 bound_to 10713
  155.9751  130.4093  150.3874 LP  0  0  0  0  0  0  0  0  0  0  0  0  # atno 17371 bound_to 10713
  139.9660  134.7372  156.0137 LP  0  0  0  0  0  0  0  0  0  0  0  0  # atno 17394 bound_to 11000
  141.1387  133.6569  156.3666 LP  0  0  0  0  0  0  0  0  0  0  0  0  # atno 17395 bound_to 11000

$$$$
