AV-unprocessed.smi:219|AV-procd|sdf|1678|dock4
  -GOLD-   2262020113D 1   1.00000     0.00000
 Structure written by MMmdl.
 50 53  0  0  0  0  0  0  0  0  1 V2000
  155.2364  137.5421  159.2994 N   0  0  0  0  0  0  0  0  0  0  0  0
  153.9823  137.3005  159.6902 C   0  0  0  0  0  0  0  0  0  0  0  0
  153.6931  136.3447  160.4066 O   0  0  0  0  0  0  0  0  0  0  0  0
  152.9000  138.2759  159.2056 C   0  0  0  0  0  0  0  0  0  0  0  0
  153.2577  139.7876  159.3272 C   0  0  2  0  0  0  0  0  0  0  0  0
  153.4333  140.1423  160.8220 C   0  0  0  0  0  0  0  0  0  0  0  0
  153.7759  141.6240  161.0291 C   0  0  0  0  0  0  0  0  0  0  0  0
  152.7155  142.5040  160.3591 C   0  0  0  0  0  0  0  0  0  0  0  0
  152.5776  142.1319  158.8772 C   0  0  0  0  0  0  0  0  0  0  0  0
  152.2795  140.7076  158.7122 N   0  0  0  0  0  0  0  0  0  0  0  0
  151.8975  140.4197  157.4473 C   0  0  0  0  0  0  0  0  0  0  0  0
  152.6699  139.6170  156.6682 N   0  0  0  0  0  0  0  0  0  0  0  0
  152.2634  139.2940  155.4367 C   0  0  0  0  0  0  0  0  0  0  0  0
  151.1415  139.6507  154.8070 N   0  0  0  0  0  0  0  0  0  0  0  0
  150.3696  140.4601  155.5880 C   0  0  0  0  0  0  0  0  0  0  0  0
  150.6772  140.9000  156.9048 C   0  0  0  0  0  0  0  0  0  0  0  0
  149.6616  141.7145  157.3883 N   0  0  0  0  0  0  0  0  0  0  0  0
  148.7958  141.7490  156.4126 C   0  0  0  0  0  0  0  0  0  0  0  0
  149.1318  141.0081  155.3012 N   0  0  0  0  0  0  0  0  0  0  0  0
  148.3430  140.8439  154.0907 C   0  0  0  0  0  0  0  0  0  0  0  0
  148.0289  139.3648  153.7640 C   0  0  1  0  0  0  0  0  0  0  0  0
  149.1976  138.7407  153.2603 O   0  0  0  0  0  0  0  0  0  0  0  0
  147.5283  138.5555  154.9582 C   0  0  0  0  0  0  0  0  0  0  0  0
  146.5620  137.5670  154.3208 C   0  0  0  0  0  0  0  0  0  0  0  0
  145.9210  138.3589  153.3360 O   0  0  0  0  0  0  0  0  0  0  0  0
  146.8989  139.1968  152.7283 C   0  0  0  0  0  0  0  0  0  0  0  0
  155.9813  136.9324  159.6050 H   0  0  0  0  0  0  0  0  0  0  0  0
  155.4381  138.3376  158.7112 H   0  0  0  0  0  0  0  0  0  0  0  0
  152.6000  138.0412  158.1832 H   0  0  0  0  0  0  0  0  0  0  0  0
  152.0271  138.0623  159.8233 H   0  0  0  0  0  0  0  0  0  0  0  0
  154.2171  139.9637  158.8378 H   0  0  0  0  0  0  0  0  0  0  0  0
  152.5156  139.9068  161.3634 H   0  0  0  0  0  0  0  0  0  0  0  0
  154.2181  139.5276  161.2643 H   0  0  0  0  0  0  0  0  0  0  0  0
  153.8373  141.8518  162.0935 H   0  0  0  0  0  0  0  0  0  0  0  0
  154.7573  141.8390  160.6045 H   0  0  0  0  0  0  0  0  0  0  0  0
  151.7559  142.3759  160.8620 H   0  0  0  0  0  0  0  0  0  0  0  0
  152.9826  143.5564  160.4582 H   0  0  0  0  0  0  0  0  0  0  0  0
  151.7882  142.7321  158.4218 H   0  0  0  0  0  0  0  0  0  0  0  0
  153.5041  142.3740  158.3545 H   0  0  0  0  0  0  0  0  0  0  0  0
  152.9283  138.6508  154.8793 H   0  0  0  0  0  0  0  0  0  0  0  0
  147.8753  142.3099  156.4836 H   0  0  0  0  0  0  0  0  0  0  0  0
  147.4164  141.4067  154.2117 H   0  0  0  0  0  0  0  0  0  0  0  0
  148.8783  141.3099  153.2621 H   0  0  0  0  0  0  0  0  0  0  0  0
  148.9515  137.9202  152.8611 H   0  0  0  0  0  0  0  0  0  0  0  0
  148.3224  138.0742  155.5311 H   0  0  0  0  0  0  0  0  0  0  0  0
  146.9686  139.1963  155.6404 H   0  0  0  0  0  0  0  0  0  0  0  0
  147.0962  136.7436  153.8442 H   0  0  0  0  0  0  0  0  0  0  0  0
  145.8485  137.1528  155.0336 H   0  0  0  0  0  0  0  0  0  0  0  0
  146.4370  140.1467  152.4565 H   0  0  0  0  0  0  0  0  0  0  0  0
  147.2528  138.7312  151.8067 H   0  0  0  0  0  0  0  0  0  0  0  0
  1  2  1  0  0  0  0
  1 27  1  0  0  0  0
  1 28  1  0  0  0  0
  2  3  2  0  0  0  0
  2  4  1  0  0  0  0
  4  5  1  0  0  0  0
  4 29  1  0  0  0  0
  4 30  1  0  0  0  0
  5 10  1  0  0  0  0
  5  6  1  0  0  0  0
  5 31  1  0  0  0  0
  6  7  1  0  0  0  0
  6 32  1  0  0  0  0
  6 33  1  0  0  0  0
  7  8  1  0  0  0  0
  7 34  1  0  0  0  0
  7 35  1  0  0  0  0
  8  9  1  0  0  0  0
  8 36  1  0  0  0  0
  8 37  1  0  0  0  0
  9 10  1  0  0  0  0
  9 38  1  0  0  0  0
  9 39  1  0  0  0  0
 10 11  1  0  0  0  0
 11 16  1  0  0  0  0
 11 12  2  0  0  0  0
 12 13  1  0  0  0  0
 13 14  2  0  0  0  0
 13 40  1  0  0  0  0
 14 15  1  0  0  0  0
 15 19  1  0  0  0  0
 15 16  2  0  0  0  0
 16 17  1  0  0  0  0
 17 18  2  0  0  0  0
 18 19  1  0  0  0  0
 18 41  1  0  0  0  0
 19 20  1  0  0  0  0
 20 21  1  0  0  0  0
 20 42  1  0  0  0  0
 20 43  1  0  0  0  0
 21 26  1  0  0  0  0
 21 22  1  0  0  0  0
 21 23  1  0  0  0  0
 22 44  1  0  0  0  0
 23 24  1  0  0  0  0
 23 45  1  0  0  0  0
 23 46  1  0  0  0  0
 24 25  1  0  0  0  0
 24 47  1  0  0  0  0
 24 48  1  0  0  0  0
 25 26  1  0  0  0  0
 26 49  1  0  0  0  0
 26 50  1  0  0  0  0
M  END
> <s_m_source_file>
AV-unprocessed.smi

> <i_m_source_file_index>
219

> <i_lp_mmshare_version>
43012

> <i_f3d_flags>
0

> <s_epik_input>
W05IMl1DKD1PKVtDSDJdW0NAQEhdMVtDSDJdW0NIMl1bQ0gyXVtDSDJdTjFjKG5bY0hdbjIpYyhjMjMpbltjSF1uM1tDSDJdW0NAQF00KFtPSF0pW0NIMl1bQ0gyXU9bQ0gyXTQ=

> <s_epik_cmdline>
J2VwaWtfcHl0aG9uJywgJy1waCcsICc3LjAnLCAnLXRuJywgJzgnLCAnLW1hJywgJzIwMCcsICctbWV0YWxfYmluZGluZycsICctaW1hZScsICc8aW5maWxlLm1hZT4nLCAnLW9tYWUnLCAnPG91dGZpbGUubWFlPic=

> <r_lp_tautomer_probability>
1

> <r_epik_Ionization_Penalty>
0.00228532

> <r_epik_Ionization_Penalty_Charging>
0

> <r_epik_Ionization_Penalty_Neutral>
0.00228532

> <r_epik_State_Penalty>
0.00140978

> <r_epik_Charging_Adjusted_Penalty>
0.00140978

> <i_epik_Tot_Q>
0

> <i_epik_Tot_abs_Q>
0

> <r_epik_Metal_State_Penalty>
-0

> <b_epik_Metal_Only>
0

> <s_lp_Force_Field>
OPLS_2005

> <r_lp_Energy>
33.2766

> <b_lp_Chiralities_Consistent>
1

> <s_lp_Variant>
AV-unprocessed.smi:219-1

> <Gold.Version>
5.8.1

> <Gold.Id.Protein>
6NUR|6NUR_protein|mol2

> <Gold.PLP.Fitness>
52.3636

> <Gold.PLP.PLP>
-40.8721

> <Gold.PLP.part.hbond>
-4.7771

> <Gold.PLP.part.metal>
0.0000

> <Gold.PLP.part.buried>
-4.8436

> <Gold.PLP.part.nonpolar>
-32.7865

> <Gold.PLP.part.repulsive>
0.4191

> <Gold.PLP.ligand.clash>
0.0000

> <Gold.PLP.ligand.torsion>
0.6922

> <Gold.PLP.Chemscore.Hbond>
3.9750

> <Gold.PLP.Chemscore.CHOScore>
0.2194

> <Gold.PLP.Chemscore.Metal>
0.0000

> <Gold.Chemscore.Hbonds>
donor molecule, donor type, donor heavy atom, donor atom, acceptor molecule, acceptor atom, score
      L1  H    22    44       P1  7948  1.00
      P1  H  6896  6907       L1     3  0.91
      P1  H  7989  7998       L1    14  1.00
      P1  H  7997  8008       L1    12  1.00
      L1  C    18    41       P1  8028  0.19

> <Gold.PLP.Chemscore.Internal.Correction>
0.2929

> <Gold.Rescore>
     Score         DG    S(hbond)    S(metal)    S(lipo)     H(rot)  DE(clash)    DE(int)     intcor
     13.81     -15.86       2.89        0.00      79.93       3.37       0.05       2.01       ----

> <Gold.Chemscore.Fitness>
13.8109

> <Gold.Chemscore.DG>
-15.8623

> <Gold.Chemscore.ZeroCoef>
-5.4800

> <Gold.Chemscore.Hbond>
2.8914

> <Gold.Chemscore.Metal>
0.0000

> <Gold.Chemscore.Lipo>
79.9264

> <Gold.Chemscore.Internal_Hbond>
0.0000

> <Gold.Chemscore.DEClash>
0.0462

> <Gold.Chemscore.DEInternal>
2.0052

> <Gold.Chemscore.Rot>
3.3697

> <Gold.Chemscore.Internal.Correction>
   9.000000E+99

> <Gold.Chemscore.Hbonds>
donor molecule, donor type, donor heavy atom, donor atom, acceptor molecule, acceptor atom, score
      L1  H    22    44       P1  7948  0.99
      P1  H  6896  6907       L1     3  0.89
      P1  H  7989  7998       L1    14  0.14
      P1  H  7997  8008       L1    12  0.46

> <Gold.Chemscore.Hbond.Weighted>
-9.6573

> <Gold.Chemscore.Metal.Weighted>
-0.0000

> <Gold.Chemscore.Lipo.Weighted>
-9.3514

> <Gold.Chemscore.Internal_Hbond.Weighted>
0.0000

> <Gold.Chemscore.DEClash.Weighted>
0.0462

> <Gold.Chemscore.DEInternal.Weighted>
2.0052

> <Gold.Chemscore.Rot.Weighted>
8.6264

> <Gold.Chemscore.Internal.Correction.Weighted>
   9.000000E+99

> <Gold.Protein.RotatedTorsions>
[ 6907 6896 6895 6894 ] final   43.20 input  -60.11 | X-H torsion
[ 7974 7965 7964 7962 ] final   72.85 input  175.53 | X-H torsion
[ 8008 7997 7996 7995 ] final  -50.79 input   59.86 | X-H torsion
[ 10167 10162 10161 10158 ] final  -78.01 input  -65.29 | X-H torsion
[ 10718 10713 10712 10709 ] final  -18.19 input   66.30 | X-H torsion
[ 10763 10752 10751 10750 ] final  172.56 input  -60.55 | X-H torsion
[ 11005 11000 10999 10996 ] final  -74.96 input  -57.11 | X-H torsion

> <Gold.Protein.ActiveResidues>
 VAL166  LYS551  ARG553  GLY616  TRP617  ASP618  TYR619  PRO620  LYS621  CYS622 
 ASP623  PHE694  ASN695  SER759  ASP760  ASP761  ALA762  ILE779  LEU786  VAL792 
 PHE793  MET794  SER795  GLU796  ALA797  LYS798  CYS799  TRP800  GLU811  SER814 

> <Gold.Protein.RotatedAtoms>
  152.2174  134.8445  160.0489 H   0  0  0  0  0  0  0  0  0  0  0  0  # atno 6907 bound_to 6896
  151.9241  133.3588  159.3915 H   0  0  0  0  0  0  0  0  0  0  0  0  # atno 6908 bound_to 6896
  150.6991  134.4530  159.5389 H   0  0  0  0  0  0  0  0  0  0  0  0  # atno 6909 bound_to 6896
  145.7482  139.2749  143.1446 H   0  0  0  0  0  0  0  0  0  0  0  0  # atno 7974 bound_to 7965
  154.4069  140.1263  156.4724 H   0  0  0  0  0  0  0  0  0  0  0  0  # atno 8008 bound_to 7997
  155.7166  140.3493  155.4977 H   0  0  0  0  0  0  0  0  0  0  0  0  # atno 8009 bound_to 7997
  155.9252  140.1060  157.1166 H   0  0  0  0  0  0  0  0  0  0  0  0  # atno 8010 bound_to 7997
  140.4720  143.2424  151.8191 H   0  0  0  0  0  0  0  0  0  0  0  0  # atno 10167 bound_to 10162
  156.5630  130.4730  149.6398 H   0  0  0  0  0  0  0  0  0  0  0  0  # atno 10718 bound_to 10713
  154.4278  135.2759  155.1933 H   0  0  0  0  0  0  0  0  0  0  0  0  # atno 10763 bound_to 10752
  154.3851  135.6079  153.5816 H   0  0  0  0  0  0  0  0  0  0  0  0  # atno 10764 bound_to 10752
  152.9835  135.5890  154.4584 H   0  0  0  0  0  0  0  0  0  0  0  0  # atno 10765 bound_to 10752
  141.1640  133.6929  156.7443 H   0  0  0  0  0  0  0  0  0  0  0  0  # atno 11005 bound_to 11000
  146.0382  140.8191  142.9842 LP  0  0  0  0  0  0  0  0  0  0  0  0  # atno 17320 bound_to 7965
  144.6855  140.2870  143.7283 LP  0  0  0  0  0  0  0  0  0  0  0  0  # atno 17321 bound_to 7965
  139.4820  144.4880  151.9221 LP  0  0  0  0  0  0  0  0  0  0  0  0  # atno 17342 bound_to 10162
  140.3965  144.2548  150.5896 LP  0  0  0  0  0  0  0  0  0  0  0  0  # atno 17343 bound_to 10162
  156.2782  130.7056  151.1873 LP  0  0  0  0  0  0  0  0  0  0  0  0  # atno 17370 bound_to 10713
  157.7364  131.0562  150.5413 LP  0  0  0  0  0  0  0  0  0  0  0  0  # atno 17371 bound_to 10713
  140.2651  134.8436  157.3795 LP  0  0  0  0  0  0  0  0  0  0  0  0  # atno 17394 bound_to 11000
  140.1574  134.4772  155.7918 LP  0  0  0  0  0  0  0  0  0  0  0  0  # atno 17395 bound_to 11000

$$$$
