AV-unprocessed.smi:2093|AV-procd|sdf|8550|dock1
  -GOLD-   2272011273D 1   1.00000     0.00000
 Structure written by MMmdl.
 30 31  0  0  0  0  0  0  0  0  2 V2000
  149.7693  142.1523  158.0783 C   0  0  0  0  0  0  0  0  0  0  0  0
  151.1213  142.5626  157.4768 C   0  0  2  0  0  0  0  0  0  0  0  0
  151.8549  141.3532  157.1038 N   0  0  0  0  0  0  0  0  0  0  0  0
  151.6229  140.5661  156.0424 C   0  0  0  0  0  0  0  0  0  0  0  0
  150.7078  140.8337  155.2604 O   0  0  0  0  0  0  0  0  0  0  0  0
  152.4741  139.5192  155.9493 N   0  5  0  0  0  0  0  0  0  0  0  0
  151.9957  138.2781  155.7627 C   0  0  0  0  0  0  0  0  0  0  0  0
  151.1146  137.9728  154.8030 N   0  0  0  0  0  0  0  0  0  0  0  0
  150.7470  136.6262  154.7949 C   0  0  0  0  0  0  0  0  0  0  0  0
  151.3557  135.8903  155.7767 C   0  0  0  0  0  0  0  0  0  0  0  0
  152.4158  136.8729  156.7463 S   0  0  0  0  0  0  0  0  0  0  0  0
  151.9508  143.4146  158.4604 C   0  0  1  0  0  0  0  0  0  0  0  0
  151.2791  144.7093  158.9236 C   0  0  0  0  0  0  0  0  0  0  0  0
  152.0006  144.9798  160.2231 C   0  0  0  0  0  0  0  0  0  0  0  0
  152.1589  143.5723  160.7896 C   0  0  0  0  0  0  0  0  0  0  0  0
  152.1997  142.6947  159.6666 O   0  0  0  0  0  0  0  0  0  0  0  0
  149.1705  143.0259  158.3364 H   0  0  0  0  0  0  0  0  0  0  0  0
  149.9009  141.5592  158.9839 H   0  0  0  0  0  0  0  0  0  0  0  0
  149.1906  141.5570  157.3711 H   0  0  0  0  0  0  0  0  0  0  0  0
  150.9144  143.1620  156.5888 H   0  0  0  0  0  0  0  0  0  0  0  0
  152.6175  141.0864  157.7089 H   0  0  0  0  0  0  0  0  0  0  0  0
  150.0427  136.2778  154.0545 H   0  0  0  0  0  0  0  0  0  0  0  0
  151.2453  134.8377  155.9892 H   0  0  0  0  0  0  0  0  0  0  0  0
  152.9180  143.6598  158.0178 H   0  0  0  0  0  0  0  0  0  0  0  0
  151.3763  145.5224  158.2035 H   0  0  0  0  0  0  0  0  0  0  0  0
  150.2173  144.5457  159.1142 H   0  0  0  0  0  0  0  0  0  0  0  0
  152.9791  145.4179  160.0221 H   0  0  0  0  0  0  0  0  0  0  0  0
  151.4545  145.6495  160.8878 H   0  0  0  0  0  0  0  0  0  0  0  0
  153.0535  143.4733  161.4045 H   0  0  0  0  0  0  0  0  0  0  0  0
  151.2961  143.3081  161.4021 H   0  0  0  0  0  0  0  0  0  0  0  0
  1  2  1  0  0  0  0
  1 17  1  0  0  0  0
  1 18  1  0  0  0  0
  1 19  1  0  0  0  0
  2  3  1  0  0  0  0
  2 12  1  0  0  0  0
  2 20  1  0  0  0  0
  3  4  1  0  0  0  0
  3 21  1  0  0  0  0
  4  5  2  0  0  0  0
  4  6  1  0  0  0  0
  6  7  1  0  0  0  0
  7 11  1  0  0  0  0
  7  8  2  0  0  0  0
  8  9  1  0  0  0  0
  9 10  2  0  0  0  0
  9 22  1  0  0  0  0
 10 11  1  0  0  0  0
 10 23  1  0  0  0  0
 12 16  1  0  0  0  0
 12 13  1  0  0  0  0
 12 24  1  0  0  0  0
 13 14  1  0  0  0  0
 13 25  1  0  0  0  0
 13 26  1  0  0  0  0
 14 15  1  0  0  0  0
 14 27  1  0  0  0  0
 14 28  1  0  0  0  0
 15 16  1  0  0  0  0
 15 29  1  0  0  0  0
 15 30  1  0  0  0  0
M  CHG  1   6  -1
M  END
> <s_m_source_file>
AV-unprocessed.smi

> <i_m_source_file_index>
2093

> <i_lp_mmshare_version>
43012

> <i_f3d_flags>
0

> <s_epik_input>
TzFbQ0gyXVtDSDJdW0NIMl1bQ0BIXTFbQ0BIXShbQ0gzXSlbTkhdQyg9TylbTkhdYzJuW2NIXVtjSF1zMg==

> <s_epik_cmdline>
J2VwaWtfcHl0aG9uJywgJy1waCcsICc3LjAnLCAnLXRuJywgJzgnLCAnLW1hJywgJzIwMCcsICctbWV0YWxfYmluZGluZycsICctaW1hZScsICc8aW5maWxlLm1hZT4nLCAnLW9tYWUnLCAnPG91dGZpbGUubWFlPic=

> <r_lp_tautomer_probability>
0.999

> <r_epik_Ionization_Penalty>
8.26346

> <r_epik_Ionization_Penalty_Charging>
6.6559

> <r_epik_Ionization_Penalty_Neutral>
1.60756

> <r_epik_State_Penalty>
6.65607

> <r_epik_Charging_Adjusted_Penalty>
13.312

> <i_epik_Tot_Q>
-1

> <i_epik_Tot_abs_Q>
1

> <r_epik_Metal_State_Penalty>
2.5789

> <b_epik_Metal_Only>
1

> <s_lp_Force_Field>
OPLS_2005

> <r_lp_Energy>
13.8452

> <b_lp_Chiralities_Consistent>
1

> <s_lp_Variant>
AV-unprocessed.smi:2093-7

> <Gold.Version>
5.8.1

> <Gold.Id.Protein>
6NUR|6NUR_protein|mol2

> <Gold.PLP.Fitness>
38.1268

> <Gold.PLP.PLP>
-28.8424

> <Gold.PLP.part.hbond>
-1.9813

> <Gold.PLP.part.metal>
0.0000

> <Gold.PLP.part.buried>
-3.3702

> <Gold.PLP.part.nonpolar>
-23.3933

> <Gold.PLP.part.repulsive>
0.2950

> <Gold.PLP.ligand.clash>
0.0000

> <Gold.PLP.ligand.torsion>
1.1157

> <Gold.PLP.Chemscore.Hbond>
2.8320

> <Gold.PLP.Chemscore.CHOScore>
1.0000

> <Gold.PLP.Chemscore.Metal>
0.0000

> <Gold.Chemscore.Hbonds>
donor molecule, donor type, donor heavy atom, donor atom, acceptor molecule, acceptor atom, score
      P1  H  7989  7998       L1     5  0.82
      P1  H  7997  8008       L1     6  2.00
      L1  C     9    22       P1  7948  0.94
      L1  C     9    22       P1  7949  0.01

> <Gold.PLP.Chemscore.Internal.Correction>
0.0198

> <Gold.Rescore>
     Score         DG    S(hbond)    S(metal)    S(lipo)     H(rot)  DE(clash)    DE(int)     intcor
     12.61     -15.13       1.31        0.00      73.12       1.28       0.25       2.27       ----

> <Gold.Chemscore.Fitness>
12.6117

> <Gold.Chemscore.DG>
-15.1288

> <Gold.Chemscore.ZeroCoef>
-5.4800

> <Gold.Chemscore.Hbond>
1.3067

> <Gold.Chemscore.Metal>
0.0000

> <Gold.Chemscore.Lipo>
73.1230

> <Gold.Chemscore.Internal_Hbond>
0.0000

> <Gold.Chemscore.DEClash>
0.2512

> <Gold.Chemscore.DEInternal>
2.2659

> <Gold.Chemscore.Rot>
1.2778

> <Gold.Chemscore.Internal.Correction>
   9.000000E+99

> <Gold.Chemscore.Hbonds>
donor molecule, donor type, donor heavy atom, donor atom, acceptor molecule, acceptor atom, score
      P1  H  7989  7998       L1     5  0.31
      P1  H  7997  8008       L1     6  0.72

> <Gold.Chemscore.Hbond.Weighted>
-4.3645

> <Gold.Chemscore.Metal.Weighted>
-0.0000

> <Gold.Chemscore.Lipo.Weighted>
-8.5554

> <Gold.Chemscore.Internal_Hbond.Weighted>
0.0000

> <Gold.Chemscore.DEClash.Weighted>
0.2512

> <Gold.Chemscore.DEInternal.Weighted>
2.2659

> <Gold.Chemscore.Rot.Weighted>
3.2711

> <Gold.Chemscore.Internal.Correction.Weighted>
   9.000000E+99

> <Gold.Protein.RotatedTorsions>
[ 6907 6896 6895 6894 ] final  122.71 input  -60.11 | X-H torsion
[ 7974 7965 7964 7962 ] final -145.57 input  175.53 | X-H torsion
[ 8008 7997 7996 7995 ] final  -38.04 input   59.86 | X-H torsion
[ 10167 10162 10161 10158 ] final  105.87 input  -65.29 | X-H torsion
[ 10718 10713 10712 10709 ] final  163.90 input   66.30 | X-H torsion
[ 10763 10752 10751 10750 ] final -103.29 input  -60.55 | X-H torsion
[ 11005 11000 10999 10996 ] final   53.13 input  -57.11 | X-H torsion

> <Gold.Protein.ActiveResidues>
 VAL166  LYS551  ARG553  GLY616  TRP617  ASP618  TYR619  PRO620  LYS621  CYS622 
 ASP623  PHE694  ASN695  SER759  ASP760  ASP761  ALA762  ILE779  LEU786  VAL792 
 PHE793  MET794  SER795  GLU796  ALA797  LYS798  CYS799  TRP800  GLU811  SER814 

> <Gold.Protein.RotatedAtoms>
  152.4221  133.7133  159.6491 H   0  0  0  0  0  0  0  0  0  0  0  0  # atno 6907 bound_to 6896
  150.8097  133.8434  159.3194 H   0  0  0  0  0  0  0  0  0  0  0  0  # atno 6908 bound_to 6896
  151.6148  135.1039  160.0140 H   0  0  0  0  0  0  0  0  0  0  0  0  # atno 6909 bound_to 6896
  144.8218  140.5567  143.5573 H   0  0  0  0  0  0  0  0  0  0  0  0  # atno 7974 bound_to 7965
  154.4043  140.1588  156.2635 H   0  0  0  0  0  0  0  0  0  0  0  0  # atno 8008 bound_to 7997
  155.9016  140.3433  155.6008 H   0  0  0  0  0  0  0  0  0  0  0  0  # atno 8009 bound_to 7997
  155.7442  140.0796  157.2222 H   0  0  0  0  0  0  0  0  0  0  0  0  # atno 8010 bound_to 7997
  139.7056  144.7087  151.1111 H   0  0  0  0  0  0  0  0  0  0  0  0  # atno 10167 bound_to 10162
  157.1020  131.0445  151.2494 H   0  0  0  0  0  0  0  0  0  0  0  0  # atno 10718 bound_to 10713
  154.7797  135.4829  153.9817 H   0  0  0  0  0  0  0  0  0  0  0  0  # atno 10763 bound_to 10752
  153.1476  135.6785  153.8938 H   0  0  0  0  0  0  0  0  0  0  0  0  # atno 10764 bound_to 10752
  153.8592  135.3157  155.3415 H   0  0  0  0  0  0  0  0  0  0  0  0  # atno 10765 bound_to 10752
  140.0792  134.5362  155.8964 H   0  0  0  0  0  0  0  0  0  0  0  0  # atno 11005 bound_to 11000
  145.5088  139.1480  143.3616 LP  0  0  0  0  0  0  0  0  0  0  0  0  # atno 17320 bound_to 7965
  146.2524  140.5228  142.8888 LP  0  0  0  0  0  0  0  0  0  0  0  0  # atno 17321 bound_to 7965
  140.7721  143.5363  150.9365 LP  0  0  0  0  0  0  0  0  0  0  0  0  # atno 17342 bound_to 10162
  139.9046  143.6794  152.3125 LP  0  0  0  0  0  0  0  0  0  0  0  0  # atno 17343 bound_to 10162
  157.4633  130.7666  149.7255 LP  0  0  0  0  0  0  0  0  0  0  0  0  # atno 17370 bound_to 10713
  155.9871  130.3969  150.3180 LP  0  0  0  0  0  0  0  0  0  0  0  0  # atno 17371 bound_to 10713
  141.2040  133.6636  156.6099 LP  0  0  0  0  0  0  0  0  0  0  0  0  # atno 17394 bound_to 11000
  140.3512  134.7767  157.4468 LP  0  0  0  0  0  0  0  0  0  0  0  0  # atno 17395 bound_to 11000

$$$$
