AV-unprocessed.smi:2693|AV-procd|sdf|10401|dock4
  -GOLD-   2272014433D 1   1.00000     0.00000
 Structure written by MMmdl.
 45 47  0  0  0  0  0  0  0  0  1 V2000
  145.6478  131.4174  150.4368 C   0  0  0  0  0  0  0  0  0  0  0  0
  144.9373  132.6892  150.3394 N   0  0  0  0  0  0  0  0  0  0  0  0
  143.7243  132.7252  149.5274 C   0  0  0  0  0  0  0  0  0  0  0  0
  145.4057  133.8333  150.9921 C   0  0  0  0  0  0  0  0  0  0  0  0
  146.3196  133.6620  151.9563 N   0  0  0  0  0  0  0  0  0  0  0  0
  146.7731  134.7606  152.5962 C   0  0  0  0  0  0  0  0  0  0  0  0
  146.3043  136.0560  152.2715 C   0  0  0  0  0  0  0  0  0  0  0  0
  146.7450  137.2612  152.8809 N   0  0  0  0  0  0  0  0  0  0  0  0
  146.6698  138.5126  152.3981 C   0  0  0  0  0  0  0  0  0  0  0  0
  146.2424  138.8227  151.2865 O   0  0  0  0  0  0  0  0  0  0  0  0
  147.1352  139.4027  153.2840 N   0  0  0  0  0  0  0  0  0  0  0  0
  147.1815  140.8495  153.0648 C   0  0  2  0  0  0  0  0  0  0  0  0
  148.6213  141.4114  153.0591 C   0  0  2  0  0  0  0  0  0  0  0  0
  149.8474  140.5315  153.0248 C   0  0  0  0  0  0  0  0  0  0  0  0
  150.2476  140.4497  154.5008 C   0  0  0  0  0  0  0  0  0  0  0  0
  149.0621  140.7849  155.2190 O   0  0  0  0  0  0  0  0  0  0  0  0
  148.3998  141.8262  154.5045 C   0  0  2  0  0  0  0  0  0  0  0  0
  146.8727  141.6817  154.3400 C   0  0  0  0  0  0  0  0  0  0  0  0
  146.1461  143.0010  154.0624 C   0  0  0  0  0  0  0  0  0  0  0  0
  146.1258  141.0182  155.5052 C   0  0  0  0  0  0  0  0  0  0  0  0
  145.3552  136.1206  151.2319 C   0  0  0  0  0  0  0  0  0  0  0  0
  144.9077  135.0142  150.6019 N   0  0  0  0  0  0  0  0  0  0  0  0
  145.6300  131.0518  151.4637 H   0  0  0  0  0  0  0  0  0  0  0  0
  146.6878  131.5355  150.1309 H   0  0  0  0  0  0  0  0  0  0  0  0
  145.2021  130.6526  149.8009 H   0  0  0  0  0  0  0  0  0  0  0  0
  142.8804  133.0852  150.1166 H   0  0  0  0  0  0  0  0  0  0  0  0
  143.4614  131.7395  149.1433 H   0  0  0  0  0  0  0  0  0  0  0  0
  143.8587  133.3918  148.6751 H   0  0  0  0  0  0  0  0  0  0  0  0
  147.5246  134.5818  153.3490 H   0  0  0  0  0  0  0  0  0  0  0  0
  147.1961  137.1552  153.7777 H   0  0  0  0  0  0  0  0  0  0  0  0
  147.4658  139.0659  154.1764 H   0  0  0  0  0  0  0  0  0  0  0  0
  146.6139  141.1755  152.1911 H   0  0  0  0  0  0  0  0  0  0  0  0
  148.6921  142.2857  152.4099 H   0  0  0  0  0  0  0  0  0  0  0  0
  149.6347  139.5444  152.6152 H   0  0  0  0  0  0  0  0  0  0  0  0
  150.6486  140.9648  152.4254 H   0  0  0  0  0  0  0  0  0  0  0  0
  150.6219  139.4652  154.7819 H   0  0  0  0  0  0  0  0  0  0  0  0
  151.0193  141.1865  154.7292 H   0  0  0  0  0  0  0  0  0  0  0  0
  148.7681  142.8249  154.7444 H   0  0  0  0  0  0  0  0  0  0  0  0
  146.1511  143.6542  154.9356 H   0  0  0  0  0  0  0  0  0  0  0  0
  145.1059  142.8318  153.7823 H   0  0  0  0  0  0  0  0  0  0  0  0
  146.6121  143.5539  153.2460 H   0  0  0  0  0  0  0  0  0  0  0  0
  146.0867  141.6708  156.3777 H   0  0  0  0  0  0  0  0  0  0  0  0
  146.6034  140.0929  155.8282 H   0  0  0  0  0  0  0  0  0  0  0  0
  145.0989  140.7725  155.2324 H   0  0  0  0  0  0  0  0  0  0  0  0
  144.9475  137.0652  150.9030 H   0  0  0  0  0  0  0  0  0  0  0  0
  1  2  1  0  0  0  0
  1 23  1  0  0  0  0
  1 24  1  0  0  0  0
  1 25  1  0  0  0  0
  2  3  1  0  0  0  0
  2  4  1  0  0  0  0
  3 26  1  0  0  0  0
  3 27  1  0  0  0  0
  3 28  1  0  0  0  0
  4 22  1  0  0  0  0
  4  5  2  0  0  0  0
  5  6  1  0  0  0  0
  6  7  2  0  0  0  0
  6 29  1  0  0  0  0
  7  8  1  0  0  0  0
  7 21  1  0  0  0  0
  8  9  1  0  0  0  0
  8 30  1  0  0  0  0
  9 10  2  0  0  0  0
  9 11  1  0  0  0  0
 11 12  1  0  0  0  0
 11 31  1  0  0  0  0
 12 18  1  0  0  0  0
 12 13  1  0  0  0  0
 12 32  1  0  0  0  0
 13 17  1  0  0  0  0
 13 14  1  0  0  0  0
 13 33  1  0  0  0  0
 14 15  1  0  0  0  0
 14 34  1  0  0  0  0
 14 35  1  0  0  0  0
 15 16  1  0  0  0  0
 15 36  1  0  0  0  0
 15 37  1  0  0  0  0
 16 17  1  0  0  0  0
 17 18  1  0  0  0  0
 17 38  1  0  0  0  0
 18 19  1  0  0  0  0
 18 20  1  0  0  0  0
 19 39  1  0  0  0  0
 19 40  1  0  0  0  0
 19 41  1  0  0  0  0
 20 42  1  0  0  0  0
 20 43  1  0  0  0  0
 20 44  1  0  0  0  0
 21 22  2  0  0  0  0
 21 45  1  0  0  0  0
M  END
> <s_m_source_file>
AV-unprocessed.smi

> <i_m_source_file_index>
2693

> <i_lp_mmshare_version>
43012

> <i_f3d_flags>
0

> <s_epik_input>
W0NIM11OKFtDSDNdKWMxbltjSF1jKFtjSF1uMSlbTkhdQyg9TylbTkhdW0NASF0yQyhbQ0gzXSkoW0NIM10pW0NAQEhdKFtDQEhdMjMpT1tDSDJdW0NIMl0z

> <s_epik_cmdline>
J2VwaWtfcHl0aG9uJywgJy1waCcsICc3LjAnLCAnLXRuJywgJzgnLCAnLW1hJywgJzIwMCcsICctbWV0YWxfYmluZGluZycsICctaW1hZScsICc8aW5maWxlLm1hZT4nLCAnLW9tYWUnLCAnPG91dGZpbGUubWFlPic=

> <r_lp_tautomer_probability>
1

> <r_epik_Ionization_Penalty>
0.00031779

> <r_epik_Ionization_Penalty_Charging>
0

> <r_epik_Ionization_Penalty_Neutral>
0.00031779

> <r_epik_State_Penalty>
-0

> <r_epik_Charging_Adjusted_Penalty>
0

> <i_epik_Tot_Q>
0

> <i_epik_Tot_abs_Q>
0

> <r_epik_Metal_State_Penalty>
-0

> <b_epik_Metal_Only>
0

> <s_lp_Force_Field>
OPLS_2005

> <r_lp_Energy>
31.9605

> <b_lp_Chiralities_Consistent>
1

> <s_lp_Variant>
AV-unprocessed.smi:2693-5

> <Gold.Version>
5.8.1

> <Gold.Id.Protein>
6NUR|6NUR_protein|mol2

> <Gold.PLP.Fitness>
40.8978

> <Gold.PLP.PLP>
-37.4321

> <Gold.PLP.part.hbond>
-0.9878

> <Gold.PLP.part.metal>
0.0000

> <Gold.PLP.part.buried>
-2.9429

> <Gold.PLP.part.nonpolar>
-33.8402

> <Gold.PLP.part.repulsive>
1.3113

> <Gold.PLP.ligand.clash>
0.0000

> <Gold.PLP.ligand.torsion>
0.3716

> <Gold.PLP.Chemscore.Hbond>
0.3412

> <Gold.PLP.Chemscore.CHOScore>
1.0000

> <Gold.PLP.Chemscore.Metal>
0.0000

> <Gold.Chemscore.Hbonds>
donor molecule, donor type, donor heavy atom, donor atom, acceptor molecule, acceptor atom, score
      L1  C     6    29       P1  7948  0.05
      L1  C    21    45       P1 10171  1.00

> <Gold.PLP.Chemscore.Internal.Correction>
0.1852

> <Gold.Rescore>
     Score         DG    S(hbond)    S(metal)    S(lipo)     H(rot)  DE(clash)    DE(int)     intcor
     11.93     -14.77       0.57        0.00      85.07       1.00       0.82       2.03       ----

> <Gold.Chemscore.Fitness>
11.9285

> <Gold.Chemscore.DG>
-14.7746

> <Gold.Chemscore.ZeroCoef>
-5.4800

> <Gold.Chemscore.Hbond>
0.5692

> <Gold.Chemscore.Metal>
0.0000

> <Gold.Chemscore.Lipo>
85.0727

> <Gold.Chemscore.Internal_Hbond>
0.0000

> <Gold.Chemscore.DEClash>
0.8202

> <Gold.Chemscore.DEInternal>
2.0259

> <Gold.Chemscore.Rot>
1.0000

> <Gold.Chemscore.Internal.Correction>
   9.000000E+99

> <Gold.Chemscore.Hbond.Weighted>
-1.9011

> <Gold.Chemscore.Metal.Weighted>
-0.0000

> <Gold.Chemscore.Lipo.Weighted>
-9.9535

> <Gold.Chemscore.Internal_Hbond.Weighted>
0.0000

> <Gold.Chemscore.DEClash.Weighted>
0.8202

> <Gold.Chemscore.DEInternal.Weighted>
2.0259

> <Gold.Chemscore.Rot.Weighted>
2.5600

> <Gold.Chemscore.Internal.Correction.Weighted>
   9.000000E+99

> <Gold.Protein.RotatedTorsions>
[ 6907 6896 6895 6894 ] final -148.83 input  -60.11 | X-H torsion
[ 7974 7965 7964 7962 ] final -113.53 input  175.53 | X-H torsion
[ 8008 7997 7996 7995 ] final   48.02 input   59.86 | X-H torsion
[ 10167 10162 10161 10158 ] final -170.76 input  -65.29 | X-H torsion
[ 10718 10713 10712 10709 ] final  126.99 input   66.30 | X-H torsion
[ 10763 10752 10751 10750 ] final   56.46 input  -60.55 | X-H torsion
[ 11005 11000 10999 10996 ] final  -76.55 input  -57.11 | X-H torsion

> <Gold.Protein.ActiveResidues>
 VAL166  LYS551  ARG553  GLY616  TRP617  ASP618  TYR619  PRO620  LYS621  CYS622 
 ASP623  PHE694  ASN695  SER759  ASP760  ASP761  ALA762  ILE779  LEU786  VAL792 
 PHE793  MET794  SER795  GLU796  ALA797  LYS798  CYS799  TRP800  GLU811  SER814 

> <Gold.Protein.RotatedAtoms>
  151.1755  133.4758  159.2593 H   0  0  0  0  0  0  0  0  0  0  0  0  # atno 6907 bound_to 6896
  151.1313  135.0131  159.8593 H   0  0  0  0  0  0  0  0  0  0  0  0  # atno 6908 bound_to 6896
  152.5460  134.1657  159.8629 H   0  0  0  0  0  0  0  0  0  0  0  0  # atno 6909 bound_to 6896
  145.1309  140.8724  143.3758 H   0  0  0  0  0  0  0  0  0  0  0  0  # atno 7974 bound_to 7965
  155.3786  140.3427  155.4246 H   0  0  0  0  0  0  0  0  0  0  0  0  # atno 8008 bound_to 7997
  156.1623  140.1604  156.8625 H   0  0  0  0  0  0  0  0  0  0  0  0  # atno 8009 bound_to 7997
  154.5151  140.0780  156.8047 H   0  0  0  0  0  0  0  0  0  0  0  0  # atno 8010 bound_to 7997
  139.5842  144.1355  152.1554 H   0  0  0  0  0  0  0  0  0  0  0  0  # atno 10167 bound_to 10162
  157.5372  131.1097  150.8917 H   0  0  0  0  0  0  0  0  0  0  0  0  # atno 10718 bound_to 10713
  152.9832  135.5675  154.5233 H   0  0  0  0  0  0  0  0  0  0  0  0  # atno 10763 bound_to 10752
  154.4717  135.2785  155.1640 H   0  0  0  0  0  0  0  0  0  0  0  0  # atno 10764 bound_to 10752
  154.3185  135.6274  153.5550 H   0  0  0  0  0  0  0  0  0  0  0  0  # atno 10765 bound_to 10752
  141.1654  133.6988  156.7685 H   0  0  0  0  0  0  0  0  0  0  0  0  # atno 11005 bound_to 11000
  145.0636  139.3086  143.5868 LP  0  0  0  0  0  0  0  0  0  0  0  0  # atno 17320 bound_to 7965
  146.3514  140.0087  142.8669 LP  0  0  0  0  0  0  0  0  0  0  0  0  # atno 17321 bound_to 7965
  140.0915  144.5617  150.7051 LP  0  0  0  0  0  0  0  0  0  0  0  0  # atno 17342 bound_to 10162
  140.7116  143.2510  151.4562 LP  0  0  0  0  0  0  0  0  0  0  0  0  # atno 17343 bound_to 10162
  156.9480  130.5409  149.5281 LP  0  0  0  0  0  0  0  0  0  0  0  0  # atno 17370 bound_to 10713
  156.0468  130.5543  150.8898 LP  0  0  0  0  0  0  0  0  0  0  0  0  # atno 17371 bound_to 10713
  140.2481  134.8561  157.3640 LP  0  0  0  0  0  0  0  0  0  0  0  0  # atno 17394 bound_to 11000
  140.1729  134.4586  155.7820 LP  0  0  0  0  0  0  0  0  0  0  0  0  # atno 17395 bound_to 11000

$$$$
