AV-unprocessed.smi:287|AV-procd|sdf|2178|dock4
  -GOLD-   2262021543D 1   1.00000     0.00000
 Structure written by MMmdl.
 55 58  0  0  0  0  0  0  0  0  1 V2000
  146.6395  127.9536  152.4539 C   0  0  0  0  0  0  0  0  0  0  0  0
  146.4605  129.4041  152.7453 C   0  0  0  0  0  0  0  0  0  0  0  0
  147.2851  130.3797  153.2248 C   0  0  0  0  0  0  0  0  0  0  0  0
  146.5300  131.5896  153.2754 C   0  0  0  0  0  0  0  0  0  0  0  0
  147.0386  132.9447  153.7485 C   0  0  2  0  0  0  0  0  0  0  0  0
  148.2609  133.3605  152.9137 C   0  0  0  0  0  0  0  0  0  0  0  0
  147.4877  132.9237  155.0898 O   0  0  0  0  0  0  0  0  0  0  0  0
  145.9510  134.0417  153.6824 C   0  0  0  0  0  0  0  0  0  0  0  0
  146.1388  135.0880  154.6827 N   0  0  0  0  0  0  0  0  0  0  0  0
  146.2068  136.3825  154.3084 C   0  0  0  0  0  0  0  0  0  0  0  0
  145.1331  137.0122  153.7631 N   0  0  0  0  0  0  0  0  0  0  0  0
  145.2239  138.2965  153.4028 C   0  0  0  0  0  0  0  0  0  0  0  0
  146.2724  139.1182  153.4959 N   0  0  0  0  0  0  0  0  0  0  0  0
  147.3522  138.4862  154.0403 C   0  0  0  0  0  0  0  0  0  0  0  0
  147.3997  137.1323  154.4722 C   0  0  0  0  0  0  0  0  0  0  0  0
  148.6605  136.8447  154.9790 N   0  0  0  0  0  0  0  0  0  0  0  0
  149.3167  137.9669  154.8496 C   0  0  0  0  0  0  0  0  0  0  0  0
  148.6028  139.0053  154.2897 N   0  0  0  0  0  0  0  0  0  0  0  0
  149.0375  140.4058  154.0054 C   0  0  2  0  0  0  0  0  0  0  0  0
  150.4354  140.4284  154.0218 O   0  0  0  0  0  0  0  0  0  0  0  0
  150.9201  141.3318  155.0141 C   0  0  2  0  0  0  0  0  0  0  0  0
  152.2309  140.7976  155.6116 C   0  0  0  0  0  0  0  0  0  0  0  0
  152.9409  140.0598  154.6403 O   0  0  0  0  0  0  0  0  0  0  0  0
  149.7720  141.4001  156.0216 C   0  0  1  0  0  0  0  0  0  0  0  0
  149.7968  142.5630  156.8267 O   0  0  0  0  0  0  0  0  0  0  0  0
  148.5439  141.3287  155.1260 C   0  0  1  0  0  0  0  0  0  0  0  0
  148.1579  142.5893  154.6084 O   0  0  0  0  0  0  0  0  0  0  0  0
  145.2780  131.2398  152.8295 C   0  0  0  0  0  0  0  0  0  0  0  0
  143.9987  131.9864  152.6403 C   0  0  0  0  0  0  0  0  0  0  0  0
  145.2289  129.9183  152.5018 O   0  0  0  0  0  0  0  0  0  0  0  0
  148.6352  140.6295  153.0163 H   0  0  0  0  0  0  0  0  0  0  0  0
  151.0631  142.3134  154.5581 H   0  0  0  0  0  0  0  0  0  0  0  0
  149.7980  140.5210  156.6674 H   0  0  0  0  0  0  0  0  0  0  0  0
  147.6854  140.8973  155.6432 H   0  0  0  0  0  0  0  0  0  0  0  0
  147.6861  127.6637  152.5502 H   0  0  0  0  0  0  0  0  0  0  0  0
  146.3170  127.7196  151.4391 H   0  0  0  0  0  0  0  0  0  0  0  0
  146.0553  127.3459  153.1449 H   0  0  0  0  0  0  0  0  0  0  0  0
  148.3195  130.2433  153.5032 H   0  0  0  0  0  0  0  0  0  0  0  0
  148.0077  133.4410  151.8559 H   0  0  0  0  0  0  0  0  0  0  0  0
  149.0681  132.6321  153.0027 H   0  0  0  0  0  0  0  0  0  0  0  0
  148.6523  134.3282  153.2305 H   0  0  0  0  0  0  0  0  0  0  0  0
  148.3494  132.5362  155.1110 H   0  0  0  0  0  0  0  0  0  0  0  0
  145.8969  134.4766  152.6832 H   0  0  0  0  0  0  0  0  0  0  0  0
  144.9807  133.5815  153.8750 H   0  0  0  0  0  0  0  0  0  0  0  0
  146.1993  134.7794  155.6428 H   0  0  0  0  0  0  0  0  0  0  0  0
  144.3284  138.7268  152.9793 H   0  0  0  0  0  0  0  0  0  0  0  0
  150.3459  138.0644  155.1622 H   0  0  0  0  0  0  0  0  0  0  0  0
  152.8678  141.6269  155.9210 H   0  0  0  0  0  0  0  0  0  0  0  0
  152.0469  140.1846  156.4941 H   0  0  0  0  0  0  0  0  0  0  0  0
  152.3294  139.7572  153.9864 H   0  0  0  0  0  0  0  0  0  0  0  0
  149.6822  143.3144  156.2645 H   0  0  0  0  0  0  0  0  0  0  0  0
  148.6745  143.2573  155.0331 H   0  0  0  0  0  0  0  0  0  0  0  0
  143.7064  132.4911  153.5614 H   0  0  0  0  0  0  0  0  0  0  0  0
  143.1882  131.3157  152.3541 H   0  0  0  0  0  0  0  0  0  0  0  0
  144.1028  132.7390  151.8589 H   0  0  0  0  0  0  0  0  0  0  0  0
  1  2  1  0  0  0  0
  1 35  1  0  0  0  0
  1 36  1  0  0  0  0
  1 37  1  0  0  0  0
  2 30  1  0  0  0  0
  2  3  2  0  0  0  0
  3  4  1  0  0  0  0
  3 38  1  0  0  0  0
  4  5  1  0  0  0  0
  4 28  2  0  0  0  0
  5  6  1  0  0  0  0
  5  7  1  0  0  0  0
  5  8  1  0  0  0  0
  6 39  1  0  0  0  0
  6 40  1  0  0  0  0
  6 41  1  0  0  0  0
  7 42  1  0  0  0  0
  8  9  1  0  0  0  0
  8 43  1  0  0  0  0
  8 44  1  0  0  0  0
  9 10  1  0  0  0  0
  9 45  1  0  0  0  0
 10 15  1  0  0  0  0
 10 11  2  0  0  0  0
 11 12  1  0  0  0  0
 12 13  2  0  0  0  0
 12 46  1  0  0  0  0
 13 14  1  0  0  0  0
 14 18  1  0  0  0  0
 14 15  2  0  0  0  0
 15 16  1  0  0  0  0
 16 17  2  0  0  0  0
 17 18  1  0  0  0  0
 17 47  1  0  0  0  0
 18 19  1  0  0  0  0
 19 31  1  0  0  0  0
 19 26  1  0  0  0  0
 19 20  1  0  0  0  0
 20 21  1  0  0  0  0
 21 32  1  0  0  0  0
 21 22  1  0  0  0  0
 21 24  1  0  0  0  0
 22 23  1  0  0  0  0
 22 48  1  0  0  0  0
 22 49  1  0  0  0  0
 23 50  1  0  0  0  0
 24 33  1  0  0  0  0
 24 25  1  0  0  0  0
 24 26  1  0  0  0  0
 25 51  1  0  0  0  0
 26 34  1  0  0  0  0
 26 27  1  0  0  0  0
 27 52  1  0  0  0  0
 28 29  1  0  0  0  0
 28 30  1  0  0  0  0
 29 53  1  0  0  0  0
 29 54  1  0  0  0  0
 29 55  1  0  0  0  0
M  END
> <s_m_source_file>
AV-unprocessed.smi

> <i_m_source_file_index>
287

> <i_lp_mmshare_version>
43012

> <i_f3d_flags>
0

> <s_epik_input>
W0NIM11jMVtjSF1jKGMobzEpW0NIM10pW0NAQF0oW0NIM10pKFtPSF0pW0NIMl1bTkhdYyhuW2NIXW4yKWMoYzIzKW5bY0hdbjNbQ0BASF00T1tDQEhdKFtDSDJdW09IXSlbQ0BASF0oW09IXSlbQ0BIXTRbT0hd

> <s_epik_cmdline>
J2VwaWtfcHl0aG9uJywgJy1waCcsICc3LjAnLCAnLXRuJywgJzgnLCAnLW1hJywgJzIwMCcsICctbWV0YWxfYmluZGluZycsICctaW1hZScsICc8aW5maWxlLm1hZT4nLCAnLW9tYWUnLCAnPG91dGZpbGUubWFlPic=

> <r_lp_tautomer_probability>
1

> <r_epik_Ionization_Penalty>
0.000992612

> <r_epik_Ionization_Penalty_Charging>
0

> <r_epik_Ionization_Penalty_Neutral>
0.000992612

> <r_epik_State_Penalty>
-0

> <r_epik_Charging_Adjusted_Penalty>
0

> <i_epik_Tot_Q>
0

> <i_epik_Tot_abs_Q>
0

> <r_epik_Metal_State_Penalty>
-0

> <b_epik_Metal_Only>
0

> <s_epik_Chemistry_Notes>
This compound contains an acetal/aminal-like group ( X-CH(R)-Y where X, Y are N, S, or O) that may be acid/base labile, releasing an aldehyde.

> <s_lp_Force_Field>
OPLS_2005

> <r_lp_Energy>
40.8374

> <b_lp_Chiralities_Consistent>
1

> <s_lp_Variant>
AV-unprocessed.smi:287-2

> <Gold.Version>
5.8.1

> <Gold.Id.Protein>
6NUR|6NUR_protein|mol2

> <Gold.PLP.Fitness>
51.2263

> <Gold.PLP.PLP>
-38.4621

> <Gold.PLP.part.hbond>
-4.8761

> <Gold.PLP.part.metal>
0.0000

> <Gold.PLP.part.buried>
-1.1406

> <Gold.PLP.part.nonpolar>
-33.2035

> <Gold.PLP.part.repulsive>
0.7980

> <Gold.PLP.ligand.clash>
0.0000

> <Gold.PLP.ligand.torsion>
2.1139

> <Gold.PLP.Chemscore.Hbond>
3.9500

> <Gold.PLP.Chemscore.CHOScore>
1.6668

> <Gold.PLP.Chemscore.Metal>
0.0000

> <Gold.Chemscore.Hbonds>
donor molecule, donor type, donor heavy atom, donor atom, acceptor molecule, acceptor atom, score
      L1  H    25    51       P1  8028  1.00
      L1  H    27    52       P1  8028  1.00
      L1  C    12    46       P1 10175  0.71

> <Gold.PLP.Chemscore.Internal.Correction>
0.1417

> <Gold.Rescore>
     Score         DG    S(hbond)    S(metal)    S(lipo)     H(rot)  DE(clash)    DE(int)     intcor
      8.63     -13.31       3.42        0.00      84.43       5.27       1.48       3.20       ----

> <Gold.Chemscore.Fitness>
8.6306

> <Gold.Chemscore.DG>
-13.3097

> <Gold.Chemscore.ZeroCoef>
-5.4800

> <Gold.Chemscore.Hbond>
3.4236

> <Gold.Chemscore.Metal>
0.0000

> <Gold.Chemscore.Lipo>
84.4347

> <Gold.Chemscore.Internal_Hbond>
0.0000

> <Gold.Chemscore.DEClash>
1.4835

> <Gold.Chemscore.DEInternal>
3.1956

> <Gold.Chemscore.Rot>
5.2672

> <Gold.Chemscore.Internal.Correction>
   9.000000E+99

> <Gold.Chemscore.Hbonds>
donor molecule, donor type, donor heavy atom, donor atom, acceptor molecule, acceptor atom, score
      L1  H    25    51       P1  8028  0.99
      L1  H    27    52       P1  8028  0.94

> <Gold.Chemscore.Hbond.Weighted>
-11.4348

> <Gold.Chemscore.Metal.Weighted>
-0.0000

> <Gold.Chemscore.Lipo.Weighted>
-9.8789

> <Gold.Chemscore.Internal_Hbond.Weighted>
0.0000

> <Gold.Chemscore.DEClash.Weighted>
1.4835

> <Gold.Chemscore.DEInternal.Weighted>
3.1956

> <Gold.Chemscore.Rot.Weighted>
13.4839

> <Gold.Chemscore.Internal.Correction.Weighted>
   9.000000E+99

> <Gold.Protein.RotatedTorsions>
[ 6907 6896 6895 6894 ] final   70.46 input  -60.11 | X-H torsion
[ 7974 7965 7964 7962 ] final  -45.36 input  175.53 | X-H torsion
[ 8008 7997 7996 7995 ] final  -35.66 input   59.86 | X-H torsion
[ 10167 10162 10161 10158 ] final  179.35 input  -65.29 | X-H torsion
[ 10718 10713 10712 10709 ] final   37.62 input   66.30 | X-H torsion
[ 10763 10752 10751 10750 ] final -176.95 input  -60.55 | X-H torsion
[ 11005 11000 10999 10996 ] final  -34.58 input  -57.11 | X-H torsion

> <Gold.Protein.ActiveResidues>
 VAL166  LYS551  ARG553  GLY616  TRP617  ASP618  TYR619  PRO620  LYS621  CYS622 
 ASP623  PHE694  ASN695  SER759  ASP760  ASP761  ALA762  ILE779  LEU786  VAL792 
 PHE793  MET794  SER795  GLU796  ALA797  LYS798  CYS799  TRP800  GLU811  SER814 

> <Gold.Protein.RotatedAtoms>
  152.4751  134.4865  159.9681 H   0  0  0  0  0  0  0  0  0  0  0  0  # atno 6907 bound_to 6896
  151.4883  133.3525  159.2857 H   0  0  0  0  0  0  0  0  0  0  0  0  # atno 6908 bound_to 6896
  150.8784  134.8198  159.7268 H   0  0  0  0  0  0  0  0  0  0  0  0  # atno 6909 bound_to 6896
  145.9828  140.7265  142.9355 H   0  0  0  0  0  0  0  0  0  0  0  0  # atno 7974 bound_to 7965
  154.4090  140.1651  156.2248 H   0  0  0  0  0  0  0  0  0  0  0  0  # atno 8008 bound_to 7997
  155.9333  140.3413  155.6244 H   0  0  0  0  0  0  0  0  0  0  0  0  # atno 8009 bound_to 7997
  155.7080  140.0753  157.2374 H   0  0  0  0  0  0  0  0  0  0  0  0  # atno 8010 bound_to 7997
  139.5333  144.2571  152.0737 H   0  0  0  0  0  0  0  0  0  0  0  0  # atno 10167 bound_to 10162
  157.3491  130.7588  149.6965 H   0  0  0  0  0  0  0  0  0  0  0  0  # atno 10718 bound_to 10713
  154.5661  135.2824  155.0873 H   0  0  0  0  0  0  0  0  0  0  0  0  # atno 10763 bound_to 10752
  154.2263  135.6382  153.5164 H   0  0  0  0  0  0  0  0  0  0  0  0  # atno 10764 bound_to 10752
  153.0043  135.5526  154.6269 H   0  0  0  0  0  0  0  0  0  0  0  0  # atno 10765 bound_to 10752
  140.9727  133.7100  156.1551 H   0  0  0  0  0  0  0  0  0  0  0  0  # atno 11005 bound_to 11000
  144.6866  140.2937  143.7274 LP  0  0  0  0  0  0  0  0  0  0  0  0  # atno 17320 bound_to 7965
  145.7744  139.1869  143.2193 LP  0  0  0  0  0  0  0  0  0  0  0  0  # atno 17321 bound_to 7965
  140.2037  144.4632  150.6419 LP  0  0  0  0  0  0  0  0  0  0  0  0  # atno 17342 bound_to 10162
  140.6524  143.2228  151.6046 LP  0  0  0  0  0  0  0  0  0  0  0  0  # atno 17343 bound_to 10162
  155.9719  130.4146  150.4139 LP  0  0  0  0  0  0  0  0  0  0  0  0  # atno 17370 bound_to 10713
  157.2199  131.0480  151.2552 LP  0  0  0  0  0  0  0  0  0  0  0  0  # atno 17371 bound_to 10713
  140.7304  134.4260  157.5566 LP  0  0  0  0  0  0  0  0  0  0  0  0  # atno 17394 bound_to 11000
  139.8918  134.8769  156.2299 LP  0  0  0  0  0  0  0  0  0  0  0  0  # atno 17395 bound_to 11000

$$$$
