AV-unprocessed.smi:2795|AV-procd|sdf|10781|dock9
  -GOLD-   2272015213D 1   1.00000     0.00000
 Structure written by MMmdl.
 36 37  0  0  0  0  0  0  0  0  1 V2000
  151.7853  144.0920  157.5611 C   0  0  0  0  0  0  0  0  0  0  0  0
  151.8987  144.4297  158.9659 N   0  0  0  0  0  0  0  0  0  0  0  0
  151.8444  145.6555  159.5040 C   0  0  0  0  0  0  0  0  0  0  0  0
  151.9828  145.6836  160.8221 N   0  0  0  0  0  0  0  0  0  0  0  0
  152.1423  144.3442  161.1655 C   0  0  0  0  0  0  0  0  0  0  0  0
  152.0851  143.5563  160.0343 C   0  0  0  0  0  0  0  0  0  0  0  0
  152.2040  142.0697  159.8577 C   0  0  0  0  0  0  0  0  0  0  0  0
  153.6239  141.5462  159.5819 C   0  0  0  0  0  0  0  0  0  0  0  0
  153.9457  140.4002  160.4230 N   0  0  0  0  0  0  0  0  0  0  0  0
  154.9406  139.5342  160.1828 C   0  0  0  0  0  0  0  0  0  0  0  0
  155.6632  139.6047  159.1878 O   0  0  0  0  0  0  0  0  0  0  0  0
  155.1324  138.4226  161.2239 C   0  0  1  0  0  0  0  0  0  0  0  0
  155.3194  138.9632  162.6602 C   0  0  0  0  0  0  0  0  0  0  0  0
  155.4222  137.8081  163.6623 C   0  0  0  0  0  0  0  0  0  0  0  0
  154.2237  136.8690  163.4936 C   0  0  0  0  0  0  0  0  0  0  0  0
  154.0947  136.4288  162.0272 C   0  0  0  0  0  0  0  0  0  0  0  0
  153.9867  137.5711  161.1839 O   0  0  0  0  0  0  0  0  0  0  0  0
  151.6984  144.9978  156.9599 H   0  0  0  0  0  0  0  0  0  0  0  0
  150.9005  143.4754  157.4017 H   0  0  0  0  0  0  0  0  0  0  0  0
  152.6699  143.5401  157.2423 H   0  0  0  0  0  0  0  0  0  0  0  0
  151.7023  146.5504  158.9156 H   0  0  0  0  0  0  0  0  0  0  0  0
  152.2824  144.0522  162.1961 H   0  0  0  0  0  0  0  0  0  0  0  0
  151.8168  141.5730  160.7483 H   0  0  0  0  0  0  0  0  0  0  0  0
  151.5536  141.7603  159.0391 H   0  0  0  0  0  0  0  0  0  0  0  0
  153.7115  141.2599  158.5328 H   0  0  0  0  0  0  0  0  0  0  0  0
  154.3539  142.3380  159.7574 H   0  0  0  0  0  0  0  0  0  0  0  0
  153.3969  140.2749  161.2618 H   0  0  0  0  0  0  0  0  0  0  0  0
  156.0133  137.8487  160.9311 H   0  0  0  0  0  0  0  0  0  0  0  0
  156.2154  139.5821  162.7230 H   0  0  0  0  0  0  0  0  0  0  0  0
  154.4771  139.6019  162.9314 H   0  0  0  0  0  0  0  0  0  0  0  0
  156.3480  137.2566  163.4938 H   0  0  0  0  0  0  0  0  0  0  0  0
  155.4656  138.1911  164.6822 H   0  0  0  0  0  0  0  0  0  0  0  0
  154.3310  135.9991  164.1418 H   0  0  0  0  0  0  0  0  0  0  0  0
  153.3109  137.3798  163.8025 H   0  0  0  0  0  0  0  0  0  0  0  0
  154.9495  135.8216  161.7261 H   0  0  0  0  0  0  0  0  0  0  0  0
  153.2052  135.8119  161.8984 H   0  0  0  0  0  0  0  0  0  0  0  0
  1  2  1  0  0  0  0
  1 18  1  0  0  0  0
  1 19  1  0  0  0  0
  1 20  1  0  0  0  0
  2  6  1  0  0  0  0
  2  3  1  0  0  0  0
  3  4  2  0  0  0  0
  3 21  1  0  0  0  0
  4  5  1  0  0  0  0
  5  6  2  0  0  0  0
  5 22  1  0  0  0  0
  6  7  1  0  0  0  0
  7  8  1  0  0  0  0
  7 23  1  0  0  0  0
  7 24  1  0  0  0  0
  8  9  1  0  0  0  0
  8 25  1  0  0  0  0
  8 26  1  0  0  0  0
  9 10  1  0  0  0  0
  9 27  1  0  0  0  0
 10 11  2  0  0  0  0
 10 12  1  0  0  0  0
 12 17  1  0  0  0  0
 12 13  1  0  0  0  0
 12 28  1  0  0  0  0
 13 14  1  0  0  0  0
 13 29  1  0  0  0  0
 13 30  1  0  0  0  0
 14 15  1  0  0  0  0
 14 31  1  0  0  0  0
 14 32  1  0  0  0  0
 15 16  1  0  0  0  0
 15 33  1  0  0  0  0
 15 34  1  0  0  0  0
 16 17  1  0  0  0  0
 16 35  1  0  0  0  0
 16 36  1  0  0  0  0
M  END
> <s_m_source_file>
AV-unprocessed.smi

> <i_m_source_file_index>
2795

> <i_lp_mmshare_version>
43012

> <i_f3d_flags>
0

> <s_epik_input>
W0NIM11uMVtjSF1uW2NIXWMxW0NIMl1bQ0gyXVtOSF1DKD1PKVtDQEBIXTJbQ0gyXVtDSDJdW0NIMl1bQ0gyXU8y

> <s_epik_cmdline>
J2VwaWtfcHl0aG9uJywgJy1waCcsICc3LjAnLCAnLXRuJywgJzgnLCAnLW1hJywgJzIwMCcsICctbWV0YWxfYmluZGluZycsICctaW1hZScsICc8aW5maWxlLm1hZT4nLCAnLW9tYWUnLCAnPG91dGZpbGUubWFlPic=

> <r_lp_tautomer_probability>
1

> <r_epik_Ionization_Penalty>
0.870864

> <r_epik_Ionization_Penalty_Charging>
0.870864

> <r_epik_Ionization_Penalty_Neutral>
4.06047e-08

> <r_epik_State_Penalty>
0.90819

> <r_epik_Charging_Adjusted_Penalty>
1.77905

> <i_epik_Tot_Q>
0

> <i_epik_Tot_abs_Q>
0

> <r_epik_Metal_State_Penalty>
0.360563

> <b_epik_Metal_Only>
0

> <s_lp_Force_Field>
OPLS_2005

> <r_lp_Energy>
10.035

> <b_lp_Chiralities_Consistent>
1

> <s_lp_Variant>
AV-unprocessed.smi:2795-4

> <Gold.Version>
5.8.1

> <Gold.Id.Protein>
6NUR|6NUR_protein|mol2

> <Gold.PLP.Fitness>
39.6383

> <Gold.PLP.PLP>
-38.4241

> <Gold.PLP.part.hbond>
-1.0000

> <Gold.PLP.part.metal>
0.0000

> <Gold.PLP.part.buried>
-3.5629

> <Gold.PLP.part.nonpolar>
-34.2177

> <Gold.PLP.part.repulsive>
0.3370

> <Gold.PLP.ligand.clash>
0.0000

> <Gold.PLP.ligand.torsion>
0.8963

> <Gold.PLP.Chemscore.Hbond>
1.0000

> <Gold.PLP.Chemscore.CHOScore>
0.0000

> <Gold.PLP.Chemscore.Metal>
0.0000

> <Gold.Chemscore.Hbonds>
donor molecule, donor type, donor heavy atom, donor atom, acceptor molecule, acceptor atom, score
      P1  H  7997  8009       L1    11  1.00

> <Gold.PLP.Chemscore.Internal.Correction>
0.0067

> <Gold.Rescore>
     Score         DG    S(hbond)    S(metal)    S(lipo)     H(rot)  DE(clash)    DE(int)     intcor
     13.50     -14.53       1.00        0.00      87.29       1.76       0.21       0.82       ----

> <Gold.Chemscore.Fitness>
13.5004

> <Gold.Chemscore.DG>
-14.5314

> <Gold.Chemscore.ZeroCoef>
-5.4800

> <Gold.Chemscore.Hbond>
0.9999

> <Gold.Chemscore.Metal>
0.0000

> <Gold.Chemscore.Lipo>
87.2944

> <Gold.Chemscore.Internal_Hbond>
0.0000

> <Gold.Chemscore.DEClash>
0.2073

> <Gold.Chemscore.DEInternal>
0.8237

> <Gold.Chemscore.Rot>
1.7585

> <Gold.Chemscore.Internal.Correction>
   9.000000E+99

> <Gold.Chemscore.Hbonds>
donor molecule, donor type, donor heavy atom, donor atom, acceptor molecule, acceptor atom, score
      P1  H  7997  8009       L1    11  1.00

> <Gold.Chemscore.Hbond.Weighted>
-3.3397

> <Gold.Chemscore.Metal.Weighted>
-0.0000

> <Gold.Chemscore.Lipo.Weighted>
-10.2134

> <Gold.Chemscore.Internal_Hbond.Weighted>
0.0000

> <Gold.Chemscore.DEClash.Weighted>
0.2073

> <Gold.Chemscore.DEInternal.Weighted>
0.8237

> <Gold.Chemscore.Rot.Weighted>
4.5018

> <Gold.Chemscore.Internal.Correction.Weighted>
   9.000000E+99

> <Gold.Protein.RotatedTorsions>
[ 6907 6896 6895 6894 ] final -158.09 input  -60.11 | X-H torsion
[ 7974 7965 7964 7962 ] final  175.84 input  175.53 | X-H torsion
[ 8008 7997 7996 7995 ] final   92.96 input   59.86 | X-H torsion
[ 10167 10162 10161 10158 ] final -132.50 input  -65.29 | X-H torsion
[ 10718 10713 10712 10709 ] final   86.95 input   66.30 | X-H torsion
[ 10763 10752 10751 10750 ] final  107.73 input  -60.55 | X-H torsion
[ 11005 11000 10999 10996 ] final  -85.76 input  -57.11 | X-H torsion

> <Gold.Protein.ActiveResidues>
 VAL166  LYS551  ARG553  GLY616  TRP617  ASP618  TYR619  PRO620  LYS621  CYS622 
 ASP623  PHE694  ASN695  SER759  ASP760  ASP761  ALA762  ILE779  LEU786  VAL792 
 PHE793  MET794  SER795  GLU796  ALA797  LYS798  CYS799  TRP800  GLU811  SER814 

> <Gold.Protein.RotatedAtoms>
  151.3128  133.4073  159.2647 H   0  0  0  0  0  0  0  0  0  0  0  0  # atno 6907 bound_to 6896
  151.0100  134.9389  159.8012 H   0  0  0  0  0  0  0  0  0  0  0  0  # atno 6908 bound_to 6896
  152.5298  134.3093  159.9160 H   0  0  0  0  0  0  0  0  0  0  0  0  # atno 6909 bound_to 6896
  144.7194  140.0007  143.6440 H   0  0  0  0  0  0  0  0  0  0  0  0  # atno 7974 bound_to 7965
  156.0414  140.3319  155.7247 H   0  0  0  0  0  0  0  0  0  0  0  0  # atno 8008 bound_to 7997
  155.5739  140.0630  157.2817 H   0  0  0  0  0  0  0  0  0  0  0  0  # atno 8009 bound_to 7997
  154.4394  140.1856  156.0896 H   0  0  0  0  0  0  0  0  0  0  0  0  # atno 8010 bound_to 7997
  139.9080  143.6528  152.2581 H   0  0  0  0  0  0  0  0  0  0  0  0  # atno 10167 bound_to 10162
  157.6935  131.0236  150.3050 H   0  0  0  0  0  0  0  0  0  0  0  0  # atno 10718 bound_to 10713
  153.4108  135.3835  155.2049 H   0  0  0  0  0  0  0  0  0  0  0  0  # atno 10763 bound_to 10752
  154.8737  135.3793  154.4503 H   0  0  0  0  0  0  0  0  0  0  0  0  # atno 10764 bound_to 10752
  153.5012  135.7088  153.5893 H   0  0  0  0  0  0  0  0  0  0  0  0  # atno 10765 bound_to 10752
  141.1638  133.7417  156.9062 H   0  0  0  0  0  0  0  0  0  0  0  0  # atno 11005 bound_to 11000
  146.0337  139.3358  143.0739 LP  0  0  0  0  0  0  0  0  0  0  0  0  # atno 17320 bound_to 7965
  145.8421  140.9575  143.0794 LP  0  0  0  0  0  0  0  0  0  0  0  0  # atno 17321 bound_to 7965
  139.6968  144.7640  151.1343 LP  0  0  0  0  0  0  0  0  0  0  0  0  # atno 17342 bound_to 10162
  140.7692  143.5513  150.9201 LP  0  0  0  0  0  0  0  0  0  0  0  0  # atno 17343 bound_to 10162
  156.3560  130.3839  149.7290 LP  0  0  0  0  0  0  0  0  0  0  0  0  # atno 17370 bound_to 10713
  156.4752  130.8015  151.3032 LP  0  0  0  0  0  0  0  0  0  0  0  0  # atno 17371 bound_to 10713
  140.1548  134.9206  157.2639 LP  0  0  0  0  0  0  0  0  0  0  0  0  # atno 17394 bound_to 11000
  140.2680  134.3493  155.7383 LP  0  0  0  0  0  0  0  0  0  0  0  0  # atno 17395 bound_to 11000

$$$$
