AV-unprocessed.smi:86|AV-procd|sdf|817|dock1
  -GOLD-   2262017223D 1   1.00000     0.00000
 Structure written by MMmdl.
 51 55  0  0  0  0  0  0  0  0  1 V2000
  144.5605  138.0239  152.0180 O   0  0  0  0  0  0  0  0  0  0  0  0
  145.8047  137.4471  152.3624 C   0  0  0  0  0  0  0  0  0  0  0  0
  146.5124  138.2033  153.5043 C   0  0  0  0  0  0  0  0  0  0  0  0
  147.1800  139.4867  152.9691 C   0  0  0  0  0  0  0  0  0  0  0  0
  148.0069  140.1842  153.9407 N   0  0  0  0  0  0  0  0  0  0  0  0
  147.7324  141.3880  154.5464 C   0  0  0  0  0  0  0  0  0  0  0  0
  148.6374  141.8034  155.3890 N   0  0  0  0  0  0  0  0  0  0  0  0
  149.6175  140.8162  155.3626 C   0  0  0  0  0  0  0  0  0  0  0  0
  150.8643  140.6207  156.0296 C   0  0  0  0  0  0  0  0  0  0  0  0
  151.3988  141.4780  156.9374 N   0  0  0  0  0  0  0  0  0  0  0  0
  150.9532  142.8589  157.0956 C   0  0  0  0  0  0  0  0  0  0  0  0
  151.7727  143.3669  158.2798 C   0  0  1  0  0  0  0  0  0  0  0  0
  151.2483  144.5618  159.0829 C   0  0  0  0  0  0  0  0  0  0  0  0
  152.1993  144.8264  160.2720 C   0  0  0  0  0  0  0  0  0  0  0  0
  152.4675  143.5686  161.1384 C   0  0  1  0  0  0  0  0  0  0  0  0
  151.3200  143.2770  161.9115 O   0  0  0  0  0  0  0  0  0  0  0  0
  152.8609  142.3295  160.2969 C   0  0  0  0  0  0  0  0  0  0  0  0
  151.8536  142.1261  159.1567 C   0  0  2  0  0  0  0  0  0  0  0  0
  152.1117  141.0216  158.1312 C   0  0  0  0  0  0  0  0  0  0  0  0
  151.5646  139.4979  155.7181 N   0  0  0  0  0  0  0  0  0  0  0  0
  151.0864  138.6212  154.8315 C   0  0  0  0  0  0  0  0  0  0  0  0
  149.9445  138.6690  154.1452 N   0  0  0  0  0  0  0  0  0  0  0  0
  149.2360  139.7948  154.4446 C   0  0  0  0  0  0  0  0  0  0  0  0
  145.6369  138.4185  154.7474 C   0  0  0  0  0  0  0  0  0  0  0  0
  146.2925  137.3542  155.4681 O   0  0  0  0  0  0  0  0  0  0  0  0
  147.3358  137.3375  154.4716 C   0  0  0  0  0  0  0  0  0  0  0  0
  144.5777  138.2513  151.1008 H   0  0  0  0  0  0  0  0  0  0  0  0
  145.6462  136.4006  152.6243 H   0  0  0  0  0  0  0  0  0  0  0  0
  146.4185  137.4476  151.4612 H   0  0  0  0  0  0  0  0  0  0  0  0
  147.7900  139.2591  152.0940 H   0  0  0  0  0  0  0  0  0  0  0  0
  146.4239  140.1916  152.6210 H   0  0  0  0  0  0  0  0  0  0  0  0
  146.8336  141.9525  154.3468 H   0  0  0  0  0  0  0  0  0  0  0  0
  151.1397  143.4515  156.1997 H   0  0  0  0  0  0  0  0  0  0  0  0
  149.8854  142.8797  157.3181 H   0  0  0  0  0  0  0  0  0  0  0  0
  152.7730  143.6070  157.9131 H   0  0  0  0  0  0  0  0  0  0  0  0
  151.1825  145.4459  158.4485 H   0  0  0  0  0  0  0  0  0  0  0  0
  150.2402  144.3593  159.4466 H   0  0  0  0  0  0  0  0  0  0  0  0
  153.1518  145.1834  159.8783 H   0  0  0  0  0  0  0  0  0  0  0  0
  151.8098  145.6361  160.8900 H   0  0  0  0  0  0  0  0  0  0  0  0
  153.2705  143.7885  161.8426 H   0  0  0  0  0  0  0  0  0  0  0  0
  151.1837  143.9829  162.5249 H   0  0  0  0  0  0  0  0  0  0  0  0
  153.8576  142.4766  159.8791 H   0  0  0  0  0  0  0  0  0  0  0  0
  152.9164  141.4389  160.9240 H   0  0  0  0  0  0  0  0  0  0  0  0
  150.8688  141.9411  159.5911 H   0  0  0  0  0  0  0  0  0  0  0  0
  151.7557  140.0581  158.4984 H   0  0  0  0  0  0  0  0  0  0  0  0
  153.1739  140.9341  157.9003 H   0  0  0  0  0  0  0  0  0  0  0  0
  151.7079  137.7575  154.6464 H   0  0  0  0  0  0  0  0  0  0  0  0
  145.7840  139.3843  155.2337 H   0  0  0  0  0  0  0  0  0  0  0  0
  144.5753  138.2259  154.5874 H   0  0  0  0  0  0  0  0  0  0  0  0
  147.5499  136.3320  154.1085 H   0  0  0  0  0  0  0  0  0  0  0  0
  148.2441  137.8191  154.8360 H   0  0  0  0  0  0  0  0  0  0  0  0
  1  2  1  0  0  0  0
  1 27  1  0  0  0  0
  2  3  1  0  0  0  0
  2 28  1  0  0  0  0
  2 29  1  0  0  0  0
  3 26  1  0  0  0  0
  3  4  1  0  0  0  0
  3 24  1  0  0  0  0
  4  5  1  0  0  0  0
  4 30  1  0  0  0  0
  4 31  1  0  0  0  0
  5 23  1  0  0  0  0
  5  6  1  0  0  0  0
  6  7  2  0  0  0  0
  6 32  1  0  0  0  0
  7  8  1  0  0  0  0
  8 23  2  0  0  0  0
  8  9  1  0  0  0  0
  9 10  1  0  0  0  0
  9 20  2  0  0  0  0
 10 19  1  0  0  0  0
 10 11  1  0  0  0  0
 11 12  1  0  0  0  0
 11 33  1  0  0  0  0
 11 34  1  0  0  0  0
 12 18  1  0  0  0  0
 12 13  1  0  0  0  0
 12 35  1  0  0  0  0
 13 14  1  0  0  0  0
 13 36  1  0  0  0  0
 13 37  1  0  0  0  0
 14 15  1  0  0  0  0
 14 38  1  0  0  0  0
 14 39  1  0  0  0  0
 15 16  1  0  0  0  0
 15 17  1  0  0  0  0
 15 40  1  0  0  0  0
 16 41  1  0  0  0  0
 17 18  1  0  0  0  0
 17 42  1  0  0  0  0
 17 43  1  0  0  0  0
 18 19  1  0  0  0  0
 18 44  1  0  0  0  0
 19 45  1  0  0  0  0
 19 46  1  0  0  0  0
 20 21  1  0  0  0  0
 21 22  2  0  0  0  0
 21 47  1  0  0  0  0
 22 23  1  0  0  0  0
 24 25  1  0  0  0  0
 24 48  1  0  0  0  0
 24 49  1  0  0  0  0
 25 26  1  0  0  0  0
 26 50  1  0  0  0  0
 26 51  1  0  0  0  0
M  END
> <s_m_source_file>
AV-unprocessed.smi

> <i_m_source_file_index>
86

> <i_lp_mmshare_version>
43012

> <i_f3d_flags>
0

> <s_epik_input>
W0NIMl0xT1tDSDJdQzEoW0NIMl1bT0hdKVtDSDJdbihbY0hdbjIpYyhjMjMpbltjSF1uYzNOKFtDSDJdNClbQ0gyXVtDQEBIXShbQ0BIXTQ1KVtDSDJdW0NASF0oW09IXSlbQ0gyXVtDSDJdNQ==

> <s_epik_cmdline>
J2VwaWtfcHl0aG9uJywgJy1waCcsICc3LjAnLCAnLXRuJywgJzgnLCAnLW1hJywgJzIwMCcsICctbWV0YWxfYmluZGluZycsICctaW1hZScsICc8aW5maWxlLm1hZT4nLCAnLW9tYWUnLCAnPG91dGZpbGUubWFlPic=

> <r_lp_tautomer_probability>
1

> <r_epik_Ionization_Penalty>
0.00425795

> <r_epik_Ionization_Penalty_Charging>
0

> <r_epik_Ionization_Penalty_Neutral>
0.00425795

> <r_epik_State_Penalty>
0.00299946

> <r_epik_Charging_Adjusted_Penalty>
0.00299946

> <i_epik_Tot_Q>
0

> <i_epik_Tot_abs_Q>
0

> <r_epik_Metal_State_Penalty>
-0

> <b_epik_Metal_Only>
0

> <s_lp_Force_Field>
OPLS_2005

> <r_lp_Energy>
55.8457

> <b_lp_Chiralities_Consistent>
1

> <s_lp_Variant>
AV-unprocessed.smi:86-6

> <Gold.Version>
5.8.1

> <Gold.Id.Protein>
6NUR|6NUR_protein|mol2

> <Gold.PLP.Fitness>
54.6968

> <Gold.PLP.PLP>
-51.0806

> <Gold.PLP.part.hbond>
-3.6098

> <Gold.PLP.part.metal>
0.0000

> <Gold.PLP.part.buried>
-6.2714

> <Gold.PLP.part.nonpolar>
-42.0900

> <Gold.PLP.part.repulsive>
1.4988

> <Gold.PLP.ligand.clash>
0.0000

> <Gold.PLP.ligand.torsion>
0.9237

> <Gold.PLP.Chemscore.Hbond>
1.6560

> <Gold.PLP.Chemscore.CHOScore>
0.0000

> <Gold.PLP.Chemscore.Metal>
0.0000

> <Gold.Chemscore.Hbonds>
donor molecule, donor type, donor heavy atom, donor atom, acceptor molecule, acceptor atom, score
      L1  H     1    27       P1 10171  0.94
      P1  H  6933  6945       L1    16  0.59

> <Gold.PLP.Chemscore.Internal.Correction>
0.4956

> <Gold.Rescore>
     Score         DG    S(hbond)    S(metal)    S(lipo)     H(rot)  DE(clash)    DE(int)     intcor
     10.98     -16.43       1.58        0.00     108.84       2.76       2.67       2.78       ----

> <Gold.Chemscore.Fitness>
10.9835

> <Gold.Chemscore.DG>
-16.4317

> <Gold.Chemscore.ZeroCoef>
-5.4800

> <Gold.Chemscore.Hbond>
1.5841

> <Gold.Chemscore.Metal>
0.0000

> <Gold.Chemscore.Lipo>
108.8407

> <Gold.Chemscore.Internal_Hbond>
0.0000

> <Gold.Chemscore.DEClash>
2.6724

> <Gold.Chemscore.DEInternal>
2.7759

> <Gold.Chemscore.Rot>
2.7630

> <Gold.Chemscore.Internal.Correction>
   9.000000E+99

> <Gold.Chemscore.Hbonds>
donor molecule, donor type, donor heavy atom, donor atom, acceptor molecule, acceptor atom, score
      L1  H     1    27       P1 10171  0.86
      P1  H  6933  6945       L1    16  0.44

> <Gold.Chemscore.Hbond.Weighted>
-5.2907

> <Gold.Chemscore.Metal.Weighted>
-0.0000

> <Gold.Chemscore.Lipo.Weighted>
-12.7344

> <Gold.Chemscore.Internal_Hbond.Weighted>
0.0000

> <Gold.Chemscore.DEClash.Weighted>
2.6724

> <Gold.Chemscore.DEInternal.Weighted>
2.7759

> <Gold.Chemscore.Rot.Weighted>
7.0734

> <Gold.Chemscore.Internal.Correction.Weighted>
   9.000000E+99

> <Gold.Protein.RotatedTorsions>
[ 6907 6896 6895 6894 ] final -105.39 input  -60.11 | X-H torsion
[ 7974 7965 7964 7962 ] final  -54.93 input  175.53 | X-H torsion
[ 8008 7997 7996 7995 ] final   75.09 input   59.86 | X-H torsion
[ 10167 10162 10161 10158 ] final  104.75 input  -65.29 | X-H torsion
[ 10718 10713 10712 10709 ] final -163.27 input   66.30 | X-H torsion
[ 10763 10752 10751 10750 ] final  142.76 input  -60.55 | X-H torsion
[ 11005 11000 10999 10996 ] final  158.14 input  -57.11 | X-H torsion

> <Gold.Protein.ActiveResidues>
 VAL166  LYS551  ARG553  GLY616  TRP617  ASP618  TYR619  PRO620  LYS621  CYS622 
 ASP623  PHE694  ASN695  SER759  ASP760  ASP761  ALA762  ILE779  LEU786  VAL792 
 PHE793  MET794  SER795  GLU796  ALA797  LYS798  CYS799  TRP800  GLU811  SER814 

> <Gold.Protein.RotatedAtoms>
  150.7334  134.0134  159.3676 H   0  0  0  0  0  0  0  0  0  0  0  0  # atno 6907 bound_to 6896
  151.8095  135.0683  160.0420 H   0  0  0  0  0  0  0  0  0  0  0  0  # atno 6908 bound_to 6896
  152.3083  133.5690  159.5700 H   0  0  0  0  0  0  0  0  0  0  0  0  # atno 6909 bound_to 6896
  145.8800  140.8151  142.9844 H   0  0  0  0  0  0  0  0  0  0  0  0  # atno 7974 bound_to 7965
  155.8078  140.3474  155.5440 H   0  0  0  0  0  0  0  0  0  0  0  0  # atno 8008 bound_to 7997
  155.8471  140.0950  157.1718 H   0  0  0  0  0  0  0  0  0  0  0  0  # atno 8009 bound_to 7997
  154.4006  140.1383  156.3787 H   0  0  0  0  0  0  0  0  0  0  0  0  # atno 8010 bound_to 7997
  139.7150  144.7070  151.0964 H   0  0  0  0  0  0  0  0  0  0  0  0  # atno 10167 bound_to 10162
  156.6224  130.8895  151.2960 H   0  0  0  0  0  0  0  0  0  0  0  0  # atno 10718 bound_to 10713
  153.9612  135.2960  155.3433 H   0  0  0  0  0  0  0  0  0  0  0  0  # atno 10763 bound_to 10752
  154.7374  135.5040  153.9067 H   0  0  0  0  0  0  0  0  0  0  0  0  # atno 10764 bound_to 10752
  153.0946  135.6717  153.9899 H   0  0  0  0  0  0  0  0  0  0  0  0  # atno 10765 bound_to 10752
  140.1837  134.8457  157.2832 H   0  0  0  0  0  0  0  0  0  0  0  0  # atno 11005 bound_to 11000
  144.6727  140.1369  143.7440 LP  0  0  0  0  0  0  0  0  0  0  0  0  # atno 17320 bound_to 7965
  145.9035  139.2444  143.1480 LP  0  0  0  0  0  0  0  0  0  0  0  0  # atno 17321 bound_to 7965
  140.7742  143.5241  150.9501 LP  0  0  0  0  0  0  0  0  0  0  0  0  # atno 17342 bound_to 10162
  139.8927  143.6933  152.3143 LP  0  0  0  0  0  0  0  0  0  0  0  0  # atno 17343 bound_to 10162
  157.7224  130.9576  150.1492 LP  0  0  0  0  0  0  0  0  0  0  0  0  # atno 17370 bound_to 10713
  156.2301  130.3681  149.8455 LP  0  0  0  0  0  0  0  0  0  0  0  0  # atno 17371 bound_to 10713
  140.2238  134.3991  155.7553 LP  0  0  0  0  0  0  0  0  0  0  0  0  # atno 17394 bound_to 11000
  141.2224  133.7179  156.8533 LP  0  0  0  0  0  0  0  0  0  0  0  0  # atno 17395 bound_to 11000

$$$$
