AV-unprocessed.smi:2902|AV-procd|sdf|11154|dock4
  -GOLD-   2272016 33D 1   1.00000     0.00000
 Structure written by MMmdl.
 47 48  0  0  0  0  0  0  0  0  1 V2000
  143.5710  136.9386  154.2685 C   0  0  0  0  0  0  0  0  0  0  0  0
  144.7842  136.0174  154.4474 C   0  0  0  0  0  0  0  0  0  0  0  0
  145.9281  136.3395  153.4682 C   0  0  1  0  0  0  0  0  0  0  0  0
  145.4257  136.1757  152.1420 O   0  0  0  0  0  0  0  0  0  0  0  0
  144.7739  134.9421  151.8520 C   0  0  0  0  0  0  0  0  0  0  0  0
  145.7286  133.7479  151.9936 C   0  0  0  0  0  0  0  0  0  0  0  0
  145.3385  132.7489  150.8929 C   0  0  0  0  0  0  0  0  0  0  0  0
  144.2071  133.4073  150.0957 C   0  0  0  0  0  0  0  0  0  0  0  0
  144.3387  134.9002  150.3890 C   0  0  0  0  0  0  0  0  0  0  0  0
  146.4562  137.7681  153.6803 C   0  0  0  0  0  0  0  0  0  0  0  0
  145.9743  138.4882  154.5550 O   0  0  0  0  0  0  0  0  0  0  0  0
  147.4338  138.1648  152.8516 N   0  0  0  0  0  0  0  0  0  0  0  0
  148.0454  139.4924  152.8189 C   0  0  1  0  0  0  0  0  0  0  0  0
  146.9520  140.5402  152.5366 C   0  0  0  0  0  0  0  0  0  0  0  0
  148.8031  139.7483  154.1484 C   0  0  2  0  0  0  0  0  0  0  0  0
  149.2012  141.2223  154.3506 C   0  0  0  0  0  0  0  0  0  0  0  0
  149.9873  138.9027  154.2494 N   0  0  0  0  0  0  0  0  0  0  0  0
  150.1277  137.5783  154.1499 C   0  0  0  0  0  0  0  0  0  0  0  0
  151.3725  137.1561  154.3191 N   0  0  0  0  0  0  0  0  0  0  0  0
  151.9898  138.3522  154.5499 C   0  0  0  0  0  0  0  0  0  0  0  0
  151.2052  139.4294  154.5233 N   0  0  0  0  0  0  0  0  0  0  0  0
  142.7763  136.6730  154.9658 H   0  0  0  0  0  0  0  0  0  0  0  0
  143.1660  136.8653  153.2591 H   0  0  0  0  0  0  0  0  0  0  0  0
  143.8359  137.9806  154.4491 H   0  0  0  0  0  0  0  0  0  0  0  0
  145.1423  136.0909  155.4753 H   0  0  0  0  0  0  0  0  0  0  0  0
  144.4603  134.9847  154.3090 H   0  0  0  0  0  0  0  0  0  0  0  0
  146.7396  135.6268  153.6303 H   0  0  0  0  0  0  0  0  0  0  0  0
  143.8882  134.7901  152.4721 H   0  0  0  0  0  0  0  0  0  0  0  0
  146.7586  134.0719  151.8384 H   0  0  0  0  0  0  0  0  0  0  0  0
  145.6766  133.3064  152.9889 H   0  0  0  0  0  0  0  0  0  0  0  0
  146.1960  132.5609  150.2456 H   0  0  0  0  0  0  0  0  0  0  0  0
  145.0272  131.7885  151.3039 H   0  0  0  0  0  0  0  0  0  0  0  0
  144.2599  133.1831  149.0301 H   0  0  0  0  0  0  0  0  0  0  0  0
  143.2448  133.0477  150.4627 H   0  0  0  0  0  0  0  0  0  0  0  0
  143.4143  135.4502  150.2098 H   0  0  0  0  0  0  0  0  0  0  0  0
  145.1144  135.3318  149.7546 H   0  0  0  0  0  0  0  0  0  0  0  0
  147.7579  137.5029  152.1610 H   0  0  0  0  0  0  0  0  0  0  0  0
  148.7695  139.5256  152.0025 H   0  0  0  0  0  0  0  0  0  0  0  0
  147.3755  141.5331  152.3879 H   0  0  0  0  0  0  0  0  0  0  0  0
  146.2373  140.5992  153.3581 H   0  0  0  0  0  0  0  0  0  0  0  0
  146.3952  140.2970  151.6311 H   0  0  0  0  0  0  0  0  0  0  0  0
  148.1402  139.4798  154.9733 H   0  0  0  0  0  0  0  0  0  0  0  0
  148.3270  141.8648  154.4518 H   0  0  0  0  0  0  0  0  0  0  0  0
  149.7948  141.5949  153.5154 H   0  0  0  0  0  0  0  0  0  0  0  0
  149.7915  141.3455  155.2595 H   0  0  0  0  0  0  0  0  0  0  0  0
  149.3030  136.9095  153.9517 H   0  0  0  0  0  0  0  0  0  0  0  0
  153.0486  138.4312  154.7482 H   0  0  0  0  0  0  0  0  0  0  0  0
  1  2  1  0  0  0  0
  1 22  1  0  0  0  0
  1 23  1  0  0  0  0
  1 24  1  0  0  0  0
  2  3  1  0  0  0  0
  2 25  1  0  0  0  0
  2 26  1  0  0  0  0
  3  4  1  0  0  0  0
  3 10  1  0  0  0  0
  3 27  1  0  0  0  0
  4  5  1  0  0  0  0
  5  9  1  0  0  0  0
  5  6  1  0  0  0  0
  5 28  1  0  0  0  0
  6  7  1  0  0  0  0
  6 29  1  0  0  0  0
  6 30  1  0  0  0  0
  7  8  1  0  0  0  0
  7 31  1  0  0  0  0
  7 32  1  0  0  0  0
  8  9  1  0  0  0  0
  8 33  1  0  0  0  0
  8 34  1  0  0  0  0
  9 35  1  0  0  0  0
  9 36  1  0  0  0  0
 10 11  2  0  0  0  0
 10 12  1  0  0  0  0
 12 13  1  0  0  0  0
 12 37  1  0  0  0  0
 13 14  1  0  0  0  0
 13 15  1  0  0  0  0
 13 38  1  0  0  0  0
 14 39  1  0  0  0  0
 14 40  1  0  0  0  0
 14 41  1  0  0  0  0
 15 16  1  0  0  0  0
 15 17  1  0  0  0  0
 15 42  1  0  0  0  0
 16 43  1  0  0  0  0
 16 44  1  0  0  0  0
 16 45  1  0  0  0  0
 17 21  1  0  0  0  0
 17 18  1  0  0  0  0
 18 19  2  0  0  0  0
 18 46  1  0  0  0  0
 19 20  1  0  0  0  0
 20 21  2  0  0  0  0
 20 47  1  0  0  0  0
M  END
> <s_m_source_file>
AV-unprocessed.smi

> <i_m_source_file_index>
2902

> <i_lp_mmshare_version>
43012

> <i_f3d_flags>
0

> <s_epik_input>
W0NIMl0xW0NIMl1bQ0gyXVtDSDJdW0NIXTFPW0NAQEhdKFtDSDJdW0NIM10pQyg9TylbTkhdW0NASF0oW0NIM10pW0NASF0oW0NIM10pbjJbY0hdbltjSF1uMg==

> <s_epik_cmdline>
J2VwaWtfcHl0aG9uJywgJy1waCcsICc3LjAnLCAnLXRuJywgJzgnLCAnLW1hJywgJzIwMCcsICctbWV0YWxfYmluZGluZycsICctaW1hZScsICc8aW5maWxlLm1hZT4nLCAnLW9tYWUnLCAnPG91dGZpbGUubWFlPic=

> <r_lp_tautomer_probability>
1

> <r_epik_Ionization_Penalty>
6.95617e-05

> <r_epik_Ionization_Penalty_Charging>
0

> <r_epik_Ionization_Penalty_Neutral>
6.95617e-05

> <r_epik_State_Penalty>
-0

> <r_epik_Charging_Adjusted_Penalty>
0

> <i_epik_Tot_Q>
0

> <i_epik_Tot_abs_Q>
0

> <r_epik_Metal_State_Penalty>
-0

> <b_epik_Metal_Only>
0

> <s_lp_Force_Field>
OPLS_2005

> <r_lp_Energy>
29.0587

> <b_lp_Chiralities_Consistent>
1

> <s_lp_Variant>
AV-unprocessed.smi:2902-4

> <Gold.Version>
5.8.1

> <Gold.Id.Protein>
6NUR|6NUR_protein|mol2

> <Gold.PLP.Fitness>
44.4714

> <Gold.PLP.PLP>
-32.9974

> <Gold.PLP.part.hbond>
-3.1528

> <Gold.PLP.part.metal>
0.0000

> <Gold.PLP.part.buried>
-1.9121

> <Gold.PLP.part.nonpolar>
-29.6569

> <Gold.PLP.part.repulsive>
0.4621

> <Gold.PLP.ligand.clash>
0.0000

> <Gold.PLP.ligand.torsion>
0.2465

> <Gold.PLP.Chemscore.Hbond>
2.9516

> <Gold.PLP.Chemscore.CHOScore>
0.9698

> <Gold.PLP.Chemscore.Metal>
0.0000

> <Gold.Chemscore.Hbonds>
donor molecule, donor type, donor heavy atom, donor atom, acceptor molecule, acceptor atom, score
      L1  H    12    37       P1  7948  0.90
      P1  H  7989  7998       L1    21  1.00
      P1  H 10752 10764       L1    19  0.67
      L1  C    18    46       P1  7948  0.75

> <Gold.PLP.Chemscore.Internal.Correction>
0.2028

> <Gold.Rescore>
     Score         DG    S(hbond)    S(metal)    S(lipo)     H(rot)  DE(clash)    DE(int)     intcor
     10.75     -14.75       2.71        0.00      60.69       2.69       1.47       2.53       ----

> <Gold.Chemscore.Fitness>
10.7523

> <Gold.Chemscore.DG>
-14.7535

> <Gold.Chemscore.ZeroCoef>
-5.4800

> <Gold.Chemscore.Hbond>
2.7148

> <Gold.Chemscore.Metal>
0.0000

> <Gold.Chemscore.Lipo>
60.6946

> <Gold.Chemscore.Internal_Hbond>
0.0000

> <Gold.Chemscore.DEClash>
1.4738

> <Gold.Chemscore.DEInternal>
2.5275

> <Gold.Chemscore.Rot>
2.6935

> <Gold.Chemscore.Internal.Correction>
   9.000000E+99

> <Gold.Chemscore.Hbonds>
donor molecule, donor type, donor heavy atom, donor atom, acceptor molecule, acceptor atom, score
      L1  H    12    37       P1  7948  0.87
      P1  H  7989  7998       L1    21  0.86
      P1  H 10752 10764       L1    19  0.37

> <Gold.Chemscore.Hbond.Weighted>
-9.0676

> <Gold.Chemscore.Metal.Weighted>
-0.0000

> <Gold.Chemscore.Lipo.Weighted>
-7.1013

> <Gold.Chemscore.Internal_Hbond.Weighted>
0.0000

> <Gold.Chemscore.DEClash.Weighted>
1.4738

> <Gold.Chemscore.DEInternal.Weighted>
2.5275

> <Gold.Chemscore.Rot.Weighted>
6.8954

> <Gold.Chemscore.Internal.Correction.Weighted>
   9.000000E+99

> <Gold.Protein.RotatedTorsions>
[ 6907 6896 6895 6894 ] final  146.52 input  -60.11 | X-H torsion
[ 7974 7965 7964 7962 ] final  176.96 input  175.53 | X-H torsion
[ 8008 7997 7996 7995 ] final -171.36 input   59.86 | X-H torsion
[ 10167 10162 10161 10158 ] final -138.84 input  -65.29 | X-H torsion
[ 10718 10713 10712 10709 ] final  -59.18 input   66.30 | X-H torsion
[ 10763 10752 10751 10750 ] final  -81.45 input  -60.55 | X-H torsion
[ 11005 11000 10999 10996 ] final    9.77 input  -57.11 | X-H torsion

> <Gold.Protein.ActiveResidues>
 VAL166  LYS551  ARG553  GLY616  TRP617  ASP618  TYR619  PRO620  LYS621  CYS622 
 ASP623  PHE694  ASN695  SER759  ASP760  ASP761  ALA762  ILE779  LEU786  VAL792 
 PHE793  MET794  SER795  GLU796  ALA797  LYS798  CYS799  TRP800  GLU811  SER814 

> <Gold.Protein.RotatedAtoms>
  152.1669  133.4618  159.4888 H   0  0  0  0  0  0  0  0  0  0  0  0  # atno 6907 bound_to 6896
  150.6914  134.2002  159.4328 H   0  0  0  0  0  0  0  0  0  0  0  0  # atno 6908 bound_to 6896
  151.9907  134.9980  160.0612 H   0  0  0  0  0  0  0  0  0  0  0  0  # atno 6909 bound_to 6896
  144.7176  140.0175  143.6440 H   0  0  0  0  0  0  0  0  0  0  0  0  # atno 7974 bound_to 7965
  155.9305  140.1090  157.1136 H   0  0  0  0  0  0  0  0  0  0  0  0  # atno 8008 bound_to 7997
  154.4070  140.1238  156.4861 H   0  0  0  0  0  0  0  0  0  0  0  0  # atno 8009 bound_to 7997
  155.7086  140.3471  155.4966 H   0  0  0  0  0  0  0  0  0  0  0  0  # atno 8010 bound_to 7997
  139.8439  143.7286  152.2662 H   0  0  0  0  0  0  0  0  0  0  0  0  # atno 10167 bound_to 10162
  156.1081  130.4178  150.0679 H   0  0  0  0  0  0  0  0  0  0  0  0  # atno 10718 bound_to 10713
  154.5637  135.5626  153.7030 H   0  0  0  0  0  0  0  0  0  0  0  0  # atno 10763 bound_to 10752
  153.0026  135.6280  154.2210 H   0  0  0  0  0  0  0  0  0  0  0  0  # atno 10764 bound_to 10752
  154.2148  135.2872  155.2925 H   0  0  0  0  0  0  0  0  0  0  0  0  # atno 10765 bound_to 10752
  140.5220  134.0549  155.7847 H   0  0  0  0  0  0  0  0  0  0  0  0  # atno 11005 bound_to 11000
  146.0207  139.3249  143.0814 LP  0  0  0  0  0  0  0  0  0  0  0  0  # atno 17320 bound_to 7965
  145.8571  140.9496  143.0719 LP  0  0  0  0  0  0  0  0  0  0  0  0  # atno 17321 bound_to 7965
  139.7532  144.7528  151.0475 LP  0  0  0  0  0  0  0  0  0  0  0  0  # atno 17342 bound_to 10162
  140.7795  143.4836  150.9986 LP  0  0  0  0  0  0  0  0  0  0  0  0  # atno 17343 bound_to 10162
  156.8649  130.9504  151.3614 LP  0  0  0  0  0  0  0  0  0  0  0  0  # atno 17370 bound_to 10713
  157.6259  130.8691  149.9189 LP  0  0  0  0  0  0  0  0  0  0  0  0  # atno 17371 bound_to 10713
  141.1329  133.9272  157.2497 LP  0  0  0  0  0  0  0  0  0  0  0  0  # atno 17394 bound_to 11000
  139.9600  135.0156  156.9236 LP  0  0  0  0  0  0  0  0  0  0  0  0  # atno 17395 bound_to 11000

$$$$
