AV-unprocessed.smi:1102|AV-procd|sdf|4770|dock9
  -GOLD-   22720 3313D 1   1.00000     0.00000
 Structure written by MMmdl.
 39 40  0  0  0  0  0  0  0  0  1 V2000
  151.9040  145.1938  160.0644 C   0  0  0  0  0  0  0  0  0  0  0  0
  152.0665  144.2122  158.9991 N   0  0  0  0  0  0  0  0  0  0  0  0
  151.7366  144.5717  157.6237 C   0  0  0  0  0  0  0  0  0  0  0  0
  152.4617  142.8897  159.3050 C   0  0  0  0  0  0  0  0  0  0  0  0
  151.9838  141.7837  158.5589 C   0  0  0  0  0  0  0  0  0  0  0  0
  152.4073  140.4849  158.9004 C   0  0  0  0  0  0  0  0  0  0  0  0
  153.3074  140.3174  159.9775 C   0  0  0  0  0  0  0  0  0  0  0  0
  153.7932  139.0612  160.4306 N   0  0  0  0  0  0  0  0  0  0  0  0
  154.5667  138.7974  161.4976 C   0  0  0  0  0  0  0  0  0  0  0  0
  154.9768  139.6311  162.3051 O   0  0  0  0  0  0  0  0  0  0  0  0
  154.8305  137.4868  161.5915 N   0  0  0  0  0  0  0  0  0  0  0  0
  155.6416  136.8685  162.6341 C   0  0  0  0  0  0  0  0  0  0  0  0
  154.8953  135.7131  163.3215 C   0  0  1  0  0  0  0  0  0  0  0  0
  154.8839  134.4163  162.5145 C   0  0  0  0  0  0  0  0  0  0  0  0
  154.7344  133.3353  163.5748 C   0  0  0  0  0  0  0  0  0  0  0  0
  155.0266  134.0587  164.8927 C   0  0  0  0  0  0  0  0  0  0  0  0
  155.5584  135.3197  164.5125 O   0  0  0  0  0  0  0  0  0  0  0  0
  153.7156  141.4735  160.6702 C   0  0  0  0  0  0  0  0  0  0  0  0
  153.3131  142.7196  160.3459 N   0  0  0  0  0  0  0  0  0  0  0  0
  152.8548  145.3756  160.5662 H   0  0  0  0  0  0  0  0  0  0  0  0
  151.1800  144.8447  160.8013 H   0  0  0  0  0  0  0  0  0  0  0  0
  151.5469  146.1473  159.6748 H   0  0  0  0  0  0  0  0  0  0  0  0
  152.5813  144.3763  156.9623 H   0  0  0  0  0  0  0  0  0  0  0  0
  151.4860  145.6289  157.5376 H   0  0  0  0  0  0  0  0  0  0  0  0
  150.8807  143.9947  157.2727 H   0  0  0  0  0  0  0  0  0  0  0  0
  151.2968  141.9031  157.7350 H   0  0  0  0  0  0  0  0  0  0  0  0
  152.0218  139.6485  158.3392 H   0  0  0  0  0  0  0  0  0  0  0  0
  153.4710  138.2598  159.9081 H   0  0  0  0  0  0  0  0  0  0  0  0
  154.4531  136.8718  160.8855 H   0  0  0  0  0  0  0  0  0  0  0  0
  156.5803  136.5110  162.2076 H   0  0  0  0  0  0  0  0  0  0  0  0
  155.9049  137.6338  163.3645 H   0  0  0  0  0  0  0  0  0  0  0  0
  153.8703  136.0020  163.5624 H   0  0  0  0  0  0  0  0  0  0  0  0
  154.0880  134.3942  161.7696 H   0  0  0  0  0  0  0  0  0  0  0  0
  155.8339  134.2857  161.9945 H   0  0  0  0  0  0  0  0  0  0  0  0
  153.7285  132.9141  163.5808 H   0  0  0  0  0  0  0  0  0  0  0  0
  155.4380  132.5212  163.3984 H   0  0  0  0  0  0  0  0  0  0  0  0
  154.1059  134.2146  165.4568 H   0  0  0  0  0  0  0  0  0  0  0  0
  155.7252  133.5118  165.5262 H   0  0  0  0  0  0  0  0  0  0  0  0
  154.3910  141.4001  161.5102 H   0  0  0  0  0  0  0  0  0  0  0  0
  1  2  1  0  0  0  0
  1 20  1  0  0  0  0
  1 21  1  0  0  0  0
  1 22  1  0  0  0  0
  2  3  1  0  0  0  0
  2  4  1  0  0  0  0
  3 23  1  0  0  0  0
  3 24  1  0  0  0  0
  3 25  1  0  0  0  0
  4 19  1  0  0  0  0
  4  5  2  0  0  0  0
  5  6  1  0  0  0  0
  5 26  1  0  0  0  0
  6  7  2  0  0  0  0
  6 27  1  0  0  0  0
  7  8  1  0  0  0  0
  7 18  1  0  0  0  0
  8  9  1  0  0  0  0
  8 28  1  0  0  0  0
  9 10  2  0  0  0  0
  9 11  1  0  0  0  0
 11 12  1  0  0  0  0
 11 29  1  0  0  0  0
 12 13  1  0  0  0  0
 12 30  1  0  0  0  0
 12 31  1  0  0  0  0
 13 17  1  0  0  0  0
 13 14  1  0  0  0  0
 13 32  1  0  0  0  0
 14 15  1  0  0  0  0
 14 33  1  0  0  0  0
 14 34  1  0  0  0  0
 15 16  1  0  0  0  0
 15 35  1  0  0  0  0
 15 36  1  0  0  0  0
 16 17  1  0  0  0  0
 16 37  1  0  0  0  0
 16 38  1  0  0  0  0
 18 19  2  0  0  0  0
 18 39  1  0  0  0  0
M  END
> <s_m_source_file>
AV-unprocessed.smi

> <i_m_source_file_index>
1102

> <i_lp_mmshare_version>
43012

> <i_f3d_flags>
0

> <s_epik_input>
W0NIM11OKFtDSDNdKWMxW2NIXVtjSF1jKFtjSF1uMSlbTkhdQyg9TylbTkhdW0NIMl1bQ0BASF0yW0NIMl1bQ0gyXVtDSDJdTzI=

> <s_epik_cmdline>
J2VwaWtfcHl0aG9uJywgJy1waCcsICc3LjAnLCAnLXRuJywgJzgnLCAnLW1hJywgJzIwMCcsICctbWV0YWxfYmluZGluZycsICctaW1hZScsICc8aW5maWxlLm1hZT4nLCAnLW9tYWUnLCAnPG91dGZpbGUubWFlPic=

> <r_lp_tautomer_probability>
1

> <r_epik_Ionization_Penalty>
0.605145

> <r_epik_Ionization_Penalty_Charging>
0

> <r_epik_Ionization_Penalty_Neutral>
0.605145

> <r_epik_State_Penalty>
0.618734

> <r_epik_Charging_Adjusted_Penalty>
0.618734

> <i_epik_Tot_Q>
0

> <i_epik_Tot_abs_Q>
0

> <r_epik_Metal_State_Penalty>
0.302184

> <b_epik_Metal_Only>
0

> <s_lp_Force_Field>
OPLS_2005

> <r_lp_Energy>
20.895

> <b_lp_Chiralities_Consistent>
1

> <s_lp_Variant>
AV-unprocessed.smi:1102-4

> <Gold.Version>
5.8.1

> <Gold.Id.Protein>
6NUR|6NUR_protein|mol2

> <Gold.PLP.Fitness>
38.1279

> <Gold.PLP.PLP>
-39.2562

> <Gold.PLP.part.hbond>
0.0000

> <Gold.PLP.part.metal>
0.0000

> <Gold.PLP.part.buried>
-5.8407

> <Gold.PLP.part.nonpolar>
-33.8268

> <Gold.PLP.part.repulsive>
0.1497

> <Gold.PLP.ligand.clash>
0.0000

> <Gold.PLP.ligand.torsion>
0.5704

> <Gold.PLP.Chemscore.Hbond>
0.0000

> <Gold.PLP.Chemscore.CHOScore>
0.0000

> <Gold.PLP.Chemscore.Metal>
0.0000

> <Gold.PLP.Chemscore.Internal.Correction>
0.0126

> <Gold.Rescore>
     Score         DG    S(hbond)    S(metal)    S(lipo)     H(rot)  DE(clash)    DE(int)     intcor
     11.21     -13.55       0.00        0.00      95.55       1.21       0.19       2.16       ----

> <Gold.Chemscore.Fitness>
11.2058

> <Gold.Chemscore.DG>
-13.5500

> <Gold.Chemscore.ZeroCoef>
-5.4800

> <Gold.Chemscore.Hbond>
0.0000

> <Gold.Chemscore.Metal>
0.0000

> <Gold.Chemscore.Lipo>
95.5503

> <Gold.Chemscore.Internal_Hbond>
0.0000

> <Gold.Chemscore.DEClash>
0.1884

> <Gold.Chemscore.DEInternal>
2.1558

> <Gold.Chemscore.Rot>
1.2146

> <Gold.Chemscore.Internal.Correction>
   9.000000E+99

> <Gold.Chemscore.Hbond.Weighted>
-0.0000

> <Gold.Chemscore.Metal.Weighted>
-0.0000

> <Gold.Chemscore.Lipo.Weighted>
-11.1794

> <Gold.Chemscore.Internal_Hbond.Weighted>
0.0000

> <Gold.Chemscore.DEClash.Weighted>
0.1884

> <Gold.Chemscore.DEInternal.Weighted>
2.1558

> <Gold.Chemscore.Rot.Weighted>
3.1093

> <Gold.Chemscore.Internal.Correction.Weighted>
   9.000000E+99

> <Gold.Protein.RotatedTorsions>
[ 6907 6896 6895 6894 ] final   53.99 input  -60.11 | X-H torsion
[ 7974 7965 7964 7962 ] final   90.41 input  175.53 | X-H torsion
[ 8008 7997 7996 7995 ] final  164.06 input   59.86 | X-H torsion
[ 10167 10162 10161 10158 ] final  173.34 input  -65.29 | X-H torsion
[ 10718 10713 10712 10709 ] final -154.11 input   66.30 | X-H torsion
[ 10763 10752 10751 10750 ] final   68.62 input  -60.55 | X-H torsion
[ 11005 11000 10999 10996 ] final   22.77 input  -57.11 | X-H torsion

> <Gold.Protein.ActiveResidues>
 VAL166  LYS551  ARG553  GLY616  TRP617  ASP618  TYR619  PRO620  LYS621  CYS622 
 ASP623  PHE694  ASN695  SER759  ASP760  ASP761  ALA762  ILE779  LEU786  VAL792 
 PHE793  MET794  SER795  GLU796  ALA797  LYS798  CYS799  TRP800  GLU811  SER814 

> <Gold.Protein.RotatedAtoms>
  152.3394  134.7155  160.0267 H   0  0  0  0  0  0  0  0  0  0  0  0  # atno 6907 bound_to 6896
  151.7546  133.3324  159.3409 H   0  0  0  0  0  0  0  0  0  0  0  0  # atno 6908 bound_to 6896
  150.7470  134.6094  159.6122 H   0  0  0  0  0  0  0  0  0  0  0  0  # atno 6909 bound_to 6896
  145.5193  139.2279  143.2680 H   0  0  0  0  0  0  0  0  0  0  0  0  # atno 7974 bound_to 7965
  156.1909  140.1707  156.8093 H   0  0  0  0  0  0  0  0  0  0  0  0  # atno 8008 bound_to 7997
  154.5470  140.0725  156.8637 H   0  0  0  0  0  0  0  0  0  0  0  0  # atno 8009 bound_to 7997
  155.3102  140.3367  155.4246 H   0  0  0  0  0  0  0  0  0  0  0  0  # atno 8010 bound_to 7997
  139.5105  144.3271  152.0147 H   0  0  0  0  0  0  0  0  0  0  0  0  # atno 10167 bound_to 10162
  156.4949  130.8364  151.2585 H   0  0  0  0  0  0  0  0  0  0  0  0  # atno 10718 bound_to 10713
  153.0244  135.5241  154.7162 H   0  0  0  0  0  0  0  0  0  0  0  0  # atno 10763 bound_to 10752
  154.6230  135.2891  155.0306 H   0  0  0  0  0  0  0  0  0  0  0  0  # atno 10764 bound_to 10752
  154.1286  135.6596  153.4970 H   0  0  0  0  0  0  0  0  0  0  0  0  # atno 10765 bound_to 10752
  140.3769  134.1962  155.7664 H   0  0  0  0  0  0  0  0  0  0  0  0  # atno 11005 bound_to 11000
  146.2116  140.6005  142.9057 LP  0  0  0  0  0  0  0  0  0  0  0  0  # atno 17320 bound_to 7965
  144.7684  140.5583  143.6687 LP  0  0  0  0  0  0  0  0  0  0  0  0  # atno 17321 bound_to 7965
  140.2712  144.3962  150.6151 LP  0  0  0  0  0  0  0  0  0  0  0  0  # atno 17342 bound_to 10162
  140.6087  143.2168  151.6929 LP  0  0  0  0  0  0  0  0  0  0  0  0  # atno 17343 bound_to 10162
  157.7469  131.0001  150.2914 LP  0  0  0  0  0  0  0  0  0  0  0  0  # atno 17370 bound_to 10713
  156.3390  130.3812  149.7425 LP  0  0  0  0  0  0  0  0  0  0  0  0  # atno 17371 bound_to 10713
  141.1936  133.8146  157.0791 LP  0  0  0  0  0  0  0  0  0  0  0  0  # atno 17394 bound_to 11000
  140.0508  134.9806  157.1133 LP  0  0  0  0  0  0  0  0  0  0  0  0  # atno 17395 bound_to 11000

$$$$
