AV-unprocessed.smi:1752|AV-procd|sdf|7060|dock5
  -GOLD-   22720 8273D 1   1.00000     0.00000
 Structure written by MMmdl.
 43 44  0  0  0  0  0  0  0  0  2 V2000
  152.3328  140.2746  158.7582 C   0  0  0  0  0  0  0  0  0  0  0  0
  151.7300  141.3395  157.8326 C   0  0  2  0  0  0  0  0  0  0  0  0
  150.6050  142.1254  158.5392 C   0  0  0  0  0  0  0  0  0  0  0  0
  151.0605  143.3876  159.0945 N   0  0  0  0  0  0  0  0  0  0  0  0
  150.9124  144.6567  158.5756 C   0  0  0  0  0  0  0  0  0  0  0  0
  151.5064  145.5237  159.4472 C   0  0  0  0  0  0  0  0  0  0  0  0
  151.9914  144.6797  160.4853 C   0  0  0  0  0  0  0  0  0  0  0  0
  151.7197  143.4022  160.2730 N   0  0  0  0  0  0  0  0  0  0  0  0
  151.2293  140.6836  156.6256 N   0  0  0  0  0  0  0  0  0  0  0  0
  151.9072  139.8106  155.8597 C   0  0  0  0  0  0  0  0  0  0  0  0
  153.0709  139.4848  156.0973 O   0  0  0  0  0  0  0  0  0  0  0  0
  151.2096  139.3235  154.8024 N   0  0  0  0  0  0  0  0  0  0  0  0
  149.9158  139.8330  154.3181 C   0  0  0  0  0  0  0  0  0  0  0  0
  148.7541  139.1175  155.0290 C   0  0  0  0  0  0  0  0  0  0  0  0
  148.7771  137.5817  154.8794 C   0  0  0  0  0  0  0  0  0  0  0  0
  149.8861  136.9660  155.6569 N   0  3  1  0  0  0  0  0  0  0  0  0
  149.4890  135.6967  156.3059 C   0  0  0  0  0  0  0  0  0  0  0  0
  151.1658  136.8185  154.9075 C   0  0  0  0  0  0  0  0  0  0  0  0
  151.6223  138.0804  154.1387 C   0  0  0  0  0  0  0  0  0  0  0  0
  152.7544  140.7295  159.6551 H   0  0  0  0  0  0  0  0  0  0  0  0
  153.1346  139.7286  158.2599 H   0  0  0  0  0  0  0  0  0  0  0  0
  151.5810  139.5505  159.0745 H   0  0  0  0  0  0  0  0  0  0  0  0
  152.5353  142.0295  157.5736 H   0  0  0  0  0  0  0  0  0  0  0  0
  149.7826  142.3216  157.8496 H   0  0  0  0  0  0  0  0  0  0  0  0
  150.1894  141.5327  159.3554 H   0  0  0  0  0  0  0  0  0  0  0  0
  150.4062  144.8345  157.6383 H   0  0  0  0  0  0  0  0  0  0  0  0
  151.5822  146.5971  159.3583 H   0  0  0  0  0  0  0  0  0  0  0  0
  152.5276  144.9554  161.3814 H   0  0  0  0  0  0  0  0  0  0  0  0
  150.2837  140.9085  156.3526 H   0  0  0  0  0  0  0  0  0  0  0  0
  149.8245  140.9121  154.4471 H   0  0  0  0  0  0  0  0  0  0  0  0
  149.8278  139.6864  153.2411 H   0  0  0  0  0  0  0  0  0  0  0  0
  148.7467  139.3823  156.0872 H   0  0  0  0  0  0  0  0  0  0  0  0
  147.8165  139.4962  154.6211 H   0  0  0  0  0  0  0  0  0  0  0  0
  147.8233  137.2078  155.2544 H   0  0  0  0  0  0  0  0  0  0  0  0
  148.8238  137.2812  153.8316 H   0  0  0  0  0  0  0  0  0  0  0  0
  149.2182  134.9455  155.5627 H   0  0  0  0  0  0  0  0  0  0  0  0
  148.6352  135.8498  156.9670 H   0  0  0  0  0  0  0  0  0  0  0  0
  150.3051  135.3008  156.9115 H   0  0  0  0  0  0  0  0  0  0  0  0
  151.9383  136.5514  155.6300 H   0  0  0  0  0  0  0  0  0  0  0  0
  151.0943  135.9804  154.2127 H   0  0  0  0  0  0  0  0  0  0  0  0
  151.2147  138.0402  153.1282 H   0  0  0  0  0  0  0  0  0  0  0  0
  152.7039  138.0595  153.9950 H   0  0  0  0  0  0  0  0  0  0  0  0
  150.0752  137.6080  156.4137 H   0  0  0  0  0  0  0  0  0  0  0  0
  1  2  1  0  0  0  0
  1 20  1  0  0  0  0
  1 21  1  0  0  0  0
  1 22  1  0  0  0  0
  2  3  1  0  0  0  0
  2  9  1  0  0  0  0
  2 23  1  0  0  0  0
  3  4  1  0  0  0  0
  3 24  1  0  0  0  0
  3 25  1  0  0  0  0
  4  8  1  0  0  0  0
  4  5  1  0  0  0  0
  5  6  2  0  0  0  0
  5 26  1  0  0  0  0
  6  7  1  0  0  0  0
  6 27  1  0  0  0  0
  7  8  2  0  0  0  0
  7 28  1  0  0  0  0
  9 10  1  0  0  0  0
  9 29  1  0  0  0  0
 10 11  2  0  0  0  0
 10 12  1  0  0  0  0
 12 19  1  0  0  0  0
 12 13  1  0  0  0  0
 13 14  1  0  0  0  0
 13 30  1  0  0  0  0
 13 31  1  0  0  0  0
 14 15  1  0  0  0  0
 14 32  1  0  0  0  0
 14 33  1  0  0  0  0
 15 16  1  0  0  0  0
 15 34  1  0  0  0  0
 15 35  1  0  0  0  0
 16 17  1  0  0  0  0
 16 18  1  0  0  0  0
 16 43  1  0  0  0  0
 17 36  1  0  0  0  0
 17 37  1  0  0  0  0
 17 38  1  0  0  0  0
 18 19  1  0  0  0  0
 18 39  1  0  0  0  0
 18 40  1  0  0  0  0
 19 41  1  0  0  0  0
 19 42  1  0  0  0  0
M  CHG  1  16   1
M  END
> <s_m_source_file>
AV-unprocessed.smi

> <i_m_source_file_index>
1752

> <i_lp_mmshare_version>
43012

> <i_f3d_flags>
0

> <s_epik_input>
bjFbY0hdW2NIXVtjSF1uMVtDSDJdW0NAQEhdKFtDSDNdKVtOSF1DKD1PKU4yW0NIMl1bQ0gyXVtDSDJdTihbQ0gzXSlbQ0gyXVtDSDJdMg==

> <s_epik_cmdline>
J2VwaWtfcHl0aG9uJywgJy1waCcsICc3LjAnLCAnLXRuJywgJzgnLCAnLW1hJywgJzIwMCcsICctbWV0YWxfYmluZGluZycsICctaW1hZScsICc8aW5maWxlLm1hZT4nLCAnLW9tYWUnLCAnPG91dGZpbGUubWFlPic=

> <r_lp_tautomer_probability>
1

> <r_epik_Ionization_Penalty>
0.00208423

> <r_epik_Ionization_Penalty_Charging>
0.00203643

> <r_epik_Ionization_Penalty_Neutral>
4.77939e-05

> <r_epik_State_Penalty>
0.00139278

> <r_epik_Charging_Adjusted_Penalty>
0.00342922

> <i_epik_Tot_Q>
1

> <i_epik_Tot_abs_Q>
1

> <r_epik_Metal_State_Penalty>
-0

> <b_epik_Metal_Only>
0

> <s_lp_Force_Field>
OPLS_2005

> <r_lp_Energy>
39.6128

> <b_lp_Chiralities_Consistent>
1

> <s_lp_Variant>
AV-unprocessed.smi:1752-3

> <Gold.Version>
5.8.1

> <Gold.Id.Protein>
6NUR|6NUR_protein|mol2

> <Gold.PLP.Fitness>
40.2852

> <Gold.PLP.PLP>
-36.2973

> <Gold.PLP.part.hbond>
-1.0000

> <Gold.PLP.part.metal>
0.0000

> <Gold.PLP.part.buried>
-4.1912

> <Gold.PLP.part.nonpolar>
-30.8041

> <Gold.PLP.part.repulsive>
0.1561

> <Gold.PLP.ligand.clash>
0.0000

> <Gold.PLP.ligand.torsion>
0.9867

> <Gold.PLP.Chemscore.Hbond>
1.0000

> <Gold.PLP.Chemscore.CHOScore>
0.9787

> <Gold.PLP.Chemscore.Metal>
0.0000

> <Gold.Chemscore.Hbonds>
donor molecule, donor type, donor heavy atom, donor atom, acceptor molecule, acceptor atom, score
      P1  H  7997  8010       L1    11  0.81
      L1  C     5    26       P1  8028  0.88
      L1  C     5    26       P1  8029  0.10

> <Gold.PLP.Chemscore.Internal.Correction>
0.0253

> <Gold.Rescore>
     Score         DG    S(hbond)    S(metal)    S(lipo)     H(rot)  DE(clash)    DE(int)     intcor
     12.28     -14.95       1.00        0.00      83.38       1.41       0.10       2.58       ----

> <Gold.Chemscore.Fitness>
12.2792

> <Gold.Chemscore.DG>
-14.9535

> <Gold.Chemscore.ZeroCoef>
-5.4800

> <Gold.Chemscore.Hbond>
0.9983

> <Gold.Chemscore.Metal>
0.0000

> <Gold.Chemscore.Lipo>
83.3770

> <Gold.Chemscore.Internal_Hbond>
0.0000

> <Gold.Chemscore.DEClash>
0.0961

> <Gold.Chemscore.DEInternal>
2.5782

> <Gold.Chemscore.Rot>
1.4125

> <Gold.Chemscore.Internal.Correction>
   9.000000E+99

> <Gold.Chemscore.Hbonds>
donor molecule, donor type, donor heavy atom, donor atom, acceptor molecule, acceptor atom, score
      P1  H  7997  8010       L1    11  0.80

> <Gold.Chemscore.Hbond.Weighted>
-3.3344

> <Gold.Chemscore.Metal.Weighted>
-0.0000

> <Gold.Chemscore.Lipo.Weighted>
-9.7551

> <Gold.Chemscore.Internal_Hbond.Weighted>
0.0000

> <Gold.Chemscore.DEClash.Weighted>
0.0961

> <Gold.Chemscore.DEInternal.Weighted>
2.5782

> <Gold.Chemscore.Rot.Weighted>
3.6160

> <Gold.Chemscore.Internal.Correction.Weighted>
   9.000000E+99

> <Gold.Protein.RotatedTorsions>
[ 6907 6896 6895 6894 ] final  153.40 input  -60.11 | X-H torsion
[ 7974 7965 7964 7962 ] final   46.56 input  175.53 | X-H torsion
[ 8008 7997 7996 7995 ] final   69.43 input   59.86 | X-H torsion
[ 10167 10162 10161 10158 ] final   94.34 input  -65.29 | X-H torsion
[ 10718 10713 10712 10709 ] final  -23.90 input   66.30 | X-H torsion
[ 10763 10752 10751 10750 ] final  102.95 input  -60.55 | X-H torsion
[ 11005 11000 10999 10996 ] final -134.36 input  -57.11 | X-H torsion

> <Gold.Protein.ActiveResidues>
 VAL166  LYS551  ARG553  GLY616  TRP617  ASP618  TYR619  PRO620  LYS621  CYS622 
 ASP623  PHE694  ASN695  SER759  ASP760  ASP761  ALA762  ILE779  LEU786  VAL792 
 PHE793  MET794  SER795  GLU796  ALA797  LYS798  CYS799  TRP800  GLU811  SER814 

> <Gold.Protein.RotatedAtoms>
  152.0732  133.4117  159.4468 H   0  0  0  0  0  0  0  0  0  0  0  0  # atno 6907 bound_to 6896
  150.6863  134.3067  159.4738 H   0  0  0  0  0  0  0  0  0  0  0  0  # atno 6908 bound_to 6896
  152.0901  134.9412  160.0622 H   0  0  0  0  0  0  0  0  0  0  0  0  # atno 6909 bound_to 6896
  146.0379  139.4843  142.9797 H   0  0  0  0  0  0  0  0  0  0  0  0  # atno 7974 bound_to 7965
  155.7235  140.3493  155.5026 H   0  0  0  0  0  0  0  0  0  0  0  0  # atno 8008 bound_to 7997
  155.9248  140.1073  157.1200 H   0  0  0  0  0  0  0  0  0  0  0  0  # atno 8009 bound_to 7997
  154.4075  140.1242  156.4713 H   0  0  0  0  0  0  0  0  0  0  0  0  # atno 8010 bound_to 7997
  139.8093  144.6780  150.9662 H   0  0  0  0  0  0  0  0  0  0  0  0  # atno 10167 bound_to 10162
  156.4849  130.4553  149.6789 H   0  0  0  0  0  0  0  0  0  0  0  0  # atno 10718 bound_to 10713
  153.3463  135.3993  155.1611 H   0  0  0  0  0  0  0  0  0  0  0  0  # atno 10763 bound_to 10752
  154.8654  135.3646  154.5280 H   0  0  0  0  0  0  0  0  0  0  0  0  # atno 10764 bound_to 10752
  153.5728  135.7078  153.5557 H   0  0  0  0  0  0  0  0  0  0  0  0  # atno 10765 bound_to 10752
  140.8997  134.1706  157.4469 H   0  0  0  0  0  0  0  0  0  0  0  0  # atno 11005 bound_to 11000
  145.6934  141.0157  143.1543 LP  0  0  0  0  0  0  0  0  0  0  0  0  # atno 17320 bound_to 7965
  144.7060  139.8559  143.7430 LP  0  0  0  0  0  0  0  0  0  0  0  0  # atno 17321 bound_to 7965
  140.7818  143.4202  151.0854 LP  0  0  0  0  0  0  0  0  0  0  0  0  # atno 17342 bound_to 10162
  139.7869  143.8274  152.3146 LP  0  0  0  0  0  0  0  0  0  0  0  0  # atno 17343 bound_to 10162
  156.3484  130.7419  151.2375 LP  0  0  0  0  0  0  0  0  0  0  0  0  # atno 17370 bound_to 10713
  157.7479  131.0384  150.4500 LP  0  0  0  0  0  0  0  0  0  0  0  0  # atno 17371 bound_to 10713
  139.8740  134.9893  156.5450 LP  0  0  0  0  0  0  0  0  0  0  0  0  # atno 17394 bound_to 11000
  140.8245  133.8327  155.8926 LP  0  0  0  0  0  0  0  0  0  0  0  0  # atno 17395 bound_to 11000

$$$$
