#       Name:                AV-unprocessed.smi:1570
#       Creating user name   scv26
#       Creation time:       Fri Mar 27 06:51:51 2020


#       File generated by GOLD software.
#

@<TRIPOS>MOLECULE
AV-unprocessed.smi:1570
    58    60     1
SMALL
NO_CHARGES


@<TRIPOS>ATOM
      1 ****        -1.8194   4.9302   1.4156 C.3            1 S1                 0.0000
      2 ****        -3.0184   3.9958   1.6198 C.3            1 S1                 0.0000
      3 ****        -2.8943   2.7899   0.8048 N.am           1 S1                 0.0000
      4 ****        -2.3098   1.6250   1.1713 C.2            1 S1                 0.0000
      5 ****        -1.7896   1.3878   2.2616 O.2            1 S1                 0.0000
      6 ****        -2.3844   0.7691   0.1249 N.am           1 S1                 0.0000
      7 ****        -1.8721  -0.5997   0.0831 C.3            1 S1                 0.0000
      8 ****        -0.3566  -0.6357  -0.1973 C.3            1 S1                 0.0000
      9 ****        -0.1644  -0.4912  -1.5904 O.3            1 S1                 0.0000
     10 ****         0.2563  -1.9915   0.2086 C.3            1 S1                 0.0000
     11 ****         1.7139  -2.0823   0.1027 N.3            1 S1                 0.0000
     12 ****         2.1589  -3.4624   0.2491 C.3            1 S1                 0.0000
     13 ****         3.6841  -3.5971   0.0938 C.3            1 S1                 0.0000
     14 ****         4.1627  -5.0333   0.3312 C.3            1 S1                 0.0000
     15 ****         4.3322  -2.7519   1.0424 O.3            1 S1                 0.0000
     16 ****         3.9395  -1.3790   1.0033 C.3            1 S1                 0.0000
     17 ****         4.5387  -0.6487  -0.2107 C.3            1 S1                 0.0000
     18 ****         2.4050  -1.2565   1.0919 C.3            1 S1                 0.0000
     19 ****        -3.0168   1.4117  -0.9493 C.ar           1 S1                 0.0000
     20 ****        -3.3130   0.9677  -2.2499 C.ar           1 S1                 0.0000
     21 ****        -3.9625   1.8809  -3.1130 C.ar           1 S1                 0.0000
     22 ****        -4.2938   3.1883  -2.6719 C.ar           1 S1                 0.0000
     23 ****        -3.9816   3.6108  -1.3585 C.ar           1 S1                 0.0000
     24 ****        -3.3377   2.6831  -0.5211 C.ar           1 S1                 0.0000
     25 ****        -1.9197   5.8283   2.0253 H              1 S1                 0.0000
     26 ****        -1.7355   5.2428   0.3744 H              1 S1                 0.0000
     27 ****        -0.8861   4.4411   1.6956 H              1 S1                 0.0000
     28 ****        -3.1011   3.7245   2.6732 H              1 S1                 0.0000
     29 ****        -3.9439   4.5141   1.3683 H              1 S1                 0.0000
     30 ****        -2.0736  -1.0537   1.0548 H              1 S1                 0.0000
     31 ****        -2.4230  -1.2037  -0.6389 H              1 S1                 0.0000
     32 ****         0.1336   0.1837   0.3268 H              1 S1                 0.0000
     33 ****         0.7625  -0.5456  -1.7681 H              1 S1                 0.0000
     34 ****        -0.0374  -2.2259   1.2330 H              1 S1                 0.0000
     35 ****        -0.1999  -2.7652  -0.4111 H              1 S1                 0.0000
     36 ****         1.8555  -3.8465   1.2244 H              1 S1                 0.0000
     37 ****         1.6686  -4.0880  -0.4978 H              1 S1                 0.0000
     38 ****         3.9749  -3.3009  -0.9144 H              1 S1                 0.0000
     39 ****         3.6996  -5.7231  -0.3746 H              1 S1                 0.0000
     40 ****         3.9164  -5.3691   1.3388 H              1 S1                 0.0000
     41 ****         5.2434  -5.1092   0.2094 H              1 S1                 0.0000
     42 ****         4.3635  -0.9147   1.8941 H              1 S1                 0.0000
     43 ****         4.3237   0.4191  -0.1650 H              1 S1                 0.0000
     44 ****         4.1367  -1.0207  -1.1528 H              1 S1                 0.0000
     45 ****         5.6221  -0.7664  -0.2391 H              1 S1                 0.0000
     46 ****         2.1326  -0.2082   0.9799 H              1 S1                 0.0000
     47 ****         2.0866  -1.5507   2.0933 H              1 S1                 0.0000
     48 ****        -3.0537  -0.0262  -2.5829 H              1 S1                 0.0000
     49 ****        -4.2072   1.5794  -4.1209 H              1 S1                 0.0000
     50 ****        -4.7881   3.8702  -3.3481 H              1 S1                 0.0000
     51 ****        -4.2269   4.6061  -1.0189 H              1 S1                 0.0000
     52 ****        -1.7746   2.0913   2.9721 LP             1 S1                 0.0000
     53 ****        -1.3821   0.4915   2.4367 LP             1 S1                 0.0000
     54 ****        -0.5150   0.3960  -1.8902 LP             1 S1                 0.0000
     55 ****        -0.6455  -1.2211  -2.0760 LP             1 S1                 0.0000
     56 ****         1.9469  -1.7393  -0.8073 LP             1 S1                 0.0000
     57 ****         5.3170  -2.7968   0.8744 LP             1 S1                 0.0000
     58 ****         4.1337  -3.1044   1.9569 LP             1 S1                 0.0000
@<TRIPOS>BOND
    1    1    2 1     
    2    1   25 1     
    3    1   26 1     
    4    1   27 1     
    5    2    3 1     
    6    2   28 1     
    7    2   29 1     
    8    3   24 1     
    9    3    4 am    
   10    4    5 2     
   11    4    6 am    
   12    6    7 1     
   13    6   19 1     
   14    7    8 1     
   15    7   30 1     
   16    7   31 1     
   17    8    9 1     
   18    8   10 1     
   19    8   32 1     
   20    9   33 1     
   21   10   11 1     
   22   10   34 1     
   23   10   35 1     
   24   11   18 1     
   25   11   12 1     
   26   12   13 1     
   27   12   36 1     
   28   12   37 1     
   29   13   14 1     
   30   13   15 1     
   31   13   38 1     
   32   14   39 1     
   33   14   40 1     
   34   14   41 1     
   35   15   16 1     
   36   16   17 1     
   37   16   18 1     
   38   16   42 1     
   39   17   43 1     
   40   17   44 1     
   41   17   45 1     
   42   18   46 1     
   43   18   47 1     
   44   19   24 ar    
   45   19   20 ar    
   46   20   21 ar    
   47   20   48 1     
   48   21   22 ar    
   49   21   49 1     
   50   22   23 ar    
   51   22   50 1     
   52   23   24 ar    
   53   23   51 1     
   54    5   52 1     
   55    5   53 1     
   56    9   54 1     
   57    9   55 1     
   58   11   56 1     
   59   15   57 1     
   60   15   58 1     
@<TRIPOS>SUBSTRUCTURE
      1 S1             1
@<TRIPOS>SET
LONE_PAIRS      STATIC     ATOMS    <user>   **** ""
7 52 53 54 55 56 57 58
DONOR_HYDROGENS      STATIC     ATOMS    <user>   **** ""
1 33
ATOM$BLUE        STATIC     ATOMS    COLORGROUP SYSTEM
7 52 53 54 55 56 57 58
ATOM$RED        STATIC     ATOMS    COLORGROUP SYSTEM
1 33
