#       Name:                AV-unprocessed.smi:2443
#       Creating user name   scv26
#       Creation time:       Fri Mar 27 13:26:31 2020


#       File generated by GOLD software.
#

@<TRIPOS>MOLECULE
AV-unprocessed.smi:2443
    43    45     1
SMALL
NO_CHARGES


@<TRIPOS>ATOM
      1 ****        -6.3357  -2.6458   1.8393 C.3            1 S1                 0.0000
      2 ****        -4.9833  -2.3076   2.1253 O.3            1 S1                 0.0000
      3 ****        -4.3276  -1.4571   1.2594 C.ar           1 S1                 0.0000
      4 ****        -2.9886  -1.1015   1.5217 C.ar           1 S1                 0.0000
      5 ****        -2.3554  -0.2250   0.6121 C.ar           1 S1                 0.0000
      6 ****        -1.0087   0.1090   0.9130 N.am           1 S1                 0.0000
      7 ****        -0.1925   0.9429   0.2451 C.2            1 S1                 0.0000
      8 ****        -0.4967   1.5823  -0.7622 O.2            1 S1                 0.0000
      9 ****         1.0178   0.9993   0.8186 N.am           1 S1                 0.0000
     10 ****         2.1346   1.8050   0.3379 C.3            1 S1                 0.0000
     11 ****         2.8524   1.2815  -0.9010 C.3            1 S1                 0.0000
     12 ****         3.1282  -0.2196  -0.9092 C.3            1 S1                 0.0000
     13 ****         4.0903  -0.8148   0.0933 C.3            1 S1                 0.0000
     14 ****         4.4310  -0.8410  -1.3747 C.3            1 S1                 0.0000
     15 ****         2.5021   1.9102  -2.2366 C.3            1 S1                 0.0000
     16 ****         3.8120   2.2451  -1.5832 C.3            1 S1                 0.0000
     17 ****        -3.0352   0.2377  -0.4661 N.ar           1 S1                 0.0000
     18 ****        -4.2988  -0.1595  -0.6263 C.ar           1 S1                 0.0000
     19 ****        -4.9819  -0.9789   0.1737 N.ar           1 S1                 0.0000
     20 ****        -6.7113  -3.3162   2.6121 H              1 S1                 0.0000
     21 ****        -6.4240  -3.1618   0.8822 H              1 S1                 0.0000
     22 ****        -6.9747  -1.7616   1.8298 H              1 S1                 0.0000
     23 ****        -2.4737  -1.4862   2.3899 H              1 S1                 0.0000
     24 ****        -0.6225  -0.3379   1.7313 H              1 S1                 0.0000
     25 ****         1.1827   0.4406   1.6430 H              1 S1                 0.0000
     26 ****         1.7988   2.8297   0.1692 H              1 S1                 0.0000
     27 ****         2.8621   1.8598   1.1479 H              1 S1                 0.0000
     28 ****         2.2447  -0.8242  -1.1059 H              1 S1                 0.0000
     29 ****         4.6516  -0.1289   0.7244 H              1 S1                 0.0000
     30 ****         3.8078  -1.7550   0.5627 H              1 S1                 0.0000
     31 ****         4.3700  -1.8004  -1.8843 H              1 S1                 0.0000
     32 ****         5.2553  -0.2078  -1.6904 H              1 S1                 0.0000
     33 ****         2.5323   1.2724  -3.1180 H              1 S1                 0.0000
     34 ****         1.7371   2.6840  -2.2530 H              1 S1                 0.0000
     35 ****         3.9127   3.2420  -1.1585 H              1 S1                 0.0000
     36 ****         4.7066   1.8689  -2.0708 H              1 S1                 0.0000
     37 ****        -4.8208   0.2201  -1.4918 H              1 S1                 0.0000
     38 ****        -4.4634  -3.1614   2.1529 LP             1 S1                 0.0000
     39 ****        -4.9693  -1.8795   3.0289 LP             1 S1                 0.0000
     40 ****        -1.4165   1.5024  -1.1463 LP             1 S1                 0.0000
     41 ****         0.1761   2.1815  -1.1962 LP             1 S1                 0.0000
     42 ****        -2.6028   0.8575  -1.1210 LP             1 S1                 0.0000
     43 ****        -5.9310  -1.2283  -0.0184 LP             1 S1                 0.0000
@<TRIPOS>BOND
    1    1    2 1     
    2    1   20 1     
    3    1   21 1     
    4    1   22 1     
    5    2    3 1     
    6    3   19 ar    
    7    3    4 ar    
    8    4    5 ar    
    9    4   23 1     
   10    5    6 1     
   11    5   17 ar    
   12    6    7 am    
   13    6   24 1     
   14    7    8 2     
   15    7    9 am    
   16    9   10 1     
   17    9   25 1     
   18   10   11 1     
   19   10   26 1     
   20   10   27 1     
   21   11   16 1     
   22   11   12 1     
   23   11   15 1     
   24   12   14 1     
   25   12   13 1     
   26   12   28 1     
   27   13   14 1     
   28   13   29 1     
   29   13   30 1     
   30   14   31 1     
   31   14   32 1     
   32   15   16 1     
   33   15   33 1     
   34   15   34 1     
   35   16   35 1     
   36   16   36 1     
   37   17   18 ar    
   38   18   19 ar    
   39   18   37 1     
   40    2   38 1     
   41    2   39 1     
   42    8   40 1     
   43    8   41 1     
   44   17   42 1     
   45   19   43 1     
@<TRIPOS>SUBSTRUCTURE
      1 S1             1
@<TRIPOS>SET
LONE_PAIRS      STATIC     ATOMS    <user>   **** ""
6 38 39 40 41 42 43
DONOR_HYDROGENS      STATIC     ATOMS    <user>   **** ""
2 24 25
ATOM$BLUE        STATIC     ATOMS    COLORGROUP SYSTEM
6 38 39 40 41 42 43
ATOM$RED        STATIC     ATOMS    COLORGROUP SYSTEM
2 24 25
