#       Name:                AV-unprocessed.smi:845
#       Creating user name   scv26
#       Creation time:       Fri Mar 27 01:39:14 2020


#       File generated by GOLD software.
#

@<TRIPOS>MOLECULE
AV-unprocessed.smi:845
    48    49     1
SMALL
NO_CHARGES


@<TRIPOS>ATOM
      1 ****        -1.7168  -1.1657  -1.8739 C.3            1 S1                 0.0000
      2 ****        -1.0897  -0.3551  -0.7262 C.3            1 S1                 0.0000
      3 ****        -1.5598   1.1092  -0.7752 C.3            1 S1                 0.0000
      4 ****         0.4546  -0.5402  -0.6639 C.3            1 S1                 0.0000
      5 ****         1.1265  -0.0440   0.6445 C.3            1 S1                 0.0000
      6 ****         0.5827  -0.7046   1.8284 N.am           1 S1                 0.0000
      7 ****        -0.2548  -0.1707   2.7292 C.2            1 S1                 0.0000
      8 ****        -0.6233   1.0004   2.6148 O.2            1 S1                 0.0000
      9 ****        -0.6202  -1.0336   3.7033 N.pl3          1 S1                -1.0000
     10 ****        -1.4743  -0.6402   4.6619 C.2            1 S1                 0.0000
     11 ****        -2.7833  -0.9163   4.6306 N.2            1 S1                 0.0000
     12 ****        -3.4825  -0.4154   5.7302 C.2            1 S1                 0.0000
     13 ****        -2.6858   0.2505   6.6236 C.2            1 S1                 0.0000
     14 ****        -1.0236   0.2679   6.1077 S.3            1 S1                 0.0000
     15 ****         1.1083  -0.0217  -1.9064 N.4            1 S1                 1.0000
     16 ****         1.6686   1.3541  -1.8417 C.3            1 S1                 0.0000
     17 ****         2.1397   1.7955  -3.2361 C.3            1 S1                 0.0000
     18 ****         3.1155   0.8779  -3.7153 O.3            1 S1                 0.0000
     19 ****         2.5916  -0.4378  -3.8493 C.3            1 S1                 0.0000
     20 ****         2.1084  -0.9532  -2.4824 C.3            1 S1                 0.0000
     21 ****        -1.3971  -0.7983  -2.8492 H              1 S1                 0.0000
     22 ****        -2.8053  -1.1088  -1.8417 H              1 S1                 0.0000
     23 ****        -1.4445  -2.2196  -1.8082 H              1 S1                 0.0000
     24 ****        -1.5060  -0.7807   0.1868 H              1 S1                 0.0000
     25 ****        -1.3120   1.5801  -1.7262 H              1 S1                 0.0000
     26 ****        -1.1178   1.7043   0.0228 H              1 S1                 0.0000
     27 ****        -2.6422   1.1696  -0.6588 H              1 S1                 0.0000
     28 ****         0.5988  -1.6220  -0.6589 H              1 S1                 0.0000
     29 ****         2.1921  -0.2734   0.6168 H              1 S1                 0.0000
     30 ****         1.0545   1.0392   0.7457 H              1 S1                 0.0000
     31 ****         0.8541  -1.6660   1.9748 H              1 S1                 0.0000
     32 ****        -4.5477  -0.5804   5.7965 H              1 S1                 0.0000
     33 ****        -2.9724   0.7279   7.5483 H              1 S1                 0.0000
     34 ****         0.9285   2.0590  -1.4667 H              1 S1                 0.0000
     35 ****         2.5164   1.3856  -1.1561 H              1 S1                 0.0000
     36 ****         1.3012   1.8553  -3.9319 H              1 S1                 0.0000
     37 ****         2.5845   2.7894  -3.1853 H              1 S1                 0.0000
     38 ****         1.7773  -0.4430  -4.5754 H              1 S1                 0.0000
     39 ****         3.3716  -1.0902  -4.2422 H              1 S1                 0.0000
     40 ****         2.9506  -1.0575  -1.7965 H              1 S1                 0.0000
     41 ****         1.6702  -1.9440  -2.6091 H              1 S1                 0.0000
     42 ****         0.3641   0.0150  -2.5882 H              1 S1                 0.0000
     43 ****        -0.2975   1.5546   1.8487 LP             1 S1                 0.0000
     44 ****        -1.2480   1.3961   3.2880 LP             1 S1                 0.0000
     45 ****        -0.2547  -1.9644   3.7101 LP             1 S1                 0.0000
     46 ****        -3.2182  -1.4311   3.8917 LP             1 S1                 0.0000
     47 ****         3.8812   0.8563  -3.0725 LP             1 S1                 0.0000
     48 ****         3.4392   1.1888  -4.6089 LP             1 S1                 0.0000
@<TRIPOS>BOND
    1    1    2 1     
    2    1   21 1     
    3    1   22 1     
    4    1   23 1     
    5    2    3 1     
    6    2    4 1     
    7    2   24 1     
    8    3   25 1     
    9    3   26 1     
   10    3   27 1     
   11    4    5 1     
   12    4   15 1     
   13    4   28 1     
   14    5    6 1     
   15    5   29 1     
   16    5   30 1     
   17    6    7 am    
   18    6   31 1     
   19    7    8 2     
   20    7    9 1     
   21    9   10 1     
   22   10   14 1     
   23   10   11 2     
   24   11   12 1     
   25   12   13 2     
   26   12   32 1     
   27   13   14 1     
   28   13   33 1     
   29   15   20 1     
   30   15   16 1     
   31   15   42 1     
   32   16   17 1     
   33   16   34 1     
   34   16   35 1     
   35   17   18 1     
   36   17   36 1     
   37   17   37 1     
   38   18   19 1     
   39   19   20 1     
   40   19   38 1     
   41   19   39 1     
   42   20   40 1     
   43   20   41 1     
   44    8   43 1     
   45    8   44 1     
   46    9   45 1     
   47   11   46 1     
   48   18   47 1     
   49   18   48 1     
@<TRIPOS>SUBSTRUCTURE
      1 S1             1
@<TRIPOS>SET
LONE_PAIRS      STATIC     ATOMS    <user>   **** ""
6 43 44 45 46 47 48
DONOR_HYDROGENS      STATIC     ATOMS    <user>   **** ""
2 31 42
ATOM$BLUE        STATIC     ATOMS    COLORGROUP SYSTEM
6 43 44 45 46 47 48
ATOM$RED        STATIC     ATOMS    COLORGROUP SYSTEM
2 31 42
