AV-unprocessed.smi:170|AV-procd|sdf|1409|dock5
  -GOLD-   2262019163D 1   1.00000     0.00000
 Structure written by MMmdl.
 57 61  0  0  0  0  0  0  0  0  1 V2000
  151.8987  141.4937  157.3582 O   0  0  0  0  0  0  0  0  0  0  0  0
  151.8954  141.5720  158.7713 C   0  0  1  0  0  0  0  0  0  0  0  0
  152.6382  140.3696  159.3850 C   0  0  0  0  0  0  0  0  0  0  0  0
  151.9200  139.1216  159.1992 N   0  0  0  0  0  0  0  0  0  0  0  0
  152.2343  137.8987  159.7453 C   0  0  0  0  0  0  0  0  0  0  0  0
  151.4280  136.9246  159.4232 N   0  0  0  0  0  0  0  0  0  0  0  0
  150.4808  137.5216  158.5985 C   0  0  0  0  0  0  0  0  0  0  0  0
  149.3213  137.0617  157.9076 C   0  0  0  0  0  0  0  0  0  0  0  0
  148.8486  135.7927  157.9232 N   0  0  0  0  0  0  0  0  0  0  0  0
  149.8341  134.8731  157.3659 C   0  0  0  0  0  0  0  0  0  0  0  0
  149.2193  133.4796  157.1796 C   0  0  0  0  0  0  0  0  0  0  0  0
  148.7118  133.0273  158.4273 O   0  0  0  0  0  0  0  0  0  0  0  0
  147.6790  133.8739  158.9187 C   0  0  0  0  0  0  0  0  0  0  0  0
  148.2157  135.3052  159.1561 C   0  0  2  0  0  0  0  0  0  0  0  0
  147.0929  136.2484  159.6623 C   0  0  0  0  0  0  0  0  0  0  0  0
  146.7471  136.0613  161.1380 C   0  0  0  0  0  0  0  0  0  0  0  0
  147.8257  136.2911  162.2073 C   0  0  0  0  0  0  0  0  0  0  0  0
  147.1975  135.1551  163.0195 C   0  0  0  0  0  0  0  0  0  0  0  0
  146.5904  134.6441  161.7106 C   0  0  0  0  0  0  0  0  0  0  0  0
  148.6364  137.9585  157.1550 N   0  0  0  0  0  0  0  0  0  0  0  0
  149.0404  139.2310  157.0940 C   0  0  0  0  0  0  0  0  0  0  0  0
  150.0849  139.8057  157.6943 N   0  0  0  0  0  0  0  0  0  0  0  0
  150.7841  138.9037  158.4411 C   0  0  0  0  0  0  0  0  0  0  0  0
  152.4699  142.9259  159.2331 C   0  0  2  0  0  0  0  0  0  0  0  0
  152.2762  143.2787  160.7178 C   0  0  0  0  0  0  0  0  0  0  0  0
  151.7183  144.6932  160.6874 C   0  0  0  0  0  0  0  0  0  0  0  0
  152.0553  145.1756  159.2814 C   0  0  0  0  0  0  0  0  0  0  0  0
  151.9015  144.0041  158.4986 O   0  0  0  0  0  0  0  0  0  0  0  0
  151.0098  141.3599  157.0665 H   0  0  0  0  0  0  0  0  0  0  0  0
  150.8509  141.5282  159.0829 H   0  0  0  0  0  0  0  0  0  0  0  0
  153.6323  140.2661  158.9482 H   0  0  0  0  0  0  0  0  0  0  0  0
  152.7831  140.5229  160.4552 H   0  0  0  0  0  0  0  0  0  0  0  0
  153.0880  137.7500  160.3906 H   0  0  0  0  0  0  0  0  0  0  0  0
  150.1986  135.2423  156.4063 H   0  0  0  0  0  0  0  0  0  0  0  0
  150.6939  134.8146  158.0353 H   0  0  0  0  0  0  0  0  0  0  0  0
  148.4254  133.4975  156.4312 H   0  0  0  0  0  0  0  0  0  0  0  0
  149.9758  132.7784  156.8277 H   0  0  0  0  0  0  0  0  0  0  0  0
  146.8405  133.8804  158.2202 H   0  0  0  0  0  0  0  0  0  0  0  0
  147.3134  133.4393  159.8485 H   0  0  0  0  0  0  0  0  0  0  0  0
  148.9872  135.2338  159.9221 H   0  0  0  0  0  0  0  0  0  0  0  0
  147.3780  137.2893  159.5134 H   0  0  0  0  0  0  0  0  0  0  0  0
  146.1997  136.1054  159.0531 H   0  0  0  0  0  0  0  0  0  0  0  0
  145.8687  136.6484  161.4123 H   0  0  0  0  0  0  0  0  0  0  0  0
  148.8312  136.0510  161.8577 H   0  0  0  0  0  0  0  0  0  0  0  0
  147.7904  137.2695  162.6874 H   0  0  0  0  0  0  0  0  0  0  0  0
  147.9119  134.4775  163.4877 H   0  0  0  0  0  0  0  0  0  0  0  0
  146.4438  135.5053  163.7268 H   0  0  0  0  0  0  0  0  0  0  0  0
  145.5603  134.2951  161.7881 H   0  0  0  0  0  0  0  0  0  0  0  0
  147.2261  133.9122  161.2089 H   0  0  0  0  0  0  0  0  0  0  0  0
  148.4400  139.8826  156.4763 H   0  0  0  0  0  0  0  0  0  0  0  0
  153.5406  142.9371  159.0210 H   0  0  0  0  0  0  0  0  0  0  0  0
  151.5992  142.6029  161.2409 H   0  0  0  0  0  0  0  0  0  0  0  0
  153.2340  143.2482  161.2384 H   0  0  0  0  0  0  0  0  0  0  0  0
  150.6354  144.6639  160.8143 H   0  0  0  0  0  0  0  0  0  0  0  0
  152.1332  145.3338  161.4660 H   0  0  0  0  0  0  0  0  0  0  0  0
  151.4010  145.9782  158.9411 H   0  0  0  0  0  0  0  0  0  0  0  0
  153.0884  145.5224  159.2236 H   0  0  0  0  0  0  0  0  0  0  0  0
  1  2  1  0  0  0  0
  1 29  1  0  0  0  0
  2  3  1  0  0  0  0
  2 24  1  0  0  0  0
  2 30  1  0  0  0  0
  3  4  1  0  0  0  0
  3 31  1  0  0  0  0
  3 32  1  0  0  0  0
  4 23  1  0  0  0  0
  4  5  1  0  0  0  0
  5  6  2  0  0  0  0
  5 33  1  0  0  0  0
  6  7  1  0  0  0  0
  7 23  2  0  0  0  0
  7  8  1  0  0  0  0
  8  9  1  0  0  0  0
  8 20  2  0  0  0  0
  9 14  1  0  0  0  0
  9 10  1  0  0  0  0
 10 11  1  0  0  0  0
 10 34  1  0  0  0  0
 10 35  1  0  0  0  0
 11 12  1  0  0  0  0
 11 36  1  0  0  0  0
 11 37  1  0  0  0  0
 12 13  1  0  0  0  0
 13 14  1  0  0  0  0
 13 38  1  0  0  0  0
 13 39  1  0  0  0  0
 14 15  1  0  0  0  0
 14 40  1  0  0  0  0
 15 16  1  0  0  0  0
 15 41  1  0  0  0  0
 15 42  1  0  0  0  0
 16 19  1  0  0  0  0
 16 17  1  0  0  0  0
 16 43  1  0  0  0  0
 17 18  1  0  0  0  0
 17 44  1  0  0  0  0
 17 45  1  0  0  0  0
 18 19  1  0  0  0  0
 18 46  1  0  0  0  0
 18 47  1  0  0  0  0
 19 48  1  0  0  0  0
 19 49  1  0  0  0  0
 20 21  1  0  0  0  0
 21 22  2  0  0  0  0
 21 50  1  0  0  0  0
 22 23  1  0  0  0  0
 24 28  1  0  0  0  0
 24 25  1  0  0  0  0
 24 51  1  0  0  0  0
 25 26  1  0  0  0  0
 25 52  1  0  0  0  0
 25 53  1  0  0  0  0
 26 27  1  0  0  0  0
 26 54  1  0  0  0  0
 26 55  1  0  0  0  0
 27 28  1  0  0  0  0
 27 56  1  0  0  0  0
 27 57  1  0  0  0  0
M  END
> <s_m_source_file>
AV-unprocessed.smi

> <i_m_source_file_index>
170

> <i_lp_mmshare_version>
43012

> <i_f3d_flags>
0

> <s_epik_input>
TzFbQ0gyXVtDSDJdW0NIMl1bQ0BIXTFbQ0BIXShbT0hdKVtDSDJdbihbY0hdbjIpYyhjMjMpbltjSF1uYzNONFtDSDJdW0NIMl1PW0NIMl1bQ0BIXTRbQ0gyXVtDSF01W0NIMl1bQ0gyXVtDSDJdNQ==

> <s_epik_cmdline>
J2VwaWtfcHl0aG9uJywgJy1waCcsICc3LjAnLCAnLXRuJywgJzgnLCAnLW1hJywgJzIwMCcsICctbWV0YWxfYmluZGluZycsICctaW1hZScsICc8aW5maWxlLm1hZT4nLCAnLW9tYWUnLCAnPG91dGZpbGUubWFlPic=

> <r_lp_tautomer_probability>
1

> <r_epik_Ionization_Penalty>
4.98275e-05

> <r_epik_Ionization_Penalty_Charging>
0

> <r_epik_Ionization_Penalty_Neutral>
4.98275e-05

> <r_epik_State_Penalty>
-0

> <r_epik_Charging_Adjusted_Penalty>
0

> <i_epik_Tot_Q>
0

> <i_epik_Tot_abs_Q>
0

> <r_epik_Metal_State_Penalty>
-0

> <b_epik_Metal_Only>
0

> <s_lp_Force_Field>
OPLS_2005

> <r_lp_Energy>
52.3548

> <b_lp_Chiralities_Consistent>
1

> <s_lp_Variant>
AV-unprocessed.smi:170-4

> <Gold.Version>
5.8.1

> <Gold.Id.Protein>
6NUR|6NUR_protein|mol2

> <Gold.PLP.Fitness>
48.4122

> <Gold.PLP.PLP>
-46.1481

> <Gold.PLP.part.hbond>
-1.0000

> <Gold.PLP.part.metal>
0.0000

> <Gold.PLP.part.buried>
-6.2624

> <Gold.PLP.part.nonpolar>
-38.0667

> <Gold.PLP.part.repulsive>
0.0653

> <Gold.PLP.ligand.clash>
0.0324

> <Gold.PLP.ligand.torsion>
0.5762

> <Gold.PLP.Chemscore.Hbond>
1.0000

> <Gold.PLP.Chemscore.CHOScore>
0.0000

> <Gold.PLP.Chemscore.Metal>
0.0000

> <Gold.Chemscore.Hbonds>
donor molecule, donor type, donor heavy atom, donor atom, acceptor molecule, acceptor atom, score
      P1  H  6896  6908       L1     6  1.00

> <Gold.PLP.Chemscore.Internal.Correction>
0.4488

> <Gold.Rescore>
     Score         DG    S(hbond)    S(metal)    S(lipo)     H(rot)  DE(clash)    DE(int)     intcor
     12.28     -15.89       0.97        0.00     118.39       2.61       0.04       3.57       ----

> <Gold.Chemscore.Fitness>
12.2796

> <Gold.Chemscore.DG>
-15.8922

> <Gold.Chemscore.ZeroCoef>
-5.4800

> <Gold.Chemscore.Hbond>
0.9740

> <Gold.Chemscore.Metal>
0.0000

> <Gold.Chemscore.Lipo>
118.3939

> <Gold.Chemscore.Internal_Hbond>
0.0000

> <Gold.Chemscore.DEClash>
0.0402

> <Gold.Chemscore.DEInternal>
3.5724

> <Gold.Chemscore.Rot>
2.6144

> <Gold.Chemscore.Internal.Correction>
   9.000000E+99

> <Gold.Chemscore.Hbonds>
donor molecule, donor type, donor heavy atom, donor atom, acceptor molecule, acceptor atom, score
      P1  H  6896  6908       L1     6  0.90

> <Gold.Chemscore.Hbond.Weighted>
-3.2531

> <Gold.Chemscore.Metal.Weighted>
-0.0000

> <Gold.Chemscore.Lipo.Weighted>
-13.8521

> <Gold.Chemscore.Internal_Hbond.Weighted>
0.0000

> <Gold.Chemscore.DEClash.Weighted>
0.0402

> <Gold.Chemscore.DEInternal.Weighted>
3.5724

> <Gold.Chemscore.Rot.Weighted>
6.6929

> <Gold.Chemscore.Internal.Correction.Weighted>
   9.000000E+99

> <Gold.Protein.RotatedTorsions>
[ 6907 6896 6895 6894 ] final -145.56 input  -60.11 | X-H torsion
[ 7974 7965 7964 7962 ] final  134.25 input  175.53 | X-H torsion
[ 8008 7997 7996 7995 ] final   23.28 input   59.86 | X-H torsion
[ 10167 10162 10161 10158 ] final   70.05 input  -65.29 | X-H torsion
[ 10718 10713 10712 10709 ] final   99.25 input   66.30 | X-H torsion
[ 10763 10752 10751 10750 ] final -103.69 input  -60.55 | X-H torsion
[ 11005 11000 10999 10996 ] final   49.10 input  -57.11 | X-H torsion

> <Gold.Protein.ActiveResidues>
 VAL166  LYS551  ARG553  GLY616  TRP617  ASP618  TYR619  PRO620  LYS621  CYS622 
 ASP623  PHE694  ASN695  SER759  ASP760  ASP761  ALA762  ILE779  LEU786  VAL792 
 PHE793  MET794  SER795  GLU796  ALA797  LYS798  CYS799  TRP800  GLU811  SER814 

> <Gold.Protein.RotatedAtoms>
  151.1295  133.5047  159.2599 H   0  0  0  0  0  0  0  0  0  0  0  0  # atno 6907 bound_to 6896
  151.1773  135.0344  159.8787 H   0  0  0  0  0  0  0  0  0  0  0  0  # atno 6908 bound_to 6896
  152.5459  134.1151  159.8428 H   0  0  0  0  0  0  0  0  0  0  0  0  # atno 6909 bound_to 6896
  144.9783  139.4531  143.5399 H   0  0  0  0  0  0  0  0  0  0  0  0  # atno 7974 bound_to 7965
  154.9786  140.3099  155.4956 H   0  0  0  0  0  0  0  0  0  0  0  0  # atno 8008 bound_to 7997
  156.2956  140.2271  156.4823 H   0  0  0  0  0  0  0  0  0  0  0  0  # atno 8009 bound_to 7997
  154.7810  140.0446  157.1115 H   0  0  0  0  0  0  0  0  0  0  0  0  # atno 8010 bound_to 7997
  140.0611  144.5232  150.7293 H   0  0  0  0  0  0  0  0  0  0  0  0  # atno 10167 bound_to 10162
  157.6880  131.0664  150.4919 H   0  0  0  0  0  0  0  0  0  0  0  0  # atno 10718 bound_to 10713
  154.7825  135.4814  153.9875 H   0  0  0  0  0  0  0  0  0  0  0  0  # atno 10763 bound_to 10752
  153.1513  135.6792  153.8884 H   0  0  0  0  0  0  0  0  0  0  0  0  # atno 10764 bound_to 10752
  153.8528  135.3165  155.3411 H   0  0  0  0  0  0  0  0  0  0  0  0  # atno 10765 bound_to 10752
  140.1132  134.4926  155.8659 H   0  0  0  0  0  0  0  0  0  0  0  0  # atno 11005 bound_to 11000
  146.3401  139.9039  142.8790 LP  0  0  0  0  0  0  0  0  0  0  0  0  # atno 17320 bound_to 7965
  145.2458  141.0026  143.3909 LP  0  0  0  0  0  0  0  0  0  0  0  0  # atno 17321 bound_to 7965
  140.7171  143.2554  151.4399 LP  0  0  0  0  0  0  0  0  0  0  0  0  # atno 17342 bound_to 10162
  139.5893  144.1534  152.2068 LP  0  0  0  0  0  0  0  0  0  0  0  0  # atno 17343 bound_to 10162
  156.5245  130.4170  149.6233 LP  0  0  0  0  0  0  0  0  0  0  0  0  # atno 17370 bound_to 10713
  156.3124  130.7236  151.2132 LP  0  0  0  0  0  0  0  0  0  0  0  0  # atno 17371 bound_to 10713
  141.2135  133.6734  156.6746 LP  0  0  0  0  0  0  0  0  0  0  0  0  # atno 17394 bound_to 11000
  140.3062  134.8123  157.4139 LP  0  0  0  0  0  0  0  0  0  0  0  0  # atno 17395 bound_to 11000

$$$$
