#       Name:                AV-unprocessed.smi:2166
#       Creating user name   scv26
#       Creation time:       Fri Mar 27 12:00:29 2020


#       File generated by GOLD software.
#

@<TRIPOS>MOLECULE
AV-unprocessed.smi:2166
    44    45     1
SMALL
NO_CHARGES


@<TRIPOS>ATOM
      1 ****        -4.5462  -0.8616   2.6586 C.3            1 S1                 0.0000
      2 ****        -5.1661  -2.0463   1.4324 S.3            1 S1                 0.0000
      3 ****        -4.6312  -1.2579  -0.1163 C.3            1 S1                 0.0000
      4 ****        -5.3691  -1.8801  -1.3128 C.3            1 S1                 0.0000
      5 ****        -3.1099  -1.3318  -0.3015 C.2            1 S1                 0.0000
      6 ****        -2.5866  -2.3897  -0.6533 O.2            1 S1                 0.0000
      7 ****        -2.4358  -0.1941  -0.0471 N.am           1 S1                 0.0000
      8 ****        -1.0364   0.0361  -0.1113 C.ar           1 S1                 0.0000
      9 ****        -0.6304   1.3404   0.2475 C.ar           1 S1                 0.0000
     10 ****         0.7377   1.6718   0.2240 C.ar           1 S1                 0.0000
     11 ****         1.6724   0.6909  -0.1582 C.ar           1 S1                 0.0000
     12 ****         3.0390   1.0032  -0.1836 N.3            1 S1                 0.0000
     13 ****         3.8300   0.2315   0.7670 C.3            1 S1                 0.0000
     14 ****         5.2895   0.7194   0.7562 C.3            1 S1                 0.0000
     15 ****         5.8091   0.6438  -0.5685 O.3            1 S1                 0.0000
     16 ****         5.0747   1.4589  -1.4779 C.3            1 S1                 0.0000
     17 ****         3.6096   0.9900  -1.5246 C.3            1 S1                 0.0000
     18 ****         1.1781  -0.5862  -0.5050 C.ar           1 S1                 0.0000
     19 ****        -0.1333  -0.9045  -0.4828 N.ar           1 S1                 0.0000
     20 ****        -4.8360  -1.1763   3.6611 H              1 S1                 0.0000
     21 ****        -4.9596   0.1301   2.4755 H              1 S1                 0.0000
     22 ****        -3.4587  -0.7999   2.6221 H              1 S1                 0.0000
     23 ****        -4.9266  -0.2090  -0.0608 H              1 S1                 0.0000
     24 ****        -5.0555  -1.4249  -2.2531 H              1 S1                 0.0000
     25 ****        -6.4458  -1.7344  -1.2229 H              1 S1                 0.0000
     26 ****        -5.1877  -2.9534  -1.3845 H              1 S1                 0.0000
     27 ****        -2.9935   0.5981   0.2362 H              1 S1                 0.0000
     28 ****        -1.3569   2.0840   0.5416 H              1 S1                 0.0000
     29 ****         1.0619   2.6651   0.4981 H              1 S1                 0.0000
     30 ****         3.4086   0.3346   1.7677 H              1 S1                 0.0000
     31 ****         3.7944  -0.8274   0.5077 H              1 S1                 0.0000
     32 ****         5.3608   1.7428   1.1280 H              1 S1                 0.0000
     33 ****         5.8985   0.0986   1.4134 H              1 S1                 0.0000
     34 ****         5.1388   2.5059  -1.1769 H              1 S1                 0.0000
     35 ****         5.5257   1.3838  -2.4674 H              1 S1                 0.0000
     36 ****         3.5579  -0.0173  -1.9400 H              1 S1                 0.0000
     37 ****         3.0295   1.6409  -2.1800 H              1 S1                 0.0000
     38 ****         1.8487  -1.3766  -0.8085 H              1 S1                 0.0000
     39 ****        -3.1529  -3.1973  -0.8174 LP             1 S1                 0.0000
     40 ****        -1.5953  -2.4410  -0.7749 LP             1 S1                 0.0000
     41 ****         3.0896   1.9521   0.1279 LP             1 S1                 0.0000
     42 ****         5.7654  -0.3058  -0.8786 LP             1 S1                 0.0000
     43 ****         6.7617   0.9480  -0.5594 LP             1 S1                 0.0000
     44 ****        -0.4353  -1.8232  -0.7373 LP             1 S1                 0.0000
@<TRIPOS>BOND
    1    1    2 1     
    2    1   20 1     
    3    1   21 1     
    4    1   22 1     
    5    2    3 1     
    6    3    4 1     
    7    3    5 1     
    8    3   23 1     
    9    4   24 1     
   10    4   25 1     
   11    4   26 1     
   12    5    6 2     
   13    5    7 am    
   14    7    8 1     
   15    7   27 1     
   16    8   19 ar    
   17    8    9 ar    
   18    9   10 ar    
   19    9   28 1     
   20   10   11 ar    
   21   10   29 1     
   22   11   12 1     
   23   11   18 ar    
   24   12   17 1     
   25   12   13 1     
   26   13   14 1     
   27   13   30 1     
   28   13   31 1     
   29   14   15 1     
   30   14   32 1     
   31   14   33 1     
   32   15   16 1     
   33   16   17 1     
   34   16   34 1     
   35   16   35 1     
   36   17   36 1     
   37   17   37 1     
   38   18   19 ar    
   39   18   38 1     
   40    6   39 1     
   41    6   40 1     
   42   12   41 1     
   43   15   42 1     
   44   15   43 1     
   45   19   44 1     
@<TRIPOS>SUBSTRUCTURE
      1 S1             1
@<TRIPOS>SET
LONE_PAIRS      STATIC     ATOMS    <user>   **** ""
6 39 40 41 42 43 44
DONOR_HYDROGENS      STATIC     ATOMS    <user>   **** ""
1 27
ATOM$BLUE        STATIC     ATOMS    COLORGROUP SYSTEM
6 39 40 41 42 43 44
ATOM$RED        STATIC     ATOMS    COLORGROUP SYSTEM
1 27
