AV-unprocessed.smi:3252|AV-procd|sdf|12443|dock1
  -GOLD-   2272018333D 1   1.00000     0.00000
 Structure written by MMmdl.
 36 37  0  0  0  0  0  0  0  0  1 V2000
  153.9708  139.6392  159.8381 C   0  0  0  0  0  0  0  0  0  0  0  0
  154.0663  140.8968  160.7141 C   0  0  0  0  0  0  0  0  0  0  0  0
  152.9557  141.8361  160.5679 N   0  0  0  0  0  0  0  0  0  0  0  0
  153.0574  142.9715  161.4812 C   0  0  0  0  0  0  0  0  0  0  0  0
  151.9017  143.9674  161.2870 C   0  0  0  0  0  0  0  0  0  0  0  0
  151.8642  144.3930  159.9296 O   0  0  0  0  0  0  0  0  0  0  0  0
  151.6968  143.3168  159.0094 C   0  0  1  0  0  0  0  0  0  0  0  0
  151.6562  143.8778  157.5777 C   0  0  0  0  0  0  0  0  0  0  0  0
  150.6411  143.2300  156.7543 N   0  0  0  0  0  0  0  0  0  0  0  0
  150.8293  141.9386  156.2402 C   0  0  0  0  0  0  0  0  0  0  0  0
  149.9716  141.4928  155.2125 C   0  0  0  0  0  0  0  0  0  0  0  0
  150.1507  140.1966  154.6907 C   0  0  0  0  0  0  0  0  0  0  0  0
  151.1797  139.3904  155.2157 C   0  0  0  0  0  0  0  0  0  0  0  0
  151.4057  138.0471  154.7107 C   0  0  0  0  0  0  0  0  0  0  0  0
  151.5856  136.9774  154.3080 N   0  0  0  0  0  0  0  0  0  0  0  0
  151.9839  139.9205  156.2448 C   0  0  0  0  0  0  0  0  0  0  0  0
  151.8147  141.1613  156.7499 N   0  0  0  0  0  0  0  0  0  0  0  0
  152.8709  142.3361  159.1996 C   0  0  0  0  0  0  0  0  0  0  0  0
  154.8822  139.0469  159.9195 H   0  0  0  0  0  0  0  0  0  0  0  0
  153.8389  139.9006  158.7879 H   0  0  0  0  0  0  0  0  0  0  0  0
  153.1414  138.9976  160.1344 H   0  0  0  0  0  0  0  0  0  0  0  0
  154.1715  140.6048  161.7599 H   0  0  0  0  0  0  0  0  0  0  0  0
  154.9939  141.4067  160.4512 H   0  0  0  0  0  0  0  0  0  0  0  0
  153.0518  142.6281  162.5152 H   0  0  0  0  0  0  0  0  0  0  0  0
  154.0067  143.4872  161.3265 H   0  0  0  0  0  0  0  0  0  0  0  0
  150.9481  143.5127  161.5600 H   0  0  0  0  0  0  0  0  0  0  0  0
  152.0379  144.8373  161.9294 H   0  0  0  0  0  0  0  0  0  0  0  0
  150.7593  142.7990  159.2215 H   0  0  0  0  0  0  0  0  0  0  0  0
  151.5341  144.9612  157.5861 H   0  0  0  0  0  0  0  0  0  0  0  0
  152.6152  143.6890  157.0951 H   0  0  0  0  0  0  0  0  0  0  0  0
  149.9250  143.8123  156.3452 H   0  0  0  0  0  0  0  0  0  0  0  0
  149.1896  142.1305  154.8265 H   0  0  0  0  0  0  0  0  0  0  0  0
  149.5066  139.8339  153.9027 H   0  0  0  0  0  0  0  0  0  0  0  0
  152.7841  139.3382  156.6788 H   0  0  0  0  0  0  0  0  0  0  0  0
  153.8050  142.8317  158.9296 H   0  0  0  0  0  0  0  0  0  0  0  0
  152.7535  141.4986  158.5109 H   0  0  0  0  0  0  0  0  0  0  0  0
  1  2  1  0  0  0  0
  1 19  1  0  0  0  0
  1 20  1  0  0  0  0
  1 21  1  0  0  0  0
  2  3  1  0  0  0  0
  2 22  1  0  0  0  0
  2 23  1  0  0  0  0
  3 18  1  0  0  0  0
  3  4  1  0  0  0  0
  4  5  1  0  0  0  0
  4 24  1  0  0  0  0
  4 25  1  0  0  0  0
  5  6  1  0  0  0  0
  5 26  1  0  0  0  0
  5 27  1  0  0  0  0
  6  7  1  0  0  0  0
  7  8  1  0  0  0  0
  7 18  1  0  0  0  0
  7 28  1  0  0  0  0
  8  9  1  0  0  0  0
  8 29  1  0  0  0  0
  8 30  1  0  0  0  0
  9 10  1  0  0  0  0
  9 31  1  0  0  0  0
 10 17  1  0  0  0  0
 10 11  2  0  0  0  0
 11 12  1  0  0  0  0
 11 32  1  0  0  0  0
 12 13  2  0  0  0  0
 12 33  1  0  0  0  0
 13 14  1  0  0  0  0
 13 16  1  0  0  0  0
 14 15  3  0  0  0  0
 16 17  2  0  0  0  0
 16 34  1  0  0  0  0
 18 35  1  0  0  0  0
 18 36  1  0  0  0  0
M  END
> <s_m_source_file>
AV-unprocessed.smi

> <i_m_source_file_index>
3252

> <i_lp_mmshare_version>
43012

> <i_f3d_flags>
0

> <s_epik_input>
W0NIM11bQ0gyXU4xW0NIMl1bQ0gyXU9bQ0BIXShbQ0gyXTEpW0NIMl1bTkhdYzJbY0hdW2NIXWMoQyNOKVtjSF1uMg==

> <s_epik_cmdline>
J2VwaWtfcHl0aG9uJywgJy1waCcsICc3LjAnLCAnLXRuJywgJzgnLCAnLW1hJywgJzIwMCcsICctbWV0YWxfYmluZGluZycsICctaW1hZScsICc8aW5maWxlLm1hZT4nLCAnLW9tYWUnLCAnPG91dGZpbGUubWFlPic=

> <r_epik_Ionization_Penalty>
0.797836

> <r_epik_Ionization_Penalty_Charging>
0

> <r_epik_Ionization_Penalty_Neutral>
0.797836

> <r_epik_State_Penalty>
0.828842

> <r_epik_Charging_Adjusted_Penalty>
0.828842

> <i_epik_Tot_Q>
0

> <i_epik_Tot_abs_Q>
0

> <r_epik_Metal_State_Penalty>
0.828842

> <b_epik_Metal_Only>
0

> <s_lp_Force_Field>
OPLS_2005

> <r_lp_Energy>
23.221

> <b_lp_Chiralities_Consistent>
1

> <s_lp_Variant>
AV-unprocessed.smi:3252-5

> <Gold.Version>
5.8.1

> <Gold.Id.Protein>
6NUR|6NUR_protein|mol2

> <Gold.PLP.Fitness>
45.9311

> <Gold.PLP.PLP>
-41.3948

> <Gold.PLP.part.hbond>
-2.0000

> <Gold.PLP.part.metal>
0.0000

> <Gold.PLP.part.buried>
-4.4043

> <Gold.PLP.part.nonpolar>
-34.8163

> <Gold.PLP.part.repulsive>
0.6779

> <Gold.PLP.ligand.clash>
0.0000

> <Gold.PLP.ligand.torsion>
0.7389

> <Gold.PLP.Chemscore.Hbond>
2.0000

> <Gold.PLP.Chemscore.CHOScore>
0.0000

> <Gold.PLP.Chemscore.Metal>
0.0000

> <Gold.Chemscore.Hbonds>
donor molecule, donor type, donor heavy atom, donor atom, acceptor molecule, acceptor atom, score
      L1  H     9    31       P1  8028  1.00
      P1  H 10752 10765       L1    15  1.00

> <Gold.PLP.Chemscore.Internal.Correction>
0.0141

> <Gold.Rescore>
     Score         DG    S(hbond)    S(metal)    S(lipo)     H(rot)  DE(clash)    DE(int)     intcor
     18.25     -20.29       2.00        0.00     100.95       1.43       0.04       1.99       ----

> <Gold.Chemscore.Fitness>
18.2548

> <Gold.Chemscore.DG>
-20.2873

> <Gold.Chemscore.ZeroCoef>
-5.4800

> <Gold.Chemscore.Hbond>
1.9955

> <Gold.Chemscore.Metal>
0.0000

> <Gold.Chemscore.Lipo>
100.9495

> <Gold.Chemscore.Internal_Hbond>
0.0000

> <Gold.Chemscore.DEClash>
0.0430

> <Gold.Chemscore.DEInternal>
1.9895

> <Gold.Chemscore.Rot>
1.4331

> <Gold.Chemscore.Internal.Correction>
   9.000000E+99

> <Gold.Chemscore.Hbonds>
donor molecule, donor type, donor heavy atom, donor atom, acceptor molecule, acceptor atom, score
      L1  H     9    31       P1  8028  0.93
      P1  H 10752 10765       L1    15  0.99

> <Gold.Chemscore.Hbond.Weighted>
-6.6650

> <Gold.Chemscore.Metal.Weighted>
-0.0000

> <Gold.Chemscore.Lipo.Weighted>
-11.8111

> <Gold.Chemscore.Internal_Hbond.Weighted>
0.0000

> <Gold.Chemscore.DEClash.Weighted>
0.0430

> <Gold.Chemscore.DEInternal.Weighted>
1.9895

> <Gold.Chemscore.Rot.Weighted>
3.6688

> <Gold.Chemscore.Internal.Correction.Weighted>
   9.000000E+99

> <Gold.Protein.RotatedTorsions>
[ 6907 6896 6895 6894 ] final   23.69 input  -60.11 | X-H torsion
[ 7974 7965 7964 7962 ] final -113.83 input  175.53 | X-H torsion
[ 8008 7997 7996 7995 ] final   73.64 input   59.86 | X-H torsion
[ 10167 10162 10161 10158 ] final -112.75 input  -65.29 | X-H torsion
[ 10718 10713 10712 10709 ] final  152.18 input   66.30 | X-H torsion
[ 10763 10752 10751 10750 ] final  171.51 input  -60.55 | X-H torsion
[ 11005 11000 10999 10996 ] final  -59.65 input  -57.11 | X-H torsion

> <Gold.Protein.ActiveResidues>
 VAL166  LYS551  ARG553  GLY616  TRP617  ASP618  TYR619  PRO620  LYS621  CYS622 
 ASP623  PHE694  ASN695  SER759  ASP760  ASP761  ALA762  ILE779  LEU786  VAL792 
 PHE793  MET794  SER795  GLU796  ALA797  LYS798  CYS799  TRP800  GLU811  SER814 

> <Gold.Protein.RotatedAtoms>
  151.9463  135.0190  160.0538 H   0  0  0  0  0  0  0  0  0  0  0  0  # atno 6907 bound_to 6896
  152.1993  133.4824  159.5058 H   0  0  0  0  0  0  0  0  0  0  0  0  # atno 6908 bound_to 6896
  150.6951  134.1529  159.4190 H   0  0  0  0  0  0  0  0  0  0  0  0  # atno 6909 bound_to 6896
  145.1274  140.8705  143.3778 H   0  0  0  0  0  0  0  0  0  0  0  0  # atno 7974 bound_to 7965
  155.7867  140.3480  155.5327 H   0  0  0  0  0  0  0  0  0  0  0  0  # atno 8008 bound_to 7997
  155.8675  140.0981  157.1593 H   0  0  0  0  0  0  0  0  0  0  0  0  # atno 8009 bound_to 7997
  154.4015  140.1347  156.4024 H   0  0  0  0  0  0  0  0  0  0  0  0  # atno 8010 bound_to 7997
  140.1193  143.4458  152.1701 H   0  0  0  0  0  0  0  0  0  0  0  0  # atno 10167 bound_to 10162
  157.2612  131.0798  151.1664 H   0  0  0  0  0  0  0  0  0  0  0  0  # atno 10718 bound_to 10713
  154.4129  135.2756  155.2025 H   0  0  0  0  0  0  0  0  0  0  0  0  # atno 10763 bound_to 10752
  154.4003  135.6046  153.5897 H   0  0  0  0  0  0  0  0  0  0  0  0  # atno 10764 bound_to 10752
  152.9831  135.5925  154.4414 H   0  0  0  0  0  0  0  0  0  0  0  0  # atno 10765 bound_to 10752
  141.1257  133.6617  156.5104 H   0  0  0  0  0  0  0  0  0  0  0  0  # atno 11005 bound_to 11000
  145.0673  139.3059  143.5850 LP  0  0  0  0  0  0  0  0  0  0  0  0  # atno 17320 bound_to 7965
  146.3516  140.0135  142.8665 LP  0  0  0  0  0  0  0  0  0  0  0  0  # atno 17321 bound_to 7965
  139.5577  144.7384  151.4245 LP  0  0  0  0  0  0  0  0  0  0  0  0  # atno 17342 bound_to 10162
  140.6881  143.7926  150.7215 LP  0  0  0  0  0  0  0  0  0  0  0  0  # atno 17343 bound_to 10162
  157.3174  130.6920  149.6249 LP  0  0  0  0  0  0  0  0  0  0  0  0  # atno 17370 bound_to 10713
  155.9664  130.4345  150.5054 LP  0  0  0  0  0  0  0  0  0  0  0  0  # atno 17371 bound_to 10713
  140.4373  134.7047  157.4973 LP  0  0  0  0  0  0  0  0  0  0  0  0  # atno 17394 bound_to 11000
  140.0253  134.6487  155.9182 LP  0  0  0  0  0  0  0  0  0  0  0  0  # atno 17395 bound_to 11000

$$$$
