#       Name:                AV-unprocessed.smi:698
#       Creating user name   scv26
#       Creation time:       Fri Mar 27 00:38:01 2020


#       File generated by GOLD software.
#

@<TRIPOS>MOLECULE
AV-unprocessed.smi:698
    40    41     1
SMALL
NO_CHARGES


@<TRIPOS>ATOM
      1 ****        -4.8576  -1.8818   0.0249 C.3            1 S1                 0.0000
      2 ****        -3.3552  -1.5945  -0.0259 C.3            1 S1                 0.0000
      3 ****        -2.6510  -2.8329  -0.0142 O.3            1 S1                 0.0000
      4 ****        -1.2718  -2.8049  -0.0508 C.ar           1 S1                 0.0000
      5 ****        -0.5708  -4.0255  -0.0594 C.ar           1 S1                 0.0000
      6 ****         0.8345  -3.9918  -0.0972 C.ar           1 S1                 0.0000
      7 ****         1.4845  -2.7432  -0.1230 C.ar           1 S1                 0.0000
      8 ****         0.7134  -1.5599  -0.1099 C.ar           1 S1                 0.0000
      9 ****         1.4598  -0.3521  -0.1357 N.am           1 S1                 0.0000
     10 ****         1.0007   0.9131  -0.1035 C.2            1 S1                 0.0000
     11 ****        -0.1889   1.2239  -0.0261 O.2            1 S1                 0.0000
     12 ****         2.0767   2.0048  -0.1475 C.3            1 S1                 0.0000
     13 ****         1.6700   3.2742  -0.9210 C.3            1 S1                 0.0000
     14 ****         1.5481   4.3311   0.1598 C.3            1 S1                 0.0000
     15 ****         2.5408   3.8321   1.1998 C.3            1 S1                 0.0000
     16 ****         2.3325   2.4291   1.1900 O.3            1 S1                 0.0000
     17 ****        -0.6410  -1.6051  -0.0766 N.ar           1 S1                 0.0000
     18 ****        -5.4316  -0.9551   0.0054 H              1 S1                 0.0000
     19 ****        -5.1224  -2.4205   0.9350 H              1 S1                 0.0000
     20 ****        -5.1696  -2.4867  -0.8268 H              1 S1                 0.0000
     21 ****        -3.1204  -1.0332  -0.9319 H              1 S1                 0.0000
     22 ****        -3.0702  -0.9841   0.8326 H              1 S1                 0.0000
     23 ****        -1.0999  -4.9668  -0.0380 H              1 S1                 0.0000
     24 ****         1.4055  -4.9084  -0.1058 H              1 S1                 0.0000
     25 ****         2.5637  -2.6998  -0.1508 H              1 S1                 0.0000
     26 ****         2.4623  -0.4606  -0.1795 H              1 S1                 0.0000
     27 ****         2.9982   1.6025  -0.5723 H              1 S1                 0.0000
     28 ****         2.4629   3.5456  -1.6190 H              1 S1                 0.0000
     29 ****         0.7513   3.1747  -1.5005 H              1 S1                 0.0000
     30 ****         1.7705   5.3374  -0.1958 H              1 S1                 0.0000
     31 ****         0.5394   4.3282   0.5751 H              1 S1                 0.0000
     32 ****         3.5662   4.0529   0.8995 H              1 S1                 0.0000
     33 ****         2.3688   4.2579   2.1884 H              1 S1                 0.0000
     34 ****        -2.9572  -3.3545  -0.8106 LP             1 S1                 0.0000
     35 ****        -2.9147  -3.3149   0.8214 LP             1 S1                 0.0000
     36 ****        -0.8898   0.5120   0.0177 LP             1 S1                 0.0000
     37 ****        -0.4536   2.1880  -0.0070 LP             1 S1                 0.0000
     38 ****         3.1483   1.9670   1.5377 LP             1 S1                 0.0000
     39 ****         1.5491   2.2028   1.7688 LP             1 S1                 0.0000
     40 ****        -1.1721  -0.7579  -0.0711 LP             1 S1                 0.0000
@<TRIPOS>BOND
    1    1    2 1     
    2    1   18 1     
    3    1   19 1     
    4    1   20 1     
    5    2    3 1     
    6    2   21 1     
    7    2   22 1     
    8    3    4 1     
    9    4   17 ar    
   10    4    5 ar    
   11    5    6 ar    
   12    5   23 1     
   13    6    7 ar    
   14    6   24 1     
   15    7    8 ar    
   16    7   25 1     
   17    8    9 1     
   18    8   17 ar    
   19    9   10 am    
   20    9   26 1     
   21   10   11 2     
   22   10   12 1     
   23   12   16 1     
   24   12   13 1     
   25   12   27 1     
   26   13   14 1     
   27   13   28 1     
   28   13   29 1     
   29   14   15 1     
   30   14   30 1     
   31   14   31 1     
   32   15   16 1     
   33   15   32 1     
   34   15   33 1     
   35    3   34 1     
   36    3   35 1     
   37   11   36 1     
   38   11   37 1     
   39   16   38 1     
   40   16   39 1     
   41   17   40 1     
@<TRIPOS>SUBSTRUCTURE
      1 S1             1
@<TRIPOS>SET
LONE_PAIRS      STATIC     ATOMS    <user>   **** ""
7 34 35 36 37 38 39 40
DONOR_HYDROGENS      STATIC     ATOMS    <user>   **** ""
1 26
ATOM$BLUE        STATIC     ATOMS    COLORGROUP SYSTEM
7 34 35 36 37 38 39 40
ATOM$RED        STATIC     ATOMS    COLORGROUP SYSTEM
1 26
