#       Name:                AV-unprocessed.smi:704
#       Creating user name   scv26
#       Creation time:       Fri Mar 27 00:43:09 2020


#       File generated by GOLD software.
#

@<TRIPOS>MOLECULE
AV-unprocessed.smi:704
    45    46     1
SMALL
NO_CHARGES


@<TRIPOS>ATOM
      1 ****        -2.9925  -3.9157   0.8156 C.3            1 S1                 0.0000
      2 ****        -2.3681  -2.6366   0.8328 O.3            1 S1                 0.0000
      3 ****        -3.1697  -1.5111   0.8119 C.ar           1 S1                 0.0000
      4 ****        -4.5161  -1.6781   0.7863 N.ar           1 S1                 0.0000
      5 ****        -5.3000  -0.5805   0.7717 C.ar           1 S1                 0.0000
      6 ****        -4.7901   0.7306   0.7881 C.ar           1 S1                 0.0000
      7 ****        -3.3944   0.9066   0.8130 C.ar           1 S1                 0.0000
      8 ****        -2.5581  -0.2358   0.8133 C.ar           1 S1                 0.0000
      9 ****        -1.1389  -0.1668   0.8590 N.am           1 S1                 0.0000
     10 ****        -0.3403   0.8264   0.4344 C.2            1 S1                 0.0000
     11 ****        -0.7209   1.8653  -0.1055 O.2            1 S1                 0.0000
     12 ****         0.9504   0.5324   0.6433 N.am           1 S1                 0.0000
     13 ****         2.0773   1.3855   0.2619 C.3            1 S1                 0.0000
     14 ****         3.3503   1.0082   1.0432 C.3            1 S1                 0.0000
     15 ****         4.5131   1.0422   0.0435 C.3            1 S1                 0.0000
     16 ****         3.9510   1.6742  -1.2329 C.3            1 S1                 0.0000
     17 ****         2.4531   1.3342  -1.2437 C.3            1 S1                 0.0000
     18 ****         2.1990  -0.0212  -1.9390 C.2            1 S1                 0.0000
     19 ****         1.3841  -0.0136  -2.9969 N.am           1 S1                 0.0000
     20 ****         2.7204  -1.0566  -1.5281 O.2            1 S1                 0.0000
     21 ****        -2.2268  -4.6912   0.8324 H              1 S1                 0.0000
     22 ****        -3.5864  -4.0576  -0.0885 H              1 S1                 0.0000
     23 ****        -3.6292  -4.0612   1.6894 H              1 S1                 0.0000
     24 ****        -6.3660  -0.7526   0.7535 H              1 S1                 0.0000
     25 ****        -5.4544   1.5820   0.7868 H              1 S1                 0.0000
     26 ****        -2.9943   1.9082   0.8467 H              1 S1                 0.0000
     27 ****        -0.6759  -1.0018   1.1876 H              1 S1                 0.0000
     28 ****         1.1750  -0.3484   1.0826 H              1 S1                 0.0000
     29 ****         1.8313   2.4194   0.5126 H              1 S1                 0.0000
     30 ****         3.5156   1.7108   1.8608 H              1 S1                 0.0000
     31 ****         3.2758   0.0141   1.4865 H              1 S1                 0.0000
     32 ****         5.3711   1.5949   0.4271 H              1 S1                 0.0000
     33 ****         4.8496   0.0254  -0.1632 H              1 S1                 0.0000
     34 ****         4.0721   2.7572  -1.1864 H              1 S1                 0.0000
     35 ****         4.4789   1.3326  -2.1246 H              1 S1                 0.0000
     36 ****         1.9018   2.1041  -1.7865 H              1 S1                 0.0000
     37 ****         1.1884  -0.8731  -3.4895 H              1 S1                 0.0000
     38 ****         0.9690   0.8543  -3.3033 H              1 S1                 0.0000
     39 ****        -1.7711  -2.5888   0.0320 LP             1 S1                 0.0000
     40 ****        -1.8147  -2.5895   1.6644 LP             1 S1                 0.0000
     41 ****        -4.9179  -2.5938   0.7784 LP             1 S1                 0.0000
     42 ****        -1.6968   2.0207  -0.2586 LP             1 S1                 0.0000
     43 ****        -0.0541   2.5537  -0.3909 LP             1 S1                 0.0000
     44 ****         3.3217  -1.0308  -0.7295 LP             1 S1                 0.0000
     45 ****         2.5430  -1.9243  -1.9926 LP             1 S1                 0.0000
@<TRIPOS>BOND
    1    1    2 1     
    2    1   21 1     
    3    1   22 1     
    4    1   23 1     
    5    2    3 1     
    6    3    8 ar    
    7    3    4 ar    
    8    4    5 ar    
    9    5    6 ar    
   10    5   24 1     
   11    6    7 ar    
   12    6   25 1     
   13    7    8 ar    
   14    7   26 1     
   15    8    9 1     
   16    9   10 am    
   17    9   27 1     
   18   10   11 2     
   19   10   12 am    
   20   12   13 1     
   21   12   28 1     
   22   13   17 1     
   23   13   14 1     
   24   13   29 1     
   25   14   15 1     
   26   14   30 1     
   27   14   31 1     
   28   15   16 1     
   29   15   32 1     
   30   15   33 1     
   31   16   17 1     
   32   16   34 1     
   33   16   35 1     
   34   17   18 1     
   35   17   36 1     
   36   18   19 am    
   37   18   20 2     
   38   19   37 1     
   39   19   38 1     
   40    2   39 1     
   41    2   40 1     
   42    4   41 1     
   43   11   42 1     
   44   11   43 1     
   45   20   44 1     
   46   20   45 1     
@<TRIPOS>SUBSTRUCTURE
      1 S1             1
@<TRIPOS>SET
LONE_PAIRS      STATIC     ATOMS    <user>   **** ""
7 39 40 41 42 43 44 45
DONOR_HYDROGENS      STATIC     ATOMS    <user>   **** ""
4 27 28 37 38
ATOM$BLUE        STATIC     ATOMS    COLORGROUP SYSTEM
7 39 40 41 42 43 44 45
ATOM$RED        STATIC     ATOMS    COLORGROUP SYSTEM
4 27 28 37 38
