AV-unprocessed.smi:2706|AV-procd|sdf|10449|dock1
  -GOLD-   2272014493D 1   1.00000     0.00000
 Structure written by MMmdl.
 44 47  0  0  0  0  0  0  0  0  2 V2000
  154.0177  135.8603  164.2122 C   0  0  0  0  0  0  0  0  0  0  0  0
  154.6665  135.0973  163.1514 N   0  0  0  0  0  0  0  0  0  0  0  0
  155.1287  133.7383  163.4036 C   0  0  0  0  0  0  0  0  0  0  0  0
  154.7391  135.6299  161.8467 C   0  0  0  0  0  0  0  0  0  0  0  0
  155.1786  134.8831  160.7281 C   0  0  0  0  0  0  0  0  0  0  0  0
  155.2168  135.4904  159.4583 C   0  0  0  0  0  0  0  0  0  0  0  0
  154.8193  136.8341  159.3174 C   0  0  0  0  0  0  0  0  0  0  0  0
  154.3904  137.5567  160.4588 C   0  0  0  0  0  0  0  0  0  0  0  0
  153.9579  138.9124  160.4568 N   0  0  0  0  0  0  0  0  0  0  0  0
  153.6085  139.6996  159.4233 C   0  0  0  0  0  0  0  0  0  0  0  0
  153.6220  139.3713  158.2375 O   0  0  0  0  0  0  0  0  0  0  0  0
  153.2393  140.9163  159.8479 N   0  0  0  0  0  0  0  0  0  0  0  0
  152.7970  141.9866  159.0133 C   0  0  2  0  0  0  0  0  0  0  0  0
  152.8166  143.3861  159.6087 C   0  0  1  0  0  0  0  0  0  0  0  0
  152.6443  144.6884  158.8322 C   0  0  2  0  0  0  0  0  0  0  0  0
  151.6669  145.5838  159.6216 C   0  0  0  0  0  0  0  0  0  0  0  0
  150.3131  144.8588  159.4218 C   0  0  0  0  0  0  0  0  0  0  0  0
  150.7075  143.6517  158.5455 C   0  0  1  0  0  0  0  0  0  0  0  0
  151.7569  144.3070  157.6459 C   0  0  0  0  0  0  0  0  0  0  0  0
  151.5064  142.6847  159.4143 C   0  0  1  0  0  0  0  0  0  0  0  0
  154.3706  136.9199  161.6526 N   0  3  0  0  0  0  0  0  0  0  0  0
  152.9695  136.0393  163.9697 H   0  0  0  0  0  0  0  0  0  0  0  0
  154.5128  136.8220  164.3525 H   0  0  0  0  0  0  0  0  0  0  0  0
  154.0548  135.3278  165.1627 H   0  0  0  0  0  0  0  0  0  0  0  0
  154.5835  133.0258  162.7835 H   0  0  0  0  0  0  0  0  0  0  0  0
  154.9790  133.4552  164.4459 H   0  0  0  0  0  0  0  0  0  0  0  0
  156.1934  133.6488  163.1851 H   0  0  0  0  0  0  0  0  0  0  0  0
  155.4865  133.8524  160.8219 H   0  0  0  0  0  0  0  0  0  0  0  0
  155.5473  134.9282  158.5972 H   0  0  0  0  0  0  0  0  0  0  0  0
  154.8508  137.2718  158.3324 H   0  0  0  0  0  0  0  0  0  0  0  0
  153.9166  139.3475  161.3666 H   0  0  0  0  0  0  0  0  0  0  0  0
  153.2635  141.1025  160.8399 H   0  0  0  0  0  0  0  0  0  0  0  0
  153.0046  141.8893  157.9498 H   0  0  0  0  0  0  0  0  0  0  0  0
  153.1896  143.4902  160.6264 H   0  0  0  0  0  0  0  0  0  0  0  0
  153.5942  145.1588  158.5774 H   0  0  0  0  0  0  0  0  0  0  0  0
  151.9414  145.6699  160.6737 H   0  0  0  0  0  0  0  0  0  0  0  0
  151.6313  146.5898  159.2012 H   0  0  0  0  0  0  0  0  0  0  0  0
  149.8608  144.5539  160.3663 H   0  0  0  0  0  0  0  0  0  0  0  0
  149.6029  145.5042  158.9030 H   0  0  0  0  0  0  0  0  0  0  0  0
  149.8782  143.1694  158.0274 H   0  0  0  0  0  0  0  0  0  0  0  0
  151.3774  145.1680  157.0919 H   0  0  0  0  0  0  0  0  0  0  0  0
  152.2253  143.6290  156.9333 H   0  0  0  0  0  0  0  0  0  0  0  0
  150.9939  142.3150  160.3009 H   0  0  0  0  0  0  0  0  0  0  0  0
  154.0572  137.4444  162.4691 H   0  0  0  0  0  0  0  0  0  0  0  0
  1  2  1  0  0  0  0
  1 22  1  0  0  0  0
  1 23  1  0  0  0  0
  1 24  1  0  0  0  0
  2  3  1  0  0  0  0
  2  4  1  0  0  0  0
  3 25  1  0  0  0  0
  3 26  1  0  0  0  0
  3 27  1  0  0  0  0
  4 21  1  0  0  0  0
  4  5  2  0  0  0  0
  5  6  1  0  0  0  0
  5 28  1  0  0  0  0
  6  7  2  0  0  0  0
  6 29  1  0  0  0  0
  7  8  1  0  0  0  0
  7 30  1  0  0  0  0
  8  9  1  0  0  0  0
  8 21  2  0  0  0  0
  9 10  1  0  0  0  0
  9 31  1  0  0  0  0
 10 11  2  0  0  0  0
 10 12  1  0  0  0  0
 12 13  1  0  0  0  0
 12 32  1  0  0  0  0
 13 20  1  0  0  0  0
 13 14  1  0  0  0  0
 13 33  1  0  0  0  0
 14 20  1  0  0  0  0
 14 15  1  0  0  0  0
 14 34  1  0  0  0  0
 15 19  1  0  0  0  0
 15 16  1  0  0  0  0
 15 35  1  0  0  0  0
 16 17  1  0  0  0  0
 16 36  1  0  0  0  0
 16 37  1  0  0  0  0
 17 18  1  0  0  0  0
 17 38  1  0  0  0  0
 17 39  1  0  0  0  0
 18 19  1  0  0  0  0
 18 20  1  0  0  0  0
 18 40  1  0  0  0  0
 19 41  1  0  0  0  0
 19 42  1  0  0  0  0
 20 43  1  0  0  0  0
 21 44  1  0  0  0  0
M  CHG  1  21   1
M  END
> <s_m_source_file>
AV-unprocessed.smi

> <i_m_source_file_index>
2706

> <i_lp_mmshare_version>
43012

> <i_f3d_flags>
0

> <s_epik_input>
W0NIM11OKFtDSDNdKWMxW2NIXVtjSF1bY0hdYyhuMSlbTkhdQyg9TylbTkhdW0NASF0yW0NAQEhdM1tDQEBIXShbQ0gyXTQpW0NIMl1bQ0gyXVtDQEBIXTRbQ0BIXTIz

> <s_epik_cmdline>
J2VwaWtfcHl0aG9uJywgJy1waCcsICc3LjAnLCAnLXRuJywgJzgnLCAnLW1hJywgJzIwMCcsICctbWV0YWxfYmluZGluZycsICctaW1hZScsICc8aW5maWxlLm1hZT4nLCAnLW9tYWUnLCAnPG91dGZpbGUubWFlPic=

> <r_lp_tautomer_probability>
0.999994

> <r_epik_Ionization_Penalty>
1.8105

> <r_epik_Ionization_Penalty_Charging>
1.79227

> <r_epik_Ionization_Penalty_Neutral>
0.0182286

> <r_epik_State_Penalty>
1.90588

> <r_epik_Charging_Adjusted_Penalty>
3.69815

> <i_epik_Tot_Q>
1

> <i_epik_Tot_abs_Q>
1

> <r_epik_Metal_State_Penalty>
1.93501

> <b_epik_Metal_Only>
0

> <s_lp_Force_Field>
OPLS_2005

> <r_lp_Energy>
85.2099

> <b_lp_Chiralities_Consistent>
1

> <s_lp_Variant>
AV-unprocessed.smi:2706-6

> <Gold.Version>
5.8.1

> <Gold.Id.Protein>
6NUR|6NUR_protein|mol2

> <Gold.PLP.Fitness>
46.3403

> <Gold.PLP.PLP>
-43.7888

> <Gold.PLP.part.hbond>
-1.0000

> <Gold.PLP.part.metal>
0.0000

> <Gold.PLP.part.buried>
-5.3863

> <Gold.PLP.part.nonpolar>
-36.9091

> <Gold.PLP.part.repulsive>
0.1700

> <Gold.PLP.ligand.clash>
0.0000

> <Gold.PLP.ligand.torsion>
0.2419

> <Gold.PLP.Chemscore.Hbond>
1.0000

> <Gold.PLP.Chemscore.CHOScore>
0.0000

> <Gold.PLP.Chemscore.Metal>
0.0000

> <Gold.Chemscore.Hbonds>
donor molecule, donor type, donor heavy atom, donor atom, acceptor molecule, acceptor atom, score
      P1  H  7997  8010       L1    11  1.00

> <Gold.PLP.Chemscore.Internal.Correction>
0.0352

> <Gold.Rescore>
     Score         DG    S(hbond)    S(metal)    S(lipo)     H(rot)  DE(clash)    DE(int)     intcor
     18.37     -19.73       0.97        0.00     115.99       1.00       0.23       1.13       ----

> <Gold.Chemscore.Fitness>
18.3682

> <Gold.Chemscore.DG>
-19.7257

> <Gold.Chemscore.ZeroCoef>
-5.4800

> <Gold.Chemscore.Hbond>
0.9684

> <Gold.Chemscore.Metal>
0.0000

> <Gold.Chemscore.Lipo>
115.9935

> <Gold.Chemscore.Internal_Hbond>
0.0000

> <Gold.Chemscore.DEClash>
0.2323

> <Gold.Chemscore.DEInternal>
1.1252

> <Gold.Chemscore.Rot>
1.0000

> <Gold.Chemscore.Internal.Correction>
   9.000000E+99

> <Gold.Chemscore.Hbonds>
donor molecule, donor type, donor heavy atom, donor atom, acceptor molecule, acceptor atom, score
      P1  H  7997  8010       L1    11  0.98

> <Gold.Chemscore.Hbond.Weighted>
-3.2345

> <Gold.Chemscore.Metal.Weighted>
-0.0000

> <Gold.Chemscore.Lipo.Weighted>
-13.5712

> <Gold.Chemscore.Internal_Hbond.Weighted>
0.0000

> <Gold.Chemscore.DEClash.Weighted>
0.2323

> <Gold.Chemscore.DEInternal.Weighted>
1.1252

> <Gold.Chemscore.Rot.Weighted>
2.5600

> <Gold.Chemscore.Internal.Correction.Weighted>
   9.000000E+99

> <Gold.Protein.RotatedTorsions>
[ 6907 6896 6895 6894 ] final  -24.80 input  -60.11 | X-H torsion
[ 7974 7965 7964 7962 ] final   90.17 input  175.53 | X-H torsion
[ 8008 7997 7996 7995 ] final   22.29 input   59.86 | X-H torsion
[ 10167 10162 10161 10158 ] final  145.84 input  -65.29 | X-H torsion
[ 10718 10713 10712 10709 ] final  -96.49 input   66.30 | X-H torsion
[ 10763 10752 10751 10750 ] final -114.61 input  -60.55 | X-H torsion
[ 11005 11000 10999 10996 ] final -170.46 input  -57.11 | X-H torsion

> <Gold.Protein.ActiveResidues>
 VAL166  LYS551  ARG553  GLY616  TRP617  ASP618  TYR619  PRO620  LYS621  CYS622 
 ASP623  PHE694  ASN695  SER759  ASP760  ASP761  ALA762  ILE779  LEU786  VAL792 
 PHE793  MET794  SER795  GLU796  ALA797  LYS798  CYS799  TRP800  GLU811  SER814 

> <Gold.Protein.RotatedAtoms>
  151.1843  135.0375  159.8805 H   0  0  0  0  0  0  0  0  0  0  0  0  # atno 6907 bound_to 6896
  152.5443  134.1027  159.8335 H   0  0  0  0  0  0  0  0  0  0  0  0  # atno 6908 bound_to 6896
  151.1148  133.5100  159.2636 H   0  0  0  0  0  0  0  0  0  0  0  0  # atno 6909 bound_to 6896
  145.5226  139.2280  143.2663 H   0  0  0  0  0  0  0  0  0  0  0  0  # atno 7974 bound_to 7965
  154.9635  140.3081  155.5020 H   0  0  0  0  0  0  0  0  0  0  0  0  # atno 8008 bound_to 7997
  156.2974  140.2297  156.4661 H   0  0  0  0  0  0  0  0  0  0  0  0  # atno 8009 bound_to 7997
  154.7942  140.0438  157.1213 H   0  0  0  0  0  0  0  0  0  0  0  0  # atno 8010 bound_to 7997
  139.4918  144.5873  151.6752 H   0  0  0  0  0  0  0  0  0  0  0  0  # atno 10167 bound_to 10162
  156.0063  130.5154  150.6234 H   0  0  0  0  0  0  0  0  0  0  0  0  # atno 10718 bound_to 10713
  154.8447  135.4412  154.1532 H   0  0  0  0  0  0  0  0  0  0  0  0  # atno 10763 bound_to 10752
  153.2688  135.6943  153.7508 H   0  0  0  0  0  0  0  0  0  0  0  0  # atno 10764 bound_to 10752
  153.6757  135.3411  155.3140 H   0  0  0  0  0  0  0  0  0  0  0  0  # atno 10765 bound_to 10752
  140.5193  134.5725  157.5043 H   0  0  0  0  0  0  0  0  0  0  0  0  # atno 11005 bound_to 11000
  146.2096  140.6039  142.9065 LP  0  0  0  0  0  0  0  0  0  0  0  0  # atno 17320 bound_to 7965
  144.7668  140.5548  143.6698 LP  0  0  0  0  0  0  0  0  0  0  0  0  # atno 17321 bound_to 7965
  140.5492  144.0453  150.6120 LP  0  0  0  0  0  0  0  0  0  0  0  0  # atno 17342 bound_to 10162
  140.3502  143.2968  152.0495 LP  0  0  0  0  0  0  0  0  0  0  0  0  # atno 17343 bound_to 10162
  157.4045  131.0815  151.1278 LP  0  0  0  0  0  0  0  0  0  0  0  0  # atno 17370 bound_to 10713
  157.1928  130.6360  149.5710 LP  0  0  0  0  0  0  0  0  0  0  0  0  # atno 17371 bound_to 10713
  139.9615  134.7445  156.0228 LP  0  0  0  0  0  0  0  0  0  0  0  0  # atno 17394 bound_to 11000
  141.1343  133.6579  156.3550 LP  0  0  0  0  0  0  0  0  0  0  0  0  # atno 17395 bound_to 11000

$$$$
