#       Name:                AV-unprocessed.smi:3145
#       Creating user name   scv26
#       Creation time:       Fri Mar 27 17:38:23 2020


#       File generated by GOLD software.
#

@<TRIPOS>MOLECULE
AV-unprocessed.smi:3145
    39    39     1
SMALL
NO_CHARGES


@<TRIPOS>ATOM
      1 ****        -3.7006  -0.5524   1.1934 C.3            1 S1                 0.0000
      2 ****        -2.2780   0.0240   1.1721 C.3            1 S1                 0.0000
      3 ****        -2.2174   1.3216   0.3346 C.3            1 S1                 0.0000
      4 ****        -0.9199   1.9740   0.3793 N.pl3          1 S1                 0.0000
      5 ****        -0.3938   2.7638   1.3796 C.2            1 S1                 0.0000
      6 ****         0.8571   3.1417   0.9834 C.2            1 S1                 0.0000
      7 ****         1.0077   2.5292  -0.2920 C.2            1 S1                 0.0000
      8 ****        -0.0581   1.8332  -0.6524 N.2            1 S1                 0.0000
      9 ****        -1.4015  -0.9899   0.5941 N.3            1 S1                 0.0000
     10 ****        -0.1423  -1.1292   1.3361 C.3            1 S1                 0.0000
     11 ****         0.8918  -1.9120   0.5327 C.2            1 S1                 0.0000
     12 ****         1.2182  -3.0470   0.8782 O.2            1 S1                 0.0000
     13 ****         1.4029  -1.2855  -0.5367 N.am           1 S1                 0.0000
     14 ****         2.4052  -1.8496  -1.4275 C.3            1 S1                 0.0000
     15 ****         2.7426  -0.8577  -2.5454 C.3            1 S1                 0.0000
     16 ****         3.7626  -1.3734  -3.4706 C.1            1 S1                 0.0000
     17 ****         4.5653  -1.7791  -4.1984 N.1            1 S1                 0.0000
     18 ****        -4.4026   0.1580   1.6311 H              1 S1                 0.0000
     19 ****        -3.7483  -1.4658   1.7875 H              1 S1                 0.0000
     20 ****        -4.0528  -0.7888   0.1885 H              1 S1                 0.0000
     21 ****        -1.9955   0.2375   2.2050 H              1 S1                 0.0000
     22 ****        -2.4807   1.1206  -0.7055 H              1 S1                 0.0000
     23 ****        -2.9559   2.0340   0.7041 H              1 S1                 0.0000
     24 ****        -0.9459   2.9838   2.2817 H              1 S1                 0.0000
     25 ****         1.5580   3.7612   1.5227 H              1 S1                 0.0000
     26 ****         1.8539   2.5690  -0.9619 H              1 S1                 0.0000
     27 ****        -1.8902  -1.8723   0.5424 H              1 S1                 0.0000
     28 ****         0.2806  -0.1512   1.5664 H              1 S1                 0.0000
     29 ****        -0.3325  -1.6261   2.2884 H              1 S1                 0.0000
     30 ****         1.0674  -0.3558  -0.7462 H              1 S1                 0.0000
     31 ****         3.3038  -2.0902  -0.8572 H              1 S1                 0.0000
     32 ****         2.0315  -2.7820  -1.8541 H              1 S1                 0.0000
     33 ****         1.8519  -0.6210  -3.1281 H              1 S1                 0.0000
     34 ****         3.1149   0.0777  -2.1266 H              1 S1                 0.0000
     35 ****        -0.1954   1.3183  -1.4985 LP             1 S1                 0.0000
     36 ****        -1.1555  -0.6927  -0.3284 LP             1 S1                 0.0000
     37 ****         0.8051  -3.4609   1.6894 LP             1 S1                 0.0000
     38 ****         1.8966  -3.5555   0.3478 LP             1 S1                 0.0000
     39 ****         5.2591  -2.1298  -4.8274 LP             1 S1                 0.0000
@<TRIPOS>BOND
    1    1    2 1     
    2    1   18 1     
    3    1   19 1     
    4    1   20 1     
    5    2    3 1     
    6    2    9 1     
    7    2   21 1     
    8    3    4 1     
    9    3   22 1     
   10    3   23 1     
   11    4    8 1     
   12    4    5 1     
   13    5    6 2     
   14    5   24 1     
   15    6    7 1     
   16    6   25 1     
   17    7    8 2     
   18    7   26 1     
   19    9   10 1     
   20    9   27 1     
   21   10   11 1     
   22   10   28 1     
   23   10   29 1     
   24   11   12 2     
   25   11   13 am    
   26   13   14 1     
   27   13   30 1     
   28   14   15 1     
   29   14   31 1     
   30   14   32 1     
   31   15   16 1     
   32   15   33 1     
   33   15   34 1     
   34   16   17 3     
   35    8   35 1     
   36    9   36 1     
   37   12   37 1     
   38   12   38 1     
   39   17   39 1     
@<TRIPOS>SUBSTRUCTURE
      1 S1             1
@<TRIPOS>SET
LONE_PAIRS      STATIC     ATOMS    <user>   **** ""
5 35 36 37 38 39
DONOR_HYDROGENS      STATIC     ATOMS    <user>   **** ""
2 27 30
ATOM$BLUE        STATIC     ATOMS    COLORGROUP SYSTEM
5 35 36 37 38 39
ATOM$RED        STATIC     ATOMS    COLORGROUP SYSTEM
2 27 30
