AV-unprocessed.smi:2727|AV-procd|sdf|10524|dock5
  -GOLD-   2272014563D 1   1.00000     0.00000
 Structure written by MMmdl.
 39 40  0  0  0  0  0  0  0  0  2 V2000
  146.2395  140.5587  158.1449 O   0  0  0  0  0  0  0  0  0  0  0  0
  145.4945  139.8410  157.4735 C   0  0  0  0  0  0  0  0  0  0  0  0
  144.5836  139.0714  158.0840 N   0  0  0  0  0  0  0  0  0  0  0  0
  144.3761  138.9961  159.5271 C   0  0  0  0  0  0  0  0  0  0  0  0
  144.4487  137.5426  160.0365 C   0  0  0  0  0  0  0  0  0  0  0  0
  145.7511  137.1900  160.7836 C   0  0  0  0  0  0  0  0  0  0  0  0
  146.8311  137.4013  160.2292 O   0  0  0  0  0  0  0  0  0  0  0  0
  145.6804  136.6568  162.0286 N   0  0  0  0  0  0  0  0  0  0  0  0
  146.8866  136.2193  162.7424 C   0  0  0  0  0  0  0  0  0  0  0  0
  147.3334  134.8081  162.3089 C   0  0  0  0  0  0  0  0  0  0  0  0
  146.1987  133.8159  161.9689 C   0  0  0  0  0  0  0  0  0  0  0  0
  144.9783  133.8602  162.9104 C   0  0  0  0  0  0  0  0  0  0  0  0
  143.9478  134.9488  162.5412 C   0  0  0  0  0  0  0  0  0  0  0  0
  144.4367  136.3925  162.7653 C   0  0  0  0  0  0  0  0  0  0  0  0
  145.4852  139.7318  156.1257 N   0  5  0  0  0  0  0  0  0  0  0  0
  146.4290  140.3514  155.3986 C   0  0  0  0  0  0  0  0  0  0  0  0
  147.3293  141.2262  155.8510 N   0  0  0  0  0  0  0  0  0  0  0  0
  148.0810  141.6011  154.7482 C   0  0  0  0  0  0  0  0  0  0  0  0
  147.5912  140.9329  153.6594 C   0  0  0  0  0  0  0  0  0  0  0  0
  146.5465  140.1446  154.0561 O   0  0  0  0  0  0  0  0  0  0  0  0
  143.9959  138.4927  157.5022 H   0  0  0  0  0  0  0  0  0  0  0  0
  145.1104  139.6206  160.0387 H   0  0  0  0  0  0  0  0  0  0  0  0
  143.3954  139.4115  159.7633 H   0  0  0  0  0  0  0  0  0  0  0  0
  143.6133  137.3550  160.7113 H   0  0  0  0  0  0  0  0  0  0  0  0
  144.3124  136.8852  159.1787 H   0  0  0  0  0  0  0  0  0  0  0  0
  147.7033  136.9301  162.6043 H   0  0  0  0  0  0  0  0  0  0  0  0
  146.7097  136.2135  163.8183 H   0  0  0  0  0  0  0  0  0  0  0  0
  147.9836  134.8907  161.4370 H   0  0  0  0  0  0  0  0  0  0  0  0
  147.9561  134.3879  163.0991 H   0  0  0  0  0  0  0  0  0  0  0  0
  145.8657  133.9771  160.9425 H   0  0  0  0  0  0  0  0  0  0  0  0
  146.6190  132.8099  161.9794 H   0  0  0  0  0  0  0  0  0  0  0  0
  144.4726  132.8959  162.8516 H   0  0  0  0  0  0  0  0  0  0  0  0
  145.2979  133.9653  163.9479 H   0  0  0  0  0  0  0  0  0  0  0  0
  143.6405  134.8159  161.5036 H   0  0  0  0  0  0  0  0  0  0  0  0
  143.0472  134.7947  163.1366 H   0  0  0  0  0  0  0  0  0  0  0  0
  144.5854  136.5605  163.8325 H   0  0  0  0  0  0  0  0  0  0  0  0
  143.6538  137.1007  162.4941 H   0  0  0  0  0  0  0  0  0  0  0  0
  148.8944  142.3072  154.8248 H   0  0  0  0  0  0  0  0  0  0  0  0
  147.8503  140.9074  152.6117 H   0  0  0  0  0  0  0  0  0  0  0  0
  1  2  2  0  0  0  0
  2  3  1  0  0  0  0
  2 15  1  0  0  0  0
  3  4  1  0  0  0  0
  3 21  1  0  0  0  0
  4  5  1  0  0  0  0
  4 22  1  0  0  0  0
  4 23  1  0  0  0  0
  5  6  1  0  0  0  0
  5 24  1  0  0  0  0
  5 25  1  0  0  0  0
  6  7  2  0  0  0  0
  6  8  1  0  0  0  0
  8 14  1  0  0  0  0
  8  9  1  0  0  0  0
  9 10  1  0  0  0  0
  9 26  1  0  0  0  0
  9 27  1  0  0  0  0
 10 11  1  0  0  0  0
 10 28  1  0  0  0  0
 10 29  1  0  0  0  0
 11 12  1  0  0  0  0
 11 30  1  0  0  0  0
 11 31  1  0  0  0  0
 12 13  1  0  0  0  0
 12 32  1  0  0  0  0
 12 33  1  0  0  0  0
 13 14  1  0  0  0  0
 13 34  1  0  0  0  0
 13 35  1  0  0  0  0
 14 36  1  0  0  0  0
 14 37  1  0  0  0  0
 15 16  1  0  0  0  0
 16 20  1  0  0  0  0
 16 17  2  0  0  0  0
 17 18  1  0  0  0  0
 18 19  2  0  0  0  0
 18 38  1  0  0  0  0
 19 20  1  0  0  0  0
 19 39  1  0  0  0  0
M  CHG  1  15  -1
M  END
> <s_m_source_file>
AV-unprocessed.smi

> <i_m_source_file_index>
2727

> <i_lp_mmshare_version>
43012

> <i_f3d_flags>
0

> <s_epik_input>
bzFbY0hdW2NIXW5jMVtOSF1DKD1PKVtOSF1bQ0gyXVtDSDJdQyg9TylOMltDSDJdW0NIMl1bQ0gyXVtDSDJdW0NIMl1bQ0gyXTI=

> <s_epik_cmdline>
J2VwaWtfcHl0aG9uJywgJy1waCcsICc3LjAnLCAnLXRuJywgJzgnLCAnLW1hJywgJzIwMCcsICctbWV0YWxfYmluZGluZycsICctaW1hZScsICc8aW5maWxlLm1hZT4nLCAnLW9tYWUnLCAnPG91dGZpbGUubWFlPic=

> <r_lp_tautomer_probability>
0.785861

> <r_epik_Ionization_Penalty>
9.14426

> <r_epik_Ionization_Penalty_Charging>
6.65642

> <r_epik_Ionization_Penalty_Neutral>
2.48784

> <r_epik_State_Penalty>
6.67734

> <r_epik_Charging_Adjusted_Penalty>
13.3338

> <i_epik_Tot_Q>
-1

> <i_epik_Tot_abs_Q>
1

> <r_epik_Metal_State_Penalty>
2.58025

> <b_epik_Metal_Only>
1

> <s_lp_Force_Field>
OPLS_2005

> <r_lp_Energy>
17.6318

> <b_lp_Chiralities_Consistent>
1

> <s_lp_Variant>
AV-unprocessed.smi:2727-4

> <Gold.Version>
5.8.1

> <Gold.Id.Protein>
6NUR|6NUR_protein|mol2

> <Gold.PLP.Fitness>
36.6564

> <Gold.PLP.PLP>
-28.4165

> <Gold.PLP.part.hbond>
-1.6753

> <Gold.PLP.part.metal>
0.0000

> <Gold.PLP.part.buried>
-4.2518

> <Gold.PLP.part.nonpolar>
-23.3745

> <Gold.PLP.part.repulsive>
0.2895

> <Gold.PLP.ligand.clash>
0.0000

> <Gold.PLP.ligand.torsion>
0.4031

> <Gold.PLP.Chemscore.Hbond>
1.0000

> <Gold.PLP.Chemscore.CHOScore>
2.0000

> <Gold.PLP.Chemscore.Metal>
0.0000

> <Gold.Chemscore.Hbonds>
donor molecule, donor type, donor heavy atom, donor atom, acceptor molecule, acceptor atom, score
      P1  H  6934  6947       L1     7  0.95
      L1  C    18    38       P1  8028  0.97
      L1  C    19    39       P1  7957  1.00

> <Gold.PLP.Chemscore.Internal.Correction>
0.0462

> <Gold.Rescore>
     Score         DG    S(hbond)    S(metal)    S(lipo)     H(rot)  DE(clash)    DE(int)     intcor
      8.72     -11.16       1.20        0.00      51.01       1.67       0.38       2.05       ----

> <Gold.Chemscore.Fitness>
8.7231

> <Gold.Chemscore.DG>
-11.1555

> <Gold.Chemscore.ZeroCoef>
-5.4800

> <Gold.Chemscore.Hbond>
1.1960

> <Gold.Chemscore.Metal>
0.0000

> <Gold.Chemscore.Lipo>
51.0055

> <Gold.Chemscore.Internal_Hbond>
0.0000

> <Gold.Chemscore.DEClash>
0.3829

> <Gold.Chemscore.DEInternal>
2.0495

> <Gold.Chemscore.Rot>
1.6745

> <Gold.Chemscore.Internal.Correction>
   9.000000E+99

> <Gold.Chemscore.Hbonds>
donor molecule, donor type, donor heavy atom, donor atom, acceptor molecule, acceptor atom, score
      P1  H  6934  6947       L1     7  0.22

> <Gold.Chemscore.Hbond.Weighted>
-3.9945

> <Gold.Chemscore.Metal.Weighted>
-0.0000

> <Gold.Chemscore.Lipo.Weighted>
-5.9676

> <Gold.Chemscore.Internal_Hbond.Weighted>
0.0000

> <Gold.Chemscore.DEClash.Weighted>
0.3829

> <Gold.Chemscore.DEInternal.Weighted>
2.0495

> <Gold.Chemscore.Rot.Weighted>
4.2866

> <Gold.Chemscore.Internal.Correction.Weighted>
   9.000000E+99

> <Gold.Protein.RotatedTorsions>
[ 6907 6896 6895 6894 ] final -154.08 input  -60.11 | X-H torsion
[ 7974 7965 7964 7962 ] final -154.28 input  175.53 | X-H torsion
[ 8008 7997 7996 7995 ] final  -68.00 input   59.86 | X-H torsion
[ 10167 10162 10161 10158 ] final   19.29 input  -65.29 | X-H torsion
[ 10718 10713 10712 10709 ] final  -12.48 input   66.30 | X-H torsion
[ 10763 10752 10751 10750 ] final   64.31 input  -60.55 | X-H torsion
[ 11005 11000 10999 10996 ] final  -79.96 input  -57.11 | X-H torsion

> <Gold.Protein.ActiveResidues>
 VAL166  LYS551  ARG553  GLY616  TRP617  ASP618  TYR619  PRO620  LYS621  CYS622 
 ASP623  PHE694  ASN695  SER759  ASP760  ASP761  ALA762  ILE779  LEU786  VAL792 
 PHE793  MET794  SER795  GLU796  ALA797  LYS798  CYS799  TRP800  GLU811  SER814 

> <Gold.Protein.RotatedAtoms>
  151.2521  133.4345  159.2611 H   0  0  0  0  0  0  0  0  0  0  0  0  # atno 6907 bound_to 6896
  151.0608  134.9735  159.8269 H   0  0  0  0  0  0  0  0  0  0  0  0  # atno 6908 bound_to 6896
  152.5398  134.2471  159.8937 H   0  0  0  0  0  0  0  0  0  0  0  0  # atno 6909 bound_to 6896
  144.7697  140.4410  143.5916 H   0  0  0  0  0  0  0  0  0  0  0  0  # atno 7974 bound_to 7965
  154.4838  140.0881  156.7439 H   0  0  0  0  0  0  0  0  0  0  0  0  # atno 8008 bound_to 7997
  155.4403  140.3453  155.4271 H   0  0  0  0  0  0  0  0  0  0  0  0  # atno 8009 bound_to 7997
  156.1231  140.1480  156.9164 H   0  0  0  0  0  0  0  0  0  0  0  0  # atno 8010 bound_to 7997
  140.5590  143.9371  150.6629 H   0  0  0  0  0  0  0  0  0  0  0  0  # atno 10167 bound_to 10162
  156.6440  130.4936  149.6085 H   0  0  0  0  0  0  0  0  0  0  0  0  # atno 10718 bound_to 10713
  153.0051  135.5397  154.6490 H   0  0  0  0  0  0  0  0  0  0  0  0  # atno 10763 bound_to 10752
  154.5726  135.2843  155.0814 H   0  0  0  0  0  0  0  0  0  0  0  0  # atno 10764 bound_to 10752
  154.1974  135.6490  153.5129 H   0  0  0  0  0  0  0  0  0  0  0  0  # atno 10765 bound_to 10752
  141.1668  133.7129  156.8201 H   0  0  0  0  0  0  0  0  0  0  0  0  # atno 11005 bound_to 11000
  145.6360  139.1543  143.2942 LP  0  0  0  0  0  0  0  0  0  0  0  0  # atno 17320 bound_to 7965
  146.1834  140.6460  142.9178 LP  0  0  0  0  0  0  0  0  0  0  0  0  # atno 17321 bound_to 7965
  140.2817  143.3385  152.1145 LP  0  0  0  0  0  0  0  0  0  0  0  0  # atno 17342 bound_to 10162
  139.5061  144.6808  151.6014 LP  0  0  0  0  0  0  0  0  0  0  0  0  # atno 17343 bound_to 10162
  156.2136  130.6694  151.1295 LP  0  0  0  0  0  0  0  0  0  0  0  0  # atno 17370 bound_to 10713
  157.7162  131.0708  150.6318 LP  0  0  0  0  0  0  0  0  0  0  0  0  # atno 17371 bound_to 10713
  140.2125  134.8817  157.3290 LP  0  0  0  0  0  0  0  0  0  0  0  0  # atno 17394 bound_to 11000
  140.2072  134.4183  155.7632 LP  0  0  0  0  0  0  0  0  0  0  0  0  # atno 17395 bound_to 11000

$$$$
