AV-unprocessed.smi:767|AV-procd|sdf|3659|dock2
  -GOLD-   22720 1 63D 1   1.00000     0.00000
 Structure written by MMmdl.
 47 49  0  0  0  0  0  0  0  0  1 V2000
  144.9098  130.8266  151.8648 C   0  0  0  0  0  0  0  0  0  0  0  0
  145.0331  132.3186  151.6369 C   0  0  0  0  0  0  0  0  0  0  0  0
  144.0852  133.0095  150.8532 C   0  0  0  0  0  0  0  0  0  0  0  0
  144.2502  134.3955  150.6700 C   0  0  0  0  0  0  0  0  0  0  0  0
  145.3489  135.0368  151.2780 C   0  0  0  0  0  0  0  0  0  0  0  0
  145.5598  136.5334  151.1263 C   0  0  0  0  0  0  0  0  0  0  0  0
  145.6692  137.2785  152.4718 C   0  0  0  0  0  0  0  0  0  0  0  0
  147.0460  137.4046  152.9395 N   0  0  0  0  0  0  0  0  0  0  0  0
  147.4105  137.7698  154.1758 C   0  0  0  0  0  0  0  0  0  0  0  0
  146.6202  138.0764  155.0685 O   0  0  0  0  0  0  0  0  0  0  0  0
  148.7404  137.7396  154.3254 N   0  0  0  0  0  0  0  0  0  0  0  0
  149.4519  138.0439  155.5676 C   0  0  2  0  0  0  0  0  0  0  0  0
  149.2953  139.5201  155.9987 C   0  0  2  0  0  0  0  0  0  0  0  0
  148.3060  140.4614  155.3556 C   0  0  0  0  0  0  0  0  0  0  0  0
  149.1603  141.1970  154.3187 C   0  0  0  0  0  0  0  0  0  0  0  0
  150.2920  140.3547  154.1103 O   0  0  0  0  0  0  0  0  0  0  0  0
  150.6521  139.7846  155.3668 C   0  0  2  0  0  0  0  0  0  0  0  0
  150.9746  138.2759  155.3662 C   0  0  0  0  0  0  0  0  0  0  0  0
  151.8378  137.8204  156.5463 C   0  0  0  0  0  0  0  0  0  0  0  0
  151.6526  137.7290  154.1029 C   0  0  0  0  0  0  0  0  0  0  0  0
  146.2413  134.2533  152.0391 C   0  0  0  0  0  0  0  0  0  0  0  0
  146.0928  132.9230  152.2186 N   0  0  0  0  0  0  0  0  0  0  0  0
  143.9093  130.4728  151.6147 H   0  0  0  0  0  0  0  0  0  0  0  0
  145.1046  130.5781  152.9087 H   0  0  0  0  0  0  0  0  0  0  0  0
  145.6275  130.2907  151.2434 H   0  0  0  0  0  0  0  0  0  0  0  0
  143.2502  132.4930  150.4032 H   0  0  0  0  0  0  0  0  0  0  0  0
  143.5409  134.9558  150.0792 H   0  0  0  0  0  0  0  0  0  0  0  0
  146.4603  136.7050  150.5360 H   0  0  0  0  0  0  0  0  0  0  0  0
  144.7362  136.9487  150.5442 H   0  0  0  0  0  0  0  0  0  0  0  0
  145.2754  138.2887  152.3583 H   0  0  0  0  0  0  0  0  0  0  0  0
  145.0539  136.7916  153.2298 H   0  0  0  0  0  0  0  0  0  0  0  0
  147.7729  137.1663  152.2809 H   0  0  0  0  0  0  0  0  0  0  0  0
  149.3049  137.4635  153.5353 H   0  0  0  0  0  0  0  0  0  0  0  0
  149.2259  137.3536  156.3826 H   0  0  0  0  0  0  0  0  0  0  0  0
  149.3454  139.6130  157.0847 H   0  0  0  0  0  0  0  0  0  0  0  0
  147.4786  139.9309  154.8850 H   0  0  0  0  0  0  0  0  0  0  0  0
  147.8757  141.1598  156.0739 H   0  0  0  0  0  0  0  0  0  0  0  0
  148.6240  141.3822  153.3879 H   0  0  0  0  0  0  0  0  0  0  0  0
  149.4999  142.1553  154.7142 H   0  0  0  0  0  0  0  0  0  0  0  0
  151.3080  140.4194  155.9644 H   0  0  0  0  0  0  0  0  0  0  0  0
  152.8556  138.2043  156.4712 H   0  0  0  0  0  0  0  0  0  0  0  0
  151.8982  136.7329  156.6005 H   0  0  0  0  0  0  0  0  0  0  0  0
  151.4341  138.1670  157.4982 H   0  0  0  0  0  0  0  0  0  0  0  0
  152.6868  138.0656  154.0258 H   0  0  0  0  0  0  0  0  0  0  0  0
  151.1504  138.0532  153.1914 H   0  0  0  0  0  0  0  0  0  0  0  0
  151.6611  136.6388  154.0975 H   0  0  0  0  0  0  0  0  0  0  0  0
  147.0948  134.7065  152.5217 H   0  0  0  0  0  0  0  0  0  0  0  0
  1  2  1  0  0  0  0
  1 23  1  0  0  0  0
  1 24  1  0  0  0  0
  1 25  1  0  0  0  0
  2 22  1  0  0  0  0
  2  3  2  0  0  0  0
  3  4  1  0  0  0  0
  3 26  1  0  0  0  0
  4  5  2  0  0  0  0
  4 27  1  0  0  0  0
  5  6  1  0  0  0  0
  5 21  1  0  0  0  0
  6  7  1  0  0  0  0
  6 28  1  0  0  0  0
  6 29  1  0  0  0  0
  7  8  1  0  0  0  0
  7 30  1  0  0  0  0
  7 31  1  0  0  0  0
  8  9  1  0  0  0  0
  8 32  1  0  0  0  0
  9 10  2  0  0  0  0
  9 11  1  0  0  0  0
 11 12  1  0  0  0  0
 11 33  1  0  0  0  0
 12 18  1  0  0  0  0
 12 13  1  0  0  0  0
 12 34  1  0  0  0  0
 13 17  1  0  0  0  0
 13 14  1  0  0  0  0
 13 35  1  0  0  0  0
 14 15  1  0  0  0  0
 14 36  1  0  0  0  0
 14 37  1  0  0  0  0
 15 16  1  0  0  0  0
 15 38  1  0  0  0  0
 15 39  1  0  0  0  0
 16 17  1  0  0  0  0
 17 18  1  0  0  0  0
 17 40  1  0  0  0  0
 18 19  1  0  0  0  0
 18 20  1  0  0  0  0
 19 41  1  0  0  0  0
 19 42  1  0  0  0  0
 19 43  1  0  0  0  0
 20 44  1  0  0  0  0
 20 45  1  0  0  0  0
 20 46  1  0  0  0  0
 21 22  2  0  0  0  0
 21 47  1  0  0  0  0
M  END
> <s_m_source_file>
AV-unprocessed.smi

> <i_m_source_file_index>
767

> <i_lp_mmshare_version>
43012

> <i_f3d_flags>
0

> <s_epik_input>
W0NIM11jMVtjSF1bY0hdYyhbY0hdbjEpW0NIMl1bQ0gyXVtOSF1DKD1PKVtOSF1bQ0BIXTJDKFtDSDNdKShbQ0gzXSlbQ0BIXShbQ0BASF0yMylPW0NIMl1bQ0gyXTM=

> <s_epik_cmdline>
J2VwaWtfcHl0aG9uJywgJy1waCcsICc3LjAnLCAnLXRuJywgJzgnLCAnLW1hJywgJzIwMCcsICctbWV0YWxfYmluZGluZycsICctaW1hZScsICc8aW5maWxlLm1hZT4nLCAnLW9tYWUnLCAnPG91dGZpbGUubWFlPic=

> <r_epik_Ionization_Penalty>
0.0567523

> <r_epik_Ionization_Penalty_Charging>
0

> <r_epik_Ionization_Penalty_Neutral>
0.0567523

> <r_epik_State_Penalty>
0.0489186

> <r_epik_Charging_Adjusted_Penalty>
0.0489186

> <i_epik_Tot_Q>
0

> <i_epik_Tot_abs_Q>
0

> <r_epik_Metal_State_Penalty>
0.044622

> <b_epik_Metal_Only>
0

> <s_lp_Force_Field>
OPLS_2005

> <r_lp_Energy>
34.1608

> <b_lp_Chiralities_Consistent>
1

> <s_lp_Variant>
AV-unprocessed.smi:767-3

> <Gold.Version>
5.8.1

> <Gold.Id.Protein>
6NUR|6NUR_protein|mol2

> <Gold.PLP.Fitness>
42.9373

> <Gold.PLP.PLP>
-33.3949

> <Gold.PLP.part.hbond>
-2.6669

> <Gold.PLP.part.metal>
0.0000

> <Gold.PLP.part.buried>
-1.8682

> <Gold.PLP.part.nonpolar>
-29.5699

> <Gold.PLP.part.repulsive>
0.5822

> <Gold.PLP.ligand.clash>
0.0000

> <Gold.PLP.ligand.torsion>
0.4141

> <Gold.PLP.Chemscore.Hbond>
2.3792

> <Gold.PLP.Chemscore.CHOScore>
1.0000

> <Gold.PLP.Chemscore.Metal>
0.0000

> <Gold.Chemscore.Hbonds>
donor molecule, donor type, donor heavy atom, donor atom, acceptor molecule, acceptor atom, score
      L1  H     8    32       P1  7948  1.00
      L1  H    11    33       P1  7948  0.62
      P1  H  7989  7998       L1    16  0.91
      L1  C    21    47       P1  7948  1.00

> <Gold.PLP.Chemscore.Internal.Correction>
0.2330

> <Gold.Rescore>
     Score         DG    S(hbond)    S(metal)    S(lipo)     H(rot)  DE(clash)    DE(int)     intcor
     18.48     -20.50       2.13        0.00      99.37       1.45       1.43       0.59       ----

> <Gold.Chemscore.Fitness>
18.4842

> <Gold.Chemscore.DG>
-20.4985

> <Gold.Chemscore.ZeroCoef>
-5.4800

> <Gold.Chemscore.Hbond>
2.1269

> <Gold.Chemscore.Metal>
0.0000

> <Gold.Chemscore.Lipo>
99.3678

> <Gold.Chemscore.Internal_Hbond>
0.0000

> <Gold.Chemscore.DEClash>
1.4269

> <Gold.Chemscore.DEInternal>
0.5874

> <Gold.Chemscore.Rot>
1.4497

> <Gold.Chemscore.Internal.Correction>
   9.000000E+99

> <Gold.Chemscore.Hbonds>
donor molecule, donor type, donor heavy atom, donor atom, acceptor molecule, acceptor atom, score
      L1  H     8    32       P1  7948  0.91
      L1  H    11    33       P1  7948  0.58
      P1  H  7989  7998       L1    16  0.47

> <Gold.Chemscore.Hbond.Weighted>
-7.1037

> <Gold.Chemscore.Metal.Weighted>
-0.0000

> <Gold.Chemscore.Lipo.Weighted>
-11.6260

> <Gold.Chemscore.Internal_Hbond.Weighted>
0.0000

> <Gold.Chemscore.DEClash.Weighted>
1.4269

> <Gold.Chemscore.DEInternal.Weighted>
0.5874

> <Gold.Chemscore.Rot.Weighted>
3.7112

> <Gold.Chemscore.Internal.Correction.Weighted>
   9.000000E+99

> <Gold.Protein.RotatedTorsions>
[ 6907 6896 6895 6894 ] final  -44.88 input  -60.11 | X-H torsion
[ 7974 7965 7964 7962 ] final   92.99 input  175.53 | X-H torsion
[ 8008 7997 7996 7995 ] final  153.89 input   59.86 | X-H torsion
[ 10167 10162 10161 10158 ] final -139.42 input  -65.29 | X-H torsion
[ 10718 10713 10712 10709 ] final   58.40 input   66.30 | X-H torsion
[ 10763 10752 10751 10750 ] final   -1.15 input  -60.55 | X-H torsion
[ 11005 11000 10999 10996 ] final  -63.65 input  -57.11 | X-H torsion

> <Gold.Protein.ActiveResidues>
 VAL166  LYS551  ARG553  GLY616  TRP617  ASP618  TYR619  PRO620  LYS621  CYS622 
 ASP623  PHE694  ASN695  SER759  ASP760  ASP761  ALA762  ILE779  LEU786  VAL792 
 PHE793  MET794  SER795  GLU796  ALA797  LYS798  CYS799  TRP800  GLU811  SER814 

> <Gold.Protein.RotatedAtoms>
  150.9280  134.8696  159.7532 H   0  0  0  0  0  0  0  0  0  0  0  0  # atno 6907 bound_to 6896
  152.5024  134.4120  159.9462 H   0  0  0  0  0  0  0  0  0  0  0  0  # atno 6908 bound_to 6896
  151.4149  133.3676  159.2784 H   0  0  0  0  0  0  0  0  0  0  0  0  # atno 6909 bound_to 6896
  145.4849  139.2277  143.2862 H   0  0  0  0  0  0  0  0  0  0  0  0  # atno 7974 bound_to 7965
  156.2559  140.1981  156.6561 H   0  0  0  0  0  0  0  0  0  0  0  0  # atno 8008 bound_to 7997
  154.6500  140.0573  156.9969 H   0  0  0  0  0  0  0  0  0  0  0  0  # atno 8009 bound_to 7997
  155.1433  140.3244  155.4450 H   0  0  0  0  0  0  0  0  0  0  0  0  # atno 8010 bound_to 7997
  139.8381  143.7358  152.2664 H   0  0  0  0  0  0  0  0  0  0  0  0  # atno 10167 bound_to 10162
  157.5593  130.8823  149.9085 H   0  0  0  0  0  0  0  0  0  0  0  0  # atno 10718 bound_to 10713
  153.3411  135.6980  153.6866 H   0  0  0  0  0  0  0  0  0  0  0  0  # atno 10763 bound_to 10752
  153.5631  135.3531  155.2808 H   0  0  0  0  0  0  0  0  0  0  0  0  # atno 10764 bound_to 10752
  154.8637  135.4254  154.2624 H   0  0  0  0  0  0  0  0  0  0  0  0  # atno 10765 bound_to 10752
  141.1400  133.6655  156.5713 H   0  0  0  0  0  0  0  0  0  0  0  0  # atno 11005 bound_to 11000
  146.2319  140.5638  142.8971 LP  0  0  0  0  0  0  0  0  0  0  0  0  # atno 17320 bound_to 7965
  144.7867  140.5951  143.6569 LP  0  0  0  0  0  0  0  0  0  0  0  0  # atno 17321 bound_to 7965
  139.7586  144.7513  151.0397 LP  0  0  0  0  0  0  0  0  0  0  0  0  # atno 17342 bound_to 10162
  140.7800  143.4777  151.0061 LP  0  0  0  0  0  0  0  0  0  0  0  0  # atno 17343 bound_to 10162
  156.0647  130.3694  150.0903 LP  0  0  0  0  0  0  0  0  0  0  0  0  # atno 17370 bound_to 10713
  156.9069  130.9639  151.3568 LP  0  0  0  0  0  0  0  0  0  0  0  0  # atno 17371 bound_to 10713
  140.3911  134.7440  157.4722 LP  0  0  0  0  0  0  0  0  0  0  0  0  # atno 17394 bound_to 11000
  140.0566  134.6055  155.8798 LP  0  0  0  0  0  0  0  0  0  0  0  0  # atno 17395 bound_to 11000

$$$$
