AV-unprocessed.smi:720|AV-procd|sdf|3501|dock5
  -GOLD-   22720 0493D 1   1.00000     0.00000
 Structure written by MMmdl.
 46 48  0  0  0  0  0  0  0  0  1 V2000
  151.6667  141.3136  159.6935 C   0  0  0  0  0  0  0  0  0  0  0  0
  151.8700  142.1226  158.4975 N   0  0  0  0  0  0  0  0  0  0  0  0
  151.8936  143.5239  158.8961 C   0  0  0  0  0  0  0  0  0  0  0  0
  150.8041  141.9263  157.5137 C   0  0  0  0  0  0  0  0  0  0  0  0
  150.9109  140.5928  156.7430 C   0  0  0  0  0  0  0  0  0  0  0  0
  149.8751  140.4204  155.7385 N   0  0  0  0  0  0  0  0  0  0  0  0
  148.9705  141.3532  155.2701 C   0  0  0  0  0  0  0  0  0  0  0  0
  148.2113  140.7462  154.3104 C   0  0  0  0  0  0  0  0  0  0  0  0
  148.7448  139.4293  154.2571 C   0  0  0  0  0  0  0  0  0  0  0  0
  148.2132  138.4705  153.3581 N   0  0  0  0  0  0  0  0  0  0  0  0
  146.9207  138.1325  153.1818 C   0  0  0  0  0  0  0  0  0  0  0  0
  145.9765  138.6456  153.7795 O   0  0  0  0  0  0  0  0  0  0  0  0
  146.7230  137.1712  152.2618 N   0  0  0  0  0  0  0  0  0  0  0  0
  145.4528  136.5803  151.8345 C   0  0  2  0  0  0  0  0  0  0  0  0
  144.7208  135.8267  152.9700 C   0  0  0  0  0  0  0  0  0  0  0  0
  144.5713  134.4053  152.3972 C   0  0  1  0  0  0  0  0  0  0  0  0
  143.5647  134.4218  151.2300 C   0  0  0  0  0  0  0  0  0  0  0  0
  144.3499  135.1336  150.1103 C   0  0  0  0  0  0  0  0  0  0  0  0
  145.6889  135.4614  150.7968 C   0  0  2  0  0  0  0  0  0  0  0  0
  145.8959  134.2262  151.6687 C   0  0  0  0  0  0  0  0  0  0  0  0
  149.7489  139.2363  155.1006 N   0  0  0  0  0  0  0  0  0  0  0  0
  151.7531  140.2520  159.4703 H   0  0  0  0  0  0  0  0  0  0  0  0
  150.6869  141.4960  160.1374 H   0  0  0  0  0  0  0  0  0  0  0  0
  152.4268  141.5407  160.4418 H   0  0  0  0  0  0  0  0  0  0  0  0
  152.0818  144.1672  158.0357 H   0  0  0  0  0  0  0  0  0  0  0  0
  152.6898  143.7045  159.6191 H   0  0  0  0  0  0  0  0  0  0  0  0
  150.9471  143.8253  159.3479 H   0  0  0  0  0  0  0  0  0  0  0  0
  149.8215  142.0465  157.9726 H   0  0  0  0  0  0  0  0  0  0  0  0
  150.8913  142.7245  156.7752 H   0  0  0  0  0  0  0  0  0  0  0  0
  151.8667  140.5621  156.2188 H   0  0  0  0  0  0  0  0  0  0  0  0
  150.9125  139.7437  157.4290 H   0  0  0  0  0  0  0  0  0  0  0  0
  148.9420  142.3614  155.6564 H   0  0  0  0  0  0  0  0  0  0  0  0
  147.4045  141.1780  153.7368 H   0  0  0  0  0  0  0  0  0  0  0  0
  148.8873  137.9871  152.7831 H   0  0  0  0  0  0  0  0  0  0  0  0
  147.5461  136.8300  151.7865 H   0  0  0  0  0  0  0  0  0  0  0  0
  144.8221  137.3605  151.4044 H   0  0  0  0  0  0  0  0  0  0  0  0
  145.3139  135.8047  153.8858 H   0  0  0  0  0  0  0  0  0  0  0  0
  143.7580  136.2781  153.2118 H   0  0  0  0  0  0  0  0  0  0  0  0
  144.3549  133.6496  153.1528 H   0  0  0  0  0  0  0  0  0  0  0  0
  143.3017  133.4074  150.9280 H   0  0  0  0  0  0  0  0  0  0  0  0
  142.6430  134.9441  151.4887 H   0  0  0  0  0  0  0  0  0  0  0  0
  144.5030  134.4627  149.2640 H   0  0  0  0  0  0  0  0  0  0  0  0
  143.8387  136.0237  149.7414 H   0  0  0  0  0  0  0  0  0  0  0  0
  146.4945  135.6700  150.0918 H   0  0  0  0  0  0  0  0  0  0  0  0
  146.7643  134.2981  152.3259 H   0  0  0  0  0  0  0  0  0  0  0  0
  145.9553  133.2975  151.0981 H   0  0  0  0  0  0  0  0  0  0  0  0
  1  2  1  0  0  0  0
  1 22  1  0  0  0  0
  1 23  1  0  0  0  0
  1 24  1  0  0  0  0
  2  3  1  0  0  0  0
  2  4  1  0  0  0  0
  3 25  1  0  0  0  0
  3 26  1  0  0  0  0
  3 27  1  0  0  0  0
  4  5  1  0  0  0  0
  4 28  1  0  0  0  0
  4 29  1  0  0  0  0
  5  6  1  0  0  0  0
  5 30  1  0  0  0  0
  5 31  1  0  0  0  0
  6 21  1  0  0  0  0
  6  7  1  0  0  0  0
  7  8  2  0  0  0  0
  7 32  1  0  0  0  0
  8  9  1  0  0  0  0
  8 33  1  0  0  0  0
  9 10  1  0  0  0  0
  9 21  2  0  0  0  0
 10 11  1  0  0  0  0
 10 34  1  0  0  0  0
 11 12  2  0  0  0  0
 11 13  1  0  0  0  0
 13 14  1  0  0  0  0
 13 35  1  0  0  0  0
 14 19  1  0  0  0  0
 14 15  1  0  0  0  0
 14 36  1  0  0  0  0
 15 16  1  0  0  0  0
 15 37  1  0  0  0  0
 15 38  1  0  0  0  0
 16 20  1  0  0  0  0
 16 17  1  0  0  0  0
 16 39  1  0  0  0  0
 17 18  1  0  0  0  0
 17 40  1  0  0  0  0
 17 41  1  0  0  0  0
 18 19  1  0  0  0  0
 18 42  1  0  0  0  0
 18 43  1  0  0  0  0
 19 20  1  0  0  0  0
 19 44  1  0  0  0  0
 20 45  1  0  0  0  0
 20 46  1  0  0  0  0
M  END
> <s_m_source_file>
AV-unprocessed.smi

> <i_m_source_file_index>
720

> <i_lp_mmshare_version>
43012

> <i_f3d_flags>
0

> <s_epik_input>
W0NIM11OKFtDSDNdKVtDSDJdW0NIMl1uMVtjSF1bY0hdYyhuMSlbTkhdQyg9TylbTkhdW0NASF0oW0NIMl1bQ0BIXTIzKVtDQEhdKFtDSDJdMylbQ0gyXVtDSDJdMg==

> <s_epik_cmdline>
J2VwaWtfcHl0aG9uJywgJy1waCcsICc3LjAnLCAnLXRuJywgJzgnLCAnLW1hJywgJzIwMCcsICctbWV0YWxfYmluZGluZycsICctaW1hZScsICc8aW5maWxlLm1hZT4nLCAnLW9tYWUnLCAnPG91dGZpbGUubWFlPic=

> <r_lp_tautomer_probability>
1

> <r_epik_Ionization_Penalty>
1.83819

> <r_epik_Ionization_Penalty_Charging>
0

> <r_epik_Ionization_Penalty_Neutral>
1.83819

> <r_epik_State_Penalty>
1.95467

> <r_epik_Charging_Adjusted_Penalty>
1.95467

> <i_epik_Tot_Q>
0

> <i_epik_Tot_abs_Q>
0

> <r_epik_Metal_State_Penalty>
1.95467

> <b_epik_Metal_Only>
0

> <s_lp_Force_Field>
OPLS_2005

> <r_lp_Energy>
62.6494

> <b_lp_Chiralities_Consistent>
1

> <s_lp_Variant>
AV-unprocessed.smi:720-7

> <Gold.Version>
5.8.1

> <Gold.Id.Protein>
6NUR|6NUR_protein|mol2

> <Gold.PLP.Fitness>
44.1894

> <Gold.PLP.PLP>
-37.1616

> <Gold.PLP.part.hbond>
-2.8544

> <Gold.PLP.part.metal>
0.0000

> <Gold.PLP.part.buried>
-1.7914

> <Gold.PLP.part.nonpolar>
-34.9329

> <Gold.PLP.part.repulsive>
0.5948

> <Gold.PLP.ligand.clash>
0.0000

> <Gold.PLP.ligand.torsion>
0.6472

> <Gold.PLP.Chemscore.Hbond>
1.7613

> <Gold.PLP.Chemscore.CHOScore>
1.0000

> <Gold.PLP.Chemscore.Metal>
0.0000

> <Gold.Chemscore.Hbonds>
donor molecule, donor type, donor heavy atom, donor atom, acceptor molecule, acceptor atom, score
      L1  H    10    34       P1  7948  0.74
      L1  H    13    35       P1  7948  0.94
      L1  C     7    32       P1  8028  1.00

> <Gold.PLP.Chemscore.Internal.Correction>
0.0384

> <Gold.Rescore>
     Score         DG    S(hbond)    S(metal)    S(lipo)     H(rot)  DE(clash)    DE(int)     intcor
     15.05     -16.96       1.81        0.00      79.82       1.53       0.02       1.89       ----

> <Gold.Chemscore.Fitness>
15.0486

> <Gold.Chemscore.DG>
-16.9588

> <Gold.Chemscore.ZeroCoef>
-5.4800

> <Gold.Chemscore.Hbond>
1.8144

> <Gold.Chemscore.Metal>
0.0000

> <Gold.Chemscore.Lipo>
79.8170

> <Gold.Chemscore.Internal_Hbond>
0.0000

> <Gold.Chemscore.DEClash>
0.0155

> <Gold.Chemscore.DEInternal>
1.8947

> <Gold.Chemscore.Rot>
1.5312

> <Gold.Chemscore.Internal.Correction>
   9.000000E+99

> <Gold.Chemscore.Hbonds>
donor molecule, donor type, donor heavy atom, donor atom, acceptor molecule, acceptor atom, score
      L1  H    10    34       P1  7948  0.73
      L1  H    13    35       P1  7948  0.86

> <Gold.Chemscore.Hbond.Weighted>
-6.0601

> <Gold.Chemscore.Metal.Weighted>
-0.0000

> <Gold.Chemscore.Lipo.Weighted>
-9.3386

> <Gold.Chemscore.Internal_Hbond.Weighted>
0.0000

> <Gold.Chemscore.DEClash.Weighted>
0.0155

> <Gold.Chemscore.DEInternal.Weighted>
1.8947

> <Gold.Chemscore.Rot.Weighted>
3.9199

> <Gold.Chemscore.Internal.Correction.Weighted>
   9.000000E+99

> <Gold.Protein.RotatedTorsions>
[ 6907 6896 6895 6894 ] final -149.68 input  -60.11 | X-H torsion
[ 7974 7965 7964 7962 ] final  -97.22 input  175.53 | X-H torsion
[ 8008 7997 7996 7995 ] final   11.92 input   59.86 | X-H torsion
[ 10167 10162 10161 10158 ] final  172.45 input  -65.29 | X-H torsion
[ 10718 10713 10712 10709 ] final  179.83 input   66.30 | X-H torsion
[ 10763 10752 10751 10750 ] final  130.68 input  -60.55 | X-H torsion
[ 11005 11000 10999 10996 ] final   41.00 input  -57.11 | X-H torsion

> <Gold.Protein.ActiveResidues>
 VAL166  LYS551  ARG553  GLY616  TRP617  ASP618  TYR619  PRO620  LYS621  CYS622 
 ASP623  PHE694  ASN695  SER759  ASP760  ASP761  ALA762  ILE779  LEU786  VAL792 
 PHE793  MET794  SER795  GLU796  ALA797  LYS798  CYS799  TRP800  GLU811  SER814 

> <Gold.Protein.RotatedAtoms>
  151.1876  133.4687  159.2594 H   0  0  0  0  0  0  0  0  0  0  0  0  # atno 6907 bound_to 6896
  151.1196  135.0072  159.8542 H   0  0  0  0  0  0  0  0  0  0  0  0  # atno 6908 bound_to 6896
  152.5455  134.1788  159.8680 H   0  0  0  0  0  0  0  0  0  0  0  0  # atno 6909 bound_to 6896
  145.3366  140.9452  143.2632 H   0  0  0  0  0  0  0  0  0  0  0  0  # atno 7974 bound_to 7965
  154.8135  140.2872  155.5837 H   0  0  0  0  0  0  0  0  0  0  0  0  # atno 8008 bound_to 7997
  156.2990  140.2564  156.2958 H   0  0  0  0  0  0  0  0  0  0  0  0  # atno 8009 bound_to 7997
  154.9420  140.0381  157.2091 H   0  0  0  0  0  0  0  0  0  0  0  0  # atno 8010 bound_to 7997
  139.5077  144.3372  152.0054 H   0  0  0  0  0  0  0  0  0  0  0  0  # atno 10167 bound_to 10162
  156.8700  130.9780  151.3074 H   0  0  0  0  0  0  0  0  0  0  0  0  # atno 10718 bound_to 10713
  153.7620  135.3194  155.3338 H   0  0  0  0  0  0  0  0  0  0  0  0  # atno 10763 bound_to 10752
  154.8226  135.4592  154.0828 H   0  0  0  0  0  0  0  0  0  0  0  0  # atno 10764 bound_to 10752
  153.2062  135.6929  153.8254 H   0  0  0  0  0  0  0  0  0  0  0  0  # atno 10765 bound_to 10752
  140.1877  134.4026  155.8164 H   0  0  0  0  0  0  0  0  0  0  0  0  # atno 11005 bound_to 11000
  144.8823  139.4887  143.6717 LP  0  0  0  0  0  0  0  0  0  0  0  0  # atno 17320 bound_to 7965
  146.3024  139.7470  142.9081 LP  0  0  0  0  0  0  0  0  0  0  0  0  # atno 17321 bound_to 7965
  140.2810  144.3859  150.6119 LP  0  0  0  0  0  0  0  0  0  0  0  0  # atno 17342 bound_to 10162
  140.6018  143.2167  151.7058 LP  0  0  0  0  0  0  0  0  0  0  0  0  # atno 17343 bound_to 10162
  157.6201  130.8648  149.9094 LP  0  0  0  0  0  0  0  0  0  0  0  0  # atno 17370 bound_to 10713
  156.0731  130.3682  150.0733 LP  0  0  0  0  0  0  0  0  0  0  0  0  # atno 17371 bound_to 10713
  141.2225  133.7031  156.8040 LP  0  0  0  0  0  0  0  0  0  0  0  0  # atno 17394 bound_to 11000
  140.2195  134.8767  157.3362 LP  0  0  0  0  0  0  0  0  0  0  0  0  # atno 17395 bound_to 11000

$$$$
