AV-unprocessed.smi:2567|AV-procd|sdf|10080|dock3
  -GOLD-   2272014103D 1   1.00000     0.00000
 Structure written by MMmdl.
 33 34  0  0  0  0  0  0  0  0  1 V2000
  153.1327  142.8401  159.6319 C   0  0  0  0  0  0  0  0  0  0  0  0
  152.0537  143.6313  158.8673 C   0  0  0  0  0  0  0  0  0  0  0  0
  151.0243  144.2017  159.8618 C   0  0  0  0  0  0  0  0  0  0  0  0
  152.7458  144.8156  158.1561 C   0  0  0  0  0  0  0  0  0  0  0  0
  151.3564  142.7207  157.8848 C   0  0  0  0  0  0  0  0  0  0  0  0
  150.2985  143.0919  157.1551 N   0  0  0  0  0  0  0  0  0  0  0  0
  149.8839  142.0579  156.3942 N   0  0  0  0  0  0  0  0  0  0  0  0
  150.7565  141.1065  156.7206 C   0  0  0  0  0  0  0  0  0  0  0  0
  150.6490  139.7326  156.1356 C   0  0  2  0  0  0  0  0  0  0  0  0
  151.8640  138.8540  156.4922 C   0  0  0  0  0  0  0  0  0  0  0  0
  151.7679  137.5591  155.8198 N   0  0  0  0  0  0  0  0  0  0  0  0
  151.6109  137.7249  154.3754 C   0  0  0  0  0  0  0  0  0  0  0  0
  150.4076  138.6344  154.0669 C   0  0  0  0  0  0  0  0  0  0  0  0
  150.5759  139.8881  154.7200 O   0  0  0  0  0  0  0  0  0  0  0  0
  151.6880  141.4509  157.6619 N   0  0  0  0  0  0  0  0  0  0  0  0
  153.6615  143.4741  160.3443 H   0  0  0  0  0  0  0  0  0  0  0  0
  153.8738  142.4215  158.9499 H   0  0  0  0  0  0  0  0  0  0  0  0
  152.6999  142.0119  160.1943 H   0  0  0  0  0  0  0  0  0  0  0  0
  150.5313  143.4092  160.4260 H   0  0  0  0  0  0  0  0  0  0  0  0
  150.2482  144.7685  159.3461 H   0  0  0  0  0  0  0  0  0  0  0  0
  151.4955  144.8699  160.5834 H   0  0  0  0  0  0  0  0  0  0  0  0
  153.2551  145.4638  158.8703 H   0  0  0  0  0  0  0  0  0  0  0  0
  152.0286  145.4342  157.6150 H   0  0  0  0  0  0  0  0  0  0  0  0
  153.4944  144.4714  157.4416 H   0  0  0  0  0  0  0  0  0  0  0  0
  149.7287  139.2684  156.4964 H   0  0  0  0  0  0  0  0  0  0  0  0
  152.7840  139.3577  156.1920 H   0  0  0  0  0  0  0  0  0  0  0  0
  151.9224  138.7120  157.5716 H   0  0  0  0  0  0  0  0  0  0  0  0
  152.5161  138.1612  153.9513 H   0  0  0  0  0  0  0  0  0  0  0  0
  151.4783  136.7531  153.8994 H   0  0  0  0  0  0  0  0  0  0  0  0
  150.3324  138.8048  152.9929 H   0  0  0  0  0  0  0  0  0  0  0  0
  149.4732  138.1667  154.3808 H   0  0  0  0  0  0  0  0  0  0  0  0
  152.6029  137.0144  156.0107 H   0  0  0  0  0  0  0  0  0  0  0  0
  149.8458  143.9946  157.1507 H   0  0  0  0  0  0  0  0  0  0  0  0
  1  2  1  0  0  0  0
  1 16  1  0  0  0  0
  1 17  1  0  0  0  0
  1 18  1  0  0  0  0
  2  3  1  0  0  0  0
  2  4  1  0  0  0  0
  2  5  1  0  0  0  0
  3 19  1  0  0  0  0
  3 20  1  0  0  0  0
  3 21  1  0  0  0  0
  4 22  1  0  0  0  0
  4 23  1  0  0  0  0
  4 24  1  0  0  0  0
  5 15  2  0  0  0  0
  5  6  1  0  0  0  0
  6  7  1  0  0  0  0
  6 33  1  0  0  0  0
  7  8  2  0  0  0  0
  8  9  1  0  0  0  0
  8 15  1  0  0  0  0
  9 14  1  0  0  0  0
  9 10  1  0  0  0  0
  9 25  1  0  0  0  0
 10 11  1  0  0  0  0
 10 26  1  0  0  0  0
 10 27  1  0  0  0  0
 11 12  1  0  0  0  0
 11 32  1  0  0  0  0
 12 13  1  0  0  0  0
 12 28  1  0  0  0  0
 12 29  1  0  0  0  0
 13 14  1  0  0  0  0
 13 30  1  0  0  0  0
 13 31  1  0  0  0  0
M  END
> <s_m_source_file>
AV-unprocessed.smi

> <i_m_source_file_index>
2567

> <i_lp_mmshare_version>
43012

> <i_f3d_flags>
0

> <s_epik_input>
W0NIM11DKFtDSDNdKShbQ0gzXSljMW5bbkhdYyhuMSlbQ0BASF0yW0NIMl1bTkhdW0NIMl1bQ0gyXU8y

> <s_epik_cmdline>
J2VwaWtfcHl0aG9uJywgJy1waCcsICc3LjAnLCAnLXRuJywgJzgnLCAnLW1hJywgJzIwMCcsICctbWV0YWxfYmluZGluZycsICctaW1hZScsICc8aW5maWxlLm1hZT4nLCAnLW9tYWUnLCAnPG91dGZpbGUubWFlPic=

> <r_lp_tautomer_probability>
0.948284

> <r_epik_Ionization_Penalty>
1.10045

> <r_epik_Ionization_Penalty_Charging>
0

> <r_epik_Ionization_Penalty_Neutral>
1.10045

> <r_epik_State_Penalty>
1.2625

> <r_epik_Charging_Adjusted_Penalty>
1.2625

> <i_epik_Tot_Q>
0

> <i_epik_Tot_abs_Q>
0

> <r_epik_Metal_State_Penalty>
1.57133

> <b_epik_Metal_Only>
0

> <s_lp_Force_Field>
OPLS_2005

> <r_lp_Energy>
14.8987

> <b_lp_Chiralities_Consistent>
1

> <s_lp_Variant>
AV-unprocessed.smi:2567-5

> <Gold.Version>
5.8.1

> <Gold.Id.Protein>
6NUR|6NUR_protein|mol2

> <Gold.PLP.Fitness>
34.8754

> <Gold.PLP.PLP>
-30.7463

> <Gold.PLP.part.hbond>
-2.0000

> <Gold.PLP.part.metal>
0.0000

> <Gold.PLP.part.buried>
-5.8109

> <Gold.PLP.part.nonpolar>
-25.7527

> <Gold.PLP.part.repulsive>
1.5666

> <Gold.PLP.ligand.clash>
0.0000

> <Gold.PLP.ligand.torsion>
0.2612

> <Gold.PLP.Chemscore.Hbond>
1.5440

> <Gold.PLP.Chemscore.CHOScore>
0.0000

> <Gold.PLP.Chemscore.Metal>
0.0000

> <Gold.Chemscore.Hbonds>
donor molecule, donor type, donor heavy atom, donor atom, acceptor molecule, acceptor atom, score
      L1  H     6    33       P1  8028  0.51
      P1  H  7989  7998       L1    14  1.00

> <Gold.PLP.Chemscore.Internal.Correction>
0.0195

> <Gold.Rescore>
     Score         DG    S(hbond)    S(metal)    S(lipo)     H(rot)  DE(clash)    DE(int)     intcor
     16.41     -17.08       1.66        0.00      78.96       1.25       0.57       0.11       ----

> <Gold.Chemscore.Fitness>
16.4100

> <Gold.Chemscore.DG>
-17.0840

> <Gold.Chemscore.ZeroCoef>
-5.4800

> <Gold.Chemscore.Hbond>
1.6625

> <Gold.Chemscore.Metal>
0.0000

> <Gold.Chemscore.Lipo>
78.9604

> <Gold.Chemscore.Internal_Hbond>
0.0000

> <Gold.Chemscore.DEClash>
0.5652

> <Gold.Chemscore.DEInternal>
0.1089

> <Gold.Chemscore.Rot>
1.2450

> <Gold.Chemscore.Internal.Correction>
   9.000000E+99

> <Gold.Chemscore.Hbonds>
donor molecule, donor type, donor heavy atom, donor atom, acceptor molecule, acceptor atom, score
      L1  H     6    33       P1  8028  0.41
      P1  H  7989  7998       L1    14  0.40

> <Gold.Chemscore.Hbond.Weighted>
-5.5529

> <Gold.Chemscore.Metal.Weighted>
-0.0000

> <Gold.Chemscore.Lipo.Weighted>
-9.2384

> <Gold.Chemscore.Internal_Hbond.Weighted>
0.0000

> <Gold.Chemscore.DEClash.Weighted>
0.5652

> <Gold.Chemscore.DEInternal.Weighted>
0.1089

> <Gold.Chemscore.Rot.Weighted>
3.1872

> <Gold.Chemscore.Internal.Correction.Weighted>
   9.000000E+99

> <Gold.Protein.RotatedTorsions>
[ 6907 6896 6895 6894 ] final  -29.84 input  -60.11 | X-H torsion
[ 7974 7965 7964 7962 ] final -168.41 input  175.53 | X-H torsion
[ 8008 7997 7996 7995 ] final  -92.79 input   59.86 | X-H torsion
[ 10167 10162 10161 10158 ] final  -11.09 input  -65.29 | X-H torsion
[ 10718 10713 10712 10709 ] final  102.65 input   66.30 | X-H torsion
[ 10763 10752 10751 10750 ] final   25.24 input  -60.55 | X-H torsion
[ 11005 11000 10999 10996 ] final   69.24 input  -57.11 | X-H torsion

> <Gold.Protein.ActiveResidues>
 VAL166  LYS551  ARG553  GLY616  TRP617  ASP618  TYR619  PRO620  LYS621  CYS622 
 ASP623  PHE694  ASN695  SER759  ASP760  ASP761  ALA762  ILE779  LEU786  VAL792 
 PHE793  MET794  SER795  GLU796  ALA797  LYS798  CYS799  TRP800  GLU811  SER814 

> <Gold.Protein.RotatedAtoms>
  151.1137  135.0041  159.8505 H   0  0  0  0  0  0  0  0  0  0  0  0  # atno 6907 bound_to 6896
  152.5444  134.1806  159.8644 H   0  0  0  0  0  0  0  0  0  0  0  0  # atno 6908 bound_to 6896
  151.1858  133.4652  159.2627 H   0  0  0  0  0  0  0  0  0  0  0  0  # atno 6909 bound_to 6896
  144.7204  140.2375  143.6296 H   0  0  0  0  0  0  0  0  0  0  0  0  # atno 7974 bound_to 7965
  154.7275  140.0505  157.0696 H   0  0  0  0  0  0  0  0  0  0  0  0  # atno 8008 bound_to 7997
  155.0345  140.3161  155.4727 H   0  0  0  0  0  0  0  0  0  0  0  0  # atno 8009 bound_to 7997
  156.2833  140.2144  156.5467 H   0  0  0  0  0  0  0  0  0  0  0  0  # atno 8010 bound_to 7997
  140.7130  143.5677  150.9126 H   0  0  0  0  0  0  0  0  0  0  0  0  # atno 10167 bound_to 10162
  157.6796  131.0758  150.5435 H   0  0  0  0  0  0  0  0  0  0  0  0  # atno 10718 bound_to 10713
  153.0706  135.6587  154.0256 H   0  0  0  0  0  0  0  0  0  0  0  0  # atno 10763 bound_to 10752
  153.9902  135.2947  155.3414 H   0  0  0  0  0  0  0  0  0  0  0  0  # atno 10764 bound_to 10752
  154.7079  135.5217  153.8693 H   0  0  0  0  0  0  0  0  0  0  0  0  # atno 10765 bound_to 10752
  139.9665  134.6972  156.0535 H   0  0  0  0  0  0  0  0  0  0  0  0  # atno 11005 bound_to 11000
  145.8352  139.2104  143.1859 LP  0  0  0  0  0  0  0  0  0  0  0  0  # atno 17320 bound_to 7965
  146.0396  140.8178  142.9835 LP  0  0  0  0  0  0  0  0  0  0  0  0  # atno 17321 bound_to 7965
  139.9403  143.6390  152.3055 LP  0  0  0  0  0  0  0  0  0  0  0  0  # atno 17342 bound_to 10162
  139.6872  144.7650  151.1503 LP  0  0  0  0  0  0  0  0  0  0  0  0  # atno 17343 bound_to 10162
  156.5742  130.4287  149.6006 LP  0  0  0  0  0  0  0  0  0  0  0  0  # atno 17370 bound_to 10713
  156.2715  130.7020  151.1818 LP  0  0  0  0  0  0  0  0  0  0  0  0  # atno 17371 bound_to 10713
  141.1345  133.6578  156.3555 LP  0  0  0  0  0  0  0  0  0  0  0  0  # atno 17394 bound_to 11000
  140.5385  134.6143  157.5372 LP  0  0  0  0  0  0  0  0  0  0  0  0  # atno 17395 bound_to 11000

$$$$
