AV-unprocessed.smi:2958|AV-procd|sdf|11307|dock1
  -GOLD-   2272016203D 1   1.00000     0.00000
 Structure written by MMmdl.
 39 41  0  0  0  0  0  0  0  0  1 V2000
  155.3438  145.0734  165.1667 C   0  0  0  0  0  0  0  0  0  0  0  0
  155.4923  143.6993  165.7872 C   0  0  0  0  0  0  0  0  0  0  0  0
  155.4839  143.5461  167.1882 C   0  0  0  0  0  0  0  0  0  0  0  0
  155.6232  142.2663  167.7554 C   0  0  0  0  0  0  0  0  0  0  0  0
  155.7709  141.1396  166.9244 C   0  0  0  0  0  0  0  0  0  0  0  0
  155.7794  141.2741  165.5210 C   0  0  0  0  0  0  0  0  0  0  0  0
  155.9258  140.1185  164.7842 O   0  0  0  0  0  0  0  0  0  0  0  0
  156.1331  140.2371  163.3843 C   0  0  0  0  0  0  0  0  0  0  0  0
  155.1759  139.2791  162.6662 C   0  0  0  0  0  0  0  0  0  0  0  0
  154.6907  139.8463  161.4182 N   0  0  0  0  0  0  0  0  0  0  0  0
  154.7471  139.3095  160.1736 C   0  0  0  0  0  0  0  0  0  0  0  0
  155.3605  137.9688  159.9088 C   0  0  0  0  0  0  0  0  0  0  0  0
  154.7115  136.9261  160.6045 O   0  0  0  0  0  0  0  0  0  0  0  0
  154.2198  140.0504  159.1980 N   0  0  0  0  0  0  0  0  0  0  0  0
  153.7745  141.1698  159.8740 C   0  0  0  0  0  0  0  0  0  0  0  0
  153.1186  142.3285  159.4001 C   0  0  0  0  0  0  0  0  0  0  0  0
  152.7484  143.3552  160.2935 C   0  0  0  0  0  0  0  0  0  0  0  0
  153.0277  143.2384  161.6707 C   0  0  0  0  0  0  0  0  0  0  0  0
  153.6825  142.0933  162.1636 C   0  0  0  0  0  0  0  0  0  0  0  0
  154.0510  141.0721  161.2673 C   0  0  0  0  0  0  0  0  0  0  0  0
  155.6393  142.5682  164.9577 C   0  0  0  0  0  0  0  0  0  0  0  0
  155.2518  145.8473  165.9293 H   0  0  0  0  0  0  0  0  0  0  0  0
  154.4548  145.1094  164.5365 H   0  0  0  0  0  0  0  0  0  0  0  0
  156.2125  145.3054  164.5500 H   0  0  0  0  0  0  0  0  0  0  0  0
  155.3712  144.4064  167.8317 H   0  0  0  0  0  0  0  0  0  0  0  0
  155.6170  142.1479  168.8290 H   0  0  0  0  0  0  0  0  0  0  0  0
  155.8770  140.1609  167.3689 H   0  0  0  0  0  0  0  0  0  0  0  0
  155.9425  141.2616  163.0609 H   0  0  0  0  0  0  0  0  0  0  0  0
  157.1647  139.9852  163.1327 H   0  0  0  0  0  0  0  0  0  0  0  0
  155.6804  138.3373  162.4476 H   0  0  0  0  0  0  0  0  0  0  0  0
  154.3297  139.0309  163.3068 H   0  0  0  0  0  0  0  0  0  0  0  0
  155.3427  137.7577  158.8396 H   0  0  0  0  0  0  0  0  0  0  0  0
  156.4092  137.9876  160.2066 H   0  0  0  0  0  0  0  0  0  0  0  0
  153.7787  137.0678  160.5546 H   0  0  0  0  0  0  0  0  0  0  0  0
  152.8994  142.4274  158.3473 H   0  0  0  0  0  0  0  0  0  0  0  0
  152.2471  144.2361  159.9203 H   0  0  0  0  0  0  0  0  0  0  0  0
  152.7396  144.0290  162.3481 H   0  0  0  0  0  0  0  0  0  0  0  0
  153.8982  142.0008  163.2178 H   0  0  0  0  0  0  0  0  0  0  0  0
  155.6425  142.7187  163.8886 H   0  0  0  0  0  0  0  0  0  0  0  0
  1  2  1  0  0  0  0
  1 22  1  0  0  0  0
  1 23  1  0  0  0  0
  1 24  1  0  0  0  0
  2 21  1  0  0  0  0
  2  3  2  0  0  0  0
  3  4  1  0  0  0  0
  3 25  1  0  0  0  0
  4  5  2  0  0  0  0
  4 26  1  0  0  0  0
  5  6  1  0  0  0  0
  5 27  1  0  0  0  0
  6  7  1  0  0  0  0
  6 21  2  0  0  0  0
  7  8  1  0  0  0  0
  8  9  1  0  0  0  0
  8 28  1  0  0  0  0
  8 29  1  0  0  0  0
  9 10  1  0  0  0  0
  9 30  1  0  0  0  0
  9 31  1  0  0  0  0
 10 20  1  0  0  0  0
 10 11  1  0  0  0  0
 11 12  1  0  0  0  0
 11 14  2  0  0  0  0
 12 13  1  0  0  0  0
 12 32  1  0  0  0  0
 12 33  1  0  0  0  0
 13 34  1  0  0  0  0
 14 15  1  0  0  0  0
 15 20  2  0  0  0  0
 15 16  1  0  0  0  0
 16 17  2  0  0  0  0
 16 35  1  0  0  0  0
 17 18  1  0  0  0  0
 17 36  1  0  0  0  0
 18 19  2  0  0  0  0
 18 37  1  0  0  0  0
 19 20  1  0  0  0  0
 19 38  1  0  0  0  0
 21 39  1  0  0  0  0
M  END
> <s_m_source_file>
AV-unprocessed.smi

> <i_m_source_file_index>
2958

> <i_lp_mmshare_version>
43012

> <i_f3d_flags>
0

> <s_epik_input>
W0NIM11jMVtjSF1bY0hdW2NIXWMoW2NIXTEpT1tDSDJdW0NIMl1uKGMobjIpW0NIMl1bT0hdKWMoYzIzKVtjSF1bY0hdW2NIXVtjSF0z

> <s_epik_cmdline>
J2VwaWtfcHl0aG9uJywgJy1waCcsICc3LjAnLCAnLXRuJywgJzgnLCAnLW1hJywgJzIwMCcsICctbWV0YWxfYmluZGluZycsICctaW1hZScsICc8aW5maWxlLm1hZT4nLCAnLW9tYWUnLCAnPG91dGZpbGUubWFlPic=

> <r_lp_tautomer_probability>
1

> <r_epik_Ionization_Penalty>
0.0482759

> <r_epik_Ionization_Penalty_Charging>
0

> <r_epik_Ionization_Penalty_Neutral>
0.0482759

> <r_epik_State_Penalty>
0.0410957

> <r_epik_Charging_Adjusted_Penalty>
0.0410957

> <i_epik_Tot_Q>
0

> <i_epik_Tot_abs_Q>
0

> <r_epik_Metal_State_Penalty>
4.25529e-05

> <b_epik_Metal_Only>
0

> <s_lp_Force_Field>
OPLS_2005

> <r_lp_Energy>
16.0806

> <b_lp_Chiralities_Consistent>
1

> <s_lp_Variant>
AV-unprocessed.smi:2958-1

> <Gold.Version>
5.8.1

> <Gold.Id.Protein>
6NUR|6NUR_protein|mol2

> <Gold.PLP.Fitness>
50.3595

> <Gold.PLP.PLP>
-48.7050

> <Gold.PLP.part.hbond>
-1.0000

> <Gold.PLP.part.metal>
0.0000

> <Gold.PLP.part.buried>
-2.9880

> <Gold.PLP.part.nonpolar>
-43.5607

> <Gold.PLP.part.repulsive>
0.0000

> <Gold.PLP.ligand.clash>
0.0000

> <Gold.PLP.ligand.torsion>
0.6895

> <Gold.PLP.Chemscore.Hbond>
0.9760

> <Gold.PLP.Chemscore.CHOScore>
0.0000

> <Gold.PLP.Chemscore.Metal>
0.0000

> <Gold.Chemscore.Hbonds>
donor molecule, donor type, donor heavy atom, donor atom, acceptor molecule, acceptor atom, score
      P1  H  7997  8009       L1    14  0.95

> <Gold.PLP.Chemscore.Internal.Correction>
0.1054

> <Gold.Rescore>
     Score         DG    S(hbond)    S(metal)    S(lipo)     H(rot)  DE(clash)    DE(int)     intcor
     18.66     -19.46       0.96        0.00     139.18       2.15       0.01       0.79       ----

> <Gold.Chemscore.Fitness>
18.6576

> <Gold.Chemscore.DG>
-19.4620

> <Gold.Chemscore.ZeroCoef>
-5.4800

> <Gold.Chemscore.Hbond>
0.9588

> <Gold.Chemscore.Metal>
0.0000

> <Gold.Chemscore.Lipo>
139.1757

> <Gold.Chemscore.Internal_Hbond>
0.0000

> <Gold.Chemscore.DEClash>
0.0123

> <Gold.Chemscore.DEInternal>
0.7922

> <Gold.Chemscore.Rot>
2.1499

> <Gold.Chemscore.Internal.Correction>
   9.000000E+99

> <Gold.Chemscore.Hbonds>
donor molecule, donor type, donor heavy atom, donor atom, acceptor molecule, acceptor atom, score
      P1  H  7997  8009       L1    14  0.82

> <Gold.Chemscore.Hbond.Weighted>
-3.2023

> <Gold.Chemscore.Metal.Weighted>
-0.0000

> <Gold.Chemscore.Lipo.Weighted>
-16.2836

> <Gold.Chemscore.Internal_Hbond.Weighted>
0.0000

> <Gold.Chemscore.DEClash.Weighted>
0.0123

> <Gold.Chemscore.DEInternal.Weighted>
0.7922

> <Gold.Chemscore.Rot.Weighted>
5.5038

> <Gold.Chemscore.Internal.Correction.Weighted>
   9.000000E+99

> <Gold.Protein.RotatedTorsions>
[ 6907 6896 6895 6894 ] final  -56.61 input  -60.11 | X-H torsion
[ 7974 7965 7964 7962 ] final -167.04 input  175.53 | X-H torsion
[ 8008 7997 7996 7995 ] final  121.29 input   59.86 | X-H torsion
[ 10167 10162 10161 10158 ] final  -51.28 input  -65.29 | X-H torsion
[ 10718 10713 10712 10709 ] final   97.99 input   66.30 | X-H torsion
[ 10763 10752 10751 10750 ] final -167.98 input  -60.55 | X-H torsion
[ 11005 11000 10999 10996 ] final  -90.51 input  -57.11 | X-H torsion

> <Gold.Protein.ActiveResidues>
 VAL166  LYS551  ARG553  GLY616  TRP617  ASP618  TYR619  PRO620  LYS621  CYS622 
 ASP623  PHE694  ASN695  SER759  ASP760  ASP761  ALA762  ILE779  LEU786  VAL792 
 PHE793  MET794  SER795  GLU796  ALA797  LYS798  CYS799  TRP800  GLU811  SER814 

> <Gold.Protein.RotatedAtoms>
  150.8153  134.7331  159.6724 H   0  0  0  0  0  0  0  0  0  0  0  0  # atno 6907 bound_to 6896
  152.4272  134.5843  159.9966 H   0  0  0  0  0  0  0  0  0  0  0  0  # atno 6908 bound_to 6896
  151.6041  133.3316  159.3089 H   0  0  0  0  0  0  0  0  0  0  0  0  # atno 6909 bound_to 6896
  144.7232  140.2577  143.6269 H   0  0  0  0  0  0  0  0  0  0  0  0  # atno 7974 bound_to 7965
  156.2680  140.2811  156.1285 H   0  0  0  0  0  0  0  0  0  0  0  0  # atno 8008 bound_to 7997
  155.1080  140.0390  157.2733 H   0  0  0  0  0  0  0  0  0  0  0  0  # atno 8009 bound_to 7997
  154.6764  140.2599  155.6959 H   0  0  0  0  0  0  0  0  0  0  0  0  # atno 8010 bound_to 7997
  140.6596  143.2625  151.4481 H   0  0  0  0  0  0  0  0  0  0  0  0  # atno 10167 bound_to 10162
  157.6903  131.0626  150.4728 H   0  0  0  0  0  0  0  0  0  0  0  0  # atno 10718 bound_to 10713
  154.6676  135.2934  154.9784 H   0  0  0  0  0  0  0  0  0  0  0  0  # atno 10763 bound_to 10752
  154.0823  135.6603  153.4843 H   0  0  0  0  0  0  0  0  0  0  0  0  # atno 10764 bound_to 10752
  153.0467  135.5200  154.7657 H   0  0  0  0  0  0  0  0  0  0  0  0  # atno 10765 bound_to 10752
  141.1564  133.7696  156.9747 H   0  0  0  0  0  0  0  0  0  0  0  0  # atno 11005 bound_to 11000
  145.8166  139.2026  143.1962 LP  0  0  0  0  0  0  0  0  0  0  0  0  # atno 17320 bound_to 7965
  146.0550  140.8030  142.9763 LP  0  0  0  0  0  0  0  0  0  0  0  0  # atno 17321 bound_to 7965
  139.5827  144.1674  152.1988 LP  0  0  0  0  0  0  0  0  0  0  0  0  # atno 17342 bound_to 10162
  140.1004  144.5544  150.6992 LP  0  0  0  0  0  0  0  0  0  0  0  0  # atno 17343 bound_to 10162
  156.5065  130.4129  149.6324 LP  0  0  0  0  0  0  0  0  0  0  0  0  # atno 17370 bound_to 10713
  156.3280  130.7316  151.2240 LP  0  0  0  0  0  0  0  0  0  0  0  0  # atno 17371 bound_to 10713
  140.1106  134.9479  157.2059 LP  0  0  0  0  0  0  0  0  0  0  0  0  # atno 17394 bound_to 11000
  140.3199  134.2928  155.7248 LP  0  0  0  0  0  0  0  0  0  0  0  0  # atno 17395 bound_to 11000

$$$$
