AV-unprocessed.smi:1486|AV-procd|sdf|6005|dock7
  -GOLD-   22720 6103D 1   1.00000     0.00000
 Structure written by MMmdl.
 39 40  0  0  0  0  0  0  0  0  1 V2000
  149.3549  135.7142  157.7210 C   0  0  0  0  0  0  0  0  0  0  0  0
  150.2320  136.4244  158.5764 O   0  0  0  0  0  0  0  0  0  0  0  0
  150.0921  137.8313  158.4572 C   0  0  0  0  0  0  0  0  0  0  0  0
  151.1868  138.3834  157.5277 C   0  0  2  0  0  0  0  0  0  0  0  0
  152.5799  138.2562  158.1587 C   0  0  0  0  0  0  0  0  0  0  0  0
  150.9211  139.7889  157.2351 N   0  0  0  0  0  0  0  0  0  0  0  0
  151.4823  140.5051  156.2474 C   0  0  0  0  0  0  0  0  0  0  0  0
  152.3741  140.0774  155.5148 O   0  0  0  0  0  0  0  0  0  0  0  0
  150.9347  141.9177  156.0402 C   0  0  0  0  0  0  0  0  0  0  0  0
  151.3670  142.8007  157.1753 C   0  0  0  0  0  0  0  0  0  0  0  0
  151.2793  144.1704  157.2329 C   0  0  0  0  0  0  0  0  0  0  0  0
  151.8628  144.7993  158.7490 S   0  0  0  0  0  0  0  0  0  0  0  0
  152.2193  143.1463  159.2592 C   0  0  0  0  0  0  0  0  0  0  0  0
  152.7777  142.7473  160.5103 N   0  0  0  0  0  0  0  0  0  0  0  0
  152.5074  143.4839  161.7416 C   0  0  0  0  0  0  0  0  0  0  0  0
  153.0941  142.6380  162.8768 C   0  0  0  0  0  0  0  0  0  0  0  0
  154.0060  141.6210  162.1938 C   0  0  0  0  0  0  0  0  0  0  0  0
  153.6151  141.7179  160.7282 C   0  0  0  0  0  0  0  0  0  0  0  0
  154.0499  140.9251  159.8941 O   0  0  0  0  0  0  0  0  0  0  0  0
  151.9113  142.2328  158.3324 N   0  0  0  0  0  0  0  0  0  0  0  0
  149.4961  134.6424  157.8602 H   0  0  0  0  0  0  0  0  0  0  0  0
  149.5541  135.9457  156.6739 H   0  0  0  0  0  0  0  0  0  0  0  0
  148.3129  135.9489  157.9408 H   0  0  0  0  0  0  0  0  0  0  0  0
  149.1041  138.0835  158.0674 H   0  0  0  0  0  0  0  0  0  0  0  0
  150.1775  138.2847  159.4460 H   0  0  0  0  0  0  0  0  0  0  0  0
  151.1895  137.8008  156.6048 H   0  0  0  0  0  0  0  0  0  0  0  0
  152.8187  137.2145  158.3736 H   0  0  0  0  0  0  0  0  0  0  0  0
  152.6453  138.8124  159.0945 H   0  0  0  0  0  0  0  0  0  0  0  0
  153.3510  138.6383  157.4890 H   0  0  0  0  0  0  0  0  0  0  0  0
  150.1985  140.2344  157.7818 H   0  0  0  0  0  0  0  0  0  0  0  0
  151.2879  142.3045  155.0833 H   0  0  0  0  0  0  0  0  0  0  0  0
  149.8465  141.8802  155.9766 H   0  0  0  0  0  0  0  0  0  0  0  0
  150.8967  144.8439  156.4802 H   0  0  0  0  0  0  0  0  0  0  0  0
  152.9975  144.4574  161.6916 H   0  0  0  0  0  0  0  0  0  0  0  0
  151.4386  143.6485  161.8845 H   0  0  0  0  0  0  0  0  0  0  0  0
  153.6319  143.2499  163.6018 H   0  0  0  0  0  0  0  0  0  0  0  0
  152.2956  142.1204  163.4107 H   0  0  0  0  0  0  0  0  0  0  0  0
  155.0566  141.8904  162.3063 H   0  0  0  0  0  0  0  0  0  0  0  0
  153.8595  140.6116  162.5800 H   0  0  0  0  0  0  0  0  0  0  0  0
  1  2  1  0  0  0  0
  1 21  1  0  0  0  0
  1 22  1  0  0  0  0
  1 23  1  0  0  0  0
  2  3  1  0  0  0  0
  3  4  1  0  0  0  0
  3 24  1  0  0  0  0
  3 25  1  0  0  0  0
  4  5  1  0  0  0  0
  4  6  1  0  0  0  0
  4 26  1  0  0  0  0
  5 27  1  0  0  0  0
  5 28  1  0  0  0  0
  5 29  1  0  0  0  0
  6  7  1  0  0  0  0
  6 30  1  0  0  0  0
  7  8  2  0  0  0  0
  7  9  1  0  0  0  0
  9 10  1  0  0  0  0
  9 31  1  0  0  0  0
  9 32  1  0  0  0  0
 10 20  1  0  0  0  0
 10 11  2  0  0  0  0
 11 12  1  0  0  0  0
 11 33  1  0  0  0  0
 12 13  1  0  0  0  0
 13 14  1  0  0  0  0
 13 20  2  0  0  0  0
 14 18  1  0  0  0  0
 14 15  1  0  0  0  0
 15 16  1  0  0  0  0
 15 34  1  0  0  0  0
 15 35  1  0  0  0  0
 16 17  1  0  0  0  0
 16 36  1  0  0  0  0
 16 37  1  0  0  0  0
 17 18  1  0  0  0  0
 17 38  1  0  0  0  0
 17 39  1  0  0  0  0
 18 19  2  0  0  0  0
M  END
> <s_m_source_file>
AV-unprocessed.smi

> <i_m_source_file_index>
1486

> <i_lp_mmshare_version>
43012

> <i_f3d_flags>
0

> <s_epik_input>
W0NIM11PW0NIMl1bQ0BIXShbQ0gzXSlbTkhdQyg9TylbQ0gyXWMxW2NIXXNjKG4xKU4yW0NIMl1bQ0gyXVtDSDJdQzI9Tw==

> <s_epik_cmdline>
J2VwaWtfcHl0aG9uJywgJy1waCcsICc3LjAnLCAnLXRuJywgJzgnLCAnLW1hJywgJzIwMCcsICctbWV0YWxfYmluZGluZycsICctaW1hZScsICc8aW5maWxlLm1hZT4nLCAnLW9tYWUnLCAnPG91dGZpbGUubWFlPic=

> <r_lp_tautomer_probability>
1

> <r_epik_Ionization_Penalty>
3.00988e-05

> <r_epik_Ionization_Penalty_Charging>
0

> <r_epik_Ionization_Penalty_Neutral>
3.00988e-05

> <r_epik_State_Penalty>
-0

> <r_epik_Charging_Adjusted_Penalty>
0

> <i_epik_Tot_Q>
0

> <i_epik_Tot_abs_Q>
0

> <r_epik_Metal_State_Penalty>
-0

> <b_epik_Metal_Only>
0

> <s_lp_Force_Field>
OPLS_2005

> <r_lp_Energy>
17.4933

> <b_lp_Chiralities_Consistent>
1

> <s_lp_Variant>
AV-unprocessed.smi:1486-1

> <Gold.Version>
5.8.1

> <Gold.Id.Protein>
6NUR|6NUR_protein|mol2

> <Gold.PLP.Fitness>
50.8056

> <Gold.PLP.PLP>
-43.6496

> <Gold.PLP.part.hbond>
-2.9899

> <Gold.PLP.part.metal>
0.0000

> <Gold.PLP.part.buried>
-1.5748

> <Gold.PLP.part.nonpolar>
-37.8172

> <Gold.PLP.part.repulsive>
0.0439

> <Gold.PLP.ligand.clash>
0.0000

> <Gold.PLP.ligand.torsion>
1.1763

> <Gold.PLP.Chemscore.Hbond>
2.2434

> <Gold.PLP.Chemscore.CHOScore>
0.9169

> <Gold.PLP.Chemscore.Metal>
0.0000

> <Gold.Chemscore.Hbonds>
donor molecule, donor type, donor heavy atom, donor atom, acceptor molecule, acceptor atom, score
      P1  H  6896  6909       L1     2  1.00
      P1  H  7989  7998       L1     8  0.26
      P1  H  7997  8008       L1     8  0.88
      L1  C    11    33       P1  8028  0.90

> <Gold.PLP.Chemscore.Internal.Correction>
0.0278

> <Gold.Rescore>
     Score         DG    S(hbond)    S(metal)    S(lipo)     H(rot)  DE(clash)    DE(int)     intcor
     11.10     -15.10       1.06        0.00      94.32       1.94       0.29       3.71       ----

> <Gold.Chemscore.Fitness>
11.0955

> <Gold.Chemscore.DG>
-15.0983

> <Gold.Chemscore.ZeroCoef>
-5.4800

> <Gold.Chemscore.Hbond>
1.0606

> <Gold.Chemscore.Metal>
0.0000

> <Gold.Chemscore.Lipo>
94.3187

> <Gold.Chemscore.Internal_Hbond>
0.0000

> <Gold.Chemscore.DEClash>
0.2915

> <Gold.Chemscore.DEInternal>
3.7113

> <Gold.Chemscore.Rot>
1.9373

> <Gold.Chemscore.Internal.Correction>
   9.000000E+99

> <Gold.Chemscore.Hbonds>
donor molecule, donor type, donor heavy atom, donor atom, acceptor molecule, acceptor atom, score
      P1  H  6896  6909       L1     2  0.32
      P1  H  7989  7998       L1     8  0.08
      P1  H  7997  8008       L1     8  0.84

> <Gold.Chemscore.Hbond.Weighted>
-3.5425

> <Gold.Chemscore.Metal.Weighted>
-0.0000

> <Gold.Chemscore.Lipo.Weighted>
-11.0353

> <Gold.Chemscore.Internal_Hbond.Weighted>
0.0000

> <Gold.Chemscore.DEClash.Weighted>
0.2915

> <Gold.Chemscore.DEInternal.Weighted>
3.7113

> <Gold.Chemscore.Rot.Weighted>
4.9594

> <Gold.Chemscore.Internal.Correction.Weighted>
   9.000000E+99

> <Gold.Protein.RotatedTorsions>
[ 6907 6896 6895 6894 ] final   79.67 input  -60.11 | X-H torsion
[ 7974 7965 7964 7962 ] final   39.52 input  175.53 | X-H torsion
[ 8008 7997 7996 7995 ] final  -27.54 input   59.86 | X-H torsion
[ 10167 10162 10161 10158 ] final   56.78 input  -65.29 | X-H torsion
[ 10718 10713 10712 10709 ] final   71.71 input   66.30 | X-H torsion
[ 10763 10752 10751 10750 ] final  132.50 input  -60.55 | X-H torsion
[ 11005 11000 10999 10996 ] final  168.93 input  -57.11 | X-H torsion

> <Gold.Protein.ActiveResidues>
 VAL166  LYS551  ARG553  GLY616  TRP617  ASP618  TYR619  PRO620  LYS621  CYS622 
 ASP623  PHE694  ASN695  SER759  ASP760  ASP761  ALA762  ILE779  LEU786  VAL792 
 PHE793  MET794  SER795  GLU796  ALA797  LYS798  CYS799  TRP800  GLU811  SER814 

> <Gold.Protein.RotatedAtoms>
  152.5207  134.3475  159.9238 H   0  0  0  0  0  0  0  0  0  0  0  0  # atno 6907 bound_to 6896
  151.3425  133.3950  159.2680 H   0  0  0  0  0  0  0  0  0  0  0  0  # atno 6908 bound_to 6896
  150.9792  134.9168  159.7892 H   0  0  0  0  0  0  0  0  0  0  0  0  # atno 6909 bound_to 6896
  146.0978  139.5642  142.9434 H   0  0  0  0  0  0  0  0  0  0  0  0  # atno 7974 bound_to 7965
  154.4373  140.1869  156.0948 H   0  0  0  0  0  0  0  0  0  0  0  0  # atno 8008 bound_to 7997
  156.0338  140.3327  155.7142 H   0  0  0  0  0  0  0  0  0  0  0  0  # atno 8009 bound_to 7997
  155.5800  140.0621  157.2776 H   0  0  0  0  0  0  0  0  0  0  0  0  # atno 8010 bound_to 7997
  140.2050  144.3948  150.6513 H   0  0  0  0  0  0  0  0  0  0  0  0  # atno 10167 bound_to 10162
  157.6465  130.9542  150.0827 H   0  0  0  0  0  0  0  0  0  0  0  0  # atno 10718 bound_to 10713
  153.7918  135.3154  155.3379 H   0  0  0  0  0  0  0  0  0  0  0  0  # atno 10763 bound_to 10752
  154.8123  135.4659  154.0551 H   0  0  0  0  0  0  0  0  0  0  0  0  # atno 10764 bound_to 10752
  153.1872  135.6903  153.8487 H   0  0  0  0  0  0  0  0  0  0  0  0  # atno 10765 bound_to 10752
  140.2925  134.7662  157.3850 H   0  0  0  0  0  0  0  0  0  0  0  0  # atno 11005 bound_to 11000
  145.5915  141.0369  143.2068 LP  0  0  0  0  0  0  0  0  0  0  0  0  # atno 17320 bound_to 7965
  144.7409  139.7453  143.7311 LP  0  0  0  0  0  0  0  0  0  0  0  0  # atno 17321 bound_to 7965
  140.6364  143.2195  151.6386 LP  0  0  0  0  0  0  0  0  0  0  0  0  # atno 17342 bound_to 10162
  139.5202  144.3230  152.0894 LP  0  0  0  0  0  0  0  0  0  0  0  0  # atno 17343 bound_to 10162
  156.1798  130.3649  149.9050 LP  0  0  0  0  0  0  0  0  0  0  0  0  # atno 17370 bound_to 10713
  156.7005  130.8931  151.3599 LP  0  0  0  0  0  0  0  0  0  0  0  0  # atno 17371 bound_to 10713
  140.1183  134.5254  155.8206 LP  0  0  0  0  0  0  0  0  0  0  0  0  # atno 17394 bound_to 11000
  141.2143  133.6747  156.6818 LP  0  0  0  0  0  0  0  0  0  0  0  0  # atno 17395 bound_to 11000

$$$$
