AV-unprocessed.smi:766|AV-procd|sdf|3651|dock9
  -GOLD-   22720 1 53D 1   1.00000     0.00000
 Structure written by MMmdl.
 47 49  0  0  0  0  0  0  0  0  2 V2000
  150.9688  142.8146  158.9256 C   0  0  0  0  0  0  0  0  0  0  0  0
  150.1705  142.1783  157.8013 C   0  0  0  0  0  0  0  0  0  0  0  0
  150.8588  141.5302  156.7507 C   0  0  0  0  0  0  0  0  0  0  0  0
  150.1533  140.9234  155.6887 C   0  0  0  0  0  0  0  0  0  0  0  0
  150.6146  140.2432  154.5748 N   0  0  0  0  0  0  0  0  0  0  0  0
  149.4767  139.9195  153.9676 C   0  0  0  0  0  0  0  0  0  0  0  0
  148.3305  140.3088  154.5584 N   0  0  0  0  0  0  0  0  0  0  0  0
  146.9760  140.0722  154.0925 C   0  0  0  0  0  0  0  0  0  0  0  0
  146.9128  138.9858  153.0018 C   0  0  2  0  0  0  0  0  0  0  0  0
  146.0693  139.4222  151.9525 O   0  0  0  0  0  0  0  0  0  0  0  0
  146.3805  137.6506  153.5459 C   0  0  0  0  0  0  0  0  0  0  0  0
  146.2868  136.6405  152.4739 N   0  3  0  0  0  0  0  0  0  0  0  0
  145.6662  135.3670  152.8900 C   0  0  0  0  0  0  0  0  0  0  0  0
  144.5096  134.9685  151.9588 C   0  0  0  0  0  0  0  0  0  0  0  0
  144.8915  133.9361  151.0115 N   0  0  0  0  0  0  0  0  0  0  0  0
  144.1062  133.3053  150.0694 C   0  0  0  0  0  0  0  0  0  0  0  0
  144.9004  132.4095  149.4127 C   0  0  0  0  0  0  0  0  0  0  0  0
  146.1724  132.5685  150.0298 C   0  0  0  0  0  0  0  0  0  0  0  0
  146.1636  133.4817  150.9878 N   0  0  0  0  0  0  0  0  0  0  0  0
  148.7293  140.9840  155.7064 C   0  0  0  0  0  0  0  0  0  0  0  0
  148.0331  141.6283  156.7437 C   0  0  0  0  0  0  0  0  0  0  0  0
  148.7532  142.2295  157.7971 C   0  0  0  0  0  0  0  0  0  0  0  0
  147.9919  142.9221  158.9133 C   0  0  0  0  0  0  0  0  0  0  0  0
  152.0362  142.6213  158.8147 H   0  0  0  0  0  0  0  0  0  0  0  0
  150.6573  142.4160  159.8914 H   0  0  0  0  0  0  0  0  0  0  0  0
  150.8221  143.8948  158.9326 H   0  0  0  0  0  0  0  0  0  0  0  0
  151.9383  141.4928  156.7523 H   0  0  0  0  0  0  0  0  0  0  0  0
  149.4763  139.3635  153.0413 H   0  0  0  0  0  0  0  0  0  0  0  0
  146.3707  139.7800  154.9513 H   0  0  0  0  0  0  0  0  0  0  0  0
  146.5620  141.0119  153.7238 H   0  0  0  0  0  0  0  0  0  0  0  0
  147.9134  138.8333  152.5941 H   0  0  0  0  0  0  0  0  0  0  0  0
  145.1961  139.5426  152.2938 H   0  0  0  0  0  0  0  0  0  0  0  0
  147.0562  137.2718  154.3142 H   0  0  0  0  0  0  0  0  0  0  0  0
  145.4054  137.7875  154.0163 H   0  0  0  0  0  0  0  0  0  0  0  0
  145.7478  137.0304  151.7134 H   0  0  0  0  0  0  0  0  0  0  0  0
  146.4202  134.5788  152.9105 H   0  0  0  0  0  0  0  0  0  0  0  0
  145.2925  135.4775  153.9086 H   0  0  0  0  0  0  0  0  0  0  0  0
  143.6748  134.5918  152.5512 H   0  0  0  0  0  0  0  0  0  0  0  0
  144.1356  135.8350  151.4112 H   0  0  0  0  0  0  0  0  0  0  0  0
  143.0599  133.5431  149.9450 H   0  0  0  0  0  0  0  0  0  0  0  0
  144.6167  131.7437  148.6111 H   0  0  0  0  0  0  0  0  0  0  0  0
  147.0949  132.0507  149.8124 H   0  0  0  0  0  0  0  0  0  0  0  0
  146.9537  141.6586  156.7292 H   0  0  0  0  0  0  0  0  0  0  0  0
  146.9185  142.9226  158.7218 H   0  0  0  0  0  0  0  0  0  0  0  0
  148.3133  143.9592  159.0111 H   0  0  0  0  0  0  0  0  0  0  0  0
  148.1629  142.4142  159.8625 H   0  0  0  0  0  0  0  0  0  0  0  0
  147.2181  136.4441  152.1346 H   0  0  0  0  0  0  0  0  0  0  0  0
  1  2  1  0  0  0  0
  1 24  1  0  0  0  0
  1 25  1  0  0  0  0
  1 26  1  0  0  0  0
  2 22  1  0  0  0  0
  2  3  2  0  0  0  0
  3  4  1  0  0  0  0
  3 27  1  0  0  0  0
  4 20  2  0  0  0  0
  4  5  1  0  0  0  0
  5  6  2  0  0  0  0
  6  7  1  0  0  0  0
  6 28  1  0  0  0  0
  7  8  1  0  0  0  0
  7 20  1  0  0  0  0
  8  9  1  0  0  0  0
  8 29  1  0  0  0  0
  8 30  1  0  0  0  0
  9 10  1  0  0  0  0
  9 11  1  0  0  0  0
  9 31  1  0  0  0  0
 10 32  1  0  0  0  0
 11 12  1  0  0  0  0
 11 33  1  0  0  0  0
 11 34  1  0  0  0  0
 12 13  1  0  0  0  0
 12 35  1  0  0  0  0
 12 47  1  0  0  0  0
 13 14  1  0  0  0  0
 13 36  1  0  0  0  0
 13 37  1  0  0  0  0
 14 15  1  0  0  0  0
 14 38  1  0  0  0  0
 14 39  1  0  0  0  0
 15 19  1  0  0  0  0
 15 16  1  0  0  0  0
 16 17  2  0  0  0  0
 16 40  1  0  0  0  0
 17 18  1  0  0  0  0
 17 41  1  0  0  0  0
 18 19  2  0  0  0  0
 18 42  1  0  0  0  0
 20 21  1  0  0  0  0
 21 22  2  0  0  0  0
 21 43  1  0  0  0  0
 22 23  1  0  0  0  0
 23 44  1  0  0  0  0
 23 45  1  0  0  0  0
 23 46  1  0  0  0  0
M  CHG  1  12   1
M  END
> <s_m_source_file>
AV-unprocessed.smi

> <i_m_source_file_index>
766

> <i_lp_mmshare_version>
43012

> <i_f3d_flags>
0

> <s_epik_input>
W0NIM11jKFtjSF0xKWMoW0NIM10pW2NIXWMoYzEyKW4oW2NIXW4yKVtDSDJdW0NASF0oW09IXSlbQ0gyXVtOSF1bQ0gyXVtDSDJdbjNbY0hdW2NIXVtjSF1uMw==

> <s_epik_cmdline>
J2VwaWtfcHl0aG9uJywgJy1waCcsICc3LjAnLCAnLXRuJywgJzgnLCAnLW1hJywgJzIwMCcsICctbWV0YWxfYmluZGluZycsICctaW1hZScsICc8aW5maWxlLm1hZT4nLCAnLW9tYWUnLCAnPG91dGZpbGUubWFlPic=

> <r_lp_tautomer_probability>
1

> <r_epik_Ionization_Penalty>
0.127222

> <r_epik_Ionization_Penalty_Charging>
0.043815

> <r_epik_Ionization_Penalty_Neutral>
0.0834074

> <r_epik_State_Penalty>
0.115563

> <r_epik_Charging_Adjusted_Penalty>
0.159378

> <i_epik_Tot_Q>
1

> <i_epik_Tot_abs_Q>
1

> <r_epik_Metal_State_Penalty>
0.102594

> <b_epik_Metal_Only>
0

> <s_lp_Force_Field>
OPLS_2005

> <r_lp_Energy>
9.49244

> <b_lp_Chiralities_Consistent>
1

> <s_lp_Variant>
AV-unprocessed.smi:766-1

> <Gold.Version>
5.8.1

> <Gold.Id.Protein>
6NUR|6NUR_protein|mol2

> <Gold.PLP.Fitness>
56.4247

> <Gold.PLP.PLP>
-38.4985

> <Gold.PLP.part.hbond>
-3.4922

> <Gold.PLP.part.metal>
0.0000

> <Gold.PLP.part.buried>
-3.9588

> <Gold.PLP.part.nonpolar>
-31.7579

> <Gold.PLP.part.repulsive>
0.2946

> <Gold.PLP.ligand.clash>
0.0000

> <Gold.PLP.ligand.torsion>
1.5022

> <Gold.PLP.Chemscore.Hbond>
4.0000

> <Gold.PLP.Chemscore.CHOScore>
2.9288

> <Gold.PLP.Chemscore.Metal>
0.0000

> <Gold.Chemscore.Hbonds>
donor molecule, donor type, donor heavy atom, donor atom, acceptor molecule, acceptor atom, score
      L1  H    10    32       P1 10175  1.00
      L1  H    12    47       P1  7948  2.00
      P1  H  7989  7998       L1     5  1.00
      L1  C     6    28       P1  7957  0.92
      L1  C    16    40       P1 10186  1.00
      L1  C    18    42       P1 10747  1.00

> <Gold.PLP.Chemscore.Internal.Correction>
0.1443

> <Gold.Rescore>
     Score         DG    S(hbond)    S(metal)    S(lipo)     H(rot)  DE(clash)    DE(int)     intcor
     15.35     -18.35       2.75        0.00      95.64       2.93       1.50       1.51       ----

> <Gold.Chemscore.Fitness>
15.3490

> <Gold.Chemscore.DG>
-18.3541

> <Gold.Chemscore.ZeroCoef>
-5.4800

> <Gold.Chemscore.Hbond>
2.7526

> <Gold.Chemscore.Metal>
0.0000

> <Gold.Chemscore.Lipo>
95.6411

> <Gold.Chemscore.Internal_Hbond>
0.0000

> <Gold.Chemscore.DEClash>
1.4994

> <Gold.Chemscore.DEInternal>
1.5057

> <Gold.Chemscore.Rot>
2.9335

> <Gold.Chemscore.Internal.Correction>
   9.000000E+99

> <Gold.Chemscore.Hbonds>
donor molecule, donor type, donor heavy atom, donor atom, acceptor molecule, acceptor atom, score
      L1  H    10    32       P1 10175  0.96
      L1  H    12    47       P1  7948  1.00
      P1  H  7989  7998       L1     5  0.69

> <Gold.Chemscore.Hbond.Weighted>
-9.1938

> <Gold.Chemscore.Metal.Weighted>
-0.0000

> <Gold.Chemscore.Lipo.Weighted>
-11.1900

> <Gold.Chemscore.Internal_Hbond.Weighted>
0.0000

> <Gold.Chemscore.DEClash.Weighted>
1.4994

> <Gold.Chemscore.DEInternal.Weighted>
1.5057

> <Gold.Chemscore.Rot.Weighted>
7.5097

> <Gold.Chemscore.Internal.Correction.Weighted>
   9.000000E+99

> <Gold.Protein.RotatedTorsions>
[ 6907 6896 6895 6894 ] final  176.85 input  -60.11 | X-H torsion
[ 7974 7965 7964 7962 ] final -173.04 input  175.53 | X-H torsion
[ 8008 7997 7996 7995 ] final   -0.80 input   59.86 | X-H torsion
[ 10167 10162 10161 10158 ] final  179.64 input  -65.29 | X-H torsion
[ 10718 10713 10712 10709 ] final   71.70 input   66.30 | X-H torsion
[ 10763 10752 10751 10750 ] final   -0.88 input  -60.55 | X-H torsion
[ 11005 11000 10999 10996 ] final  117.65 input  -57.11 | X-H torsion

> <Gold.Protein.ActiveResidues>
 VAL166  LYS551  ARG553  GLY616  TRP617  ASP618  TYR619  PRO620  LYS621  CYS622 
 ASP623  PHE694  ASN695  SER759  ASP760  ASP761  ALA762  ILE779  LEU786  VAL792 
 PHE793  MET794  SER795  GLU796  ALA797  LYS798  CYS799  TRP800  GLU811  SER814 

> <Gold.Protein.RotatedAtoms>
  151.7135  133.3313  159.3296 H   0  0  0  0  0  0  0  0  0  0  0  0  # atno 6907 bound_to 6896
  150.7684  134.6511  159.6298 H   0  0  0  0  0  0  0  0  0  0  0  0  # atno 6908 bound_to 6896
  152.3697  134.6755  160.0232 H   0  0  0  0  0  0  0  0  0  0  0  0  # atno 6909 bound_to 6896
  144.7141  140.1682  143.6370 H   0  0  0  0  0  0  0  0  0  0  0  0  # atno 7974 bound_to 7965
  154.6539  140.2575  155.7183 H   0  0  0  0  0  0  0  0  0  0  0  0  # atno 8008 bound_to 7997
  156.2588  140.2862  156.0905 H   0  0  0  0  0  0  0  0  0  0  0  0  # atno 8009 bound_to 7997
  155.1409  140.0380  157.2788 H   0  0  0  0  0  0  0  0  0  0  0  0  # atno 8010 bound_to 7997
  139.5345  144.2537  152.0764 H   0  0  0  0  0  0  0  0  0  0  0  0  # atno 10167 bound_to 10162
  157.6465  130.9541  150.0826 H   0  0  0  0  0  0  0  0  0  0  0  0  # atno 10718 bound_to 10713
  153.3377  135.6979  153.6894 H   0  0  0  0  0  0  0  0  0  0  0  0  # atno 10763 bound_to 10752
  153.5671  135.3523  155.2823 H   0  0  0  0  0  0  0  0  0  0  0  0  # atno 10764 bound_to 10752
  154.8630  135.4263  154.2581 H   0  0  0  0  0  0  0  0  0  0  0  0  # atno 10765 bound_to 10752
  139.9082  134.9612  156.7383 H   0  0  0  0  0  0  0  0  0  0  0  0  # atno 11005 bound_to 11000
  145.8968  139.2407  143.1517 LP  0  0  0  0  0  0  0  0  0  0  0  0  # atno 17320 bound_to 7965
  145.9850  140.8651  143.0095 LP  0  0  0  0  0  0  0  0  0  0  0  0  # atno 17321 bound_to 7965
  140.2005  144.4662  150.6434 LP  0  0  0  0  0  0  0  0  0  0  0  0  # atno 17342 bound_to 10162
  140.6544  143.2233  151.6003 LP  0  0  0  0  0  0  0  0  0  0  0  0  # atno 17343 bound_to 10162
  156.1798  130.3649  149.9051 LP  0  0  0  0  0  0  0  0  0  0  0  0  # atno 17370 bound_to 10713
  156.7006  130.8932  151.3599 LP  0  0  0  0  0  0  0  0  0  0  0  0  # atno 17371 bound_to 10713
  140.6870  133.9424  155.7944 LP  0  0  0  0  0  0  0  0  0  0  0  0  # atno 17394 bound_to 11000
  141.0469  134.0541  157.3833 LP  0  0  0  0  0  0  0  0  0  0  0  0  # atno 17395 bound_to 11000

$$$$
