AV-unprocessed.smi:3119|AV-procd|sdf|11891|dock4
  -GOLD-   2272017283D 1   1.00000     0.00000
 Structure written by MMmdl.
 32 33  0  0  0  0  0  0  0  0  2 V2000
  148.2217  140.2879  153.9220 O   0  0  0  0  0  0  0  0  0  0  0  0
  148.0210  141.4293  154.3390 C   0  0  0  0  0  0  0  0  0  0  0  0
  148.9020  142.0931  155.1005 N   0  0  0  0  0  0  0  0  0  0  0  0
  150.1817  141.5498  155.5350 C   0  0  0  0  0  0  0  0  0  0  0  0
  150.1597  141.2377  157.0373 C   0  0  0  0  0  0  0  0  0  0  0  0
  151.1373  142.0987  157.8138 C   0  0  0  0  0  0  0  0  0  0  0  0
  152.0816  141.5446  158.7051 C   0  0  0  0  0  0  0  0  0  0  0  0
  152.9697  142.4013  159.3886 C   0  0  0  0  0  0  0  0  0  0  0  0
  152.8959  143.7920  159.1660 C   0  0  0  0  0  0  0  0  0  0  0  0
  151.9344  144.2917  158.2640 C   0  0  0  0  0  0  0  0  0  0  0  0
  151.1013  143.4384  157.6281 N   0  3  0  0  0  0  0  0  0  0  0  0
  146.7236  142.1756  153.9996 C   0  0  0  0  0  0  0  0  0  0  0  0
  146.9144  143.6766  153.7215 C   0  0  0  0  0  0  0  0  0  0  0  0
  145.6735  143.9518  154.5756 C   0  0  0  0  0  0  0  0  0  0  0  0
  145.8641  142.5728  155.2138 C   0  0  0  0  0  0  0  0  0  0  0  0
  148.6675  143.0288  155.3997 H   0  0  0  0  0  0  0  0  0  0  0  0
  150.4018  140.6411  154.9719 H   0  0  0  0  0  0  0  0  0  0  0  0
  150.9704  142.2693  155.3089 H   0  0  0  0  0  0  0  0  0  0  0  0
  149.1565  141.3908  157.4382 H   0  0  0  0  0  0  0  0  0  0  0  0
  150.4010  140.1867  157.2036 H   0  0  0  0  0  0  0  0  0  0  0  0
  152.1287  140.4766  158.8624 H   0  0  0  0  0  0  0  0  0  0  0  0
  153.6995  141.9961  160.0744 H   0  0  0  0  0  0  0  0  0  0  0  0
  153.5675  144.4651  159.6790 H   0  0  0  0  0  0  0  0  0  0  0  0
  151.8082  145.3393  158.0325 H   0  0  0  0  0  0  0  0  0  0  0  0
  146.1305  141.6883  153.2231 H   0  0  0  0  0  0  0  0  0  0  0  0
  147.8242  144.0990  154.1519 H   0  0  0  0  0  0  0  0  0  0  0  0
  146.8030  143.9581  152.6740 H   0  0  0  0  0  0  0  0  0  0  0  0
  145.7724  144.7906  155.2652 H   0  0  0  0  0  0  0  0  0  0  0  0
  144.7602  144.0196  153.9826 H   0  0  0  0  0  0  0  0  0  0  0  0
  144.9407  142.0025  155.3168 H   0  0  0  0  0  0  0  0  0  0  0  0
  146.4075  142.6204  156.1591 H   0  0  0  0  0  0  0  0  0  0  0  0
  150.4148  143.8218  156.9779 H   0  0  0  0  0  0  0  0  0  0  0  0
  1  2  2  0  0  0  0
  2  3  1  0  0  0  0
  2 12  1  0  0  0  0
  3  4  1  0  0  0  0
  3 16  1  0  0  0  0
  4  5  1  0  0  0  0
  4 17  1  0  0  0  0
  4 18  1  0  0  0  0
  5  6  1  0  0  0  0
  5 19  1  0  0  0  0
  5 20  1  0  0  0  0
  6 11  1  0  0  0  0
  6  7  2  0  0  0  0
  7  8  1  0  0  0  0
  7 21  1  0  0  0  0
  8  9  2  0  0  0  0
  8 22  1  0  0  0  0
  9 10  1  0  0  0  0
  9 23  1  0  0  0  0
 10 11  2  0  0  0  0
 10 24  1  0  0  0  0
 11 32  1  0  0  0  0
 12 15  1  0  0  0  0
 12 13  1  0  0  0  0
 12 25  1  0  0  0  0
 13 14  1  0  0  0  0
 13 26  1  0  0  0  0
 13 27  1  0  0  0  0
 14 15  1  0  0  0  0
 14 28  1  0  0  0  0
 14 29  1  0  0  0  0
 15 30  1  0  0  0  0
 15 31  1  0  0  0  0
M  CHG  1  11   1
M  END
> <s_m_source_file>
AV-unprocessed.smi

> <i_m_source_file_index>
3119

> <i_lp_mmshare_version>
43012

> <i_f3d_flags>
0

> <s_epik_input>
W0NIMl0xW0NIMl1bQ0gyXVtDSF0xQyg9TylbTkhdW0NIMl1bQ0gyXWMyW2NIXVtjSF1bY0hdW2NIXW4y

> <s_epik_cmdline>
J2VwaWtfcHl0aG9uJywgJy1waCcsICc3LjAnLCAnLXRuJywgJzgnLCAnLW1hJywgJzIwMCcsICctbWV0YWxfYmluZGluZycsICctaW1hZScsICc8aW5maWxlLm1hZT4nLCAnLW9tYWUnLCAnPG91dGZpbGUubWFlPic=

> <r_epik_Ionization_Penalty>
1.82741

> <r_epik_Ionization_Penalty_Charging>
1.82741

> <r_epik_Ionization_Penalty_Neutral>
1.62845e-08

> <r_epik_State_Penalty>
1.94311

> <r_epik_Charging_Adjusted_Penalty>
3.77052

> <i_epik_Tot_Q>
1

> <i_epik_Tot_abs_Q>
1

> <r_epik_Metal_State_Penalty>
1.96982

> <b_epik_Metal_Only>
0

> <s_lp_Force_Field>
OPLS_2005

> <r_lp_Energy>
15.9357

> <b_lp_Chiralities_Consistent>
1

> <s_lp_Variant>
AV-unprocessed.smi:3119-2

> <Gold.Version>
5.8.1

> <Gold.Id.Protein>
6NUR|6NUR_protein|mol2

> <Gold.PLP.Fitness>
43.9769

> <Gold.PLP.PLP>
-36.4984

> <Gold.PLP.part.hbond>
-2.0000

> <Gold.PLP.part.metal>
0.0000

> <Gold.PLP.part.buried>
-5.2267

> <Gold.PLP.part.nonpolar>
-29.2235

> <Gold.PLP.part.repulsive>
0.2972

> <Gold.PLP.ligand.clash>
0.0000

> <Gold.PLP.ligand.torsion>
0.8110

> <Gold.PLP.Chemscore.Hbond>
2.8960

> <Gold.PLP.Chemscore.CHOScore>
0.0000

> <Gold.PLP.Chemscore.Metal>
0.0000

> <Gold.Chemscore.Hbonds>
donor molecule, donor type, donor heavy atom, donor atom, acceptor molecule, acceptor atom, score
      L1  H     3    16       P1  8028  1.00
      L1  H    11    32       P1  8028  1.20

> <Gold.PLP.Chemscore.Internal.Correction>
0.4125

> <Gold.Rescore>
     Score         DG    S(hbond)    S(metal)    S(lipo)     H(rot)  DE(clash)    DE(int)     intcor
     17.75     -18.60       1.86        0.00      92.36       1.53       0.03       0.82       ----

> <Gold.Chemscore.Fitness>
17.7550

> <Gold.Chemscore.DG>
-18.6028

> <Gold.Chemscore.ZeroCoef>
-5.4800

> <Gold.Chemscore.Hbond>
1.8646

> <Gold.Chemscore.Metal>
0.0000

> <Gold.Chemscore.Lipo>
92.3618

> <Gold.Chemscore.Internal_Hbond>
0.0000

> <Gold.Chemscore.DEClash>
0.0291

> <Gold.Chemscore.DEInternal>
0.8188

> <Gold.Chemscore.Rot>
1.5278

> <Gold.Chemscore.Internal.Correction>
   9.000000E+99

> <Gold.Chemscore.Hbonds>
donor molecule, donor type, donor heavy atom, donor atom, acceptor molecule, acceptor atom, score
      L1  H     3    16       P1  8028  0.99
      L1  H    11    32       P1  8028  0.60

> <Gold.Chemscore.Hbond.Weighted>
-6.2276

> <Gold.Chemscore.Metal.Weighted>
-0.0000

> <Gold.Chemscore.Lipo.Weighted>
-10.8063

> <Gold.Chemscore.Internal_Hbond.Weighted>
0.0000

> <Gold.Chemscore.DEClash.Weighted>
0.0291

> <Gold.Chemscore.DEInternal.Weighted>
0.8188

> <Gold.Chemscore.Rot.Weighted>
3.9111

> <Gold.Chemscore.Internal.Correction.Weighted>
   9.000000E+99

> <Gold.Protein.RotatedTorsions>
[ 6907 6896 6895 6894 ] final    9.02 input  -60.11 | X-H torsion
[ 7974 7965 7964 7962 ] final  -33.01 input  175.53 | X-H torsion
[ 8008 7997 7996 7995 ] final   95.34 input   59.86 | X-H torsion
[ 10167 10162 10161 10158 ] final   94.27 input  -65.29 | X-H torsion
[ 10718 10713 10712 10709 ] final -158.92 input   66.30 | X-H torsion
[ 10763 10752 10751 10750 ] final  -69.50 input  -60.55 | X-H torsion
[ 11005 11000 10999 10996 ] final   88.54 input  -57.11 | X-H torsion

> <Gold.Protein.ActiveResidues>
 VAL166  LYS551  ARG553  GLY616  TRP617  ASP618  TYR619  PRO620  LYS621  CYS622 
 ASP623  PHE694  ASN695  SER759  ASP760  ASP761  ALA762  ILE779  LEU786  VAL792 
 PHE793  MET794  SER795  GLU796  ALA797  LYS798  CYS799  TRP800  GLU811  SER814 

> <Gold.Protein.RotatedAtoms>
  151.7154  135.0905  160.0274 H   0  0  0  0  0  0  0  0  0  0  0  0  # atno 6907 bound_to 6896
  152.3635  133.6323  159.6041 H   0  0  0  0  0  0  0  0  0  0  0  0  # atno 6908 bound_to 6896
  150.7621  133.9301  159.3466 H   0  0  0  0  0  0  0  0  0  0  0  0  # atno 6909 bound_to 6896
  146.0945  140.5863  142.8849 H   0  0  0  0  0  0  0  0  0  0  0  0  # atno 7974 bound_to 7965
  156.0678  140.3287  155.7539 H   0  0  0  0  0  0  0  0  0  0  0  0  # atno 8008 bound_to 7997
  155.5353  140.0597  157.2898 H   0  0  0  0  0  0  0  0  0  0  0  0  # atno 8009 bound_to 7997
  154.4514  140.1920  156.0525 H   0  0  0  0  0  0  0  0  0  0  0  0  # atno 8010 bound_to 7997
  139.8100  144.6777  150.9653 H   0  0  0  0  0  0  0  0  0  0  0  0  # atno 10167 bound_to 10162
  156.5609  130.8646  151.2809 H   0  0  0  0  0  0  0  0  0  0  0  0  # atno 10718 bound_to 10713
  154.4043  135.6023  153.5915 H   0  0  0  0  0  0  0  0  0  0  0  0  # atno 10763 bound_to 10752
  152.9789  135.5914  154.4146 H   0  0  0  0  0  0  0  0  0  0  0  0  # atno 10764 bound_to 10752
  154.3949  135.2842  155.2110 H   0  0  0  0  0  0  0  0  0  0  0  0  # atno 10765 bound_to 10752
  139.8894  134.8494  156.3015 H   0  0  0  0  0  0  0  0  0  0  0  0  # atno 11005 bound_to 11000
  144.7385  140.4875  143.6886 LP  0  0  0  0  0  0  0  0  0  0  0  0  # atno 17320 bound_to 7965
  145.5975  139.1501  143.3147 LP  0  0  0  0  0  0  0  0  0  0  0  0  # atno 17321 bound_to 7965
  140.7818  143.4195  151.0864 LP  0  0  0  0  0  0  0  0  0  0  0  0  # atno 17342 bound_to 10162
  139.7862  143.8284  152.3145 LP  0  0  0  0  0  0  0  0  0  0  0  0  # atno 17343 bound_to 10162
  157.7368  130.9786  150.2160 LP  0  0  0  0  0  0  0  0  0  0  0  0  # atno 17370 bound_to 10713
  156.2800  130.3732  149.7945 LP  0  0  0  0  0  0  0  0  0  0  0  0  # atno 17371 bound_to 10713
  140.9910  133.7209  156.0814 LP  0  0  0  0  0  0  0  0  0  0  0  0  # atno 17394 bound_to 11000
  140.7625  134.3923  157.5523 LP  0  0  0  0  0  0  0  0  0  0  0  0  # atno 17395 bound_to 11000

$$$$
