AV-unprocessed.smi:256|AV-procd|sdf|1960|dock8
  -GOLD-   2262021103D 1   1.00000     0.00000
 Structure written by MMmdl.
 62 65  0  0  0  0  0  0  0  0  2 V2000
  145.6587  135.9639  152.0571 C   0  0  0  0  0  0  0  0  0  0  0  0
  144.7001  137.0669  152.5295 C   0  0  0  0  0  0  0  0  0  0  0  0
  145.0917  137.7056  153.8890 C   0  0  1  0  0  0  0  0  0  0  0  0
  146.4539  138.4302  153.7293 C   0  0  0  0  0  0  0  0  0  0  0  0
  146.7977  139.2414  154.8909 N   0  0  0  0  0  0  0  0  0  0  0  0
  148.0824  139.6544  155.0387 C   0  0  0  0  0  0  0  0  0  0  0  0
  149.0125  139.3260  154.1025 N   0  0  0  0  0  0  0  0  0  0  0  0
  150.2798  139.7272  154.2403 C   0  0  0  0  0  0  0  0  0  0  0  0
  150.8245  140.4474  155.2223 N   0  0  0  0  0  0  0  0  0  0  0  0
  149.8999  140.7729  156.1701 C   0  0  0  0  0  0  0  0  0  0  0  0
  148.5200  140.4229  156.1545 C   0  0  0  0  0  0  0  0  0  0  0  0
  147.8932  140.9222  157.2900 N   0  0  0  0  0  0  0  0  0  0  0  0
  148.8451  141.5397  157.9344 C   0  0  0  0  0  0  0  0  0  0  0  0
  150.0859  141.4893  157.3402 N   0  0  0  0  0  0  0  0  0  0  0  0
  151.3173  142.0793  157.8450 C   0  0  0  0  0  0  0  0  0  0  0  0
  151.3542  143.6304  157.7666 C   0  0  0  0  0  0  0  0  0  0  0  0
  151.2341  143.9922  156.4028 O   0  0  0  0  0  0  0  0  0  0  0  0
  150.2099  144.3262  158.5353 C   0  0  0  0  0  0  0  0  0  0  0  0
  150.4330  144.2563  160.0562 C   0  0  0  0  0  0  0  0  0  0  0  0
  151.6900  144.8358  160.3883 O   0  0  0  0  0  0  0  0  0  0  0  0
  152.7927  144.1477  159.8075 C   0  0  0  0  0  0  0  0  0  0  0  0
  152.6963  144.1970  158.2716 C   0  0  0  0  0  0  0  0  0  0  0  0
  145.7767  140.2118  155.2492 C   0  0  0  0  0  0  0  0  0  0  0  0
  144.4627  139.4835  155.5354 C   0  0  0  0  0  0  0  0  0  0  0  0
  144.0261  138.6308  154.3958 N   0  3  2  0  0  0  0  0  0  0  0  0
  142.7310  137.9645  154.7127 C   0  0  0  0  0  0  0  0  0  0  0  0
  141.8230  137.9078  153.4787 C   0  0  0  0  0  0  0  0  0  0  0  0
  140.8501  136.8944  153.6680 O   0  0  0  0  0  0  0  0  0  0  0  0
  141.3872  135.5920  153.5188 C   0  0  0  0  0  0  0  0  0  0  0  0
  145.2848  135.4941  151.1471 H   0  0  0  0  0  0  0  0  0  0  0  0
  145.7648  135.1838  152.8116 H   0  0  0  0  0  0  0  0  0  0  0  0
  146.6510  136.3548  151.8328 H   0  0  0  0  0  0  0  0  0  0  0  0
  144.6388  137.8422  151.7649 H   0  0  0  0  0  0  0  0  0  0  0  0
  143.7083  136.6217  152.5673 H   0  0  0  0  0  0  0  0  0  0  0  0
  145.2115  136.9182  154.6354 H   0  0  0  0  0  0  0  0  0  0  0  0
  147.2408  137.6940  153.5619 H   0  0  0  0  0  0  0  0  0  0  0  0
  146.4304  139.0786  152.8521 H   0  0  0  0  0  0  0  0  0  0  0  0
  150.9543  139.4275  153.4515 H   0  0  0  0  0  0  0  0  0  0  0  0
  148.6697  142.0444  158.8735 H   0  0  0  0  0  0  0  0  0  0  0  0
  151.4555  141.7409  158.8715 H   0  0  0  0  0  0  0  0  0  0  0  0
  152.1485  141.6558  157.2794 H   0  0  0  0  0  0  0  0  0  0  0  0
  150.3224  144.1558  156.2148 H   0  0  0  0  0  0  0  0  0  0  0  0
  150.1656  145.3780  158.2488 H   0  0  0  0  0  0  0  0  0  0  0  0
  149.2387  143.9062  158.2734 H   0  0  0  0  0  0  0  0  0  0  0  0
  149.6469  144.8072  160.5726 H   0  0  0  0  0  0  0  0  0  0  0  0
  150.3877  143.2295  160.4196 H   0  0  0  0  0  0  0  0  0  0  0  0
  153.7144  144.6279  160.1362 H   0  0  0  0  0  0  0  0  0  0  0  0
  152.8287  143.1208  160.1726 H   0  0  0  0  0  0  0  0  0  0  0  0
  153.5338  143.6612  157.8232 H   0  0  0  0  0  0  0  0  0  0  0  0
  152.7969  145.2375  157.9585 H   0  0  0  0  0  0  0  0  0  0  0  0
  146.0621  140.8042  156.1176 H   0  0  0  0  0  0  0  0  0  0  0  0
  145.6462  140.9121  154.4229 H   0  0  0  0  0  0  0  0  0  0  0  0
  144.5893  138.8631  156.4244 H   0  0  0  0  0  0  0  0  0  0  0  0
  143.6846  140.2124  155.7648 H   0  0  0  0  0  0  0  0  0  0  0  0
  142.8614  136.9622  155.1166 H   0  0  0  0  0  0  0  0  0  0  0  0
  142.2163  138.5059  155.5079 H   0  0  0  0  0  0  0  0  0  0  0  0
  141.3258  138.8704  153.3489 H   0  0  0  0  0  0  0  0  0  0  0  0
  142.4079  137.7180  152.5773 H   0  0  0  0  0  0  0  0  0  0  0  0
  140.6039  134.8521  153.6819 H   0  0  0  0  0  0  0  0  0  0  0  0
  142.1814  135.4069  154.2432 H   0  0  0  0  0  0  0  0  0  0  0  0
  141.7872  135.4428  152.5151 H   0  0  0  0  0  0  0  0  0  0  0  0
  143.8397  139.2611  153.6287 H   0  0  0  0  0  0  0  0  0  0  0  0
  1  2  1  0  0  0  0
  1 30  1  0  0  0  0
  1 31  1  0  0  0  0
  1 32  1  0  0  0  0
  2  3  1  0  0  0  0
  2 33  1  0  0  0  0
  2 34  1  0  0  0  0
  3 25  1  0  0  0  0
  3  4  1  0  0  0  0
  3 35  1  0  0  0  0
  4  5  1  0  0  0  0
  4 36  1  0  0  0  0
  4 37  1  0  0  0  0
  5  6  1  0  0  0  0
  5 23  1  0  0  0  0
  6 11  1  0  0  0  0
  6  7  2  0  0  0  0
  7  8  1  0  0  0  0
  8  9  2  0  0  0  0
  8 38  1  0  0  0  0
  9 10  1  0  0  0  0
 10 14  1  0  0  0  0
 10 11  2  0  0  0  0
 11 12  1  0  0  0  0
 12 13  2  0  0  0  0
 13 14  1  0  0  0  0
 13 39  1  0  0  0  0
 14 15  1  0  0  0  0
 15 16  1  0  0  0  0
 15 40  1  0  0  0  0
 15 41  1  0  0  0  0
 16 22  1  0  0  0  0
 16 17  1  0  0  0  0
 16 18  1  0  0  0  0
 17 42  1  0  0  0  0
 18 19  1  0  0  0  0
 18 43  1  0  0  0  0
 18 44  1  0  0  0  0
 19 20  1  0  0  0  0
 19 45  1  0  0  0  0
 19 46  1  0  0  0  0
 20 21  1  0  0  0  0
 21 22  1  0  0  0  0
 21 47  1  0  0  0  0
 21 48  1  0  0  0  0
 22 49  1  0  0  0  0
 22 50  1  0  0  0  0
 23 24  1  0  0  0  0
 23 51  1  0  0  0  0
 23 52  1  0  0  0  0
 24 25  1  0  0  0  0
 24 53  1  0  0  0  0
 24 54  1  0  0  0  0
 25 26  1  0  0  0  0
 25 62  1  0  0  0  0
 26 27  1  0  0  0  0
 26 55  1  0  0  0  0
 26 56  1  0  0  0  0
 27 28  1  0  0  0  0
 27 57  1  0  0  0  0
 27 58  1  0  0  0  0
 28 29  1  0  0  0  0
 29 59  1  0  0  0  0
 29 60  1  0  0  0  0
 29 61  1  0  0  0  0
M  CHG  1  25   1
M  END
> <s_m_source_file>
AV-unprocessed.smi

> <i_m_source_file_index>
256

> <i_lp_mmshare_version>
43012

> <i_f3d_flags>
0

> <s_epik_input>
W0NIM11PW0NIMl1bQ0gyXU4xW0NIMl1bQ0gyXU4oW0NIMl1bQ0BIXTFbQ0gyXVtDSDNdKWMobltjSF1uMiljKGMyMyluW2NIXW4zW0NIMl1DNChbT0hdKVtDSDJdW0NIMl1PW0NIMl1bQ0gyXTQ=

> <s_epik_cmdline>
J2VwaWtfcHl0aG9uJywgJy1waCcsICc3LjAnLCAnLXRuJywgJzgnLCAnLW1hJywgJzIwMCcsICctbWV0YWxfYmluZGluZycsICctaW1hZScsICc8aW5maWxlLm1hZT4nLCAnLW9tYWUnLCAnPG91dGZpbGUubWFlPic=

> <r_lp_tautomer_probability>
1

> <r_epik_Ionization_Penalty>
0.233023

> <r_epik_Ionization_Penalty_Charging>
0.23295

> <r_epik_Ionization_Penalty_Neutral>
7.2493e-05

> <r_epik_State_Penalty>
0.223667

> <r_epik_Charging_Adjusted_Penalty>
0.456618

> <i_epik_Tot_Q>
1

> <i_epik_Tot_abs_Q>
1

> <r_epik_Metal_State_Penalty>
0.226879

> <b_epik_Metal_Only>
0

> <s_lp_Force_Field>
OPLS_2005

> <r_lp_Energy>
45.9613

> <b_lp_Chiralities_Consistent>
1

> <s_lp_Variant>
AV-unprocessed.smi:256-4

> <Gold.Version>
5.8.1

> <Gold.Id.Protein>
6NUR|6NUR_protein|mol2

> <Gold.PLP.Fitness>
45.6324

> <Gold.PLP.PLP>
-36.9437

> <Gold.PLP.part.hbond>
-3.0000

> <Gold.PLP.part.metal>
0.0000

> <Gold.PLP.part.buried>
-3.1676

> <Gold.PLP.part.nonpolar>
-31.0869

> <Gold.PLP.part.repulsive>
0.7991

> <Gold.PLP.ligand.clash>
0.0000

> <Gold.PLP.ligand.torsion>
1.0052

> <Gold.PLP.Chemscore.Hbond>
3.0000

> <Gold.PLP.Chemscore.CHOScore>
0.3847

> <Gold.PLP.Chemscore.Metal>
0.0000

> <Gold.Chemscore.Hbonds>
donor molecule, donor type, donor heavy atom, donor atom, acceptor molecule, acceptor atom, score
      L1  H    17    42       P1  8028  1.00
      L1  H    25    62       P1 10175  2.00
      L1  C     8    38       P1  7957  0.28

> <Gold.PLP.Chemscore.Internal.Correction>
0.5451

> <Gold.Rescore>
     Score         DG    S(hbond)    S(metal)    S(lipo)     H(rot)  DE(clash)    DE(int)     intcor
     14.39     -15.58       1.98        0.00      93.82       2.92       0.23       0.95       ----

> <Gold.Chemscore.Fitness>
14.3913

> <Gold.Chemscore.DG>
-15.5751

> <Gold.Chemscore.ZeroCoef>
-5.4800

> <Gold.Chemscore.Hbond>
1.9777

> <Gold.Chemscore.Metal>
0.0000

> <Gold.Chemscore.Lipo>
93.8183

> <Gold.Chemscore.Internal_Hbond>
0.0000

> <Gold.Chemscore.DEClash>
0.2309

> <Gold.Chemscore.DEInternal>
0.9529

> <Gold.Chemscore.Rot>
2.9247

> <Gold.Chemscore.Internal.Correction>
   9.000000E+99

> <Gold.Chemscore.Hbonds>
donor molecule, donor type, donor heavy atom, donor atom, acceptor molecule, acceptor atom, score
      L1  H    17    42       P1  8028  0.99
      L1  H    25    62       P1 10175  1.00

> <Gold.Chemscore.Hbond.Weighted>
-6.6056

> <Gold.Chemscore.Metal.Weighted>
-0.0000

> <Gold.Chemscore.Lipo.Weighted>
-10.9767

> <Gold.Chemscore.Internal_Hbond.Weighted>
0.0000

> <Gold.Chemscore.DEClash.Weighted>
0.2309

> <Gold.Chemscore.DEInternal.Weighted>
0.9529

> <Gold.Chemscore.Rot.Weighted>
7.4873

> <Gold.Chemscore.Internal.Correction.Weighted>
   9.000000E+99

> <Gold.Protein.RotatedTorsions>
[ 6907 6896 6895 6894 ] final -108.84 input  -60.11 | X-H torsion
[ 7974 7965 7964 7962 ] final   56.27 input  175.53 | X-H torsion
[ 8008 7997 7996 7995 ] final -112.57 input   59.86 | X-H torsion
[ 10167 10162 10161 10158 ] final -102.80 input  -65.29 | X-H torsion
[ 10718 10713 10712 10709 ] final  154.29 input   66.30 | X-H torsion
[ 10763 10752 10751 10750 ] final -122.09 input  -60.55 | X-H torsion
[ 11005 11000 10999 10996 ] final   80.15 input  -57.11 | X-H torsion

> <Gold.Protein.ActiveResidues>
 VAL166  LYS551  ARG553  GLY616  TRP617  ASP618  TYR619  PRO620  LYS621  CYS622 
 ASP623  PHE694  ASN695  SER759  ASP760  ASP761  ALA762  ILE779  LEU786  VAL792 
 PHE793  MET794  SER795  GLU796  ALA797  LYS798  CYS799  TRP800  GLU811  SER814 

> <Gold.Protein.RotatedAtoms>
  150.7526  133.9617  159.3517 H   0  0  0  0  0  0  0  0  0  0  0  0  # atno 6907 bound_to 6896
  151.7543  135.0823  160.0345 H   0  0  0  0  0  0  0  0  0  0  0  0  # atno 6908 bound_to 6896
  152.3445  133.6069  159.5936 H   0  0  0  0  0  0  0  0  0  0  0  0  # atno 6909 bound_to 6896
  145.9416  139.3893  143.0360 H   0  0  0  0  0  0  0  0  0  0  0  0  # atno 7974 bound_to 7965
  155.0072  140.0394  157.2384 H   0  0  0  0  0  0  0  0  0  0  0  0  # atno 8008 bound_to 7997
  154.7492  140.2763  155.6284 H   0  0  0  0  0  0  0  0  0  0  0  0  # atno 8009 bound_to 7997
  156.2881  140.2650  156.2240 H   0  0  0  0  0  0  0  0  0  0  0  0  # atno 8010 bound_to 7997
  140.2268  143.3636  152.0922 H   0  0  0  0  0  0  0  0  0  0  0  0  # atno 10167 bound_to 10162
  157.2335  131.0744  151.1838 H   0  0  0  0  0  0  0  0  0  0  0  0  # atno 10718 bound_to 10713
  154.8682  135.4145  154.2726 H   0  0  0  0  0  0  0  0  0  0  0  0  # atno 10763 bound_to 10752
  153.3633  135.7004  153.6700 H   0  0  0  0  0  0  0  0  0  0  0  0  # atno 10764 bound_to 10752
  153.5592  135.3613  155.2764 H   0  0  0  0  0  0  0  0  0  0  0  0  # atno 10765 bound_to 10752
  139.9145  134.7898  156.1872 H   0  0  0  0  0  0  0  0  0  0  0  0  # atno 11005 bound_to 11000
  145.8292  140.9639  143.0858 LP  0  0  0  0  0  0  0  0  0  0  0  0  # atno 17320 bound_to 7965
  144.6780  140.0140  143.7484 LP  0  0  0  0  0  0  0  0  0  0  0  0  # atno 17321 bound_to 7965
  139.5124  144.6916  151.5743 LP  0  0  0  0  0  0  0  0  0  0  0  0  # atno 17342 bound_to 10162
  140.6215  143.9250  150.6530 LP  0  0  0  0  0  0  0  0  0  0  0  0  # atno 17343 bound_to 10162
  157.3453  130.7054  149.6407 LP  0  0  0  0  0  0  0  0  0  0  0  0  # atno 17370 bound_to 10713
  155.9674  130.4268  150.4715 LP  0  0  0  0  0  0  0  0  0  0  0  0  # atno 17371 bound_to 10713
  141.0606  133.6843  156.1945 LP  0  0  0  0  0  0  0  0  0  0  0  0  # atno 17394 bound_to 11000
  140.6667  134.4911  157.5586 LP  0  0  0  0  0  0  0  0  0  0  0  0  # atno 17395 bound_to 11000

$$$$
