#       Name:                AV-unprocessed.smi:1554
#       Creating user name   scv26
#       Creation time:       Fri Mar 27 06:44:44 2020


#       File generated by GOLD software.
#

@<TRIPOS>MOLECULE
AV-unprocessed.smi:1554
    53    55     1
SMALL
NO_CHARGES


@<TRIPOS>ATOM
      1 ****        -3.3216   3.4904  -2.0317 C.3            1 S1                 0.0000
      2 ****        -2.8691   2.5141  -0.9593 C.ar           1 S1                 0.0000
      3 ****        -2.7108   2.9893   0.3619 C.ar           1 S1                 0.0000
      4 ****        -2.2972   2.0724   1.3209 C.ar           1 S1                 0.0000
      5 ****        -2.0555   2.2275   2.6870 N.pl3          1 S1                 1.0000
      6 ****        -1.6636   1.0365   3.2170 C.2            1 S1                 0.0000
      7 ****        -1.6436   0.1228   2.2080 N.pl3          1 S1                 0.0000
      8 ****        -1.2900  -1.3065   2.2475 C.3            1 S1                 0.0000
      9 ****         0.2304  -1.5758   2.1908 C.3            1 S1                 0.0000
     10 ****         0.8344  -1.0050   3.3361 O.3            1 S1                 0.0000
     11 ****         0.9069  -0.9991   0.9276 C.3            1 S1                 0.0000
     12 ****         2.3255  -1.4245   0.7848 N.4            1 S1                 1.0000
     13 ****         2.5113  -2.8134   0.2917 C.3            1 S1                 0.0000
     14 ****         2.2996  -2.9078  -1.2323 C.3            1 S1                 0.0000
     15 ****         3.1443  -1.9769  -1.8981 O.3            1 S1                 0.0000
     16 ****         2.8800  -0.6307  -1.5189 C.3            1 S1                 0.0000
     17 ****         3.7739   0.2870  -2.3603 C.3            1 S1                 0.0000
     18 ****         3.1506  -0.4795  -0.0077 C.3            1 S1                 0.0000
     19 ****        -2.0408   0.7231   1.0061 C.ar           1 S1                 0.0000
     20 ****        -2.1940   0.2391  -0.2918 C.ar           1 S1                 0.0000
     21 ****        -2.6134   1.1563  -1.2816 C.ar           1 S1                 0.0000
     22 ****        -2.7880   0.6556  -2.7053 C.3            1 S1                 0.0000
     23 ****        -3.4966   4.4841  -1.6183 H              1 S1                 0.0000
     24 ****        -4.2514   3.1529  -2.4902 H              1 S1                 0.0000
     25 ****        -2.5643   3.5823  -2.8105 H              1 S1                 0.0000
     26 ****        -2.9045   4.0217   0.6151 H              1 S1                 0.0000
     27 ****        -1.4080   0.8507   4.2506 H              1 S1                 0.0000
     28 ****        -1.7038  -1.7135   3.1711 H              1 S1                 0.0000
     29 ****        -1.8030  -1.8272   1.4395 H              1 S1                 0.0000
     30 ****         0.3753  -2.6542   2.2426 H              1 S1                 0.0000
     31 ****         1.7216  -1.3230   3.4062 H              1 S1                 0.0000
     32 ****         0.3475  -1.2886   0.0385 H              1 S1                 0.0000
     33 ****         0.8572   0.0897   0.9715 H              1 S1                 0.0000
     34 ****         3.5307  -3.1214   0.5284 H              1 S1                 0.0000
     35 ****         1.8562  -3.5107   0.8124 H              1 S1                 0.0000
     36 ****         2.5448  -3.9116  -1.5795 H              1 S1                 0.0000
     37 ****         1.2585  -2.7305  -1.5043 H              1 S1                 0.0000
     38 ****         1.8383  -0.3913  -1.7397 H              1 S1                 0.0000
     39 ****         3.6016   1.3356  -2.1160 H              1 S1                 0.0000
     40 ****         3.5735   0.1579  -3.4243 H              1 S1                 0.0000
     41 ****         4.8299   0.0731  -2.1923 H              1 S1                 0.0000
     42 ****         2.9786   0.5464   0.3201 H              1 S1                 0.0000
     43 ****         4.2012  -0.6910   0.1968 H              1 S1                 0.0000
     44 ****        -2.0039  -0.7934  -0.5430 H              1 S1                 0.0000
     45 ****        -2.5189  -0.3974  -2.7945 H              1 S1                 0.0000
     46 ****        -2.1551   1.2190  -3.3912 H              1 S1                 0.0000
     47 ****        -3.8255   0.7624  -3.0229 H              1 S1                 0.0000
     48 ****         2.7034  -1.3958   1.7210 H              1 S1                 0.0000
     49 ****        -2.1527   3.0812   3.2221 H              1 S1                 0.0000
     50 ****         0.3191  -1.2661   4.1523 LP             1 S1                 0.0000
     51 ****         0.8410  -0.0087   3.2505 LP             1 S1                 0.0000
     52 ****         3.0041  -2.0655  -2.8843 LP             1 S1                 0.0000
     53 ****         4.0954  -2.1915  -1.6761 LP             1 S1                 0.0000
@<TRIPOS>BOND
    1    1    2 1     
    2    1   23 1     
    3    1   24 1     
    4    1   25 1     
    5    2   21 ar    
    6    2    3 ar    
    7    3    4 ar    
    8    3   26 1     
    9    4   19 ar    
   10    4    5 1     
   11    5    6 2     
   12    5   49 1     
   13    6    7 1     
   14    6   27 1     
   15    7    8 1     
   16    7   19 1     
   17    8    9 1     
   18    8   28 1     
   19    8   29 1     
   20    9   10 1     
   21    9   11 1     
   22    9   30 1     
   23   10   31 1     
   24   11   12 1     
   25   11   32 1     
   26   11   33 1     
   27   12   18 1     
   28   12   13 1     
   29   12   48 1     
   30   13   14 1     
   31   13   34 1     
   32   13   35 1     
   33   14   15 1     
   34   14   36 1     
   35   14   37 1     
   36   15   16 1     
   37   16   17 1     
   38   16   18 1     
   39   16   38 1     
   40   17   39 1     
   41   17   40 1     
   42   17   41 1     
   43   18   42 1     
   44   18   43 1     
   45   19   20 ar    
   46   20   21 ar    
   47   20   44 1     
   48   21   22 1     
   49   22   45 1     
   50   22   46 1     
   51   22   47 1     
   52   10   50 1     
   53   10   51 1     
   54   15   52 1     
   55   15   53 1     
@<TRIPOS>SUBSTRUCTURE
      1 S1             1
@<TRIPOS>SET
LONE_PAIRS      STATIC     ATOMS    <user>   **** ""
4 50 51 52 53
DONOR_HYDROGENS      STATIC     ATOMS    <user>   **** ""
3 49 31 48
ATOM$BLUE        STATIC     ATOMS    COLORGROUP SYSTEM
4 50 51 52 53
ATOM$RED        STATIC     ATOMS    COLORGROUP SYSTEM
3 49 31 48
