AV-unprocessed.smi:2526|AV-procd|sdf|9934|dock6
  -GOLD-   2272013573D 1   1.00000     0.00000
 Structure written by MMmdl.
 29 30  0  0  0  0  0  0  0  0  2 V2000
  152.4679  144.0516  161.1304 C   0  0  0  0  0  0  0  0  0  0  0  0
  151.9358  143.5523  159.8806 N   0  0  0  0  0  0  0  0  0  0  0  0
  151.7338  142.2455  159.4935 C   0  0  0  0  0  0  0  0  0  0  0  0
  151.2085  142.2654  158.2302 C   0  0  0  0  0  0  0  0  0  0  0  0
  150.8106  141.1114  157.3411 C   0  0  2  0  0  0  0  0  0  0  0  0
  151.9812  140.3037  156.9880 N   0  0  0  0  0  0  0  0  0  0  0  0
  152.1969  139.6592  155.8272 C   0  0  0  0  0  0  0  0  0  0  0  0
  153.1884  138.9536  155.6614 O   0  0  0  0  0  0  0  0  0  0  0  0
  151.1994  139.8410  154.6726 C   0  0  0  0  0  0  0  0  0  0  0  0
  149.8527  140.4432  155.1066 C   0  0  0  0  0  0  0  0  0  0  0  0
  150.0614  141.6071  156.0822 C   0  0  1  0  0  0  0  0  0  0  0  0
  148.7799  142.2497  156.4266 N   0  3  0  0  0  0  0  0  0  0  0  0
  151.1244  143.6571  157.9354 C   0  0  0  0  0  0  0  0  0  0  0  0
  151.5621  144.4222  158.9207 N   0  0  0  0  0  0  0  0  0  0  0  0
  152.9920  143.2540  161.6578 H   0  0  0  0  0  0  0  0  0  0  0  0
  151.6525  144.4164  161.7559 H   0  0  0  0  0  0  0  0  0  0  0  0
  153.1664  144.8674  160.9405 H   0  0  0  0  0  0  0  0  0  0  0  0
  151.9798  141.4171  160.1420 H   0  0  0  0  0  0  0  0  0  0  0  0
  150.1479  140.4400  157.8897 H   0  0  0  0  0  0  0  0  0  0  0  0
  152.6725  140.1805  157.7143 H   0  0  0  0  0  0  0  0  0  0  0  0
  151.6681  140.4962  153.9377 H   0  0  0  0  0  0  0  0  0  0  0  0
  151.0384  138.8832  154.1764 H   0  0  0  0  0  0  0  0  0  0  0  0
  149.3077  140.7823  154.2248 H   0  0  0  0  0  0  0  0  0  0  0  0
  149.2376  139.6709  155.5715 H   0  0  0  0  0  0  0  0  0  0  0  0
  150.6688  142.3644  155.5831 H   0  0  0  0  0  0  0  0  0  0  0  0
  148.0169  141.7114  156.0415 H   0  0  0  0  0  0  0  0  0  0  0  0
  148.7585  143.1847  156.0449 H   0  0  0  0  0  0  0  0  0  0  0  0
  150.7623  144.1314  157.0352 H   0  0  0  0  0  0  0  0  0  0  0  0
  148.6874  142.2951  157.4314 H   0  0  0  0  0  0  0  0  0  0  0  0
  1  2  1  0  0  0  0
  1 15  1  0  0  0  0
  1 16  1  0  0  0  0
  1 17  1  0  0  0  0
  2 14  1  0  0  0  0
  2  3  1  0  0  0  0
  3  4  2  0  0  0  0
  3 18  1  0  0  0  0
  4  5  1  0  0  0  0
  4 13  1  0  0  0  0
  5 11  1  0  0  0  0
  5  6  1  0  0  0  0
  5 19  1  0  0  0  0
  6  7  1  0  0  0  0
  6 20  1  0  0  0  0
  7  8  2  0  0  0  0
  7  9  1  0  0  0  0
  9 10  1  0  0  0  0
  9 21  1  0  0  0  0
  9 22  1  0  0  0  0
 10 11  1  0  0  0  0
 10 23  1  0  0  0  0
 10 24  1  0  0  0  0
 11 12  1  0  0  0  0
 11 25  1  0  0  0  0
 12 26  1  0  0  0  0
 12 27  1  0  0  0  0
 12 29  1  0  0  0  0
 13 14  2  0  0  0  0
 13 28  1  0  0  0  0
M  CHG  1  12   1
M  END
> <s_m_source_file>
AV-unprocessed.smi

> <i_m_source_file_index>
2526

> <i_lp_mmshare_version>
43012

> <i_f3d_flags>
0

> <s_epik_input>
W0NIM11uMVtjSF1jKFtjSF1uMSlbQ0BASF0yW05IXUMoPU8pW0NIMl1bQ0gyXVtDQEhdMltOSDJd

> <s_epik_cmdline>
J2VwaWtfcHl0aG9uJywgJy1waCcsICc3LjAnLCAnLXRuJywgJzgnLCAnLW1hJywgJzIwMCcsICctbWV0YWxfYmluZGluZycsICctaW1hZScsICc8aW5maWxlLm1hZT4nLCAnLW9tYWUnLCAnPG91dGZpbGUubWFlPic=

> <r_lp_tautomer_probability>
1

> <r_epik_Ionization_Penalty>
0.00878543

> <r_epik_Ionization_Penalty_Charging>
0.00874185

> <r_epik_Ionization_Penalty_Neutral>
4.35793e-05

> <r_epik_State_Penalty>
0.00660351

> <r_epik_Charging_Adjusted_Penalty>
0.0153454

> <i_epik_Tot_Q>
1

> <i_epik_Tot_abs_Q>
1

> <r_epik_Metal_State_Penalty>
0.00660727

> <b_epik_Metal_Only>
0

> <s_lp_Force_Field>
OPLS_2005

> <r_lp_Energy>
10.7235

> <b_lp_Chiralities_Consistent>
1

> <s_lp_Variant>
AV-unprocessed.smi:2526-1

> <Gold.Version>
5.8.1

> <Gold.Id.Protein>
6NUR|6NUR_protein|mol2

> <Gold.PLP.Fitness>
38.0682

> <Gold.PLP.PLP>
-26.5330

> <Gold.PLP.part.hbond>
-2.0000

> <Gold.PLP.part.metal>
0.0000

> <Gold.PLP.part.buried>
-1.2922

> <Gold.PLP.part.nonpolar>
-23.5499

> <Gold.PLP.part.repulsive>
0.2317

> <Gold.PLP.ligand.clash>
0.0000

> <Gold.PLP.ligand.torsion>
0.0932

> <Gold.PLP.Chemscore.Hbond>
2.9000

> <Gold.PLP.Chemscore.CHOScore>
1.0000

> <Gold.PLP.Chemscore.Metal>
0.0000

> <Gold.Chemscore.Hbonds>
donor molecule, donor type, donor heavy atom, donor atom, acceptor molecule, acceptor atom, score
      L1  H    12    27       P1  8028  2.00
      P1  H  7997  8009       L1     8  0.90
      L1  C    13    28       P1  8028  1.00

> <Gold.PLP.Chemscore.Internal.Correction>
0.0215

> <Gold.Rescore>
     Score         DG    S(hbond)    S(metal)    S(lipo)     H(rot)  DE(clash)    DE(int)     intcor
     14.22     -14.81       1.31        0.00      64.20       1.00       0.39       0.20       ----

> <Gold.Chemscore.Fitness>
14.2222

> <Gold.Chemscore.DG>
-14.8061

> <Gold.Chemscore.ZeroCoef>
-5.4800

> <Gold.Chemscore.Hbond>
1.3099

> <Gold.Chemscore.Metal>
0.0000

> <Gold.Chemscore.Lipo>
64.1973

> <Gold.Chemscore.Internal_Hbond>
0.0000

> <Gold.Chemscore.DEClash>
0.3860

> <Gold.Chemscore.DEInternal>
0.1979

> <Gold.Chemscore.Rot>
1.0000

> <Gold.Chemscore.Internal.Correction>
   9.000000E+99

> <Gold.Chemscore.Hbonds>
donor molecule, donor type, donor heavy atom, donor atom, acceptor molecule, acceptor atom, score
      L1  H    12    27       P1  8028  0.97
      P1  H  7997  8009       L1     8  0.18

> <Gold.Chemscore.Hbond.Weighted>
-4.3750

> <Gold.Chemscore.Metal.Weighted>
-0.0000

> <Gold.Chemscore.Lipo.Weighted>
-7.5111

> <Gold.Chemscore.Internal_Hbond.Weighted>
0.0000

> <Gold.Chemscore.DEClash.Weighted>
0.3860

> <Gold.Chemscore.DEInternal.Weighted>
0.1979

> <Gold.Chemscore.Rot.Weighted>
2.5600

> <Gold.Chemscore.Internal.Correction.Weighted>
   9.000000E+99

> <Gold.Protein.RotatedTorsions>
[ 6907 6896 6895 6894 ] final  -77.53 input  -60.11 | X-H torsion
[ 7974 7965 7964 7962 ] final  -77.23 input  175.53 | X-H torsion
[ 8008 7997 7996 7995 ] final -146.21 input   59.86 | X-H torsion
[ 10167 10162 10161 10158 ] final  100.13 input  -65.29 | X-H torsion
[ 10718 10713 10712 10709 ] final  176.39 input   66.30 | X-H torsion
[ 10763 10752 10751 10750 ] final  -11.31 input  -60.55 | X-H torsion
[ 11005 11000 10999 10996 ] final  -59.56 input  -57.11 | X-H torsion

> <Gold.Protein.ActiveResidues>
 VAL166  LYS551  ARG553  GLY616  TRP617  ASP618  TYR619  PRO620  LYS621  CYS622 
 ASP623  PHE694  ASN695  SER759  ASP760  ASP761  ALA762  ILE779  LEU786  VAL792 
 PHE793  MET794  SER795  GLU796  ALA797  LYS798  CYS799  TRP800  GLU811  SER814 

> <Gold.Protein.RotatedAtoms>
  150.6996  134.4408  159.5291 H   0  0  0  0  0  0  0  0  0  0  0  0  # atno 6907 bound_to 6896
  152.2118  134.8491  160.0505 H   0  0  0  0  0  0  0  0  0  0  0  0  # atno 6908 bound_to 6896
  151.9374  133.3593  159.3989 H   0  0  0  0  0  0  0  0  0  0  0  0  # atno 6909 bound_to 6896
  145.6024  140.9405  143.1233 H   0  0  0  0  0  0  0  0  0  0  0  0  # atno 7974 bound_to 7965
  155.5557  140.0620  157.2840 H   0  0  0  0  0  0  0  0  0  0  0  0  # atno 8008 bound_to 7997
  154.4406  140.1894  156.0776 H   0  0  0  0  0  0  0  0  0  0  0  0  # atno 8009 bound_to 7997
  156.0484  140.3287  155.7326 H   0  0  0  0  0  0  0  0  0  0  0  0  # atno 8010 bound_to 7997
  139.7555  144.6971  151.0369 H   0  0  0  0  0  0  0  0  0  0  0  0  # atno 10167 bound_to 10162
  156.9208  130.9940  151.3005 H   0  0  0  0  0  0  0  0  0  0  0  0  # atno 10718 bound_to 10713
  153.4819  135.7017  153.5933 H   0  0  0  0  0  0  0  0  0  0  0  0  # atno 10763 bound_to 10752
  153.4142  135.3841  155.2070 H   0  0  0  0  0  0  0  0  0  0  0  0  # atno 10764 bound_to 10752
  154.8721  135.3912  154.4270 H   0  0  0  0  0  0  0  0  0  0  0  0  # atno 10765 bound_to 10752
  141.1253  133.6617  156.5091 H   0  0  0  0  0  0  0  0  0  0  0  0  # atno 11005 bound_to 11000
  144.7304  139.7743  143.7349 LP  0  0  0  0  0  0  0  0  0  0  0  0  # atno 17320 bound_to 7965
  146.1566  139.4666  143.0015 LP  0  0  0  0  0  0  0  0  0  0  0  0  # atno 17321 bound_to 7965
  140.7802  143.4758  151.0084 LP  0  0  0  0  0  0  0  0  0  0  0  0  # atno 17342 bound_to 10162
  139.8445  143.7519  152.3179 LP  0  0  0  0  0  0  0  0  0  0  0  0  # atno 17343 bound_to 10162
  157.5909  130.8443  149.8657 LP  0  0  0  0  0  0  0  0  0  0  0  0  # atno 17370 bound_to 10713
  156.0492  130.3721  150.1243 LP  0  0  0  0  0  0  0  0  0  0  0  0  # atno 17371 bound_to 10713
  140.4384  134.7038  157.4979 LP  0  0  0  0  0  0  0  0  0  0  0  0  # atno 17394 bound_to 11000
  140.0246  134.6496  155.9191 LP  0  0  0  0  0  0  0  0  0  0  0  0  # atno 17395 bound_to 11000

$$$$
