AV-unprocessed.smi:1662|AV-procd|sdf|6663|dock1
  -GOLD-   22720 7373D 1   1.00000     0.00000
 Structure written by MMmdl.
 47 48  0  0  0  0  0  0  0  0  1 V2000
  152.0618  144.6683  160.9731 C   0  0  0  0  0  0  0  0  0  0  0  0
  152.2906  143.3808  160.2279 C   0  0  0  0  0  0  0  0  0  0  0  0
  151.8704  143.3343  159.0065 N   0  0  0  0  0  0  0  0  0  0  0  0
  152.0263  142.1993  158.2345 N   0  0  0  0  0  0  0  0  0  0  0  0
  151.4635  142.3147  156.8810 C   0  0  0  0  0  0  0  0  0  0  0  0
  150.3409  141.3067  156.5921 C   0  0  0  0  0  0  0  0  0  0  0  0
  150.4912  140.1049  156.8184 O   0  0  0  0  0  0  0  0  0  0  0  0
  149.2044  141.8250  156.1021 N   0  0  0  0  0  0  0  0  0  0  0  0
  148.0044  141.0640  155.7602 C   0  0  2  0  0  0  0  0  0  0  0  0
  147.6349  140.1231  156.9235 C   0  0  0  0  0  0  0  0  0  0  0  0
  146.3545  139.3318  156.6165 C   0  0  0  0  0  0  0  0  0  0  0  0
  146.4659  138.5691  155.2869 C   0  0  0  0  0  0  0  0  0  0  0  0
  146.8421  139.5113  154.1256 C   0  0  2  0  0  0  0  0  0  0  0  0
  146.8538  138.7759  152.7752 C   0  0  0  0  0  0  0  0  0  0  0  0
  148.1530  140.2884  154.4213 C   0  0  2  0  0  0  0  0  0  0  0  0
  149.4216  139.4054  154.3660 C   0  0  0  0  0  0  0  0  0  0  0  0
  152.6321  141.0513  158.6551 C   0  0  0  0  0  0  0  0  0  0  0  0
  152.7593  140.0648  157.9281 O   0  0  0  0  0  0  0  0  0  0  0  0
  153.1050  141.1109  160.0401 C   0  0  0  0  0  0  0  0  0  0  0  0
  153.7397  139.9272  160.5230 C   0  0  0  0  0  0  0  0  0  0  0  0
  154.2380  138.9635  160.9273 N   0  0  0  0  0  0  0  0  0  0  0  0
  152.9482  142.2161  160.8112 C   0  0  0  0  0  0  0  0  0  0  0  0
  153.4183  142.3287  162.2549 C   0  0  0  0  0  0  0  0  0  0  0  0
  153.0019  145.0718  161.3494 H   0  0  0  0  0  0  0  0  0  0  0  0
  151.3959  144.5102  161.8216 H   0  0  0  0  0  0  0  0  0  0  0  0
  151.6096  145.4312  160.3376 H   0  0  0  0  0  0  0  0  0  0  0  0
  151.0634  143.3187  156.7267 H   0  0  0  0  0  0  0  0  0  0  0  0
  152.2521  142.1979  156.1350 H   0  0  0  0  0  0  0  0  0  0  0  0
  149.1659  142.8228  155.9524 H   0  0  0  0  0  0  0  0  0  0  0  0
  147.1834  141.7756  155.6506 H   0  0  0  0  0  0  0  0  0  0  0  0
  148.4535  139.4317  157.1257 H   0  0  0  0  0  0  0  0  0  0  0  0
  147.4912  140.7004  157.8377 H   0  0  0  0  0  0  0  0  0  0  0  0
  146.1441  138.6352  157.4285 H   0  0  0  0  0  0  0  0  0  0  0  0
  145.5070  140.0168  156.5716 H   0  0  0  0  0  0  0  0  0  0  0  0
  147.2042  137.7722  155.3796 H   0  0  0  0  0  0  0  0  0  0  0  0
  145.5155  138.0784  155.0735 H   0  0  0  0  0  0  0  0  0  0  0  0
  146.0475  140.2560  154.0536 H   0  0  0  0  0  0  0  0  0  0  0  0
  147.5481  137.9357  152.7765 H   0  0  0  0  0  0  0  0  0  0  0  0
  147.1370  139.4466  151.9636 H   0  0  0  0  0  0  0  0  0  0  0  0
  145.8654  138.3787  152.5420 H   0  0  0  0  0  0  0  0  0  0  0  0
  148.2652  141.0301  153.6291 H   0  0  0  0  0  0  0  0  0  0  0  0
  149.3973  138.6041  155.1037 H   0  0  0  0  0  0  0  0  0  0  0  0
  150.3244  139.9888  154.5458 H   0  0  0  0  0  0  0  0  0  0  0  0
  149.5458  138.9473  153.3855 H   0  0  0  0  0  0  0  0  0  0  0  0
  153.8581  141.4010  162.6198 H   0  0  0  0  0  0  0  0  0  0  0  0
  152.5831  142.5736  162.9118 H   0  0  0  0  0  0  0  0  0  0  0  0
  154.1729  143.1100  162.3508 H   0  0  0  0  0  0  0  0  0  0  0  0
  1  2  1  0  0  0  0
  1 24  1  0  0  0  0
  1 25  1  0  0  0  0
  1 26  1  0  0  0  0
  2 22  1  0  0  0  0
  2  3  2  0  0  0  0
  3  4  1  0  0  0  0
  4  5  1  0  0  0  0
  4 17  1  0  0  0  0
  5  6  1  0  0  0  0
  5 27  1  0  0  0  0
  5 28  1  0  0  0  0
  6  7  2  0  0  0  0
  6  8  1  0  0  0  0
  8  9  1  0  0  0  0
  8 29  1  0  0  0  0
  9 15  1  0  0  0  0
  9 10  1  0  0  0  0
  9 30  1  0  0  0  0
 10 11  1  0  0  0  0
 10 31  1  0  0  0  0
 10 32  1  0  0  0  0
 11 12  1  0  0  0  0
 11 33  1  0  0  0  0
 11 34  1  0  0  0  0
 12 13  1  0  0  0  0
 12 35  1  0  0  0  0
 12 36  1  0  0  0  0
 13 14  1  0  0  0  0
 13 15  1  0  0  0  0
 13 37  1  0  0  0  0
 14 38  1  0  0  0  0
 14 39  1  0  0  0  0
 14 40  1  0  0  0  0
 15 16  1  0  0  0  0
 15 41  1  0  0  0  0
 16 42  1  0  0  0  0
 16 43  1  0  0  0  0
 16 44  1  0  0  0  0
 17 18  2  0  0  0  0
 17 19  1  0  0  0  0
 19 20  1  0  0  0  0
 19 22  2  0  0  0  0
 20 21  3  0  0  0  0
 22 23  1  0  0  0  0
 23 45  1  0  0  0  0
 23 46  1  0  0  0  0
 23 47  1  0  0  0  0
M  END
> <s_m_source_file>
AV-unprocessed.smi

> <i_m_source_file_index>
1662

> <i_lp_mmshare_version>
43012

> <i_f3d_flags>
0

> <s_epik_input>
TiNDYyhjMVtDSDNdKWMoPU8pbihuYzFbQ0gzXSlbQ0gyXUMoPU8pW05IXVtDQEBIXTJbQ0gyXVtDSDJdW0NIMl1bQ0BASF0oW0NIM10pW0NASF0yW0NIM10=

> <s_epik_cmdline>
J2VwaWtfcHl0aG9uJywgJy1waCcsICc3LjAnLCAnLXRuJywgJzgnLCAnLW1hJywgJzIwMCcsICctbWV0YWxfYmluZGluZycsICctaW1hZScsICc8aW5maWxlLm1hZT4nLCAnLW9tYWUnLCAnPG91dGZpbGUubWFlPic=

> <r_lp_tautomer_probability>
1

> <r_epik_Ionization_Penalty>
1.90709e-08

> <r_epik_Ionization_Penalty_Charging>
2.37982e-11

> <r_epik_Ionization_Penalty_Neutral>
1.90471e-08

> <r_epik_State_Penalty>
-0

> <r_epik_Charging_Adjusted_Penalty>
2.37982e-11

> <i_epik_Tot_Q>
0

> <i_epik_Tot_abs_Q>
0

> <r_epik_Metal_State_Penalty>
-0

> <b_epik_Metal_Only>
0

> <s_lp_Force_Field>
OPLS_2005

> <r_lp_Energy>
29.1366

> <b_lp_Chiralities_Consistent>
1

> <s_lp_Variant>
AV-unprocessed.smi:1662-7

> <Gold.Version>
5.8.1

> <Gold.Id.Protein>
6NUR|6NUR_protein|mol2

> <Gold.PLP.Fitness>
45.6544

> <Gold.PLP.PLP>
-40.1504

> <Gold.PLP.part.hbond>
-2.0000

> <Gold.PLP.part.metal>
0.0000

> <Gold.PLP.part.buried>
-4.4468

> <Gold.PLP.part.nonpolar>
-33.6769

> <Gold.PLP.part.repulsive>
0.1319

> <Gold.PLP.ligand.clash>
0.0000

> <Gold.PLP.ligand.torsion>
0.2443

> <Gold.PLP.Chemscore.Hbond>
1.9920

> <Gold.PLP.Chemscore.CHOScore>
0.0000

> <Gold.PLP.Chemscore.Metal>
0.0000

> <Gold.Chemscore.Hbonds>
donor molecule, donor type, donor heavy atom, donor atom, acceptor molecule, acceptor atom, score
      L1  H     8    29       P1  8028  1.00
      P1  H  7997  8010       L1    18  1.00

> <Gold.PLP.Chemscore.Internal.Correction>
0.0167

> <Gold.Rescore>
     Score         DG    S(hbond)    S(metal)    S(lipo)     H(rot)  DE(clash)    DE(int)     intcor
     11.35     -19.17       1.92        0.00      93.89       1.45       0.24       7.58       ----

> <Gold.Chemscore.Fitness>
11.3490

> <Gold.Chemscore.DG>
-19.1673

> <Gold.Chemscore.ZeroCoef>
-5.4800

> <Gold.Chemscore.Hbond>
1.9208

> <Gold.Chemscore.Metal>
0.0000

> <Gold.Chemscore.Lipo>
93.8855

> <Gold.Chemscore.Internal_Hbond>
0.0000

> <Gold.Chemscore.DEClash>
0.2424

> <Gold.Chemscore.DEInternal>
7.5759

> <Gold.Chemscore.Rot>
1.4504

> <Gold.Chemscore.Internal.Correction>
   9.000000E+99

> <Gold.Chemscore.Hbonds>
donor molecule, donor type, donor heavy atom, donor atom, acceptor molecule, acceptor atom, score
      L1  H     8    29       P1  8028  0.99
      P1  H  7997  8010       L1    18  0.79

> <Gold.Chemscore.Hbond.Weighted>
-6.4156

> <Gold.Chemscore.Metal.Weighted>
-0.0000

> <Gold.Chemscore.Lipo.Weighted>
-10.9846

> <Gold.Chemscore.Internal_Hbond.Weighted>
0.0000

> <Gold.Chemscore.DEClash.Weighted>
0.2424

> <Gold.Chemscore.DEInternal.Weighted>
7.5759

> <Gold.Chemscore.Rot.Weighted>
3.7129

> <Gold.Chemscore.Internal.Correction.Weighted>
   9.000000E+99

> <Gold.Protein.RotatedTorsions>
[ 6907 6896 6895 6894 ] final  111.28 input  -60.11 | X-H torsion
[ 7974 7965 7964 7962 ] final   40.10 input  175.53 | X-H torsion
[ 8008 7997 7996 7995 ] final   43.72 input   59.86 | X-H torsion
[ 10167 10162 10161 10158 ] final   98.76 input  -65.29 | X-H torsion
[ 10718 10713 10712 10709 ] final   93.12 input   66.30 | X-H torsion
[ 10763 10752 10751 10750 ] final  -80.13 input  -60.55 | X-H torsion
[ 11005 11000 10999 10996 ] final   15.42 input  -57.11 | X-H torsion

> <Gold.Protein.ActiveResidues>
 VAL166  LYS551  ARG553  GLY616  TRP617  ASP618  TYR619  PRO620  LYS621  CYS622 
 ASP623  PHE694  ASN695  SER759  ASP760  ASP761  ALA762  ILE779  LEU786  VAL792 
 PHE793  MET794  SER795  GLU796  ALA797  LYS798  CYS799  TRP800  GLU811  SER814 

> <Gold.Protein.RotatedAtoms>
  152.4977  133.8680  159.7283 H   0  0  0  0  0  0  0  0  0  0  0  0  # atno 6907 bound_to 6896
  150.9174  133.6913  159.2847 H   0  0  0  0  0  0  0  0  0  0  0  0  # atno 6908 bound_to 6896
  151.4302  135.1013  159.9692 H   0  0  0  0  0  0  0  0  0  0  0  0  # atno 6909 bound_to 6896
  146.0932  139.5573  142.9462 H   0  0  0  0  0  0  0  0  0  0  0  0  # atno 7974 bound_to 7965
  155.3075  140.3389  155.4245 H   0  0  0  0  0  0  0  0  0  0  0  0  # atno 8008 bound_to 7997
  156.1972  140.1719  156.8013 H   0  0  0  0  0  0  0  0  0  0  0  0  # atno 8009 bound_to 7997
  154.5513  140.0705  156.8656 H   0  0  0  0  0  0  0  0  0  0  0  0  # atno 8010 bound_to 7997
  139.7679  144.6932  151.0198 H   0  0  0  0  0  0  0  0  0  0  0  0  # atno 10167 bound_to 10162
  157.6956  131.0467  150.3985 H   0  0  0  0  0  0  0  0  0  0  0  0  # atno 10718 bound_to 10713
  154.5474  135.5671  153.6892 H   0  0  0  0  0  0  0  0  0  0  0  0  # atno 10763 bound_to 10752
  152.9980  135.6242  154.2420 H   0  0  0  0  0  0  0  0  0  0  0  0  # atno 10764 bound_to 10752
  154.2354  135.2864  155.2854 H   0  0  0  0  0  0  0  0  0  0  0  0  # atno 10765 bound_to 10752
  140.4585  134.1152  155.7713 H   0  0  0  0  0  0  0  0  0  0  0  0  # atno 11005 bound_to 11000
  145.5999  141.0357  143.2024 LP  0  0  0  0  0  0  0  0  0  0  0  0  # atno 17320 bound_to 7965
  144.7375  139.7543  143.7323 LP  0  0  0  0  0  0  0  0  0  0  0  0  # atno 17321 bound_to 7965
  140.7812  143.4622  151.0262 LP  0  0  0  0  0  0  0  0  0  0  0  0  # atno 17342 bound_to 10162
  139.8306  143.7696  152.3179 LP  0  0  0  0  0  0  0  0  0  0  0  0  # atno 17343 bound_to 10162
  156.4381  130.3986  149.6715 LP  0  0  0  0  0  0  0  0  0  0  0  0  # atno 17370 bound_to 10713
  156.3908  130.7626  151.2627 LP  0  0  0  0  0  0  0  0  0  0  0  0  # atno 17371 bound_to 10713
  141.1632  133.8753  157.1789 LP  0  0  0  0  0  0  0  0  0  0  0  0  # atno 17394 bound_to 11000
  139.9961  135.0046  157.0085 LP  0  0  0  0  0  0  0  0  0  0  0  0  # atno 17395 bound_to 11000

$$$$
