AV-unprocessed.smi:1135|AV-procd|sdf|4859|dock5
  -GOLD-   22720 3433D 1   1.00000     0.00000
 Structure written by MMmdl.
 45 46  0  0  0  0  0  0  0  0  1 V2000
  149.4537  141.0104  154.7520 C   0  0  0  0  0  0  0  0  0  0  0  0
  149.9857  139.6656  155.2666 C   0  0  2  0  0  0  0  0  0  0  0  0
  150.5178  138.7923  154.1153 C   0  0  0  0  0  0  0  0  0  0  0  0
  151.0237  137.4275  154.6213 C   0  0  0  0  0  0  0  0  0  0  0  0
  149.9499  136.6426  155.4127 C   0  0  2  0  0  0  0  0  0  0  0  0
  150.5857  135.3559  155.9810 C   0  0  0  0  0  0  0  0  0  0  0  0
  148.8726  136.2934  154.4745 N   0  0  0  0  0  0  0  0  0  0  0  0
  147.6118  135.9211  154.7494 C   0  0  0  0  0  0  0  0  0  0  0  0
  147.1497  135.7923  155.8830 O   0  0  0  0  0  0  0  0  0  0  0  0
  146.9070  135.7118  153.6290 N   0  0  0  0  0  0  0  0  0  0  0  0
  145.5040  135.3162  153.5896 C   0  0  0  0  0  0  0  0  0  0  0  0
  144.9236  135.4343  152.1704 C   0  0  0  0  0  0  0  0  0  0  0  0
  144.9855  134.1206  151.4144 C   0  0  0  0  0  0  0  0  0  0  0  0
  143.8559  133.2777  151.3436 C   0  0  0  0  0  0  0  0  0  0  0  0
  143.9674  132.0634  150.6393 C   0  0  0  0  0  0  0  0  0  0  0  0
  145.1982  131.7396  150.0369 C   0  0  0  0  0  0  0  0  0  0  0  0
  146.2669  132.6493  150.1649 C   0  0  0  0  0  0  0  0  0  0  0  0
  146.1705  133.8164  150.8378 N   0  0  0  0  0  0  0  0  0  0  0  0
  149.4379  137.5465  156.5656 C   0  0  0  0  0  0  0  0  0  0  0  0
  148.9135  138.9060  156.0690 C   0  0  0  0  0  0  0  0  0  0  0  0
  148.6117  140.8707  154.0732 H   0  0  0  0  0  0  0  0  0  0  0  0
  150.2276  141.5588  154.2145 H   0  0  0  0  0  0  0  0  0  0  0  0
  149.1161  141.6398  155.5760 H   0  0  0  0  0  0  0  0  0  0  0  0
  150.8191  139.8773  155.9383 H   0  0  0  0  0  0  0  0  0  0  0  0
  149.7351  138.6449  153.3700 H   0  0  0  0  0  0  0  0  0  0  0  0
  151.3291  139.3108  153.6031 H   0  0  0  0  0  0  0  0  0  0  0  0
  151.3776  136.8350  153.7763 H   0  0  0  0  0  0  0  0  0  0  0  0
  151.8960  137.5932  155.2553 H   0  0  0  0  0  0  0  0  0  0  0  0
  151.4415  135.5859  156.6165 H   0  0  0  0  0  0  0  0  0  0  0  0
  150.9378  134.7011  155.1831 H   0  0  0  0  0  0  0  0  0  0  0  0
  149.8825  134.7859  156.5882 H   0  0  0  0  0  0  0  0  0  0  0  0
  149.1181  136.3585  153.4976 H   0  0  0  0  0  0  0  0  0  0  0  0
  147.3699  135.8413  152.7412 H   0  0  0  0  0  0  0  0  0  0  0  0
  145.4326  134.2854  153.9374 H   0  0  0  0  0  0  0  0  0  0  0  0
  144.9256  135.9208  154.2905 H   0  0  0  0  0  0  0  0  0  0  0  0
  143.8862  135.7685  152.2140 H   0  0  0  0  0  0  0  0  0  0  0  0
  145.4657  136.1943  151.6056 H   0  0  0  0  0  0  0  0  0  0  0  0
  142.9262  133.5524  151.8202 H   0  0  0  0  0  0  0  0  0  0  0  0
  143.1246  131.3924  150.5646 H   0  0  0  0  0  0  0  0  0  0  0  0
  145.3209  130.8164  149.4902 H   0  0  0  0  0  0  0  0  0  0  0  0
  147.2251  132.4329  149.7159 H   0  0  0  0  0  0  0  0  0  0  0  0
  148.6633  137.0446  157.1448 H   0  0  0  0  0  0  0  0  0  0  0  0
  150.2525  137.7252  157.2689 H   0  0  0  0  0  0  0  0  0  0  0  0
  148.5975  139.5051  156.9235 H   0  0  0  0  0  0  0  0  0  0  0  0
  148.0234  138.7579  155.4562 H   0  0  0  0  0  0  0  0  0  0  0  0
  1  2  1  0  0  0  0
  1 21  1  0  0  0  0
  1 22  1  0  0  0  0
  1 23  1  0  0  0  0
  2 20  1  0  0  0  0
  2  3  1  0  0  0  0
  2 24  1  0  0  0  0
  3  4  1  0  0  0  0
  3 25  1  0  0  0  0
  3 26  1  0  0  0  0
  4  5  1  0  0  0  0
  4 27  1  0  0  0  0
  4 28  1  0  0  0  0
  5  6  1  0  0  0  0
  5  7  1  0  0  0  0
  5 19  1  0  0  0  0
  6 29  1  0  0  0  0
  6 30  1  0  0  0  0
  6 31  1  0  0  0  0
  7  8  1  0  0  0  0
  7 32  1  0  0  0  0
  8  9  2  0  0  0  0
  8 10  1  0  0  0  0
 10 11  1  0  0  0  0
 10 33  1  0  0  0  0
 11 12  1  0  0  0  0
 11 34  1  0  0  0  0
 11 35  1  0  0  0  0
 12 13  1  0  0  0  0
 12 36  1  0  0  0  0
 12 37  1  0  0  0  0
 13 18  1  0  0  0  0
 13 14  2  0  0  0  0
 14 15  1  0  0  0  0
 14 38  1  0  0  0  0
 15 16  2  0  0  0  0
 15 39  1  0  0  0  0
 16 17  1  0  0  0  0
 16 40  1  0  0  0  0
 17 18  2  0  0  0  0
 17 41  1  0  0  0  0
 19 20  1  0  0  0  0
 19 42  1  0  0  0  0
 19 43  1  0  0  0  0
 20 44  1  0  0  0  0
 20 45  1  0  0  0  0
M  END
> <s_m_source_file>
AV-unprocessed.smi

> <i_m_source_file_index>
1135

> <i_lp_mmshare_version>
43012

> <i_f3d_flags>
0

> <s_epik_input>
W0NIMl0xW0NIMl1bQ0BIXShbQ0gzXSlbQ0gyXVtDSDJdW0NAQF0xKFtDSDNdKVtOSF1DKD1PKVtOSF1bQ0gyXVtDSDJdYzJbY0hdW2NIXVtjSF1bY0hdbjI=

> <s_epik_cmdline>
J2VwaWtfcHl0aG9uJywgJy1waCcsICc3LjAnLCAnLXRuJywgJzgnLCAnLW1hJywgJzIwMCcsICctbWV0YWxfYmluZGluZycsICctaW1hZScsICc8aW5maWxlLm1hZT4nLCAnLW9tYWUnLCAnPG91dGZpbGUubWFlPic=

> <r_epik_Ionization_Penalty>
0.0448679

> <r_epik_Ionization_Penalty_Charging>
0

> <r_epik_Ionization_Penalty_Neutral>
0.0448679

> <r_epik_State_Penalty>
0.0379931

> <r_epik_Charging_Adjusted_Penalty>
0.0379931

> <i_epik_Tot_Q>
0

> <i_epik_Tot_abs_Q>
0

> <r_epik_Metal_State_Penalty>
0.0353093

> <b_epik_Metal_Only>
0

> <s_lp_Force_Field>
OPLS_2005

> <r_lp_Energy>
6.34065

> <b_lp_Chiralities_Consistent>
1

> <s_lp_Variant>
AV-unprocessed.smi:1135-2

> <Gold.Version>
5.8.1

> <Gold.Id.Protein>
6NUR|6NUR_protein|mol2

> <Gold.PLP.Fitness>
38.8478

> <Gold.PLP.PLP>
-31.9635

> <Gold.PLP.part.hbond>
-2.0000

> <Gold.PLP.part.metal>
0.0000

> <Gold.PLP.part.buried>
-4.1437

> <Gold.PLP.part.nonpolar>
-25.6856

> <Gold.PLP.part.repulsive>
0.2257

> <Gold.PLP.ligand.clash>
0.0000

> <Gold.PLP.ligand.torsion>
0.9804

> <Gold.PLP.Chemscore.Hbond>
1.9440

> <Gold.PLP.Chemscore.CHOScore>
1.0000

> <Gold.PLP.Chemscore.Metal>
0.0000

> <Gold.Chemscore.Hbonds>
donor molecule, donor type, donor heavy atom, donor atom, acceptor molecule, acceptor atom, score
      L1  H     7    32       P1  7948  1.00
      L1  H    10    33       P1  7948  0.94
      L1  C    17    41       P1 10747  1.00

> <Gold.PLP.Chemscore.Internal.Correction>
0.0131

> <Gold.Rescore>
     Score         DG    S(hbond)    S(metal)    S(lipo)     H(rot)  DE(clash)    DE(int)     intcor
     16.40     -18.58       1.90        0.00      88.89       1.42       0.03       2.15       ----

> <Gold.Chemscore.Fitness>
16.3974

> <Gold.Chemscore.DG>
-18.5816

> <Gold.Chemscore.ZeroCoef>
-5.4800

> <Gold.Chemscore.Hbond>
1.8983

> <Gold.Chemscore.Metal>
0.0000

> <Gold.Chemscore.Lipo>
88.8862

> <Gold.Chemscore.Internal_Hbond>
0.0000

> <Gold.Chemscore.DEClash>
0.0310

> <Gold.Chemscore.DEInternal>
2.1532

> <Gold.Chemscore.Rot>
1.4213

> <Gold.Chemscore.Internal.Correction>
   9.000000E+99

> <Gold.Chemscore.Hbonds>
donor molecule, donor type, donor heavy atom, donor atom, acceptor molecule, acceptor atom, score
      L1  H     7    32       P1  7948  0.96
      L1  H    10    33       P1  7948  0.92

> <Gold.Chemscore.Hbond.Weighted>
-6.3404

> <Gold.Chemscore.Metal.Weighted>
-0.0000

> <Gold.Chemscore.Lipo.Weighted>
-10.3997

> <Gold.Chemscore.Internal_Hbond.Weighted>
0.0000

> <Gold.Chemscore.DEClash.Weighted>
0.0310

> <Gold.Chemscore.DEInternal.Weighted>
2.1532

> <Gold.Chemscore.Rot.Weighted>
3.6385

> <Gold.Chemscore.Internal.Correction.Weighted>
   9.000000E+99

> <Gold.Protein.RotatedTorsions>
[ 6907 6896 6895 6894 ] final  -39.28 input  -60.11 | X-H torsion
[ 7974 7965 7964 7962 ] final  -13.50 input  175.53 | X-H torsion
[ 8008 7997 7996 7995 ] final  -11.90 input   59.86 | X-H torsion
[ 10167 10162 10161 10158 ] final   88.89 input  -65.29 | X-H torsion
[ 10718 10713 10712 10709 ] final   83.67 input   66.30 | X-H torsion
[ 10763 10752 10751 10750 ] final -144.60 input  -60.55 | X-H torsion
[ 11005 11000 10999 10996 ] final -108.58 input  -57.11 | X-H torsion

> <Gold.Protein.ActiveResidues>
 VAL166  LYS551  ARG553  GLY616  TRP617  ASP618  TYR619  PRO620  LYS621  CYS622 
 ASP623  PHE694  ASN695  SER759  ASP760  ASP761  ALA762  ILE779  LEU786  VAL792 
 PHE793  MET794  SER795  GLU796  ALA797  LYS798  CYS799  TRP800  GLU811  SER814 

> <Gold.Protein.RotatedAtoms>
  150.9922  134.9254  159.7905 H   0  0  0  0  0  0  0  0  0  0  0  0  # atno 6907 bound_to 6896
  152.5254  134.3266  159.9177 H   0  0  0  0  0  0  0  0  0  0  0  0  # atno 6908 bound_to 6896
  151.3272  133.3974  159.2694 H   0  0  0  0  0  0  0  0  0  0  0  0  # atno 6909 bound_to 6896
  146.2112  140.3212  142.8390 H   0  0  0  0  0  0  0  0  0  0  0  0  # atno 7974 bound_to 7965
  154.5424  140.2290  155.8619 H   0  0  0  0  0  0  0  0  0  0  0  0  # atno 8008 bound_to 7997
  156.1871  140.3086  155.9222 H   0  0  0  0  0  0  0  0  0  0  0  0  # atno 8009 bound_to 7997
  155.3231  140.0441  157.3030 H   0  0  0  0  0  0  0  0  0  0  0  0  # atno 8010 bound_to 7997
  139.8627  144.6535  150.9039 H   0  0  0  0  0  0  0  0  0  0  0  0  # atno 10167 bound_to 10162
  157.6883  131.0100  150.2557 H   0  0  0  0  0  0  0  0  0  0  0  0  # atno 10718 bound_to 10713
  154.8421  135.3436  154.6371 H   0  0  0  0  0  0  0  0  0  0  0  0  # atno 10763 bound_to 10752
  153.6982  135.6971  153.5075 H   0  0  0  0  0  0  0  0  0  0  0  0  # atno 10764 bound_to 10752
  153.2543  135.4343  155.0784 H   0  0  0  0  0  0  0  0  0  0  0  0  # atno 10765 bound_to 10752
  141.0894  133.9081  157.2110 H   0  0  0  0  0  0  0  0  0  0  0  0  # atno 11005 bound_to 11000
  144.8919  140.7534  143.5921 LP  0  0  0  0  0  0  0  0  0  0  0  0  # atno 17320 bound_to 7965
  145.3135  139.1811  143.4626 LP  0  0  0  0  0  0  0  0  0  0  0  0  # atno 17321 bound_to 7965
  140.7772  143.3730  151.1614 LP  0  0  0  0  0  0  0  0  0  0  0  0  # atno 17342 bound_to 10162
  139.7358  143.9001  152.3034 LP  0  0  0  0  0  0  0  0  0  0  0  0  # atno 17343 bound_to 10162
  156.3146  130.3777  149.7630 LP  0  0  0  0  0  0  0  0  0  0  0  0  # atno 17370 bound_to 10713
  156.5220  130.8219  151.3207 LP  0  0  0  0  0  0  0  0  0  0  0  0  # atno 17371 bound_to 10713
  139.9717  135.0126  156.9530 LP  0  0  0  0  0  0  0  0  0  0  0  0  # atno 17394 bound_to 11000
  140.5287  134.0835  155.7310 LP  0  0  0  0  0  0  0  0  0  0  0  0  # atno 17395 bound_to 11000

$$$$
