AV-unprocessed.smi:3287|AV-procd|sdf|12595|dock1
  -GOLD-   2272018513D 1   1.00000     0.00000
 Structure written by MMmdl.
 43 44  0  0  0  0  0  0  0  0  2 V2000
  152.0136  143.1992  161.3641 C   0  0  0  0  0  0  0  0  0  0  0  0
  152.8528  143.5157  160.1097 C   0  0  1  0  0  0  0  0  0  0  0  0
  153.1295  142.2486  159.2744 C   0  0  0  0  0  0  0  0  0  0  0  0
  151.8811  141.7624  158.5186 C   0  0  0  0  0  0  0  0  0  0  0  0
  151.2962  142.8682  157.6221 C   0  0  1  0  0  0  0  0  0  0  0  0
  150.0875  142.3663  156.9313 N   0  3  0  0  0  0  0  0  0  0  0  0
  150.2754  141.1272  156.1452 C   0  0  0  0  0  0  0  0  0  0  0  0
  149.2484  141.0203  155.0047 C   0  0  1  0  0  0  0  0  0  0  0  0
  149.6871  140.0384  154.0858 O   0  0  0  0  0  0  0  0  0  0  0  0
  147.8617  140.7086  155.5460 C   0  0  0  0  0  0  0  0  0  0  0  0
  146.7722  140.4776  154.6780 C   0  0  0  0  0  0  0  0  0  0  0  0
  145.5134  140.1843  155.2396 C   0  0  0  0  0  0  0  0  0  0  0  0
  145.2947  140.1092  156.5696 N   0  0  0  0  0  0  0  0  0  0  0  0
  146.3401  140.3283  157.3950 C   0  0  0  0  0  0  0  0  0  0  0  0
  147.6385  140.6290  156.9366 C   0  0  0  0  0  0  0  0  0  0  0  0
  151.0006  144.1356  158.4528 C   0  0  0  0  0  0  0  0  0  0  0  0
  152.2534  144.6251  159.2082 C   0  0  1  0  0  0  0  0  0  0  0  0
  151.9906  145.9425  159.9563 C   0  0  0  0  0  0  0  0  0  0  0  0
  150.9979  142.8939  161.1154 H   0  0  0  0  0  0  0  0  0  0  0  0
  151.9471  144.0610  162.0277 H   0  0  0  0  0  0  0  0  0  0  0  0
  152.4664  142.3921  161.9404 H   0  0  0  0  0  0  0  0  0  0  0  0
  153.8180  143.8736  160.4708 H   0  0  0  0  0  0  0  0  0  0  0  0
  153.9195  142.4610  158.5531 H   0  0  0  0  0  0  0  0  0  0  0  0
  153.5133  141.4514  159.9122 H   0  0  0  0  0  0  0  0  0  0  0  0
  152.1414  140.8930  157.9136 H   0  0  0  0  0  0  0  0  0  0  0  0
  151.1287  141.4222  159.2312 H   0  0  0  0  0  0  0  0  0  0  0  0
  152.0410  143.1099  156.8621 H   0  0  0  0  0  0  0  0  0  0  0  0
  149.3916  142.1720  157.6370 H   0  0  0  0  0  0  0  0  0  0  0  0
  151.2872  141.0890  155.7410 H   0  0  0  0  0  0  0  0  0  0  0  0
  150.1647  140.2713  156.8126 H   0  0  0  0  0  0  0  0  0  0  0  0
  149.2035  141.9700  154.4694 H   0  0  0  0  0  0  0  0  0  0  0  0
  149.6936  140.4200  153.2205 H   0  0  0  0  0  0  0  0  0  0  0  0
  146.8924  140.5216  153.6053 H   0  0  0  0  0  0  0  0  0  0  0  0
  144.6602  140.0024  154.6030 H   0  0  0  0  0  0  0  0  0  0  0  0
  146.1366  140.2596  158.4534 H   0  0  0  0  0  0  0  0  0  0  0  0
  148.4403  140.7929  157.6416 H   0  0  0  0  0  0  0  0  0  0  0  0
  150.6510  144.9369  157.8022 H   0  0  0  0  0  0  0  0  0  0  0  0
  150.1904  143.9405  159.1566 H   0  0  0  0  0  0  0  0  0  0  0  0
  153.0071  144.8533  158.4526 H   0  0  0  0  0  0  0  0  0  0  0  0
  151.1835  145.8425  160.6821 H   0  0  0  0  0  0  0  0  0  0  0  0
  151.7073  146.7342  159.2622 H   0  0  0  0  0  0  0  0  0  0  0  0
  152.8816  146.2777  160.4880 H   0  0  0  0  0  0  0  0  0  0  0  0
  149.7295  143.0891  156.3231 H   0  0  0  0  0  0  0  0  0  0  0  0
  1  2  1  0  0  0  0
  1 19  1  0  0  0  0
  1 20  1  0  0  0  0
  1 21  1  0  0  0  0
  2 17  1  0  0  0  0
  2  3  1  0  0  0  0
  2 22  1  0  0  0  0
  3  4  1  0  0  0  0
  3 23  1  0  0  0  0
  3 24  1  0  0  0  0
  4  5  1  0  0  0  0
  4 25  1  0  0  0  0
  4 26  1  0  0  0  0
  5  6  1  0  0  0  0
  5 16  1  0  0  0  0
  5 27  1  0  0  0  0
  6  7  1  0  0  0  0
  6 28  1  0  0  0  0
  6 43  1  0  0  0  0
  7  8  1  0  0  0  0
  7 29  1  0  0  0  0
  7 30  1  0  0  0  0
  8  9  1  0  0  0  0
  8 10  1  0  0  0  0
  8 31  1  0  0  0  0
  9 32  1  0  0  0  0
 10 15  1  0  0  0  0
 10 11  2  0  0  0  0
 11 12  1  0  0  0  0
 11 33  1  0  0  0  0
 12 13  2  0  0  0  0
 12 34  1  0  0  0  0
 13 14  1  0  0  0  0
 14 15  2  0  0  0  0
 14 35  1  0  0  0  0
 15 36  1  0  0  0  0
 16 17  1  0  0  0  0
 16 37  1  0  0  0  0
 16 38  1  0  0  0  0
 17 18  1  0  0  0  0
 17 39  1  0  0  0  0
 18 40  1  0  0  0  0
 18 41  1  0  0  0  0
 18 42  1  0  0  0  0
M  CHG  1   6   1
M  END
> <s_m_source_file>
AV-unprocessed.smi

> <i_m_source_file_index>
3287

> <i_lp_mmshare_version>
43012

> <i_f3d_flags>
0

> <s_epik_input>
W0NIM11bQ0BASF0xW0NIMl1bQ0gyXVtDQEhdKFtDSDJdW0NASF0xW0NIM10pW05IXVtDSDJdW0NASF0oW09IXSljMltjSF1bY0hdbltjSF1bY0hdMg==

> <s_epik_cmdline>
J2VwaWtfcHl0aG9uJywgJy1waCcsICc3LjAnLCAnLXRuJywgJzgnLCAnLW1hJywgJzIwMCcsICctbWV0YWxfYmluZGluZycsICctaW1hZScsICc8aW5maWxlLm1hZT4nLCAnLW9tYWUnLCAnPG91dGZpbGUubWFlPic=

> <r_lp_tautomer_probability>
1

> <r_epik_Ionization_Penalty>
0.00537262

> <r_epik_Ionization_Penalty_Charging>
0.00321624

> <r_epik_Ionization_Penalty_Neutral>
0.00215638

> <r_epik_State_Penalty>
-0

> <r_epik_Charging_Adjusted_Penalty>
0.00321624

> <i_epik_Tot_Q>
1

> <i_epik_Tot_abs_Q>
1

> <r_epik_Metal_State_Penalty>
-0

> <b_epik_Metal_Only>
0

> <s_lp_Force_Field>
OPLS_2005

> <r_lp_Energy>
17.7653

> <b_lp_Chiralities_Consistent>
1

> <s_lp_Variant>
AV-unprocessed.smi:3287-6

> <Gold.Version>
5.8.1

> <Gold.Id.Protein>
6NUR|6NUR_protein|mol2

> <Gold.PLP.Fitness>
48.7476

> <Gold.PLP.PLP>
-38.5343

> <Gold.PLP.part.hbond>
-3.0000

> <Gold.PLP.part.metal>
0.0000

> <Gold.PLP.part.buried>
-3.9663

> <Gold.PLP.part.nonpolar>
-32.8710

> <Gold.PLP.part.repulsive>
0.0760

> <Gold.PLP.ligand.clash>
0.0000

> <Gold.PLP.ligand.torsion>
0.2951

> <Gold.PLP.Chemscore.Hbond>
2.5920

> <Gold.PLP.Chemscore.CHOScore>
1.0000

> <Gold.PLP.Chemscore.Metal>
0.0000

> <Gold.Chemscore.Hbonds>
donor molecule, donor type, donor heavy atom, donor atom, acceptor molecule, acceptor atom, score
      L1  H     6    43       P1  8028  2.00
      L1  H     9    32       P1  7957  0.78
      L1  C    12    34       P1 10175  1.00

> <Gold.PLP.Chemscore.Internal.Correction>
0.0275

> <Gold.Rescore>
     Score         DG    S(hbond)    S(metal)    S(lipo)     H(rot)  DE(clash)    DE(int)     intcor
     19.81     -20.18       1.90        0.00     112.97       1.90       0.01       0.36       ----

> <Gold.Chemscore.Fitness>
19.8141

> <Gold.Chemscore.DG>
-20.1826

> <Gold.Chemscore.ZeroCoef>
-5.4800

> <Gold.Chemscore.Hbond>
1.9035

> <Gold.Chemscore.Metal>
0.0000

> <Gold.Chemscore.Lipo>
112.9727

> <Gold.Chemscore.Internal_Hbond>
0.0000

> <Gold.Chemscore.DEClash>
0.0108

> <Gold.Chemscore.DEInternal>
0.3578

> <Gold.Chemscore.Rot>
1.9035

> <Gold.Chemscore.Internal.Correction>
   9.000000E+99

> <Gold.Chemscore.Hbonds>
donor molecule, donor type, donor heavy atom, donor atom, acceptor molecule, acceptor atom, score
      L1  H     6    43       P1  8028  0.99
      L1  H     9    32       P1  7957  0.74

> <Gold.Chemscore.Hbond.Weighted>
-6.3577

> <Gold.Chemscore.Metal.Weighted>
-0.0000

> <Gold.Chemscore.Lipo.Weighted>
-13.2178

> <Gold.Chemscore.Internal_Hbond.Weighted>
0.0000

> <Gold.Chemscore.DEClash.Weighted>
0.0108

> <Gold.Chemscore.DEInternal.Weighted>
0.3578

> <Gold.Chemscore.Rot.Weighted>
4.8729

> <Gold.Chemscore.Internal.Correction.Weighted>
   9.000000E+99

> <Gold.Protein.RotatedTorsions>
[ 6907 6896 6895 6894 ] final  -50.21 input  -60.11 | X-H torsion
[ 7974 7965 7964 7962 ] final   33.90 input  175.53 | X-H torsion
[ 8008 7997 7996 7995 ] final  -55.62 input   59.86 | X-H torsion
[ 10167 10162 10161 10158 ] final  -89.79 input  -65.29 | X-H torsion
[ 10718 10713 10712 10709 ] final  -38.08 input   66.30 | X-H torsion
[ 10763 10752 10751 10750 ] final  157.95 input  -60.55 | X-H torsion
[ 11005 11000 10999 10996 ] final  169.29 input  -57.11 | X-H torsion

> <Gold.Protein.ActiveResidues>
 VAL166  LYS551  ARG553  GLY616  TRP617  ASP618  TYR619  PRO620  LYS621  CYS622 
 ASP623  PHE694  ASN695  SER759  ASP760  ASP761  ALA762  ILE779  LEU786  VAL792 
 PHE793  MET794  SER795  GLU796  ALA797  LYS798  CYS799  TRP800  GLU811  SER814 

> <Gold.Protein.RotatedAtoms>
  150.8729  134.8107  159.7168 H   0  0  0  0  0  0  0  0  0  0  0  0  # atno 6907 bound_to 6896
  152.4727  134.4918  159.9707 H   0  0  0  0  0  0  0  0  0  0  0  0  # atno 6908 bound_to 6896
  151.5003  133.3467  159.2903 H   0  0  0  0  0  0  0  0  0  0  0  0  # atno 6909 bound_to 6896
  146.1389  139.6338  142.9176 H   0  0  0  0  0  0  0  0  0  0  0  0  # atno 7974 bound_to 7965
  154.4201  140.1148  156.5506 H   0  0  0  0  0  0  0  0  0  0  0  0  # atno 8008 bound_to 7997
  155.6414  140.3496  155.4697 H   0  0  0  0  0  0  0  0  0  0  0  0  # atno 8009 bound_to 7997
  155.9868  140.1171  157.0665 H   0  0  0  0  0  0  0  0  0  0  0  0  # atno 8010 bound_to 7997
  140.3613  143.2840  151.9611 H   0  0  0  0  0  0  0  0  0  0  0  0  # atno 10167 bound_to 10162
  156.3078  130.4248  149.8080 H   0  0  0  0  0  0  0  0  0  0  0  0  # atno 10718 bound_to 10713
  154.2084  135.2787  155.2967 H   0  0  0  0  0  0  0  0  0  0  0  0  # atno 10763 bound_to 10752
  154.5798  135.5593  153.7178 H   0  0  0  0  0  0  0  0  0  0  0  0  # atno 10764 bound_to 10752
  153.0070  135.6342  154.2222 H   0  0  0  0  0  0  0  0  0  0  0  0  # atno 10765 bound_to 10752
  140.2962  134.7633  157.3879 H   0  0  0  0  0  0  0  0  0  0  0  0  # atno 11005 bound_to 11000
  145.5092  141.0436  143.2497 LP  0  0  0  0  0  0  0  0  0  0  0  0  # atno 17320 bound_to 7965
  144.7771  139.6607  143.7170 LP  0  0  0  0  0  0  0  0  0  0  0  0  # atno 17321 bound_to 7965
  139.4814  144.5990  151.7639 LP  0  0  0  0  0  0  0  0  0  0  0  0  # atno 17342 bound_to 10162
  140.5124  144.1005  150.5999 LP  0  0  0  0  0  0  0  0  0  0  0  0  # atno 17343 bound_to 10162
  156.5434  130.8310  151.3276 LP  0  0  0  0  0  0  0  0  0  0  0  0  # atno 17370 bound_to 10713
  157.7384  130.9812  150.2248 LP  0  0  0  0  0  0  0  0  0  0  0  0  # atno 17371 bound_to 10713
  140.1150  134.5294  155.8232 LP  0  0  0  0  0  0  0  0  0  0  0  0  # atno 17394 bound_to 11000
  141.2137  133.6737  156.6761 LP  0  0  0  0  0  0  0  0  0  0  0  0  # atno 17395 bound_to 11000

$$$$
