#       Name:                AV-unprocessed.smi:898
#       Creating user name   scv26
#       Creation time:       Fri Mar 27 01:57:18 2020


#       File generated by GOLD software.
#

@<TRIPOS>MOLECULE
AV-unprocessed.smi:898
    38    40     1
SMALL
NO_CHARGES


@<TRIPOS>ATOM
      1 ****         0.1645   0.5512  -0.3622 O.2            1 S1                 0.0000
      2 ****        -0.3996  -0.3600   0.2480 C.2            1 S1                 0.0000
      3 ****         0.1889  -1.4633   0.7637 N.pl3          1 S1                -1.0000
      4 ****         1.5147  -1.6380   0.6374 C.2            1 S1                 0.0000
      5 ****         2.3730  -1.3637   1.6298 N.2            1 S1                 0.0000
      6 ****         3.6946  -1.6163   1.2922 N.2            1 S1                 0.0000
      7 ****         3.8156  -2.0865   0.0486 C.2            1 S1                 0.0000
      8 ****         5.1379  -2.4310  -0.5504 C.3            1 S1                 0.0000
      9 ****         6.0999  -1.3452  -0.9748 C.3            1 S1                 0.0000
     10 ****         5.4265  -2.2000  -2.0178 C.3            1 S1                 0.0000
     11 ****         2.2957  -2.2662  -0.8131 S.3            1 S1                 0.0000
     12 ****        -1.7239  -0.3107   0.4528 N.am           1 S1                 0.0000
     13 ****        -2.6274   0.7477   0.0085 C.3            1 S1                 0.0000
     14 ****        -2.5979   1.9295   1.0005 C.3            1 S1                 0.0000
     15 ****        -3.4926   3.0972   0.5547 C.3            1 S1                 0.0000
     16 ****        -4.9685   2.6917   0.4391 C.3            1 S1                 0.0000
     17 ****        -5.1985   1.4002  -0.8125 S.3            1 S1                 0.0000
     18 ****        -4.0444   0.1688  -0.1457 C.3            1 S1                 0.0000
     19 ****         5.5497  -3.3243  -0.0850 H              1 S1                 0.0000
     20 ****         5.7685  -0.3129  -0.8804 H              1 S1                 0.0000
     21 ****         7.1591  -1.5141  -0.7918 H              1 S1                 0.0000
     22 ****         6.0360  -2.9409  -2.5307 H              1 S1                 0.0000
     23 ****         4.6577  -1.7276  -2.6262 H              1 S1                 0.0000
     24 ****        -2.1389  -1.0794   0.9587 H              1 S1                 0.0000
     25 ****        -2.2990   1.0979  -0.9720 H              1 S1                 0.0000
     26 ****        -2.9046   1.5906   1.9910 H              1 S1                 0.0000
     27 ****        -1.5757   2.2942   1.1081 H              1 S1                 0.0000
     28 ****        -3.3994   3.9139   1.2709 H              1 S1                 0.0000
     29 ****        -3.1411   3.4875  -0.4011 H              1 S1                 0.0000
     30 ****        -5.3395   2.3280   1.3979 H              1 S1                 0.0000
     31 ****        -5.5768   3.5543   0.1666 H              1 S1                 0.0000
     32 ****        -4.0339  -0.6888  -0.8192 H              1 S1                 0.0000
     33 ****        -4.4212  -0.1840   0.8151 H              1 S1                 0.0000
     34 ****         1.1521   0.5143  -0.5148 LP             1 S1                 0.0000
     35 ****        -0.3657   1.3270  -0.7044 LP             1 S1                 0.0000
     36 ****        -0.3629  -2.1487   1.2388 LP             1 S1                 0.0000
     37 ****         2.0896  -1.0128   2.5223 LP             1 S1                 0.0000
     38 ****         4.4670  -1.4639   1.9088 LP             1 S1                 0.0000
@<TRIPOS>BOND
    1    1    2 2     
    2    2    3 1     
    3    2   12 am    
    4    3    4 1     
    5    4   11 1     
    6    4    5 2     
    7    5    6 1     
    8    6    7 2     
    9    7    8 1     
   10    7   11 1     
   11    8   10 1     
   12    8    9 1     
   13    8   19 1     
   14    9   10 1     
   15    9   20 1     
   16    9   21 1     
   17   10   22 1     
   18   10   23 1     
   19   12   13 1     
   20   12   24 1     
   21   13   18 1     
   22   13   14 1     
   23   13   25 1     
   24   14   15 1     
   25   14   26 1     
   26   14   27 1     
   27   15   16 1     
   28   15   28 1     
   29   15   29 1     
   30   16   17 1     
   31   16   30 1     
   32   16   31 1     
   33   17   18 1     
   34   18   32 1     
   35   18   33 1     
   36    1   34 1     
   37    1   35 1     
   38    3   36 1     
   39    5   37 1     
   40    6   38 1     
@<TRIPOS>SUBSTRUCTURE
      1 S1             1
@<TRIPOS>SET
LONE_PAIRS      STATIC     ATOMS    <user>   **** ""
5 34 35 36 37 38
DONOR_HYDROGENS      STATIC     ATOMS    <user>   **** ""
1 24
ATOM$BLUE        STATIC     ATOMS    COLORGROUP SYSTEM
5 34 35 36 37 38
ATOM$RED        STATIC     ATOMS    COLORGROUP SYSTEM
1 24
