AV-unprocessed.smi:2226|AV-procd|sdf|9018|dock10
  -GOLD-   2272012223D 1   1.00000     0.00000
 Structure written by MMmdl.
 39 41  0  0  0  0  0  0  0  0  3 V2000
  145.9042  143.1779  153.7154 C   0  0  0  0  0  0  0  0  0  0  0  0
  146.0273  141.7190  153.9468 N   0  3  2  0  0  0  0  0  0  0  0  0
  145.7766  141.2871  155.3432 C   0  0  1  0  0  0  0  0  0  0  0  0
  145.5076  139.7640  155.3556 C   0  0  0  0  0  0  0  0  0  0  0  0
  146.6096  138.9327  154.6680 C   0  0  0  0  0  0  0  0  0  0  0  0
  147.0981  139.5775  153.3549 C   0  0  0  0  0  0  0  0  0  0  0  0
  147.2826  141.1108  153.4422 C   0  0  2  0  0  0  0  0  0  0  0  0
  148.5041  141.5704  154.2756 C   0  0  0  0  0  0  0  0  0  0  0  0
  148.3415  141.4049  155.8040 C   0  0  1  0  0  0  0  0  0  0  0  0
  149.3212  142.2541  156.4781 N   0  0  0  0  0  0  0  0  0  0  0  0
  150.3554  141.8348  157.2225 C   0  0  0  0  0  0  0  0  0  0  0  0
  150.5347  140.6264  157.3870 O   0  0  0  0  0  0  0  0  0  0  0  0
  151.0996  142.8531  157.7196 N   0  5  0  0  0  0  0  0  0  0  0  0
  151.7822  142.8026  158.8836 C   0  0  0  0  0  0  0  0  0  0  0  0
  152.5337  141.8149  159.3865 N   0  0  0  0  0  0  0  0  0  0  0  0
  153.0120  142.2663  160.6059 C   0  0  0  0  0  0  0  0  0  0  0  0
  152.5259  143.5286  160.8007 C   0  0  0  0  0  0  0  0  0  0  0  0
  151.7536  143.8742  159.7267 O   0  0  0  0  0  0  0  0  0  0  0  0
  146.9115  141.7524  156.2882 C   0  0  0  0  0  0  0  0  0  0  0  0
  146.6533  143.7495  154.2628 H   0  0  0  0  0  0  0  0  0  0  0  0
  144.9195  143.5288  154.0255 H   0  0  0  0  0  0  0  0  0  0  0  0
  146.0154  143.4046  152.6547 H   0  0  0  0  0  0  0  0  0  0  0  0
  144.8562  141.7657  155.6809 H   0  0  0  0  0  0  0  0  0  0  0  0
  145.3547  139.4119  156.3763 H   0  0  0  0  0  0  0  0  0  0  0  0
  144.5674  139.5797  154.8336 H   0  0  0  0  0  0  0  0  0  0  0  0
  147.4434  138.7749  155.3466 H   0  0  0  0  0  0  0  0  0  0  0  0
  146.2329  137.9303  154.4622 H   0  0  0  0  0  0  0  0  0  0  0  0
  148.0210  139.1003  153.0239 H   0  0  0  0  0  0  0  0  0  0  0  0
  146.3608  139.3674  152.5791 H   0  0  0  0  0  0  0  0  0  0  0  0
  147.4360  141.4622  152.4209 H   0  0  0  0  0  0  0  0  0  0  0  0
  149.4014  141.0479  153.9417 H   0  0  0  0  0  0  0  0  0  0  0  0
  148.6875  142.6223  154.0521 H   0  0  0  0  0  0  0  0  0  0  0  0
  148.5744  140.3756  156.0662 H   0  0  0  0  0  0  0  0  0  0  0  0
  149.2138  143.2516  156.3657 H   0  0  0  0  0  0  0  0  0  0  0  0
  153.6525  141.6607  161.2295 H   0  0  0  0  0  0  0  0  0  0  0  0
  152.6259  144.2616  161.5871 H   0  0  0  0  0  0  0  0  0  0  0  0
  146.8333  142.8343  156.4031 H   0  0  0  0  0  0  0  0  0  0  0  0
  146.7490  141.3476  157.2876 H   0  0  0  0  0  0  0  0  0  0  0  0
  145.2856  141.3090  153.3973 H   0  0  0  0  0  0  0  0  0  0  0  0
  1  2  1  0  0  0  0
  1 20  1  0  0  0  0
  1 21  1  0  0  0  0
  1 22  1  0  0  0  0
  2  7  1  0  0  0  0
  2  3  1  0  0  0  0
  2 39  1  0  0  0  0
  3 19  1  0  0  0  0
  3  4  1  0  0  0  0
  3 23  1  0  0  0  0
  4  5  1  0  0  0  0
  4 24  1  0  0  0  0
  4 25  1  0  0  0  0
  5  6  1  0  0  0  0
  5 26  1  0  0  0  0
  5 27  1  0  0  0  0
  6  7  1  0  0  0  0
  6 28  1  0  0  0  0
  6 29  1  0  0  0  0
  7  8  1  0  0  0  0
  7 30  1  0  0  0  0
  8  9  1  0  0  0  0
  8 31  1  0  0  0  0
  8 32  1  0  0  0  0
  9 10  1  0  0  0  0
  9 19  1  0  0  0  0
  9 33  1  0  0  0  0
 10 34  1  0  0  0  0
 10 11  1  0  0  0  0
 11 13  1  0  0  0  0
 11 12  2  0  0  0  0
 13 14  1  0  0  0  0
 14 18  1  0  0  0  0
 14 15  2  0  0  0  0
 15 16  1  0  0  0  0
 16 35  1  0  0  0  0
 16 17  2  0  0  0  0
 17 36  1  0  0  0  0
 17 18  1  0  0  0  0
 19 37  1  0  0  0  0
 19 38  1  0  0  0  0
M  CHG  1   2   1
M  CHG  1  13  -1
M  END
> <s_m_source_file>
AV-unprocessed.smi

> <i_m_source_file_index>
2226

> <i_lp_mmshare_version>
43012

> <i_f3d_flags>
0

> <s_epik_input>
W0NIMl0xW0NIMl1bQ0gyXVtDQEhdKE4oW0NIM10pW0NIXTEyKVtDSDJdW0NASF0oW0NIMl0yKVtOSF1DKD1PKVtOSF1jM25bY0hdW2NIXW8z

> <s_epik_cmdline>
J2VwaWtfcHl0aG9uJywgJy1waCcsICc3LjAnLCAnLXRuJywgJzgnLCAnLW1hJywgJzIwMCcsICctbWV0YWxfYmluZGluZycsICctaW1hZScsICc8aW5maWxlLm1hZT4nLCAnLW9tYWUnLCAnPG91dGZpbGUubWFlPic=

> <r_lp_tautomer_probability>
0.107061

> <r_epik_Ionization_Penalty>
10.5612

> <r_epik_Ionization_Penalty_Charging>
7.48913

> <r_epik_Ionization_Penalty_Neutral>
3.07202

> <r_epik_State_Penalty>
5.6431

> <r_epik_Charging_Adjusted_Penalty>
13.1322

> <i_epik_Tot_Q>
0

> <i_epik_Tot_abs_Q>
2

> <r_epik_Metal_State_Penalty>
1.58163

> <b_epik_Metal_Only>
1

> <s_lp_Force_Field>
OPLS_2005

> <r_lp_Energy>
28.9751

> <b_lp_Chiralities_Consistent>
1

> <s_lp_Variant>
AV-unprocessed.smi:2226-18

> <Gold.Version>
5.8.1

> <Gold.Id.Protein>
6NUR|6NUR_protein|mol2

> <Gold.PLP.Fitness>
40.9025

> <Gold.PLP.PLP>
-32.9981

> <Gold.PLP.part.hbond>
-1.9724

> <Gold.PLP.part.metal>
0.0000

> <Gold.PLP.part.buried>
-6.6541

> <Gold.PLP.part.nonpolar>
-24.8742

> <Gold.PLP.part.repulsive>
0.1940

> <Gold.PLP.ligand.clash>
0.0000

> <Gold.PLP.ligand.torsion>
0.5520

> <Gold.PLP.Chemscore.Hbond>
3.0000

> <Gold.PLP.Chemscore.CHOScore>
0.0000

> <Gold.PLP.Chemscore.Metal>
0.0000

> <Gold.Chemscore.Hbonds>
donor molecule, donor type, donor heavy atom, donor atom, acceptor molecule, acceptor atom, score
      L1  H     2    39       P1 10175  1.90
      L1  H    10    34       P1  8028  1.00

> <Gold.PLP.Chemscore.Internal.Correction>
0.0085

> <Gold.Rescore>
     Score         DG    S(hbond)    S(metal)    S(lipo)     H(rot)  DE(clash)    DE(int)     intcor
     16.26     -16.93       1.91        0.00      65.24       1.00       0.04       0.63       ----

> <Gold.Chemscore.Fitness>
16.2624

> <Gold.Chemscore.DG>
-16.9305

> <Gold.Chemscore.ZeroCoef>
-5.4800

> <Gold.Chemscore.Hbond>
1.9096

> <Gold.Chemscore.Metal>
0.0000

> <Gold.Chemscore.Lipo>
65.2352

> <Gold.Chemscore.Internal_Hbond>
0.0000

> <Gold.Chemscore.DEClash>
0.0389

> <Gold.Chemscore.DEInternal>
0.6291

> <Gold.Chemscore.Rot>
1.0000

> <Gold.Chemscore.Internal.Correction>
   9.000000E+99

> <Gold.Chemscore.Hbonds>
donor molecule, donor type, donor heavy atom, donor atom, acceptor molecule, acceptor atom, score
      L1  H     2    39       P1 10175  0.21
      L1  H    10    34       P1  8028  0.99

> <Gold.Chemscore.Hbond.Weighted>
-6.3780

> <Gold.Chemscore.Metal.Weighted>
-0.0000

> <Gold.Chemscore.Lipo.Weighted>
-7.6325

> <Gold.Chemscore.Internal_Hbond.Weighted>
0.0000

> <Gold.Chemscore.DEClash.Weighted>
0.0389

> <Gold.Chemscore.DEInternal.Weighted>
0.6291

> <Gold.Chemscore.Rot.Weighted>
2.5600

> <Gold.Chemscore.Internal.Correction.Weighted>
   9.000000E+99

> <Gold.Protein.RotatedTorsions>
[ 6907 6896 6895 6894 ] final -100.99 input  -60.11 | X-H torsion
[ 7974 7965 7964 7962 ] final   19.51 input  175.53 | X-H torsion
[ 8008 7997 7996 7995 ] final -132.29 input   59.86 | X-H torsion
[ 10167 10162 10161 10158 ] final  114.85 input  -65.29 | X-H torsion
[ 10718 10713 10712 10709 ] final -157.38 input   66.30 | X-H torsion
[ 10763 10752 10751 10750 ] final  -29.25 input  -60.55 | X-H torsion
[ 11005 11000 10999 10996 ] final  154.20 input  -57.11 | X-H torsion

> <Gold.Protein.ActiveResidues>
 VAL166  LYS551  ARG553  GLY616  TRP617  ASP618  TYR619  PRO620  LYS621  CYS622 
 ASP623  PHE694  ASN695  SER759  ASP760  ASP761  ALA762  ILE779  LEU786  VAL792 
 PHE793  MET794  SER795  GLU796  ALA797  LYS798  CYS799  TRP800  GLU811  SER814 

> <Gold.Protein.RotatedAtoms>
  150.7137  134.0803  159.3895 H   0  0  0  0  0  0  0  0  0  0  0  0  # atno 6907 bound_to 6896
  151.8787  135.0459  160.0496 H   0  0  0  0  0  0  0  0  0  0  0  0  # atno 6908 bound_to 6896
  152.2585  133.5241  159.5404 H   0  0  0  0  0  0  0  0  0  0  0  0  # atno 6909 bound_to 6896
  146.2147  139.8303  142.8661 H   0  0  0  0  0  0  0  0  0  0  0  0  # atno 7974 bound_to 7965
  155.3265  140.0465  157.3041 H   0  0  0  0  0  0  0  0  0  0  0  0  # atno 8008 bound_to 7997
  154.5351  140.2270  155.8702 H   0  0  0  0  0  0  0  0  0  0  0  0  # atno 8009 bound_to 7997
  156.1827  140.3070  155.9186 H   0  0  0  0  0  0  0  0  0  0  0  0  # atno 8010 bound_to 7997
  139.6359  144.7119  151.2336 H   0  0  0  0  0  0  0  0  0  0  0  0  # atno 10167 bound_to 10162
  156.5394  130.8556  151.2744 H   0  0  0  0  0  0  0  0  0  0  0  0  # atno 10718 bound_to 10713
  153.7615  135.6919  153.4924 H   0  0  0  0  0  0  0  0  0  0  0  0  # atno 10763 bound_to 10752
  153.1935  135.4462  155.0178 H   0  0  0  0  0  0  0  0  0  0  0  0  # atno 10764 bound_to 10752
  154.8151  135.3395  154.7130 H   0  0  0  0  0  0  0  0  0  0  0  0  # atno 10765 bound_to 10752
  140.1467  134.8702  157.2402 H   0  0  0  0  0  0  0  0  0  0  0  0  # atno 11005 bound_to 11000
  145.3004  141.0192  143.3612 LP  0  0  0  0  0  0  0  0  0  0  0  0  # atno 17320 bound_to 7965
  144.9010  139.4649  143.6632 LP  0  0  0  0  0  0  0  0  0  0  0  0  # atno 17321 bound_to 7965
  140.7465  143.6397  150.8346 LP  0  0  0  0  0  0  0  0  0  0  0  0  # atno 17342 bound_to 10162
  140.0029  143.5725  152.2869 LP  0  0  0  0  0  0  0  0  0  0  0  0  # atno 17343 bound_to 10162
  157.7408  130.9857  150.2401 LP  0  0  0  0  0  0  0  0  0  0  0  0  # atno 17370 bound_to 10713
  156.2985  130.3755  149.7773 LP  0  0  0  0  0  0  0  0  0  0  0  0  # atno 17371 bound_to 10713
  140.2654  134.3522  155.7391 LP  0  0  0  0  0  0  0  0  0  0  0  0  # atno 17394 bound_to 11000
  141.2193  133.7393  156.9143 LP  0  0  0  0  0  0  0  0  0  0  0  0  # atno 17395 bound_to 11000

$$$$
