AV-unprocessed.smi:763|AV-procd|sdf|3634|dock1
  -GOLD-   22720 1 23D 1   1.00000     0.00000
 Structure written by MMmdl.
 44 45  0  0  0  0  0  0  0  0  1 V2000
  145.6280  143.1248  161.5579 C   0  0  0  0  0  0  0  0  0  0  0  0
  146.1560  142.5333  160.3812 O   0  0  0  0  0  0  0  0  0  0  0  0
  145.1713  142.1687  159.4241 C   0  0  0  0  0  0  0  0  0  0  0  0
  145.5350  142.6502  158.0119 C   0  0  0  0  0  0  0  0  0  0  0  0
  146.7905  142.0838  157.6489 O   0  0  0  0  0  0  0  0  0  0  0  0
  147.0912  141.9408  156.3078 C   0  0  0  0  0  0  0  0  0  0  0  0
  146.1831  142.3594  155.3906 N   0  0  0  0  0  0  0  0  0  0  0  0
  146.4826  142.2212  154.0820 C   0  0  0  0  0  0  0  0  0  0  0  0
  147.6906  141.6651  153.6215 C   0  0  0  0  0  0  0  0  0  0  0  0
  148.6317  141.2292  154.5724 C   0  0  0  0  0  0  0  0  0  0  0  0
  148.3305  141.3667  155.9448 C   0  0  0  0  0  0  0  0  0  0  0  0
  149.2218  140.9499  156.9374 N   0  0  0  0  0  0  0  0  0  0  0  0
  150.7849  140.2250  156.7478 S   0  0  0  0  0  0  0  0  0  0  0  0
  150.7337  138.9698  157.5133 O   0  0  0  0  0  0  0  0  0  0  0  0
  151.0458  140.2228  155.3001 O   0  0  0  0  0  0  0  0  0  0  0  0
  151.9050  141.4353  157.6008 C   0  0  2  0  0  0  0  0  0  0  0  0
  152.3270  140.8765  158.9754 C   0  0  0  0  0  0  0  0  0  0  0  0
  153.2324  141.8557  159.7372 C   0  0  0  0  0  0  0  0  0  0  0  0
  152.5580  143.2267  159.8868 C   0  0  0  0  0  0  0  0  0  0  0  0
  152.1768  143.8024  158.5152 C   0  0  0  0  0  0  0  0  0  0  0  0
  151.2665  142.8403  157.7295 C   0  0  1  0  0  0  0  0  0  0  0  0
  151.0408  143.4083  156.4559 O   0  0  0  0  0  0  0  0  0  0  0  0
  146.4472  143.4226  162.2122 H   0  0  0  0  0  0  0  0  0  0  0  0
  144.9986  142.4298  162.1135 H   0  0  0  0  0  0  0  0  0  0  0  0
  145.0450  144.0167  161.3252 H   0  0  0  0  0  0  0  0  0  0  0  0
  144.9824  141.0941  159.4406 H   0  0  0  0  0  0  0  0  0  0  0  0
  144.2422  142.6500  159.7302 H   0  0  0  0  0  0  0  0  0  0  0  0
  144.7677  142.3236  157.3080 H   0  0  0  0  0  0  0  0  0  0  0  0
  145.5832  143.7396  157.9821 H   0  0  0  0  0  0  0  0  0  0  0  0
  145.7362  142.5647  153.3811 H   0  0  0  0  0  0  0  0  0  0  0  0
  147.8907  141.5735  152.5642 H   0  0  0  0  0  0  0  0  0  0  0  0
  149.5649  140.7975  154.2426 H   0  0  0  0  0  0  0  0  0  0  0  0
  148.9008  141.0829  157.8854 H   0  0  0  0  0  0  0  0  0  0  0  0
  152.7994  141.5122  156.9809 H   0  0  0  0  0  0  0  0  0  0  0  0
  151.4414  140.6685  159.5768 H   0  0  0  0  0  0  0  0  0  0  0  0
  152.8448  139.9250  158.8515 H   0  0  0  0  0  0  0  0  0  0  0  0
  153.4731  141.4507  160.7205 H   0  0  0  0  0  0  0  0  0  0  0  0
  154.1798  141.9670  159.2085 H   0  0  0  0  0  0  0  0  0  0  0  0
  151.6653  143.1320  160.5064 H   0  0  0  0  0  0  0  0  0  0  0  0
  153.2257  143.9145  160.4066 H   0  0  0  0  0  0  0  0  0  0  0  0
  151.6798  144.7645  158.6457 H   0  0  0  0  0  0  0  0  0  0  0  0
  153.0858  144.0003  157.9450 H   0  0  0  0  0  0  0  0  0  0  0  0
  150.3076  142.7654  158.2431 H   0  0  0  0  0  0  0  0  0  0  0  0
  150.2656  143.9483  156.4995 H   0  0  0  0  0  0  0  0  0  0  0  0
  1  2  1  0  0  0  0
  1 23  1  0  0  0  0
  1 24  1  0  0  0  0
  1 25  1  0  0  0  0
  2  3  1  0  0  0  0
  3  4  1  0  0  0  0
  3 26  1  0  0  0  0
  3 27  1  0  0  0  0
  4  5  1  0  0  0  0
  4 28  1  0  0  0  0
  4 29  1  0  0  0  0
  5  6  1  0  0  0  0
  6 11  1  0  0  0  0
  6  7  2  0  0  0  0
  7  8  1  0  0  0  0
  8  9  2  0  0  0  0
  8 30  1  0  0  0  0
  9 10  1  0  0  0  0
  9 31  1  0  0  0  0
 10 11  2  0  0  0  0
 10 32  1  0  0  0  0
 11 12  1  0  0  0  0
 12 13  1  0  0  0  0
 12 33  1  0  0  0  0
 13 14  2  0  0  0  0
 13 15  2  0  0  0  0
 13 16  1  0  0  0  0
 16 21  1  0  0  0  0
 16 17  1  0  0  0  0
 16 34  1  0  0  0  0
 17 18  1  0  0  0  0
 17 35  1  0  0  0  0
 17 36  1  0  0  0  0
 18 19  1  0  0  0  0
 18 37  1  0  0  0  0
 18 38  1  0  0  0  0
 19 20  1  0  0  0  0
 19 39  1  0  0  0  0
 19 40  1  0  0  0  0
 20 21  1  0  0  0  0
 20 41  1  0  0  0  0
 20 42  1  0  0  0  0
 21 22  1  0  0  0  0
 21 43  1  0  0  0  0
 22 44  1  0  0  0  0
M  END
> <s_m_source_file>
AV-unprocessed.smi

> <i_m_source_file_index>
763

> <i_lp_mmshare_version>
43012

> <i_f3d_flags>
0

> <s_epik_input>
W0NIM11PW0NIMl1bQ0gyXU9jMW5bY0hdW2NIXVtjSF1jMVtOSF1TKD1PKSg9TylbQ0BASF0yW0NIMl1bQ0gyXVtDSDJdW0NIMl1bQ0BIXTJbT0hd

> <s_epik_cmdline>
J2VwaWtfcHl0aG9uJywgJy1waCcsICc3LjAnLCAnLXRuJywgJzgnLCAnLW1hJywgJzIwMCcsICctbWV0YWxfYmluZGluZycsICctaW1hZScsICc8aW5maWxlLm1hZT4nLCAnLW9tYWUnLCAnPG91dGZpbGUubWFlPic=

> <r_epik_Ionization_Penalty>
0.124685

> <r_epik_Ionization_Penalty_Charging>
0

> <r_epik_Ionization_Penalty_Neutral>
0.124685

> <r_epik_State_Penalty>
0.114154

> <r_epik_Charging_Adjusted_Penalty>
0.114154

> <i_epik_Tot_Q>
0

> <i_epik_Tot_abs_Q>
0

> <r_epik_Metal_State_Penalty>
0.443785

> <b_epik_Metal_Only>
0

> <s_lp_Force_Field>
OPLS_2005

> <r_lp_Energy>
9.05246

> <b_lp_Chiralities_Consistent>
1

> <s_lp_Variant>
AV-unprocessed.smi:763-1

> <Gold.Version>
5.8.1

> <Gold.Id.Protein>
6NUR|6NUR_protein|mol2

> <Gold.PLP.Fitness>
45.8603

> <Gold.PLP.PLP>
-40.2864

> <Gold.PLP.part.hbond>
-3.0000

> <Gold.PLP.part.metal>
0.0000

> <Gold.PLP.part.buried>
-7.4780

> <Gold.PLP.part.nonpolar>
-29.7867

> <Gold.PLP.part.repulsive>
0.3277

> <Gold.PLP.ligand.clash>
1.2709

> <Gold.PLP.ligand.torsion>
1.7035

> <Gold.PLP.Chemscore.Hbond>
2.9600

> <Gold.PLP.Chemscore.CHOScore>
0.0000

> <Gold.PLP.Chemscore.Metal>
0.0000

> <Gold.Chemscore.Hbonds>
donor molecule, donor type, donor heavy atom, donor atom, acceptor molecule, acceptor atom, score
      L1  H    22    44       P1  8028  0.99
      P1  H  6934  6946       L1     2  1.00
      P1  H  7989  7998       L1    15  1.00

> <Gold.PLP.Chemscore.Internal.Correction>
1.3719

> <Gold.Rescore>
     Score         DG    S(hbond)    S(metal)    S(lipo)     H(rot)  DE(clash)    DE(int)     intcor
     16.19     -19.80       2.79        0.00      95.31       2.41       0.28       3.34       ----

> <Gold.Chemscore.Fitness>
16.1887

> <Gold.Chemscore.DG>
-19.8044

> <Gold.Chemscore.ZeroCoef>
-5.4800

> <Gold.Chemscore.Hbond>
2.7935

> <Gold.Chemscore.Metal>
0.0000

> <Gold.Chemscore.Lipo>
95.3116

> <Gold.Chemscore.Internal_Hbond>
0.0000

> <Gold.Chemscore.DEClash>
0.2780

> <Gold.Chemscore.DEInternal>
3.3377

> <Gold.Chemscore.Rot>
2.4052

> <Gold.Chemscore.Internal.Correction>
   9.000000E+99

> <Gold.Chemscore.Hbonds>
donor molecule, donor type, donor heavy atom, donor atom, acceptor molecule, acceptor atom, score
      L1  H    22    44       P1  8028  0.93
      P1  H  6934  6946       L1     2  0.21
      P1  H  7989  7998       L1    15  0.94

> <Gold.Chemscore.Hbond.Weighted>
-9.3303

> <Gold.Chemscore.Metal.Weighted>
-0.0000

> <Gold.Chemscore.Lipo.Weighted>
-11.1515

> <Gold.Chemscore.Internal_Hbond.Weighted>
0.0000

> <Gold.Chemscore.DEClash.Weighted>
0.2780

> <Gold.Chemscore.DEInternal.Weighted>
3.3377

> <Gold.Chemscore.Rot.Weighted>
6.1574

> <Gold.Chemscore.Internal.Correction.Weighted>
   9.000000E+99

> <Gold.Protein.RotatedTorsions>
[ 6907 6896 6895 6894 ] final  -98.11 input  -60.11 | X-H torsion
[ 7974 7965 7964 7962 ] final -116.45 input  175.53 | X-H torsion
[ 8008 7997 7996 7995 ] final  179.96 input   59.86 | X-H torsion
[ 10167 10162 10161 10158 ] final  -26.45 input  -65.29 | X-H torsion
[ 10718 10713 10712 10709 ] final   84.60 input   66.30 | X-H torsion
[ 10763 10752 10751 10750 ] final -128.30 input  -60.55 | X-H torsion
[ 11005 11000 10999 10996 ] final  -89.81 input  -57.11 | X-H torsion

> <Gold.Protein.ActiveResidues>
 VAL166  LYS551  ARG553  GLY616  TRP617  ASP618  TYR619  PRO620  LYS621  CYS622 
 ASP623  PHE694  ASN695  SER759  ASP760  ASP761  ALA762  ILE779  LEU786  VAL792 
 PHE793  MET794  SER795  GLU796  ALA797  LYS798  CYS799  TRP800  GLU811  SER814 

> <Gold.Protein.RotatedAtoms>
  150.7037  134.1244  159.4046 H   0  0  0  0  0  0  0  0  0  0  0  0  # atno 6907 bound_to 6896
  151.9230  135.0287  160.0533 H   0  0  0  0  0  0  0  0  0  0  0  0  # atno 6908 bound_to 6896
  152.2240  133.4970  159.5215 H   0  0  0  0  0  0  0  0  0  0  0  0  # atno 6909 bound_to 6896
  145.0966  140.8524  143.3951 H   0  0  0  0  0  0  0  0  0  0  0  0  # atno 7974 bound_to 7965
  156.0374  140.1295  157.0193 H   0  0  0  0  0  0  0  0  0  0  0  0  # atno 8008 bound_to 7997
  154.4376  140.1037  156.6258 H   0  0  0  0  0  0  0  0  0  0  0  0  # atno 8009 bound_to 7997
  155.5717  140.3466  155.4519 H   0  0  0  0  0  0  0  0  0  0  0  0  # atno 8010 bound_to 7997
  140.7282  143.4178  151.1001 H   0  0  0  0  0  0  0  0  0  0  0  0  # atno 10167 bound_to 10162
  157.6901  131.0140  150.2697 H   0  0  0  0  0  0  0  0  0  0  0  0  # atno 10718 bound_to 10713
  154.8756  135.3933  154.3735 H   0  0  0  0  0  0  0  0  0  0  0  0  # atno 10763 bound_to 10752
  153.4492  135.7028  153.6125 H   0  0  0  0  0  0  0  0  0  0  0  0  # atno 10764 bound_to 10752
  153.4672  135.3798  155.2340 H   0  0  0  0  0  0  0  0  0  0  0  0  # atno 10765 bound_to 10752
  141.1578  133.7653  156.9647 H   0  0  0  0  0  0  0  0  0  0  0  0  # atno 11005 bound_to 11000
  145.1004  139.2826  143.5689 LP  0  0  0  0  0  0  0  0  0  0  0  0  # atno 17320 bound_to 7965
  146.3530  140.0569  142.8632 LP  0  0  0  0  0  0  0  0  0  0  0  0  # atno 17321 bound_to 7965
  139.7819  143.8343  152.3139 LP  0  0  0  0  0  0  0  0  0  0  0  0  # atno 17342 bound_to 10162
  139.8297  144.7259  150.9467 LP  0  0  0  0  0  0  0  0  0  0  0  0  # atno 17343 bound_to 10162
  156.3262  130.3793  149.7531 LP  0  0  0  0  0  0  0  0  0  0  0  0  # atno 17370 bound_to 10713
  156.5085  130.8161  151.3160 LP  0  0  0  0  0  0  0  0  0  0  0  0  # atno 17371 bound_to 10713
  140.1169  134.9441  157.2147 LP  0  0  0  0  0  0  0  0  0  0  0  0  # atno 17394 bound_to 11000
  140.3121  134.3011  155.7264 LP  0  0  0  0  0  0  0  0  0  0  0  0  # atno 17395 bound_to 11000

$$$$
