AV-unprocessed.smi:1032|AV-procd|sdf|4488|dock4
  -GOLD-   22720 2473D 1   1.00000     0.00000
 Structure written by MMmdl.
 47 48  0  0  0  0  0  0  0  0  3 V2000
  145.2451  143.3202  157.0726 C   0  0  0  0  0  0  0  0  0  0  0  0
  144.3966  142.8217  155.8897 C   0  0  2  0  0  0  0  0  0  0  0  0
  144.3930  141.2874  155.7642 C   0  0  0  0  0  0  0  0  0  0  0  0
  145.7221  140.7431  155.2102 C   0  0  0  0  0  0  0  0  0  0  0  0
  146.0648  141.3743  153.9097 N   0  3  2  0  0  0  0  0  0  0  0  0
  147.2724  140.7688  153.2908 C   0  0  0  0  0  0  0  0  0  0  0  0
  147.2208  139.2273  153.2763 C   0  0  2  0  0  0  0  0  0  0  0  0
  148.5513  138.7525  153.2022 O   0  0  0  0  0  0  0  0  0  0  0  0
  146.4512  138.6959  152.0492 C   0  0  0  0  0  0  0  0  0  0  0  0
  146.6838  137.2712  151.8306 N   0  0  0  0  0  0  0  0  0  0  0  0
  145.7290  136.3707  151.5557 C   0  0  0  0  0  0  0  0  0  0  0  0
  144.5343  136.6564  151.4746 O   0  0  0  0  0  0  0  0  0  0  0  0
  146.2448  135.1379  151.4093 N   0  0  0  0  0  0  0  0  0  0  0  0
  145.5670  133.9288  151.0943 C   0  0  0  0  0  0  0  0  0  0  0  0
  144.1546  133.9541  151.0785 C   0  0  0  0  0  0  0  0  0  0  0  0
  143.4406  132.7739  150.7869 C   0  0  0  0  0  0  0  0  0  0  0  0
  144.1092  131.6279  150.5362 N   0  3  0  0  0  0  0  0  0  0  0  0
  145.4572  131.5505  150.5551 C   0  0  0  0  0  0  0  0  0  0  0  0
  146.2249  132.6983  150.8396 C   0  0  0  0  0  0  0  0  0  0  0  0
  146.1442  142.8550  154.0252 C   0  0  0  0  0  0  0  0  0  0  0  0
  144.8214  143.4437  154.5472 C   0  0  0  0  0  0  0  0  0  0  0  0
  146.2965  143.0545  156.9676 H   0  0  0  0  0  0  0  0  0  0  0  0
  144.8911  142.8954  158.0122 H   0  0  0  0  0  0  0  0  0  0  0  0
  145.1872  144.4053  157.1637 H   0  0  0  0  0  0  0  0  0  0  0  0
  143.3723  143.1389  156.0907 H   0  0  0  0  0  0  0  0  0  0  0  0
  144.1750  140.8302  156.7300 H   0  0  0  0  0  0  0  0  0  0  0  0
  143.5834  140.9857  155.0982 H   0  0  0  0  0  0  0  0  0  0  0  0
  146.5317  140.9078  155.9224 H   0  0  0  0  0  0  0  0  0  0  0  0
  145.6332  139.6637  155.0804 H   0  0  0  0  0  0  0  0  0  0  0  0
  147.3828  141.1595  152.2779 H   0  0  0  0  0  0  0  0  0  0  0  0
  148.1677  141.0806  153.8316 H   0  0  0  0  0  0  0  0  0  0  0  0
  146.7616  138.8575  154.1923 H   0  0  0  0  0  0  0  0  0  0  0  0
  148.5548  137.9293  152.7374 H   0  0  0  0  0  0  0  0  0  0  0  0
  145.3789  138.8481  152.1856 H   0  0  0  0  0  0  0  0  0  0  0  0
  146.7186  139.2499  151.1483 H   0  0  0  0  0  0  0  0  0  0  0  0
  147.6404  136.9531  151.8889 H   0  0  0  0  0  0  0  0  0  0  0  0
  147.2325  135.0456  151.5966 H   0  0  0  0  0  0  0  0  0  0  0  0
  143.6182  134.8700  151.2815 H   0  0  0  0  0  0  0  0  0  0  0  0
  142.3626  132.7124  150.7497 H   0  0  0  0  0  0  0  0  0  0  0  0
  145.8795  130.5777  150.3496 H   0  0  0  0  0  0  0  0  0  0  0  0
  147.3000  132.6087  150.8692 H   0  0  0  0  0  0  0  0  0  0  0  0
  146.9690  143.1283  154.6845 H   0  0  0  0  0  0  0  0  0  0  0  0
  146.3650  143.3002  153.0559 H   0  0  0  0  0  0  0  0  0  0  0  0
  144.0395  143.2646  153.8076 H   0  0  0  0  0  0  0  0  0  0  0  0
  144.9043  144.5270  154.6417 H   0  0  0  0  0  0  0  0  0  0  0  0
  145.2965  141.1675  153.2869 H   0  0  0  0  0  0  0  0  0  0  0  0
  143.5737  130.7843  150.3290 H   0  0  0  0  0  0  0  0  0  0  0  0
  1  2  1  0  0  0  0
  1 22  1  0  0  0  0
  1 23  1  0  0  0  0
  1 24  1  0  0  0  0
  2 21  1  0  0  0  0
  2  3  1  0  0  0  0
  2 25  1  0  0  0  0
  3  4  1  0  0  0  0
  3 26  1  0  0  0  0
  3 27  1  0  0  0  0
  4  5  1  0  0  0  0
  4 28  1  0  0  0  0
  4 29  1  0  0  0  0
  5  6  1  0  0  0  0
  5 20  1  0  0  0  0
  5 46  1  0  0  0  0
  6  7  1  0  0  0  0
  6 30  1  0  0  0  0
  6 31  1  0  0  0  0
  7  8  1  0  0  0  0
  7  9  1  0  0  0  0
  7 32  1  0  0  0  0
  8 33  1  0  0  0  0
  9 10  1  0  0  0  0
  9 34  1  0  0  0  0
  9 35  1  0  0  0  0
 10 11  1  0  0  0  0
 10 36  1  0  0  0  0
 11 12  2  0  0  0  0
 11 13  1  0  0  0  0
 13 14  1  0  0  0  0
 13 37  1  0  0  0  0
 14 19  1  0  0  0  0
 14 15  2  0  0  0  0
 15 16  1  0  0  0  0
 15 38  1  0  0  0  0
 16 17  2  0  0  0  0
 16 39  1  0  0  0  0
 17 18  1  0  0  0  0
 17 47  1  0  0  0  0
 18 19  2  0  0  0  0
 18 40  1  0  0  0  0
 19 41  1  0  0  0  0
 20 21  1  0  0  0  0
 20 42  1  0  0  0  0
 20 43  1  0  0  0  0
 21 44  1  0  0  0  0
 21 45  1  0  0  0  0
M  CHG  1   5   1
M  CHG  1  17   1
M  END
> <s_m_source_file>
AV-unprocessed.smi

> <i_m_source_file_index>
1032

> <i_lp_mmshare_version>
43012

> <i_f3d_flags>
0

> <s_epik_input>
W0NIM11bQ0hdMVtDSDJdW0NIMl1OKFtDSDJdW0NIMl0xKVtDSDJdW0NASF0oW09IXSlbQ0gyXVtOSF1DKD1PKVtOSF1jMltjSF1bY0hdbltjSF1bY0hdMg==

> <s_epik_cmdline>
J2VwaWtfcHl0aG9uJywgJy1waCcsICc3LjAnLCAnLXRuJywgJzgnLCAnLW1hJywgJzIwMCcsICctbWV0YWxfYmluZGluZycsICctaW1hZScsICc8aW5maWxlLm1hZT4nLCAnLW9tYWUnLCAnPG91dGZpbGUubWFlPic=

> <r_epik_Ionization_Penalty>
1.02509

> <r_epik_Ionization_Penalty_Charging>
1.02507

> <r_epik_Ionization_Penalty_Neutral>
1.85474e-05

> <r_epik_State_Penalty>
1.07411

> <r_epik_Charging_Adjusted_Penalty>
2.09917

> <i_epik_Tot_Q>
2

> <i_epik_Tot_abs_Q>
2

> <r_epik_Metal_State_Penalty>
1.1725

> <b_epik_Metal_Only>
0

> <s_lp_Force_Field>
OPLS_2005

> <r_lp_Energy>
33.8521

> <b_lp_Chiralities_Consistent>
1

> <s_lp_Variant>
AV-unprocessed.smi:1032-7

> <Gold.Version>
5.8.1

> <Gold.Id.Protein>
6NUR|6NUR_protein|mol2

> <Gold.PLP.Fitness>
51.9705

> <Gold.PLP.PLP>
-38.8121

> <Gold.PLP.part.hbond>
-4.4190

> <Gold.PLP.part.metal>
0.0000

> <Gold.PLP.part.buried>
-6.5578

> <Gold.PLP.part.nonpolar>
-30.2010

> <Gold.PLP.part.repulsive>
2.6528

> <Gold.PLP.ligand.clash>
0.0000

> <Gold.PLP.ligand.torsion>
0.5040

> <Gold.PLP.Chemscore.Hbond>
4.7093

> <Gold.PLP.Chemscore.CHOScore>
0.0000

> <Gold.PLP.Chemscore.Metal>
0.0000

> <Gold.Chemscore.Hbonds>
donor molecule, donor type, donor heavy atom, donor atom, acceptor molecule, acceptor atom, score
      L1  H     5    46       P1 10175  2.00
      L1  H     8    33       P1  7948  1.00
      L1  H    10    36       P1  7948  0.86
      L1  H    13    37       P1  7948  0.76

> <Gold.PLP.Chemscore.Internal.Correction>
0.0386

> <Gold.Rescore>
     Score         DG    S(hbond)    S(metal)    S(lipo)     H(rot)  DE(clash)    DE(int)     intcor
     17.07     -20.50       3.40        0.00      82.50       2.34       1.44       1.99       ----

> <Gold.Chemscore.Fitness>
17.0698

> <Gold.Chemscore.DG>
-20.5006

> <Gold.Chemscore.ZeroCoef>
-5.4800

> <Gold.Chemscore.Hbond>
3.4004

> <Gold.Chemscore.Metal>
0.0000

> <Gold.Chemscore.Lipo>
82.4960

> <Gold.Chemscore.Internal_Hbond>
0.0000

> <Gold.Chemscore.DEClash>
1.4361

> <Gold.Chemscore.DEInternal>
1.9947

> <Gold.Chemscore.Rot>
2.3393

> <Gold.Chemscore.Internal.Correction>
   9.000000E+99

> <Gold.Chemscore.Hbonds>
donor molecule, donor type, donor heavy atom, donor atom, acceptor molecule, acceptor atom, score
      L1  H     5    46       P1 10175  0.30
      L1  H     8    33       P1  7948  1.00
      L1  H    10    36       P1  7948  0.84
      L1  H    13    37       P1  7948  0.62

> <Gold.Chemscore.Hbond.Weighted>
-11.3572

> <Gold.Chemscore.Metal.Weighted>
-0.0000

> <Gold.Chemscore.Lipo.Weighted>
-9.6520

> <Gold.Chemscore.Internal_Hbond.Weighted>
0.0000

> <Gold.Chemscore.DEClash.Weighted>
1.4361

> <Gold.Chemscore.DEInternal.Weighted>
1.9947

> <Gold.Chemscore.Rot.Weighted>
5.9886

> <Gold.Chemscore.Internal.Correction.Weighted>
   9.000000E+99

> <Gold.Protein.RotatedTorsions>
[ 6907 6896 6895 6894 ] final  138.25 input  -60.11 | X-H torsion
[ 7974 7965 7964 7962 ] final  -80.76 input  175.53 | X-H torsion
[ 8008 7997 7996 7995 ] final  -66.07 input   59.86 | X-H torsion
[ 10167 10162 10161 10158 ] final  109.31 input  -65.29 | X-H torsion
[ 10718 10713 10712 10709 ] final  -25.50 input   66.30 | X-H torsion
[ 10763 10752 10751 10750 ] final  146.83 input  -60.55 | X-H torsion
[ 11005 11000 10999 10996 ] final  -53.02 input  -57.11 | X-H torsion

> <Gold.Protein.ActiveResidues>
 VAL166  LYS551  ARG553  GLY616  TRP617  ASP618  TYR619  PRO620  LYS621  CYS622 
 ASP623  PHE694  ASN695  SER759  ASP760  ASP761  ALA762  ILE779  LEU786  VAL792 
 PHE793  MET794  SER795  GLU796  ALA797  LYS798  CYS799  TRP800  GLU811  SER814 

> <Gold.Protein.RotatedAtoms>
  152.2687  133.5363  159.5425 H   0  0  0  0  0  0  0  0  0  0  0  0  # atno 6907 bound_to 6896
  150.7151  134.0727  159.3879 H   0  0  0  0  0  0  0  0  0  0  0  0  # atno 6908 bound_to 6896
  151.8643  135.0513  160.0523 H   0  0  0  0  0  0  0  0  0  0  0  0  # atno 6909 bound_to 6896
  145.5556  140.9490  143.1475 H   0  0  0  0  0  0  0  0  0  0  0  0  # atno 7974 bound_to 7965
  154.4711  140.0920  156.7147 H   0  0  0  0  0  0  0  0  0  0  0  0  # atno 8008 bound_to 7997
  155.4721  140.3465  155.4309 H   0  0  0  0  0  0  0  0  0  0  0  0  # atno 8009 bound_to 7997
  156.1041  140.1430  156.9417 H   0  0  0  0  0  0  0  0  0  0  0  0  # atno 8010 bound_to 7997
  139.6777  144.7121  151.1573 H   0  0  0  0  0  0  0  0  0  0  0  0  # atno 10167 bound_to 10162
  156.4635  130.4509  149.6914 H   0  0  0  0  0  0  0  0  0  0  0  0  # atno 10718 bound_to 10713
  154.0284  135.2900  155.3372 H   0  0  0  0  0  0  0  0  0  0  0  0  # atno 10763 bound_to 10752
  154.7003  135.5191  153.8520 H   0  0  0  0  0  0  0  0  0  0  0  0  # atno 10764 bound_to 10752
  153.0651  135.6628  154.0499 H   0  0  0  0  0  0  0  0  0  0  0  0  # atno 10765 bound_to 10752
  141.0954  133.6625  156.4110 H   0  0  0  0  0  0  0  0  0  0  0  0  # atno 11005 bound_to 11000
  144.7508  139.7200  143.7274 LP  0  0  0  0  0  0  0  0  0  0  0  0  # atno 17320 bound_to 7965
  146.1886  139.5115  142.9819 LP  0  0  0  0  0  0  0  0  0  0  0  0  # atno 17321 bound_to 7965
  140.7641  143.5747  150.8958 LP  0  0  0  0  0  0  0  0  0  0  0  0  # atno 17342 bound_to 10162
  139.9417  143.6374  152.3052 LP  0  0  0  0  0  0  0  0  0  0  0  0  # atno 17343 bound_to 10162
  156.3692  130.7521  151.2503 LP  0  0  0  0  0  0  0  0  0  0  0  0  # atno 17370 bound_to 10713
  157.7496  131.0328  150.4243 LP  0  0  0  0  0  0  0  0  0  0  0  0  # atno 17371 bound_to 10713
  140.5151  134.6357  157.5298 LP  0  0  0  0  0  0  0  0  0  0  0  0  # atno 17394 bound_to 11000
  139.9790  134.7168  155.9895 LP  0  0  0  0  0  0  0  0  0  0  0  0  # atno 17395 bound_to 11000

$$$$
