AV-unprocessed.smi:1726|AV-procd|sdf|6960|dock4
  -GOLD-   22720 8173D 1   1.00000     0.00000
 Structure written by MMmdl.
 43 44  0  0  0  0  0  0  0  0  2 V2000
  146.3806  138.3387  153.2815 C   0  0  0  0  0  0  0  0  0  0  0  0
  146.7263  137.0876  154.1016 C   0  0  0  0  0  0  0  0  0  0  0  0
  148.1903  136.8652  154.2151 N   0  3  2  0  0  0  0  0  0  0  0  0
  148.5097  135.6393  154.9923 C   0  0  0  0  0  0  0  0  0  0  0  0
  150.0202  135.3526  154.9872 C   0  0  0  0  0  0  0  0  0  0  0  0
  150.8118  136.5551  155.5165 C   0  0  0  0  0  0  0  0  0  0  0  0
  150.4507  137.8152  154.7152 C   0  0  2  0  0  0  0  0  0  0  0  0
  151.1625  138.9695  155.2570 N   0  0  0  0  0  0  0  0  0  0  0  0
  151.1924  139.3190  156.5514 C   0  0  0  0  0  0  0  0  0  0  0  0
  150.6183  138.6796  157.4328 O   0  0  0  0  0  0  0  0  0  0  0  0
  151.9388  140.4235  156.7361 N   0  0  0  0  0  0  0  0  0  0  0  0
  152.2092  141.1247  157.9236 C   0  0  0  0  0  0  0  0  0  0  0  0
  151.7004  142.3446  158.2390 C   0  0  0  0  0  0  0  0  0  0  0  0
  152.0284  143.0191  159.4842 C   0  0  0  0  0  0  0  0  0  0  0  0
  151.4972  144.4080  159.8044 C   0  0  0  0  0  0  0  0  0  0  0  0
  151.8563  144.7910  161.0304 F   0  0  0  0  0  0  0  0  0  0  0  0
  151.9530  145.3093  158.9342 F   0  0  0  0  0  0  0  0  0  0  0  0
  150.1663  144.4083  159.7430 F   0  0  0  0  0  0  0  0  0  0  0  0
  152.8910  142.3860  160.3003 C   0  0  0  0  0  0  0  0  0  0  0  0
  153.4187  141.1323  159.9838 N   0  0  0  0  0  0  0  0  0  0  0  0
  153.1396  140.4550  158.8476 C   0  0  0  0  0  0  0  0  0  0  0  0
  153.6497  139.3550  158.6386 O   0  0  0  0  0  0  0  0  0  0  0  0
  148.9247  138.0488  154.7370 C   0  0  0  0  0  0  0  0  0  0  0  0
  154.0519  140.7188  160.6532 H   0  0  0  0  0  0  0  0  0  0  0  0
  145.3032  138.4115  153.1315 H   0  0  0  0  0  0  0  0  0  0  0  0
  146.8482  138.3065  152.2970 H   0  0  0  0  0  0  0  0  0  0  0  0
  146.6982  139.2559  153.7766 H   0  0  0  0  0  0  0  0  0  0  0  0
  146.2765  137.1405  155.0942 H   0  0  0  0  0  0  0  0  0  0  0  0
  146.2715  136.2305  153.6028 H   0  0  0  0  0  0  0  0  0  0  0  0
  148.1507  135.7527  156.0165 H   0  0  0  0  0  0  0  0  0  0  0  0
  147.9847  134.7838  154.5654 H   0  0  0  0  0  0  0  0  0  0  0  0
  150.2337  134.4712  155.5926 H   0  0  0  0  0  0  0  0  0  0  0  0
  150.3451  135.1171  153.9728 H   0  0  0  0  0  0  0  0  0  0  0  0
  150.5864  136.7049  156.5735 H   0  0  0  0  0  0  0  0  0  0  0  0
  151.8818  136.3549  155.4492 H   0  0  0  0  0  0  0  0  0  0  0  0
  150.7699  137.6624  153.6820 H   0  0  0  0  0  0  0  0  0  0  0  0
  151.6649  139.5467  154.5977 H   0  0  0  0  0  0  0  0  0  0  0  0
  152.4051  140.7922  155.9197 H   0  0  0  0  0  0  0  0  0  0  0  0
  151.0410  142.8625  157.5622 H   0  0  0  0  0  0  0  0  0  0  0  0
  153.2415  142.7843  161.2412 H   0  0  0  0  0  0  0  0  0  0  0  0
  148.6878  138.9249  154.1344 H   0  0  0  0  0  0  0  0  0  0  0  0
  148.5890  138.2658  155.7528 H   0  0  0  0  0  0  0  0  0  0  0  0
  148.5277  136.7000  153.2775 H   0  0  0  0  0  0  0  0  0  0  0  0
  1  2  1  0  0  0  0
  1 25  1  0  0  0  0
  1 26  1  0  0  0  0
  1 27  1  0  0  0  0
  2  3  1  0  0  0  0
  2 28  1  0  0  0  0
  2 29  1  0  0  0  0
  3 23  1  0  0  0  0
  3  4  1  0  0  0  0
  3 43  1  0  0  0  0
  4  5  1  0  0  0  0
  4 30  1  0  0  0  0
  4 31  1  0  0  0  0
  5  6  1  0  0  0  0
  5 32  1  0  0  0  0
  5 33  1  0  0  0  0
  6  7  1  0  0  0  0
  6 34  1  0  0  0  0
  6 35  1  0  0  0  0
  7  8  1  0  0  0  0
  7 23  1  0  0  0  0
  7 36  1  0  0  0  0
  8  9  1  0  0  0  0
  8 37  1  0  0  0  0
  9 10  2  0  0  0  0
  9 11  1  0  0  0  0
 11 12  1  0  0  0  0
 11 38  1  0  0  0  0
 12 21  1  0  0  0  0
 12 13  2  0  0  0  0
 13 14  1  0  0  0  0
 13 39  1  0  0  0  0
 14 15  1  0  0  0  0
 14 19  2  0  0  0  0
 15 16  1  0  0  0  0
 15 17  1  0  0  0  0
 15 18  1  0  0  0  0
 19 20  1  0  0  0  0
 19 40  1  0  0  0  0
 20 24  1  0  0  0  0
 20 21  1  0  0  0  0
 21 22  2  0  0  0  0
 23 41  1  0  0  0  0
 23 42  1  0  0  0  0
M  CHG  1   3   1
M  END
> <s_m_source_file>
AV-unprocessed.smi

> <i_m_source_file_index>
1726

> <i_lp_mmshare_version>
43012

> <i_f3d_flags>
0

> <s_epik_input>
W0NIM11bQ0gyXU4xW0NIMl1bQ0gyXVtDSDJdW0NASF0oW0NIMl0xKVtOSF1DKD1PKVtOSF1jMltjSF1jKEMoRikoRilGKVtjSF1bbkhdYzI9Tw==

> <s_epik_cmdline>
J2VwaWtfcHl0aG9uJywgJy1waCcsICc3LjAnLCAnLXRuJywgJzgnLCAnLW1hJywgJzIwMCcsICctbWV0YWxfYmluZGluZycsICctaW1hZScsICc8aW5maWxlLm1hZT4nLCAnLW9tYWUnLCAnPG91dGZpbGUubWFlPic=

> <r_lp_tautomer_probability>
1

> <r_epik_Ionization_Penalty>
0.00745721

> <r_epik_Ionization_Penalty_Charging>
0.00743804

> <r_epik_Ionization_Penalty_Neutral>
1.91703e-05

> <r_epik_State_Penalty>
-0

> <r_epik_Charging_Adjusted_Penalty>
0.00743804

> <i_epik_Tot_Q>
1

> <i_epik_Tot_abs_Q>
1

> <r_epik_Metal_State_Penalty>
0.37929

> <b_epik_Metal_Only>
0

> <s_lp_Force_Field>
OPLS_2005

> <r_lp_Energy>
26.6941

> <b_lp_Chiralities_Consistent>
1

> <s_lp_Variant>
AV-unprocessed.smi:1726-4

> <Gold.Version>
5.8.1

> <Gold.Id.Protein>
6NUR|6NUR_protein|mol2

> <Gold.PLP.Fitness>
43.4652

> <Gold.PLP.PLP>
-38.4233

> <Gold.PLP.part.hbond>
-2.0000

> <Gold.PLP.part.metal>
0.0000

> <Gold.PLP.part.buried>
-5.1308

> <Gold.PLP.part.nonpolar>
-31.7349

> <Gold.PLP.part.repulsive>
0.3185

> <Gold.PLP.ligand.clash>
1.1557

> <Gold.PLP.ligand.torsion>
0.9074

> <Gold.PLP.Chemscore.Hbond>
2.6500

> <Gold.PLP.Chemscore.CHOScore>
0.0000

> <Gold.PLP.Chemscore.Metal>
0.0000

> <Gold.Chemscore.Hbonds>
donor molecule, donor type, donor heavy atom, donor atom, acceptor molecule, acceptor atom, score
      L1  H     3    43       P1  7948  2.00
      P1  H  7997  8008       L1    22  0.65

> <Gold.PLP.Chemscore.Internal.Correction>
0.0623

> <Gold.Rescore>
     Score         DG    S(hbond)    S(metal)    S(lipo)     H(rot)  DE(clash)    DE(int)     intcor
     14.73     -16.96       1.89        0.00      72.45       1.29       0.17       2.06       ----

> <Gold.Chemscore.Fitness>
14.7334

> <Gold.Chemscore.DG>
-16.9574

> <Gold.Chemscore.ZeroCoef>
-5.4800

> <Gold.Chemscore.Hbond>
1.8860

> <Gold.Chemscore.Metal>
0.0000

> <Gold.Chemscore.Lipo>
72.4493

> <Gold.Chemscore.Internal_Hbond>
0.0000

> <Gold.Chemscore.DEClash>
0.1650

> <Gold.Chemscore.DEInternal>
2.0590

> <Gold.Chemscore.Rot>
1.2884

> <Gold.Chemscore.Internal.Correction>
   9.000000E+99

> <Gold.Chemscore.Hbonds>
donor molecule, donor type, donor heavy atom, donor atom, acceptor molecule, acceptor atom, score
      L1  H     3    43       P1  7948  0.94
      P1  H  7997  8008       L1    22  0.06

> <Gold.Chemscore.Hbond.Weighted>
-6.2992

> <Gold.Chemscore.Metal.Weighted>
-0.0000

> <Gold.Chemscore.Lipo.Weighted>
-8.4766

> <Gold.Chemscore.Internal_Hbond.Weighted>
0.0000

> <Gold.Chemscore.DEClash.Weighted>
0.1650

> <Gold.Chemscore.DEInternal.Weighted>
2.0590

> <Gold.Chemscore.Rot.Weighted>
3.2983

> <Gold.Chemscore.Internal.Correction.Weighted>
   9.000000E+99

> <Gold.Protein.RotatedTorsions>
[ 6907 6896 6895 6894 ] final  125.48 input  -60.11 | X-H torsion
[ 7974 7965 7964 7962 ] final -149.09 input  175.53 | X-H torsion
[ 8008 7997 7996 7995 ] final  -96.28 input   59.86 | X-H torsion
[ 10167 10162 10161 10158 ] final  -62.66 input  -65.29 | X-H torsion
[ 10718 10713 10712 10709 ] final -167.46 input   66.30 | X-H torsion
[ 10763 10752 10751 10750 ] final   94.15 input  -60.55 | X-H torsion
[ 11005 11000 10999 10996 ] final   38.07 input  -57.11 | X-H torsion

> <Gold.Protein.ActiveResidues>
 VAL166  LYS551  ARG553  GLY616  TRP617  ASP618  TYR619  PRO620  LYS621  CYS622 
 ASP623  PHE694  ASN695  SER759  ASP760  ASP761  ALA762  ILE779  LEU786  VAL792 
 PHE793  MET794  SER795  GLU796  ALA797  LYS798  CYS799  TRP800  GLU811  SER814 

> <Gold.Protein.RotatedAtoms>
  152.3988  133.6787  159.6298 H   0  0  0  0  0  0  0  0  0  0  0  0  # atno 6907 bound_to 6896
  150.7883  133.8827  159.3299 H   0  0  0  0  0  0  0  0  0  0  0  0  # atno 6908 bound_to 6896
  151.6597  135.0992  160.0228 H   0  0  0  0  0  0  0  0  0  0  0  0  # atno 6909 bound_to 6896
  144.7989  140.5111  143.5721 H   0  0  0  0  0  0  0  0  0  0  0  0  # atno 7974 bound_to 7965
  154.7724  140.0473  157.1062 H   0  0  0  0  0  0  0  0  0  0  0  0  # atno 8008 bound_to 7997
  154.9804  140.3101  155.4929 H   0  0  0  0  0  0  0  0  0  0  0  0  # atno 8009 bound_to 7997
  156.2923  140.2237  156.4903 H   0  0  0  0  0  0  0  0  0  0  0  0  # atno 8010 bound_to 7997
  140.5924  143.2344  151.6111 H   0  0  0  0  0  0  0  0  0  0  0  0  # atno 10167 bound_to 10162
  156.6827  130.9128  151.3059 H   0  0  0  0  0  0  0  0  0  0  0  0  # atno 10718 bound_to 10713
  153.2384  135.4300  155.0671 H   0  0  0  0  0  0  0  0  0  0  0  0  # atno 10763 bound_to 10752
  154.8329  135.3396  154.6685 H   0  0  0  0  0  0  0  0  0  0  0  0  # atno 10764 bound_to 10752
  153.7110  135.7023  153.5094 H   0  0  0  0  0  0  0  0  0  0  0  0  # atno 10765 bound_to 10752
  140.2162  134.3695  155.8026 H   0  0  0  0  0  0  0  0  0  0  0  0  # atno 11005 bound_to 11000
  145.5603  139.1479  143.3345 LP  0  0  0  0  0  0  0  0  0  0  0  0  # atno 17320 bound_to 7965
  146.2265  140.5739  142.8994 LP  0  0  0  0  0  0  0  0  0  0  0  0  # atno 17321 bound_to 7965
  139.5236  144.3129  152.0977 LP  0  0  0  0  0  0  0  0  0  0  0  0  # atno 17342 bound_to 10162
  140.2296  144.4382  150.6306 LP  0  0  0  0  0  0  0  0  0  0  0  0  # atno 17343 bound_to 10162
  157.7038  130.9362  150.0866 LP  0  0  0  0  0  0  0  0  0  0  0  0  # atno 17370 bound_to 10713
  156.1856  130.3652  149.8977 LP  0  0  0  0  0  0  0  0  0  0  0  0  # atno 17371 bound_to 10713
  141.2225  133.7169  156.8500 LP  0  0  0  0  0  0  0  0  0  0  0  0  # atno 17394 bound_to 11000
  140.1898  134.8974  157.3047 LP  0  0  0  0  0  0  0  0  0  0  0  0  # atno 17395 bound_to 11000

$$$$
