#       Name:                AV-unprocessed.smi:1047
#       Creating user name   scv26
#       Creation time:       Fri Mar 27 03:00:07 2020


#       File generated by GOLD software.
#

@<TRIPOS>MOLECULE
AV-unprocessed.smi:1047
    62    64     1
SMALL
NO_CHARGES


@<TRIPOS>ATOM
      1 ****        -5.0247   2.6438   2.5997 C.3            1 S1                 0.0000
      2 ****        -3.9831   3.4472   1.8076 C.3            1 S1                 0.0000
      3 ****        -3.9835   3.1124   0.3613 N.4            1 S1                 1.0000
      4 ****        -3.3122   4.1508  -0.4565 C.3            1 S1                 0.0000
      5 ****        -3.3926   3.7971  -1.9509 C.3            1 S1                 0.0000
      6 ****        -2.8117   2.5177  -2.1731 O.3            1 S1                 0.0000
      7 ****        -3.4840   1.4873  -1.4569 C.3            1 S1                 0.0000
      8 ****        -2.8764   0.1303  -1.8530 C.3            1 S1                 0.0000
      9 ****        -1.4293   0.0630  -1.5612 N.4            1 S1                 1.0000
     10 ****        -0.7949  -1.2185  -1.9289 C.3            1 S1                 0.0000
     11 ****         0.7141  -1.1914  -1.6368 C.3            1 S1                 0.0000
     12 ****         1.3278  -0.2645  -2.5121 O.3            1 S1                 0.0000
     13 ****         1.3662  -2.5754  -1.8201 C.3            1 S1                 0.0000
     14 ****         2.7924  -2.5535  -1.5478 N.pl3          1 S1                 0.0000
     15 ****         3.7944  -2.6057  -2.4467 C.2            1 S1                 0.0000
     16 ****         5.0372  -2.5631  -1.9754 N.2            1 S1                 0.0000
     17 ****         4.8165  -2.4818  -0.6112 C.ar           1 S1                 0.0000
     18 ****         5.7296  -2.4040   0.4631 C.ar           1 S1                 0.0000
     19 ****         5.2731  -2.3287   1.7983 C.ar           1 S1                 0.0000
     20 ****         6.2902  -2.2459   2.9228 C.3            1 S1                 0.0000
     21 ****         3.8822  -2.3319   2.0753 C.ar           1 S1                 0.0000
     22 ****         3.3690  -2.2568   3.5025 C.3            1 S1                 0.0000
     23 ****         2.9563  -2.4061   1.0137 C.ar           1 S1                 0.0000
     24 ****         3.4230  -2.4789  -0.3106 C.ar           1 S1                 0.0000
     25 ****        -3.4181   1.7734   0.0588 C.3            1 S1                 0.0000
     26 ****        -5.0628   2.9836   3.6350 H              1 S1                 0.0000
     27 ****        -4.7930   1.5794   2.6197 H              1 S1                 0.0000
     28 ****        -6.0224   2.7654   2.1769 H              1 S1                 0.0000
     29 ****        -4.2179   4.5061   1.9265 H              1 S1                 0.0000
     30 ****        -2.9863   3.3027   2.2272 H              1 S1                 0.0000
     31 ****        -3.7824   5.1200  -0.2853 H              1 S1                 0.0000
     32 ****        -2.2690   4.2422  -0.1493 H              1 S1                 0.0000
     33 ****        -4.4264   3.8076  -2.3002 H              1 S1                 0.0000
     34 ****        -2.8508   4.5366  -2.5407 H              1 S1                 0.0000
     35 ****        -4.5311   1.4806  -1.7658 H              1 S1                 0.0000
     36 ****        -3.3894  -0.6749  -1.3254 H              1 S1                 0.0000
     37 ****        -3.0300  -0.0408  -2.9195 H              1 S1                 0.0000
     38 ****        -0.9641   0.7988  -2.0747 H              1 S1                 0.0000
     39 ****        -1.2688  -2.0148  -1.3533 H              1 S1                 0.0000
     40 ****        -0.9759  -1.4347  -2.9830 H              1 S1                 0.0000
     41 ****         0.8780  -0.8539  -0.6124 H              1 S1                 0.0000
     42 ****         2.2578  -0.2595  -2.3402 H              1 S1                 0.0000
     43 ****         0.9050  -3.3032  -1.1512 H              1 S1                 0.0000
     44 ****         1.2088  -2.9411  -2.8362 H              1 S1                 0.0000
     45 ****         3.6011  -2.6716  -3.5076 H              1 S1                 0.0000
     46 ****         6.7890  -2.4029   0.2518 H              1 S1                 0.0000
     47 ****         6.1884  -3.0999   3.5928 H              1 S1                 0.0000
     48 ****         6.1478  -1.3325   3.5006 H              1 S1                 0.0000
     49 ****         7.3107  -2.2420   2.5385 H              1 S1                 0.0000
     50 ****         2.2796  -2.2881   3.5364 H              1 S1                 0.0000
     51 ****         3.6926  -1.3297   3.9764 H              1 S1                 0.0000
     52 ****         3.7453  -3.0953   4.0891 H              1 S1                 0.0000
     53 ****         1.8947  -2.4087   1.2112 H              1 S1                 0.0000
     54 ****        -2.3865   1.7334   0.4117 H              1 S1                 0.0000
     55 ****        -3.9695   1.0005   0.5934 H              1 S1                 0.0000
     56 ****        -1.2854   0.2188  -0.5740 H              1 S1                 0.0000
     57 ****        -4.9506   3.1021   0.0686 H              1 S1                 0.0000
     58 ****        -1.8562   2.5429  -1.8791 LP             1 S1                 0.0000
     59 ****        -2.8543   2.3105  -3.1504 LP             1 S1                 0.0000
     60 ****         0.9509   0.6483  -2.3549 LP             1 S1                 0.0000
     61 ****         1.1616  -0.5351  -3.4603 LP             1 S1                 0.0000
     62 ****         5.9033  -2.5843  -2.4749 LP             1 S1                 0.0000
@<TRIPOS>BOND
    1    1    2 1     
    2    1   26 1     
    3    1   27 1     
    4    1   28 1     
    5    2    3 1     
    6    2   29 1     
    7    2   30 1     
    8    3   25 1     
    9    3    4 1     
   10    3   57 1     
   11    4    5 1     
   12    4   31 1     
   13    4   32 1     
   14    5    6 1     
   15    5   33 1     
   16    5   34 1     
   17    6    7 1     
   18    7    8 1     
   19    7   25 1     
   20    7   35 1     
   21    8    9 1     
   22    8   36 1     
   23    8   37 1     
   24    9   10 1     
   25    9   38 1     
   26    9   56 1     
   27   10   11 1     
   28   10   39 1     
   29   10   40 1     
   30   11   12 1     
   31   11   13 1     
   32   11   41 1     
   33   12   42 1     
   34   13   14 1     
   35   13   43 1     
   36   13   44 1     
   37   14   24 1     
   38   14   15 1     
   39   15   16 2     
   40   15   45 1     
   41   16   17 1     
   42   17   24 ar    
   43   17   18 ar    
   44   18   19 ar    
   45   18   46 1     
   46   19   20 1     
   47   19   21 ar    
   48   20   47 1     
   49   20   48 1     
   50   20   49 1     
   51   21   22 1     
   52   21   23 ar    
   53   22   50 1     
   54   22   51 1     
   55   22   52 1     
   56   23   24 ar    
   57   23   53 1     
   58   25   54 1     
   59   25   55 1     
   60    6   58 1     
   61    6   59 1     
   62   12   60 1     
   63   12   61 1     
   64   16   62 1     
@<TRIPOS>SUBSTRUCTURE
      1 S1             1
@<TRIPOS>SET
LONE_PAIRS      STATIC     ATOMS    <user>   **** ""
5 58 59 60 61 62
DONOR_HYDROGENS      STATIC     ATOMS    <user>   **** ""
4 57 38 56 42
ATOM$BLUE        STATIC     ATOMS    COLORGROUP SYSTEM
5 58 59 60 61 62
ATOM$RED        STATIC     ATOMS    COLORGROUP SYSTEM
4 57 38 56 42
