AV-unprocessed.smi:3304|AV-procd|sdf|12698|dock3
  -GOLD-   2272019 33D 1   1.00000     0.00000
 Structure written by MMmdl.
 46 47  0  0  0  0  0  0  0  0  2 V2000
  155.5651  136.1044  161.1183 C   0  0  0  0  0  0  0  0  0  0  0  0
  155.0704  136.3851  162.5006 C   0  0  0  0  0  0  0  0  0  0  0  0
  154.9174  137.5676  163.1740 C   0  0  0  0  0  0  0  0  0  0  0  0
  155.2102  138.9682  162.7105 C   0  0  0  0  0  0  0  0  0  0  0  0
  154.4413  139.3094  161.4271 C   0  0  0  0  0  0  0  0  0  0  0  0
  154.3292  140.7695  161.2478 N   0  3  0  0  0  0  0  0  0  0  0  0
  153.4170  141.1728  160.1590 C   0  0  0  0  0  0  0  0  0  0  0  0
  153.2337  142.7009  160.1077 C   0  0  2  0  0  0  0  0  0  0  0  0
  152.4025  143.1954  161.3082 C   0  0  0  0  0  0  0  0  0  0  0  0
  152.2052  144.7213  161.2776 C   0  0  0  0  0  0  0  0  0  0  0  0
  151.5742  145.2081  159.9583 C   0  0  2  0  0  0  0  0  0  0  0  0
  150.0763  144.8698  159.8588 C   0  0  0  0  0  0  0  0  0  0  0  0
  152.3804  144.6875  158.7518 C   0  0  0  0  0  0  0  0  0  0  0  0
  152.5785  143.1620  158.7881 C   0  0  0  0  0  0  0  0  0  0  0  0
  154.4085  137.1692  164.4425 C   0  0  0  0  0  0  0  0  0  0  0  0
  154.2616  135.8610  164.5488 N   0  0  0  0  0  0  0  0  0  0  0  0
  154.6665  135.3776  163.3564 N   0  0  0  0  0  0  0  0  0  0  0  0
  154.6359  133.9470  163.1209 C   0  0  0  0  0  0  0  0  0  0  0  0
  155.8434  137.0233  160.6027 H   0  0  0  0  0  0  0  0  0  0  0  0
  154.7965  135.6084  160.5252 H   0  0  0  0  0  0  0  0  0  0  0  0
  156.4423  135.4574  161.1450 H   0  0  0  0  0  0  0  0  0  0  0  0
  154.9552  139.6887  163.4885 H   0  0  0  0  0  0  0  0  0  0  0  0
  156.2791  139.0930  162.5325 H   0  0  0  0  0  0  0  0  0  0  0  0
  154.9498  138.8809  160.5623 H   0  0  0  0  0  0  0  0  0  0  0  0
  153.4415  138.8744  161.4624 H   0  0  0  0  0  0  0  0  0  0  0  0
  153.9975  141.1763  162.1108 H   0  0  0  0  0  0  0  0  0  0  0  0
  153.7965  140.8049  159.2046 H   0  0  0  0  0  0  0  0  0  0  0  0
  152.4531  140.6898  160.3254 H   0  0  0  0  0  0  0  0  0  0  0  0
  154.2203  143.1622  160.1798 H   0  0  0  0  0  0  0  0  0  0  0  0
  151.4323  142.6973  161.3191 H   0  0  0  0  0  0  0  0  0  0  0  0
  152.8955  142.9178  162.2406 H   0  0  0  0  0  0  0  0  0  0  0  0
  151.5968  145.0367  162.1260 H   0  0  0  0  0  0  0  0  0  0  0  0
  153.1745  145.2045  161.4072 H   0  0  0  0  0  0  0  0  0  0  0  0
  151.6420  146.2968  159.9487 H   0  0  0  0  0  0  0  0  0  0  0  0
  149.8960  143.7952  159.8598 H   0  0  0  0  0  0  0  0  0  0  0  0
  149.6448  145.2751  158.9432 H   0  0  0  0  0  0  0  0  0  0  0  0
  149.5240  145.2969  160.6963 H   0  0  0  0  0  0  0  0  0  0  0  0
  151.8943  144.9786  157.8199 H   0  0  0  0  0  0  0  0  0  0  0  0
  153.3589  145.1698  158.7436 H   0  0  0  0  0  0  0  0  0  0  0  0
  153.1932  142.8651  157.9378 H   0  0  0  0  0  0  0  0  0  0  0  0
  151.6183  142.6624  158.6556 H   0  0  0  0  0  0  0  0  0  0  0  0
  154.1442  137.7904  165.2856 H   0  0  0  0  0  0  0  0  0  0  0  0
  154.0091  133.7308  162.2554 H   0  0  0  0  0  0  0  0  0  0  0  0
  154.2323  133.4211  163.9874 H   0  0  0  0  0  0  0  0  0  0  0  0
  155.6467  133.5860  162.9289 H   0  0  0  0  0  0  0  0  0  0  0  0
  155.2479  141.1389  161.0485 H   0  0  0  0  0  0  0  0  0  0  0  0
  1  2  1  0  0  0  0
  1 19  1  0  0  0  0
  1 20  1  0  0  0  0
  1 21  1  0  0  0  0
  2 17  1  0  0  0  0
  2  3  2  0  0  0  0
  3  4  1  0  0  0  0
  3 15  1  0  0  0  0
  4  5  1  0  0  0  0
  4 22  1  0  0  0  0
  4 23  1  0  0  0  0
  5  6  1  0  0  0  0
  5 24  1  0  0  0  0
  5 25  1  0  0  0  0
  6  7  1  0  0  0  0
  6 26  1  0  0  0  0
  6 46  1  0  0  0  0
  7  8  1  0  0  0  0
  7 27  1  0  0  0  0
  7 28  1  0  0  0  0
  8 14  1  0  0  0  0
  8  9  1  0  0  0  0
  8 29  1  0  0  0  0
  9 10  1  0  0  0  0
  9 30  1  0  0  0  0
  9 31  1  0  0  0  0
 10 11  1  0  0  0  0
 10 32  1  0  0  0  0
 10 33  1  0  0  0  0
 11 12  1  0  0  0  0
 11 13  1  0  0  0  0
 11 34  1  0  0  0  0
 12 35  1  0  0  0  0
 12 36  1  0  0  0  0
 12 37  1  0  0  0  0
 13 14  1  0  0  0  0
 13 38  1  0  0  0  0
 13 39  1  0  0  0  0
 14 40  1  0  0  0  0
 14 41  1  0  0  0  0
 15 16  2  0  0  0  0
 15 42  1  0  0  0  0
 16 17  1  0  0  0  0
 17 18  1  0  0  0  0
 18 43  1  0  0  0  0
 18 44  1  0  0  0  0
 18 45  1  0  0  0  0
M  CHG  1   6   1
M  END
> <s_m_source_file>
AV-unprocessed.smi

> <i_m_source_file_index>
3304

> <i_lp_mmshare_version>
43012

> <i_f3d_flags>
0

> <s_epik_input>
W0NIM11uMW5bY0hdYyhjMVtDSDNdKVtDSDJdW0NIMl1bTkhdW0NIMl1bQ0BASF0yW0NIMl1bQ0gyXVtDQEBIXShbQ0gzXSlbQ0gyXVtDSDJdMg==

> <s_epik_cmdline>
J2VwaWtfcHl0aG9uJywgJy1waCcsICc3LjAnLCAnLXRuJywgJzgnLCAnLW1hJywgJzIwMCcsICctbWV0YWxfYmluZGluZycsICctaW1hZScsICc8aW5maWxlLm1hZT4nLCAnLW9tYWUnLCAnPG91dGZpbGUubWFlPic=

> <r_lp_tautomer_probability>
1

> <r_epik_Ionization_Penalty>
0.000505313

> <r_epik_Ionization_Penalty_Charging>
0.000421171

> <r_epik_Ionization_Penalty_Neutral>
8.41424e-05

> <r_epik_State_Penalty>
-0

> <r_epik_Charging_Adjusted_Penalty>
0.000421171

> <i_epik_Tot_Q>
1

> <i_epik_Tot_abs_Q>
1

> <r_epik_Metal_State_Penalty>
-0

> <b_epik_Metal_Only>
0

> <s_lp_Force_Field>
OPLS_2005

> <r_lp_Energy>
12.247

> <b_lp_Chiralities_Consistent>
1

> <s_lp_Variant>
AV-unprocessed.smi:3304-2

> <Gold.Version>
5.8.1

> <Gold.Id.Protein>
6NUR|6NUR_protein|mol2

> <Gold.PLP.Fitness>
45.4481

> <Gold.PLP.PLP>
-45.8185

> <Gold.PLP.part.hbond>
0.0000

> <Gold.PLP.part.metal>
0.0000

> <Gold.PLP.part.buried>
-5.6686

> <Gold.PLP.part.nonpolar>
-40.3438

> <Gold.PLP.part.repulsive>
0.1012

> <Gold.PLP.ligand.clash>
0.0000

> <Gold.PLP.ligand.torsion>
0.2190

> <Gold.PLP.Chemscore.Hbond>
0.0000

> <Gold.PLP.Chemscore.CHOScore>
0.0000

> <Gold.PLP.Chemscore.Metal>
0.0000

> <Gold.PLP.Chemscore.Internal.Correction>
0.0677

> <Gold.Rescore>
     Score         DG    S(hbond)    S(metal)    S(lipo)     H(rot)  DE(clash)    DE(int)     intcor
     16.81     -17.19       0.00        0.00     131.43       1.43       0.17       0.20       ----

> <Gold.Chemscore.Fitness>
16.8133

> <Gold.Chemscore.DG>
-17.1885

> <Gold.Chemscore.ZeroCoef>
-5.4800

> <Gold.Chemscore.Hbond>
0.0000

> <Gold.Chemscore.Metal>
0.0000

> <Gold.Chemscore.Lipo>
131.4293

> <Gold.Chemscore.Internal_Hbond>
0.0000

> <Gold.Chemscore.DEClash>
0.1725

> <Gold.Chemscore.DEInternal>
0.2026

> <Gold.Chemscore.Rot>
1.4331

> <Gold.Chemscore.Internal.Correction>
   9.000000E+99

> <Gold.Chemscore.Hbond.Weighted>
-0.0000

> <Gold.Chemscore.Metal.Weighted>
-0.0000

> <Gold.Chemscore.Lipo.Weighted>
-15.3772

> <Gold.Chemscore.Internal_Hbond.Weighted>
0.0000

> <Gold.Chemscore.DEClash.Weighted>
0.1725

> <Gold.Chemscore.DEInternal.Weighted>
0.2026

> <Gold.Chemscore.Rot.Weighted>
3.6688

> <Gold.Chemscore.Internal.Correction.Weighted>
   9.000000E+99

> <Gold.Protein.RotatedTorsions>
[ 6907 6896 6895 6894 ] final -175.12 input  -60.11 | X-H torsion
[ 7974 7965 7964 7962 ] final   -7.11 input  175.53 | X-H torsion
[ 8008 7997 7996 7995 ] final   45.43 input   59.86 | X-H torsion
[ 10167 10162 10161 10158 ] final  -68.68 input  -65.29 | X-H torsion
[ 10718 10713 10712 10709 ] final  -73.84 input   66.30 | X-H torsion
[ 10763 10752 10751 10750 ] final -160.70 input  -60.55 | X-H torsion
[ 11005 11000 10999 10996 ] final  -76.16 input  -57.11 | X-H torsion

> <Gold.Protein.ActiveResidues>
 VAL166  LYS551  ARG553  GLY616  TRP617  ASP618  TYR619  PRO620  LYS621  CYS622 
 ASP623  PHE694  ASN695  SER759  ASP760  ASP761  ALA762  ILE779  LEU786  VAL792 
 PHE793  MET794  SER795  GLU796  ALA797  LYS798  CYS799  TRP800  GLU811  SER814 

> <Gold.Protein.RotatedAtoms>
  151.5834  133.3375  159.3012 H   0  0  0  0  0  0  0  0  0  0  0  0  # atno 6907 bound_to 6896
  150.8301  134.7553  159.6857 H   0  0  0  0  0  0  0  0  0  0  0  0  # atno 6908 bound_to 6896
  152.4385  134.5644  159.9955 H   0  0  0  0  0  0  0  0  0  0  0  0  # atno 6909 bound_to 6896
  146.2315  140.2270  142.8339 H   0  0  0  0  0  0  0  0  0  0  0  0  # atno 7974 bound_to 7965
  155.3357  140.3405  155.4239 H   0  0  0  0  0  0  0  0  0  0  0  0  # atno 8008 bound_to 7997
  156.1839  140.1673  156.8259 H   0  0  0  0  0  0  0  0  0  0  0  0  # atno 8009 bound_to 7997
  154.5364  140.0734  156.8418 H   0  0  0  0  0  0  0  0  0  0  0  0  # atno 8010 bound_to 7997
  140.5488  143.2312  151.6950 H   0  0  0  0  0  0  0  0  0  0  0  0  # atno 10167 bound_to 10162
  156.0265  130.4403  150.2802 H   0  0  0  0  0  0  0  0  0  0  0  0  # atno 10718 bound_to 10713
  154.7367  135.3059  154.8799 H   0  0  0  0  0  0  0  0  0  0  0  0  # atno 10763 bound_to 10752
  153.9625  135.6751  153.4749 H   0  0  0  0  0  0  0  0  0  0  0  0  # atno 10764 bound_to 10752
  153.0969  135.4931  154.8719 H   0  0  0  0  0  0  0  0  0  0  0  0  # atno 10765 bound_to 10752
  141.1651  133.6973  156.7626 H   0  0  0  0  0  0  0  0  0  0  0  0  # atno 11005 bound_to 11000
  144.9587  140.8253  143.5527 LP  0  0  0  0  0  0  0  0  0  0  0  0  # atno 17320 bound_to 7965
  145.2239  139.2146  143.5078 LP  0  0  0  0  0  0  0  0  0  0  0  0  # atno 17321 bound_to 7965
  139.5019  144.3851  152.0337 LP  0  0  0  0  0  0  0  0  0  0  0  0  # atno 17342 bound_to 10162
  140.2966  144.3694  150.6072 LP  0  0  0  0  0  0  0  0  0  0  0  0  # atno 17343 bound_to 10162
  157.0906  131.0168  151.3123 LP  0  0  0  0  0  0  0  0  0  0  0  0  # atno 17370 bound_to 10713
  157.4857  130.7792  149.7458 LP  0  0  0  0  0  0  0  0  0  0  0  0  # atno 17371 bound_to 10713
  140.2522  134.8531  157.3679 LP  0  0  0  0  0  0  0  0  0  0  0  0  # atno 17394 bound_to 11000
  140.1691  134.4631  155.7843 LP  0  0  0  0  0  0  0  0  0  0  0  0  # atno 17395 bound_to 11000

$$$$
