AV-unprocessed.smi:3117|AV-procd|sdf|11885|dock10
  -GOLD-   2272017273D 1   1.00000     0.00000
 Structure written by MMmdl.
 36 36  0  0  0  0  0  0  0  0  1 V2000
  152.0354  139.9353  156.9258 C   0  0  0  0  0  0  0  0  0  0  0  0
  151.2385  140.9299  156.0654 C   0  0  1  0  0  0  0  0  0  0  0  0
  150.3822  140.1572  155.1545 N   0  0  0  0  0  0  0  0  0  0  0  0
  149.3580  140.9043  154.4245 C   0  0  0  0  0  0  0  0  0  0  0  0
  148.1683  140.0085  154.0231 C   0  0  0  0  0  0  0  0  0  0  0  0
  147.5064  139.3347  155.2383 C   0  0  0  0  0  0  0  0  0  0  0  0
  147.1430  140.7601  153.1553 C   0  0  0  0  0  0  0  0  0  0  0  0
  148.7005  138.9727  153.2227 O   0  0  0  0  0  0  0  0  0  0  0  0
  150.4840  141.9656  156.9556 C   0  0  1  0  0  0  0  0  0  0  0  0
  149.3404  141.3670  157.8011 C   0  0  0  0  0  0  0  0  0  0  0  0
  151.3713  142.8416  157.7197 N   0  0  0  0  0  0  0  0  0  0  0  0
  151.6305  144.1803  157.5041 C   0  0  0  0  0  0  0  0  0  0  0  0
  152.5435  144.5804  158.4371 C   0  0  0  0  0  0  0  0  0  0  0  0
  152.7967  143.3998  159.1881 C   0  0  0  0  0  0  0  0  0  0  0  0
  152.0976  142.3634  158.7569 N   0  0  0  0  0  0  0  0  0  0  0  0
  152.7382  140.4514  157.5802 H   0  0  0  0  0  0  0  0  0  0  0  0
  152.6158  139.2553  156.3015 H   0  0  0  0  0  0  0  0  0  0  0  0
  151.3804  139.3286  157.5512 H   0  0  0  0  0  0  0  0  0  0  0  0
  151.9759  141.4721  155.4724 H   0  0  0  0  0  0  0  0  0  0  0  0
  150.9636  139.6550  154.4915 H   0  0  0  0  0  0  0  0  0  0  0  0
  148.9794  141.7212  155.0335 H   0  0  0  0  0  0  0  0  0  0  0  0
  149.7949  141.3530  153.5314 H   0  0  0  0  0  0  0  0  0  0  0  0
  147.0385  140.0686  155.8954 H   0  0  0  0  0  0  0  0  0  0  0  0
  148.2344  138.7785  155.8302 H   0  0  0  0  0  0  0  0  0  0  0  0
  146.7293  138.6349  154.9286 H   0  0  0  0  0  0  0  0  0  0  0  0
  146.6641  141.5650  153.7134 H   0  0  0  0  0  0  0  0  0  0  0  0
  146.3544  140.0931  152.8051 H   0  0  0  0  0  0  0  0  0  0  0  0
  147.6145  141.2052  152.2783 H   0  0  0  0  0  0  0  0  0  0  0  0
  149.1300  139.3626  152.4765 H   0  0  0  0  0  0  0  0  0  0  0  0
  149.9602  142.6281  156.2647 H   0  0  0  0  0  0  0  0  0  0  0  0
  148.6494  140.8033  157.1742 H   0  0  0  0  0  0  0  0  0  0  0  0
  148.7659  142.1579  158.2842 H   0  0  0  0  0  0  0  0  0  0  0  0
  149.6865  140.6986  158.5857 H   0  0  0  0  0  0  0  0  0  0  0  0
  151.1485  144.7319  156.7106 H   0  0  0  0  0  0  0  0  0  0  0  0
  152.9691  145.5652  158.5610 H   0  0  0  0  0  0  0  0  0  0  0  0
  153.4638  143.2653  160.0267 H   0  0  0  0  0  0  0  0  0  0  0  0
  1  2  1  0  0  0  0
  1 16  1  0  0  0  0
  1 17  1  0  0  0  0
  1 18  1  0  0  0  0
  2  3  1  0  0  0  0
  2  9  1  0  0  0  0
  2 19  1  0  0  0  0
  3  4  1  0  0  0  0
  3 20  1  0  0  0  0
  4  5  1  0  0  0  0
  4 21  1  0  0  0  0
  4 22  1  0  0  0  0
  5  6  1  0  0  0  0
  5  7  1  0  0  0  0
  5  8  1  0  0  0  0
  6 23  1  0  0  0  0
  6 24  1  0  0  0  0
  6 25  1  0  0  0  0
  7 26  1  0  0  0  0
  7 27  1  0  0  0  0
  7 28  1  0  0  0  0
  8 29  1  0  0  0  0
  9 10  1  0  0  0  0
  9 11  1  0  0  0  0
  9 30  1  0  0  0  0
 10 31  1  0  0  0  0
 10 32  1  0  0  0  0
 10 33  1  0  0  0  0
 11 15  1  0  0  0  0
 11 12  1  0  0  0  0
 12 13  2  0  0  0  0
 12 34  1  0  0  0  0
 13 14  1  0  0  0  0
 13 35  1  0  0  0  0
 14 15  2  0  0  0  0
 14 36  1  0  0  0  0
M  END
> <s_m_source_file>
AV-unprocessed.smi

> <i_m_source_file_index>
3117

> <i_lp_mmshare_version>
43012

> <i_f3d_flags>
0

> <s_epik_input>
W0NIM11DKFtDSDNdKShbT0hdKVtDSDJdW05IXVtDQEBIXShbQ0gzXSlbQ0BIXShbQ0gzXSluMVtjSF1bY0hdW2NIXW4x

> <s_epik_cmdline>
J2VwaWtfcHl0aG9uJywgJy1waCcsICc3LjAnLCAnLXRuJywgJzgnLCAnLW1hJywgJzIwMCcsICctbWV0YWxfYmluZGluZycsICctaW1hZScsICc8aW5maWxlLm1hZT4nLCAnLW9tYWUnLCAnPG91dGZpbGUubWFlPic=

> <r_lp_tautomer_probability>
1

> <r_epik_Ionization_Penalty>
2.13419

> <r_epik_Ionization_Penalty_Charging>
0

> <r_epik_Ionization_Penalty_Neutral>
2.13419

> <r_epik_State_Penalty>
2.27148

> <r_epik_Charging_Adjusted_Penalty>
2.27148

> <i_epik_Tot_Q>
0

> <i_epik_Tot_abs_Q>
0

> <r_epik_Metal_State_Penalty>
2.27029

> <b_epik_Metal_Only>
0

> <s_lp_Force_Field>
OPLS_2005

> <r_lp_Energy>
16.3619

> <b_lp_Chiralities_Consistent>
1

> <s_lp_Variant>
AV-unprocessed.smi:3117-8

> <Gold.Version>
5.8.1

> <Gold.Id.Protein>
6NUR|6NUR_protein|mol2

> <Gold.PLP.Fitness>
40.8178

> <Gold.PLP.PLP>
-35.3375

> <Gold.PLP.part.hbond>
-2.5189

> <Gold.PLP.part.metal>
0.0000

> <Gold.PLP.part.buried>
-2.3809

> <Gold.PLP.part.nonpolar>
-30.0469

> <Gold.PLP.part.repulsive>
0.0000

> <Gold.PLP.ligand.clash>
0.0000

> <Gold.PLP.ligand.torsion>
0.4088

> <Gold.PLP.Chemscore.Hbond>
1.0000

> <Gold.PLP.Chemscore.CHOScore>
1.0000

> <Gold.PLP.Chemscore.Metal>
0.0000

> <Gold.Chemscore.Hbonds>
donor molecule, donor type, donor heavy atom, donor atom, acceptor molecule, acceptor atom, score
      L1  H     8    29       P1  7957  1.00
      L1  C    12    34       P1  8028  1.00

> <Gold.PLP.Chemscore.Internal.Correction>
0.2978

> <Gold.Rescore>
     Score         DG    S(hbond)    S(metal)    S(lipo)     H(rot)  DE(clash)    DE(int)     intcor
     13.21     -13.66       1.00        0.00      89.23       2.19       0.00       0.44       ----

> <Gold.Chemscore.Fitness>
13.2084

> <Gold.Chemscore.DG>
-13.6577

> <Gold.Chemscore.ZeroCoef>
-5.4800

> <Gold.Chemscore.Hbond>
0.9998

> <Gold.Chemscore.Metal>
0.0000

> <Gold.Chemscore.Lipo>
89.2308

> <Gold.Chemscore.Internal_Hbond>
0.0000

> <Gold.Chemscore.DEClash>
0.0048

> <Gold.Chemscore.DEInternal>
0.4445

> <Gold.Chemscore.Rot>
2.1882

> <Gold.Chemscore.Internal.Correction>
   9.000000E+99

> <Gold.Chemscore.Hbonds>
donor molecule, donor type, donor heavy atom, donor atom, acceptor molecule, acceptor atom, score
      L1  H     8    29       P1  7957  0.95

> <Gold.Chemscore.Hbond.Weighted>
-3.3395

> <Gold.Chemscore.Metal.Weighted>
-0.0000

> <Gold.Chemscore.Lipo.Weighted>
-10.4400

> <Gold.Chemscore.Internal_Hbond.Weighted>
0.0000

> <Gold.Chemscore.DEClash.Weighted>
0.0048

> <Gold.Chemscore.DEInternal.Weighted>
0.4445

> <Gold.Chemscore.Rot.Weighted>
5.6018

> <Gold.Chemscore.Internal.Correction.Weighted>
   9.000000E+99

> <Gold.Protein.RotatedTorsions>
[ 6907 6896 6895 6894 ] final   -7.90 input  -60.11 | X-H torsion
[ 7974 7965 7964 7962 ] final   44.89 input  175.53 | X-H torsion
[ 8008 7997 7996 7995 ] final  121.80 input   59.86 | X-H torsion
[ 10167 10162 10161 10158 ] final   72.05 input  -65.29 | X-H torsion
[ 10718 10713 10712 10709 ] final   48.01 input   66.30 | X-H torsion
[ 10763 10752 10751 10750 ] final  -55.61 input  -60.55 | X-H torsion
[ 11005 11000 10999 10996 ] final  -54.26 input  -57.11 | X-H torsion

> <Gold.Protein.ActiveResidues>
 VAL166  LYS551  ARG553  GLY616  TRP617  ASP618  TYR619  PRO620  LYS621  CYS622 
 ASP623  PHE694  ASN695  SER759  ASP760  ASP761  ALA762  ILE779  LEU786  VAL792 
 PHE793  MET794  SER795  GLU796  ALA797  LYS798  CYS799  TRP800  GLU811  SER814 

> <Gold.Protein.RotatedAtoms>
  151.4423  135.1021  159.9673 H   0  0  0  0  0  0  0  0  0  0  0  0  # atno 6907 bound_to 6896
  152.4918  133.8517  159.7215 H   0  0  0  0  0  0  0  0  0  0  0  0  # atno 6908 bound_to 6896
  150.9079  133.6975  159.2889 H   0  0  0  0  0  0  0  0  0  0  0  0  # atno 6909 bound_to 6896
  146.0528  139.5024  142.9707 H   0  0  0  0  0  0  0  0  0  0  0  0  # atno 7974 bound_to 7965
  156.2701  140.2800  156.1365 H   0  0  0  0  0  0  0  0  0  0  0  0  # atno 8008 bound_to 7997
  155.0998  140.0389  157.2711 H   0  0  0  0  0  0  0  0  0  0  0  0  # atno 8009 bound_to 7997
  154.6824  140.2611  155.6901 H   0  0  0  0  0  0  0  0  0  0  0  0  # atno 8010 bound_to 7997
  140.0395  144.5401  150.7445 H   0  0  0  0  0  0  0  0  0  0  0  0  # atno 10167 bound_to 10162
  157.4643  130.8216  149.7920 H   0  0  0  0  0  0  0  0  0  0  0  0  # atno 10718 bound_to 10713
  154.1935  135.6423  153.5067 H   0  0  0  0  0  0  0  0  0  0  0  0  # atno 10763 bound_to 10752
  153.0029  135.5434  154.6390 H   0  0  0  0  0  0  0  0  0  0  0  0  # atno 10764 bound_to 10752
  154.5785  135.2923  155.0730 H   0  0  0  0  0  0  0  0  0  0  0  0  # atno 10765 bound_to 10752
  141.1017  133.6617  156.4294 H   0  0  0  0  0  0  0  0  0  0  0  0  # atno 11005 bound_to 11000
  145.6694  141.0220  143.1666 LP  0  0  0  0  0  0  0  0  0  0  0  0  # atno 17320 bound_to 7965
  144.7132  139.8293  143.7407 LP  0  0  0  0  0  0  0  0  0  0  0  0  # atno 17321 bound_to 7965
  140.7266  143.2643  151.4097 LP  0  0  0  0  0  0  0  0  0  0  0  0  # atno 17342 bound_to 10162
  139.6023  144.1269  152.2212 LP  0  0  0  0  0  0  0  0  0  0  0  0  # atno 17343 bound_to 10162
  156.0043  130.3863  150.2488 LP  0  0  0  0  0  0  0  0  0  0  0  0  # atno 17370 bound_to 10713
  157.0667  131.0105  151.3204 LP  0  0  0  0  0  0  0  0  0  0  0  0  # atno 17371 bound_to 10713
  140.5005  134.6490  157.5246 LP  0  0  0  0  0  0  0  0  0  0  0  0  # atno 17394 bound_to 11000
  139.9871  134.7044  155.9755 LP  0  0  0  0  0  0  0  0  0  0  0  0  # atno 17395 bound_to 11000

$$$$
