AV-unprocessed.smi:3141|AV-procd|sdf|11968|dock5
  -GOLD-   2272017363D 1   1.00000     0.00000
 Structure written by MMmdl.
 35 37  0  0  0  0  0  0  0  0  1 V2000
  150.6781  141.6609  158.5098 O   0  0  0  0  0  0  0  0  0  0  0  0
  150.1052  142.4622  157.7714 C   0  0  0  0  0  0  0  0  0  0  0  0
  150.2251  143.7932  157.8633 N   0  0  0  0  0  0  0  0  0  0  0  0
  151.0267  144.4862  158.8187 C   0  0  0  0  0  0  0  0  0  0  0  0
  152.2669  145.1925  158.3160 C   0  0  0  0  0  0  0  0  0  0  0  0
  152.4008  143.9280  159.1186 C   0  0  0  0  0  0  0  0  0  0  0  0
  149.2824  142.1076  156.7755 N   0  0  0  0  0  0  0  0  0  0  0  0
  148.9200  140.7315  156.4305 C   0  0  2  0  0  0  0  0  0  0  0  0
  150.1531  139.9593  155.9156 C   0  0  0  0  0  0  0  0  0  0  0  0
  149.9475  139.7456  154.4081 C   0  0  0  0  0  0  0  0  0  0  0  0
  148.7832  140.6545  154.0143 C   0  0  0  0  0  0  0  0  0  0  0  0
  147.9052  140.6792  155.2697 C   0  0  2  0  0  0  0  0  0  0  0  0
  146.8836  141.7218  155.3019 N   0  0  0  0  0  0  0  0  0  0  0  0
  146.5042  142.5330  154.2383 C   0  0  0  0  0  0  0  0  0  0  0  0
  145.5424  143.3935  154.7151 C   0  0  0  0  0  0  0  0  0  0  0  0
  145.3322  143.1539  156.0698 N   0  0  0  0  0  0  0  0  0  0  0  0
  146.1688  142.1630  156.3495 C   0  0  0  0  0  0  0  0  0  0  0  0
  149.7093  144.3618  157.2077 H   0  0  0  0  0  0  0  0  0  0  0  0
  150.5119  144.9611  159.6526 H   0  0  0  0  0  0  0  0  0  0  0  0
  152.4882  145.1378  157.2517 H   0  0  0  0  0  0  0  0  0  0  0  0
  152.5429  146.1266  158.8011 H   0  0  0  0  0  0  0  0  0  0  0  0
  152.7657  144.0177  160.1397 H   0  0  0  0  0  0  0  0  0  0  0  0
  152.7123  143.0290  158.5901 H   0  0  0  0  0  0  0  0  0  0  0  0
  148.8587  142.8401  156.2249 H   0  0  0  0  0  0  0  0  0  0  0  0
  148.4955  140.2414  157.3087 H   0  0  0  0  0  0  0  0  0  0  0  0
  151.0802  140.5023  156.1059 H   0  0  0  0  0  0  0  0  0  0  0  0
  150.2442  138.9975  156.4213 H   0  0  0  0  0  0  0  0  0  0  0  0
  150.8481  139.9576  153.8314 H   0  0  0  0  0  0  0  0  0  0  0  0
  149.6766  138.7055  154.2222 H   0  0  0  0  0  0  0  0  0  0  0  0
  149.1633  141.6530  153.7932 H   0  0  0  0  0  0  0  0  0  0  0  0
  148.2519  140.2929  153.1332 H   0  0  0  0  0  0  0  0  0  0  0  0
  147.3808  139.7236  155.3242 H   0  0  0  0  0  0  0  0  0  0  0  0
  146.9343  142.4280  153.2528 H   0  0  0  0  0  0  0  0  0  0  0  0
  144.9987  144.1679  154.1943 H   0  0  0  0  0  0  0  0  0  0  0  0
  146.2564  141.7517  157.3442 H   0  0  0  0  0  0  0  0  0  0  0  0
  1  2  2  0  0  0  0
  2  3  1  0  0  0  0
  2  7  1  0  0  0  0
  3  4  1  0  0  0  0
  3 18  1  0  0  0  0
  4  6  1  0  0  0  0
  4  5  1  0  0  0  0
  4 19  1  0  0  0  0
  5  6  1  0  0  0  0
  5 20  1  0  0  0  0
  5 21  1  0  0  0  0
  6 22  1  0  0  0  0
  6 23  1  0  0  0  0
  7  8  1  0  0  0  0
  7 24  1  0  0  0  0
  8 12  1  0  0  0  0
  8  9  1  0  0  0  0
  8 25  1  0  0  0  0
  9 10  1  0  0  0  0
  9 26  1  0  0  0  0
  9 27  1  0  0  0  0
 10 11  1  0  0  0  0
 10 28  1  0  0  0  0
 10 29  1  0  0  0  0
 11 12  1  0  0  0  0
 11 30  1  0  0  0  0
 11 31  1  0  0  0  0
 12 13  1  0  0  0  0
 12 32  1  0  0  0  0
 13 17  1  0  0  0  0
 13 14  1  0  0  0  0
 14 15  2  0  0  0  0
 14 33  1  0  0  0  0
 15 16  1  0  0  0  0
 15 34  1  0  0  0  0
 16 17  2  0  0  0  0
 17 35  1  0  0  0  0
M  END
> <s_m_source_file>
AV-unprocessed.smi

> <i_m_source_file_index>
3141

> <i_lp_mmshare_version>
43012

> <i_f3d_flags>
0

> <s_epik_input>
W0NIMl0xW0NIMl1bQ0hdMVtOSF1DKD1PKVtOSF1bQ0BASF0yW0NIMl1bQ0gyXVtDSDJdW0NASF0ybjNbY0hdW2NIXW5bY0hdMw==

> <s_epik_cmdline>
J2VwaWtfcHl0aG9uJywgJy1waCcsICc3LjAnLCAnLXRuJywgJzgnLCAnLW1hJywgJzIwMCcsICctbWV0YWxfYmluZGluZycsICctaW1hZScsICc8aW5maWxlLm1hZT4nLCAnLW9tYWUnLCAnPG91dGZpbGUubWFlPic=

> <r_lp_tautomer_probability>
1

> <r_epik_Ionization_Penalty>
0.728419

> <r_epik_Ionization_Penalty_Charging>
0.728357

> <r_epik_Ionization_Penalty_Neutral>
6.27871e-05

> <r_epik_State_Penalty>
0.753408

> <r_epik_Charging_Adjusted_Penalty>
1.48176

> <i_epik_Tot_Q>
0

> <i_epik_Tot_abs_Q>
0

> <r_epik_Metal_State_Penalty>
0.332413

> <b_epik_Metal_Only>
0

> <s_lp_Force_Field>
OPLS_2005

> <r_lp_Energy>
36.3958

> <b_lp_Chiralities_Consistent>
1

> <s_lp_Variant>
AV-unprocessed.smi:3141-7

> <Gold.Version>
5.8.1

> <Gold.Id.Protein>
6NUR|6NUR_protein|mol2

> <Gold.PLP.Fitness>
38.2370

> <Gold.PLP.PLP>
-33.1884

> <Gold.PLP.part.hbond>
-2.4670

> <Gold.PLP.part.metal>
0.0000

> <Gold.PLP.part.buried>
-4.6365

> <Gold.PLP.part.nonpolar>
-26.9236

> <Gold.PLP.part.repulsive>
0.2045

> <Gold.PLP.ligand.clash>
0.0000

> <Gold.PLP.ligand.torsion>
0.5068

> <Gold.PLP.Chemscore.Hbond>
2.0000

> <Gold.PLP.Chemscore.CHOScore>
0.0000

> <Gold.PLP.Chemscore.Metal>
0.0000

> <Gold.Chemscore.Hbonds>
donor molecule, donor type, donor heavy atom, donor atom, acceptor molecule, acceptor atom, score
      L1  H     3    18       P1  8028  1.00
      L1  H     7    24       P1  8028  0.96

> <Gold.PLP.Chemscore.Internal.Correction>
0.0621

> <Gold.Rescore>
     Score         DG    S(hbond)    S(metal)    S(lipo)     H(rot)  DE(clash)    DE(int)     intcor
     15.09     -15.43       1.53        0.00      75.73       1.57       0.09       0.25       ----

> <Gold.Chemscore.Fitness>
15.0937

> <Gold.Chemscore.DG>
-15.4343

> <Gold.Chemscore.ZeroCoef>
-5.4800

> <Gold.Chemscore.Hbond>
1.5314

> <Gold.Chemscore.Metal>
0.0000

> <Gold.Chemscore.Lipo>
75.7276

> <Gold.Chemscore.Internal_Hbond>
0.0000

> <Gold.Chemscore.DEClash>
0.0931

> <Gold.Chemscore.DEInternal>
0.2475

> <Gold.Chemscore.Rot>
1.5705

> <Gold.Chemscore.Internal.Correction>
   9.000000E+99

> <Gold.Chemscore.Hbonds>
donor molecule, donor type, donor heavy atom, donor atom, acceptor molecule, acceptor atom, score
      L1  H     3    18       P1  8028  0.30
      L1  H     7    24       P1  8028  0.91

> <Gold.Chemscore.Hbond.Weighted>
-5.1148

> <Gold.Chemscore.Metal.Weighted>
-0.0000

> <Gold.Chemscore.Lipo.Weighted>
-8.8601

> <Gold.Chemscore.Internal_Hbond.Weighted>
0.0000

> <Gold.Chemscore.DEClash.Weighted>
0.0931

> <Gold.Chemscore.DEInternal.Weighted>
0.2475

> <Gold.Chemscore.Rot.Weighted>
4.0206

> <Gold.Chemscore.Internal.Correction.Weighted>
   9.000000E+99

> <Gold.Protein.RotatedTorsions>
[ 6907 6896 6895 6894 ] final   20.07 input  -60.11 | X-H torsion
[ 7974 7965 7964 7962 ] final  135.28 input  175.53 | X-H torsion
[ 8008 7997 7996 7995 ] final  -74.14 input   59.86 | X-H torsion
[ 10167 10162 10161 10158 ] final -164.69 input  -65.29 | X-H torsion
[ 10718 10713 10712 10709 ] final  -62.33 input   66.30 | X-H torsion
[ 10763 10752 10751 10750 ] final   69.28 input  -60.55 | X-H torsion
[ 11005 11000 10999 10996 ] final  -94.35 input  -57.11 | X-H torsion

> <Gold.Protein.ActiveResidues>
 VAL166  LYS551  ARG553  GLY616  TRP617  ASP618  TYR619  PRO620  LYS621  CYS622 
 ASP623  PHE694  ASN695  SER759  ASP760  ASP761  ALA762  ILE779  LEU786  VAL792 
 PHE793  MET794  SER795  GLU796  ALA797  LYS798  CYS799  TRP800  GLU811  SER814 

> <Gold.Protein.RotatedAtoms>
  151.8907  135.0417  160.0497 H   0  0  0  0  0  0  0  0  0  0  0  0  # atno 6907 bound_to 6896
  152.2438  133.5153  159.5294 H   0  0  0  0  0  0  0  0  0  0  0  0  # atno 6908 bound_to 6896
  150.7062  134.0969  159.3994 H   0  0  0  0  0  0  0  0  0  0  0  0  # atno 6909 bound_to 6896
  144.9679  139.4638  143.5447 H   0  0  0  0  0  0  0  0  0  0  0  0  # atno 7974 bound_to 7965
  154.5306  140.0766  156.8337 H   0  0  0  0  0  0  0  0  0  0  0  0  # atno 8008 bound_to 7997
  155.3384  140.3406  155.4221 H   0  0  0  0  0  0  0  0  0  0  0  0  # atno 8009 bound_to 7997
  156.1777  140.1641  156.8319 H   0  0  0  0  0  0  0  0  0  0  0  0  # atno 8010 bound_to 7997
  139.6233  144.0581  152.1952 H   0  0  0  0  0  0  0  0  0  0  0  0  # atno 10167 bound_to 10162
  156.0862  130.4208  150.1120 H   0  0  0  0  0  0  0  0  0  0  0  0  # atno 10718 bound_to 10713
  153.0279  135.5216  154.7264 H   0  0  0  0  0  0  0  0  0  0  0  0  # atno 10763 bound_to 10752
  154.6305  135.2899  155.0224 H   0  0  0  0  0  0  0  0  0  0  0  0  # atno 10764 bound_to 10752
  154.1178  135.6612  153.4950 H   0  0  0  0  0  0  0  0  0  0  0  0  # atno 10765 bound_to 10752
  141.1473  133.7950  157.0286 H   0  0  0  0  0  0  0  0  0  0  0  0  # atno 11005 bound_to 11000
  146.3373  139.8872  142.8815 LP  0  0  0  0  0  0  0  0  0  0  0  0  # atno 17320 bound_to 7965
  145.2602  141.0074  143.3830 LP  0  0  0  0  0  0  0  0  0  0  0  0  # atno 17321 bound_to 7965
  140.0228  144.6140  150.7552 LP  0  0  0  0  0  0  0  0  0  0  0  0  # atno 17342 bound_to 10162
  140.7396  143.2793  151.3647 LP  0  0  0  0  0  0  0  0  0  0  0  0  # atno 17343 bound_to 10162
  156.9140  130.9661  151.3558 LP  0  0  0  0  0  0  0  0  0  0  0  0  # atno 17370 bound_to 10713
  157.5997  130.8503  149.8783 LP  0  0  0  0  0  0  0  0  0  0  0  0  # atno 17371 bound_to 10713
  140.0768  134.9671  157.1559 LP  0  0  0  0  0  0  0  0  0  0  0  0  # atno 17394 bound_to 11000
  140.3632  134.2471  155.7185 LP  0  0  0  0  0  0  0  0  0  0  0  0  # atno 17395 bound_to 11000

$$$$
