AV-unprocessed.smi:2888|AV-procd|sdf|11107|dock3
  -GOLD-   2272015573D 1   1.00000     0.00000
 Structure written by MMmdl.
 34 36  0  0  0  0  0  0  0  0  2 V2000
  151.6889  138.3805  154.9763 C   0  0  0  0  0  0  0  0  0  0  0  0
  150.7211  139.5368  155.1116 C   0  0  0  0  0  0  0  0  0  0  0  0
  149.5489  139.6130  154.3400 C   0  0  0  0  0  0  0  0  0  0  0  0
  148.7229  140.7331  154.5545 C   0  0  0  0  0  0  0  0  0  0  0  0
  147.4336  140.9397  153.7880 C   0  0  0  0  0  0  0  0  0  0  0  0
  149.0739  141.6722  155.4689 N   0  3  0  0  0  0  0  0  0  0  0  0
  150.2118  141.5367  156.1676 C   0  0  0  0  0  0  0  0  0  0  0  0
  150.5240  142.5286  157.0795 N   0  0  0  0  0  0  0  0  0  0  0  0
  151.7197  142.5289  157.9135 C   0  0  1  0  0  0  0  0  0  0  0  0
  151.9143  143.8429  158.6815 C   0  0  0  0  0  0  0  0  0  0  0  0
  151.9795  143.3543  160.1338 C   0  0  2  0  0  0  0  0  0  0  0  0
  153.2626  142.5647  160.4247 C   0  0  0  0  0  0  0  0  0  0  0  0
  152.9938  141.2507  159.6915 C   0  0  0  0  0  0  0  0  0  0  0  0
  151.6181  141.5138  159.0639 C   0  0  1  0  0  0  0  0  0  0  0  0
  151.0302  142.3041  160.0846 O   0  0  0  0  0  0  0  0  0  0  0  0
  151.0378  140.4923  156.0084 N   0  0  0  0  0  0  0  0  0  0  0  0
  151.3102  137.6286  154.2832 H   0  0  0  0  0  0  0  0  0  0  0  0
  151.8476  137.9016  155.9432 H   0  0  0  0  0  0  0  0  0  0  0  0
  152.6512  138.7330  154.6043 H   0  0  0  0  0  0  0  0  0  0  0  0
  149.2942  138.8504  153.6179 H   0  0  0  0  0  0  0  0  0  0  0  0
  147.2008  140.0727  153.1688 H   0  0  0  0  0  0  0  0  0  0  0  0
  147.5164  141.8107  153.1376 H   0  0  0  0  0  0  0  0  0  0  0  0
  146.6019  141.0993  154.4747 H   0  0  0  0  0  0  0  0  0  0  0  0
  149.9573  143.3641  157.0695 H   0  0  0  0  0  0  0  0  0  0  0  0
  152.5851  142.2999  157.2899 H   0  0  0  0  0  0  0  0  0  0  0  0
  152.8172  144.3751  158.3809 H   0  0  0  0  0  0  0  0  0  0  0  0
  151.0662  144.5170  158.5504 H   0  0  0  0  0  0  0  0  0  0  0  0
  151.7578  144.1267  160.8706 H   0  0  0  0  0  0  0  0  0  0  0  0
  154.1548  143.0778  160.0641 H   0  0  0  0  0  0  0  0  0  0  0  0
  153.3779  142.3889  161.4949 H   0  0  0  0  0  0  0  0  0  0  0  0
  153.7555  141.0162  158.9471 H   0  0  0  0  0  0  0  0  0  0  0  0
  152.9424  140.4226  160.3996 H   0  0  0  0  0  0  0  0  0  0  0  0
  151.0701  140.6029  158.8191 H   0  0  0  0  0  0  0  0  0  0  0  0
  148.4669  142.4794  155.6132 H   0  0  0  0  0  0  0  0  0  0  0  0
  1  2  1  0  0  0  0
  1 17  1  0  0  0  0
  1 18  1  0  0  0  0
  1 19  1  0  0  0  0
  2 16  1  0  0  0  0
  2  3  2  0  0  0  0
  3  4  1  0  0  0  0
  3 20  1  0  0  0  0
  4  5  1  0  0  0  0
  4  6  2  0  0  0  0
  5 21  1  0  0  0  0
  5 22  1  0  0  0  0
  5 23  1  0  0  0  0
  6  7  1  0  0  0  0
  6 34  1  0  0  0  0
  7  8  1  0  0  0  0
  7 16  2  0  0  0  0
  8  9  1  0  0  0  0
  8 24  1  0  0  0  0
  9 14  1  0  0  0  0
  9 10  1  0  0  0  0
  9 25  1  0  0  0  0
 10 11  1  0  0  0  0
 10 26  1  0  0  0  0
 10 27  1  0  0  0  0
 11 15  1  0  0  0  0
 11 12  1  0  0  0  0
 11 28  1  0  0  0  0
 12 13  1  0  0  0  0
 12 29  1  0  0  0  0
 12 30  1  0  0  0  0
 13 14  1  0  0  0  0
 13 31  1  0  0  0  0
 13 32  1  0  0  0  0
 14 15  1  0  0  0  0
 14 33  1  0  0  0  0
M  CHG  1   6   1
M  END
> <s_m_source_file>
AV-unprocessed.smi

> <i_m_source_file_index>
2888

> <i_lp_mmshare_version>
43012

> <i_f3d_flags>
0

> <s_epik_input>
W0NIM11jMVtjSF1jKFtDSDNdKW5jKG4xKVtOSF1bQ0BIXShbQ0gyXVtDQEBIXTIzKVtDQEBIXShPMylbQ0gyXVtDSDJdMg==

> <s_epik_cmdline>
J2VwaWtfcHl0aG9uJywgJy1waCcsICc3LjAnLCAnLXRuJywgJzgnLCAnLW1hJywgJzIwMCcsICctbWV0YWxfYmluZGluZycsICctaW1hZScsICc8aW5maWxlLm1hZT4nLCAnLW9tYWUnLCAnPG91dGZpbGUubWFlPic=

> <r_lp_tautomer_probability>
0.505494

> <r_epik_Ionization_Penalty>
2.49163

> <r_epik_Ionization_Penalty_Charging>
2.49163

> <r_epik_Ionization_Penalty_Neutral>
3.7631e-06

> <r_epik_State_Penalty>
2.656

> <r_epik_Charging_Adjusted_Penalty>
5.14762

> <i_epik_Tot_Q>
1

> <i_epik_Tot_abs_Q>
1

> <r_epik_Metal_State_Penalty>
2.66479

> <b_epik_Metal_Only>
0

> <s_lp_Force_Field>
OPLS_2005

> <r_lp_Energy>
35.8908

> <b_lp_Chiralities_Consistent>
1

> <s_lp_Variant>
AV-unprocessed.smi:2888-8

> <Gold.Version>
5.8.1

> <Gold.Id.Protein>
6NUR|6NUR_protein|mol2

> <Gold.PLP.Fitness>
49.8501

> <Gold.PLP.PLP>
-39.0357

> <Gold.PLP.part.hbond>
-3.0000

> <Gold.PLP.part.metal>
0.0000

> <Gold.PLP.part.buried>
-4.9268

> <Gold.PLP.part.nonpolar>
-31.7679

> <Gold.PLP.part.repulsive>
0.2443

> <Gold.PLP.ligand.clash>
0.0000

> <Gold.PLP.ligand.torsion>
0.1225

> <Gold.PLP.Chemscore.Hbond>
3.6800

> <Gold.PLP.Chemscore.CHOScore>
0.0000

> <Gold.PLP.Chemscore.Metal>
0.0000

> <Gold.Chemscore.Hbonds>
donor molecule, donor type, donor heavy atom, donor atom, acceptor molecule, acceptor atom, score
      L1  H     6    34       P1  8028  0.53
      L1  H     8    24       P1  8028  0.87

> <Gold.PLP.Chemscore.Internal.Correction>
0.0193

> <Gold.Rescore>
     Score         DG    S(hbond)    S(metal)    S(lipo)     H(rot)  DE(clash)    DE(int)     intcor
     19.75     -19.94       1.80        0.00      94.09       1.00       0.10       0.08       ----

> <Gold.Chemscore.Fitness>
19.7534

> <Gold.Chemscore.DG>
-19.9387

> <Gold.Chemscore.ZeroCoef>
-5.4800

> <Gold.Chemscore.Hbond>
1.7994

> <Gold.Chemscore.Metal>
0.0000

> <Gold.Chemscore.Lipo>
94.0900

> <Gold.Chemscore.Internal_Hbond>
0.0000

> <Gold.Chemscore.DEClash>
0.1019

> <Gold.Chemscore.DEInternal>
0.0833

> <Gold.Chemscore.Rot>
1.0000

> <Gold.Chemscore.Internal.Correction>
   9.000000E+99

> <Gold.Chemscore.Hbonds>
donor molecule, donor type, donor heavy atom, donor atom, acceptor molecule, acceptor atom, score
      L1  H     6    34       P1  8028  0.27
      L1  H     8    24       P1  8028  0.43

> <Gold.Chemscore.Hbond.Weighted>
-6.0101

> <Gold.Chemscore.Metal.Weighted>
-0.0000

> <Gold.Chemscore.Lipo.Weighted>
-11.0085

> <Gold.Chemscore.Internal_Hbond.Weighted>
0.0000

> <Gold.Chemscore.DEClash.Weighted>
0.1019

> <Gold.Chemscore.DEInternal.Weighted>
0.0833

> <Gold.Chemscore.Rot.Weighted>
2.5600

> <Gold.Chemscore.Internal.Correction.Weighted>
   9.000000E+99

> <Gold.Protein.RotatedTorsions>
[ 6907 6896 6895 6894 ] final   22.12 input  -60.11 | X-H torsion
[ 7974 7965 7964 7962 ] final  -32.59 input  175.53 | X-H torsion
[ 8008 7997 7996 7995 ] final  160.90 input   59.86 | X-H torsion
[ 10167 10162 10161 10158 ] final   42.24 input  -65.29 | X-H torsion
[ 10718 10713 10712 10709 ] final  -71.26 input   66.30 | X-H torsion
[ 10763 10752 10751 10750 ] final   25.73 input  -60.55 | X-H torsion
[ 11005 11000 10999 10996 ] final  -14.46 input  -57.11 | X-H torsion

> <Gold.Protein.ActiveResidues>
 VAL166  LYS551  ARG553  GLY616  TRP617  ASP618  TYR619  PRO620  LYS621  CYS622 
 ASP623  PHE694  ASN695  SER759  ASP760  ASP761  ALA762  ILE779  LEU786  VAL792 
 PHE793  MET794  SER795  GLU796  ALA797  LYS798  CYS799  TRP800  GLU811  SER814 

> <Gold.Protein.RotatedAtoms>
  151.9223  135.0293  160.0522 H   0  0  0  0  0  0  0  0  0  0  0  0  # atno 6907 bound_to 6896
  152.2189  133.4963  159.5159 H   0  0  0  0  0  0  0  0  0  0  0  0  # atno 6908 bound_to 6896
  150.6994  134.1286  159.4104 H   0  0  0  0  0  0  0  0  0  0  0  0  # atno 6909 bound_to 6896
  146.0978  140.5812  142.8835 H   0  0  0  0  0  0  0  0  0  0  0  0  # atno 7974 bound_to 7965
  156.2141  140.1792  156.7629 H   0  0  0  0  0  0  0  0  0  0  0  0  # atno 8008 bound_to 7997
  154.5765  140.0673  156.9071 H   0  0  0  0  0  0  0  0  0  0  0  0  # atno 8009 bound_to 7997
  155.2579  140.3333  155.4278 H   0  0  0  0  0  0  0  0  0  0  0  0  # atno 8010 bound_to 7997
  140.3563  144.2285  150.6141 H   0  0  0  0  0  0  0  0  0  0  0  0  # atno 10167 bound_to 10162
  156.0371  130.4348  150.2418 H   0  0  0  0  0  0  0  0  0  0  0  0  # atno 10718 bound_to 10713
  153.0671  135.6576  154.0330 H   0  0  0  0  0  0  0  0  0  0  0  0  # atno 10763 bound_to 10752
  153.9984  135.2939  155.3406 H   0  0  0  0  0  0  0  0  0  0  0  0  # atno 10764 bound_to 10752
  154.7033  135.5236  153.8627 H   0  0  0  0  0  0  0  0  0  0  0  0  # atno 10765 bound_to 10752
  140.7867  133.8320  155.9341 H   0  0  0  0  0  0  0  0  0  0  0  0  # atno 11005 bound_to 11000
  144.7408  140.4938  143.6870 LP  0  0  0  0  0  0  0  0  0  0  0  0  # atno 17320 bound_to 7965
  145.5915  139.1496  143.3180 LP  0  0  0  0  0  0  0  0  0  0  0  0  # atno 17321 bound_to 7965
  140.5170  143.2275  151.8448 LP  0  0  0  0  0  0  0  0  0  0  0  0  # atno 17342 bound_to 10162
  139.4819  144.4882  151.9219 LP  0  0  0  0  0  0  0  0  0  0  0  0  # atno 17343 bound_to 10162
  157.0516  131.0064  151.3252 LP  0  0  0  0  0  0  0  0  0  0  0  0  # atno 17370 bound_to 10713
  157.5136  130.7954  149.7732 LP  0  0  0  0  0  0  0  0  0  0  0  0  # atno 17371 bound_to 10713
  140.9430  134.1876  157.4784 LP  0  0  0  0  0  0  0  0  0  0  0  0  # atno 17394 bound_to 11000
  139.8736  134.9879  156.5390 LP  0  0  0  0  0  0  0  0  0  0  0  0  # atno 17395 bound_to 11000

$$$$
