AV-unprocessed.smi:1401|AV-procd|sdf|5695|dock4
  -GOLD-   22720 5323D 1   1.00000     0.00000
 Structure written by MMmdl.
 48 50  0  0  0  0  0  0  0  0  1 V2000
  146.5819  137.6870  155.1876 C   0  0  0  0  0  0  0  0  0  0  0  0
  148.0328  137.2878  155.2019 C   0  0  0  0  0  0  0  0  0  0  0  0
  148.8958  138.2313  155.0133 N   0  0  0  0  0  0  0  0  0  0  0  0
  150.2525  137.9720  154.9971 N   0  0  0  0  0  0  0  0  0  0  0  0
  151.0884  139.1508  154.7270 C   0  0  0  0  0  0  0  0  0  0  0  0
  151.6529  139.7667  156.0137 C   0  0  0  0  0  0  0  0  0  0  0  0
  152.8546  139.6776  156.2677 O   0  0  0  0  0  0  0  0  0  0  0  0
  150.7686  140.3854  156.8118 N   0  0  0  0  0  0  0  0  0  0  0  0
  151.0528  140.9693  158.1216 C   0  0  1  0  0  0  0  0  0  0  0  0
  151.9181  139.9849  158.9228 C   0  0  0  0  0  0  0  0  0  0  0  0
  151.7391  142.3462  157.9377 C   0  0  1  0  0  0  0  0  0  0  0  0
  150.7826  143.5620  157.8964 C   0  0  0  0  0  0  0  0  0  0  0  0
  151.4272  144.5459  158.8895 C   0  0  1  0  0  0  0  0  0  0  0  0
  151.1762  144.0451  160.3233 C   0  0  0  0  0  0  0  0  0  0  0  0
  152.1181  142.8318  160.4257 C   0  0  0  0  0  0  0  0  0  0  0  0
  152.7582  142.7741  159.0231 C   0  0  2  0  0  0  0  0  0  0  0  0
  152.9134  144.2592  158.7105 C   0  0  0  0  0  0  0  0  0  0  0  0
  150.8106  136.7415  155.1904 C   0  0  0  0  0  0  0  0  0  0  0  0
  152.0291  136.5570  155.1793 O   0  0  0  0  0  0  0  0  0  0  0  0
  149.8270  135.6780  155.4029 C   0  0  0  0  0  0  0  0  0  0  0  0
  150.3686  134.3713  155.5930 C   0  0  0  0  0  0  0  0  0  0  0  0
  150.8001  133.3057  155.7286 N   0  0  0  0  0  0  0  0  0  0  0  0
  148.4922  135.9186  155.4133 C   0  0  0  0  0  0  0  0  0  0  0  0
  147.4313  134.8476  155.6260 C   0  0  0  0  0  0  0  0  0  0  0  0
  146.1306  137.5370  156.1685 H   0  0  0  0  0  0  0  0  0  0  0  0
  146.0231  137.0947  154.4629 H   0  0  0  0  0  0  0  0  0  0  0  0
  146.4519  138.7368  154.9209 H   0  0  0  0  0  0  0  0  0  0  0  0
  151.9287  138.8859  154.0827 H   0  0  0  0  0  0  0  0  0  0  0  0
  150.5136  139.8939  154.1708 H   0  0  0  0  0  0  0  0  0  0  0  0
  149.8059  140.4121  156.5083 H   0  0  0  0  0  0  0  0  0  0  0  0
  150.1174  141.1015  158.6654 H   0  0  0  0  0  0  0  0  0  0  0  0
  152.1005  140.3489  159.9339 H   0  0  0  0  0  0  0  0  0  0  0  0
  152.8859  139.8257  158.4460 H   0  0  0  0  0  0  0  0  0  0  0  0
  151.4269  139.0154  159.0127 H   0  0  0  0  0  0  0  0  0  0  0  0
  152.2765  142.3170  156.9876 H   0  0  0  0  0  0  0  0  0  0  0  0
  150.7438  143.9844  156.8916 H   0  0  0  0  0  0  0  0  0  0  0  0
  149.7612  143.3182  158.1895 H   0  0  0  0  0  0  0  0  0  0  0  0
  151.1328  145.5837  158.7311 H   0  0  0  0  0  0  0  0  0  0  0  0
  151.4490  144.8055  161.0559 H   0  0  0  0  0  0  0  0  0  0  0  0
  150.1327  143.7771  160.4922 H   0  0  0  0  0  0  0  0  0  0  0  0
  152.8823  143.0128  161.1826 H   0  0  0  0  0  0  0  0  0  0  0  0
  151.6002  141.9157  160.7058 H   0  0  0  0  0  0  0  0  0  0  0  0
  153.6913  142.2110  158.9931 H   0  0  0  0  0  0  0  0  0  0  0  0
  153.2732  144.4567  157.6990 H   0  0  0  0  0  0  0  0  0  0  0  0
  153.5457  144.7900  159.4246 H   0  0  0  0  0  0  0  0  0  0  0  0
  147.8657  133.8846  155.8927 H   0  0  0  0  0  0  0  0  0  0  0  0
  146.8484  134.7068  154.7151 H   0  0  0  0  0  0  0  0  0  0  0  0
  146.7514  135.1293  156.4308 H   0  0  0  0  0  0  0  0  0  0  0  0
  1  2  1  0  0  0  0
  1 25  1  0  0  0  0
  1 26  1  0  0  0  0
  1 27  1  0  0  0  0
  2 23  1  0  0  0  0
  2  3  2  0  0  0  0
  3  4  1  0  0  0  0
  4  5  1  0  0  0  0
  4 18  1  0  0  0  0
  5  6  1  0  0  0  0
  5 28  1  0  0  0  0
  5 29  1  0  0  0  0
  6  7  2  0  0  0  0
  6  8  1  0  0  0  0
  8  9  1  0  0  0  0
  8 30  1  0  0  0  0
  9 10  1  0  0  0  0
  9 11  1  0  0  0  0
  9 31  1  0  0  0  0
 10 32  1  0  0  0  0
 10 33  1  0  0  0  0
 10 34  1  0  0  0  0
 11 16  1  0  0  0  0
 11 12  1  0  0  0  0
 11 35  1  0  0  0  0
 12 13  1  0  0  0  0
 12 36  1  0  0  0  0
 12 37  1  0  0  0  0
 13 17  1  0  0  0  0
 13 14  1  0  0  0  0
 13 38  1  0  0  0  0
 14 15  1  0  0  0  0
 14 39  1  0  0  0  0
 14 40  1  0  0  0  0
 15 16  1  0  0  0  0
 15 41  1  0  0  0  0
 15 42  1  0  0  0  0
 16 17  1  0  0  0  0
 16 43  1  0  0  0  0
 17 44  1  0  0  0  0
 17 45  1  0  0  0  0
 18 19  2  0  0  0  0
 18 20  1  0  0  0  0
 20 21  1  0  0  0  0
 20 23  2  0  0  0  0
 21 22  3  0  0  0  0
 23 24  1  0  0  0  0
 24 46  1  0  0  0  0
 24 47  1  0  0  0  0
 24 48  1  0  0  0  0
M  END
> <s_m_source_file>
AV-unprocessed.smi

> <i_m_source_file_index>
1401

> <i_lp_mmshare_version>
43012

> <i_f3d_flags>
0

> <s_epik_input>
TiNDYyhjMVtDSDNdKWMoPU8pbihuYzFbQ0gzXSlbQ0gyXUMoPU8pW05IXVtDQEhdKFtDSDNdKVtDQEhdKFtDSDJdW0NASF0yMylbQ0BIXShbQ0gyXTMpW0NIMl1bQ0gyXTI=

> <s_epik_cmdline>
J2VwaWtfcHl0aG9uJywgJy1waCcsICc3LjAnLCAnLXRuJywgJzgnLCAnLW1hJywgJzIwMCcsICctbWV0YWxfYmluZGluZycsICctaW1hZScsICc8aW5maWxlLm1hZT4nLCAnLW9tYWUnLCAnPG91dGZpbGUubWFlPic=

> <r_lp_tautomer_probability>
1

> <r_epik_Ionization_Penalty>
2.16501e-08

> <r_epik_Ionization_Penalty_Charging>
2.29436e-11

> <r_epik_Ionization_Penalty_Neutral>
2.16271e-08

> <r_epik_State_Penalty>
-0

> <r_epik_Charging_Adjusted_Penalty>
2.29436e-11

> <i_epik_Tot_Q>
0

> <i_epik_Tot_abs_Q>
0

> <r_epik_Metal_State_Penalty>
-0

> <b_epik_Metal_Only>
0

> <s_lp_Force_Field>
OPLS_2005

> <r_lp_Energy>
66.0828

> <b_lp_Chiralities_Consistent>
1

> <s_lp_Variant>
AV-unprocessed.smi:1401-8

> <Gold.Version>
5.8.1

> <Gold.Id.Protein>
6NUR|6NUR_protein|mol2

> <Gold.PLP.Fitness>
43.8974

> <Gold.PLP.PLP>
-40.8357

> <Gold.PLP.part.hbond>
-1.8423

> <Gold.PLP.part.metal>
0.0000

> <Gold.PLP.part.buried>
-5.2347

> <Gold.PLP.part.nonpolar>
-34.0313

> <Gold.PLP.part.repulsive>
0.2852

> <Gold.PLP.ligand.clash>
0.0000

> <Gold.PLP.ligand.torsion>
1.4730

> <Gold.PLP.Chemscore.Hbond>
2.0000

> <Gold.PLP.Chemscore.CHOScore>
0.0000

> <Gold.PLP.Chemscore.Metal>
0.0000

> <Gold.Chemscore.Hbonds>
donor molecule, donor type, donor heavy atom, donor atom, acceptor molecule, acceptor atom, score
      P1  H  7997  8009       L1     7  1.00
      P1  H 10752 10763       L1    19  0.81

> <Gold.PLP.Chemscore.Internal.Correction>
0.0077

> <Gold.Rescore>
     Score         DG    S(hbond)    S(metal)    S(lipo)     H(rot)  DE(clash)    DE(int)     intcor
     17.28     -20.35       1.98        0.00     106.15       1.63       0.08       2.99       ----

> <Gold.Chemscore.Fitness>
17.2755

> <Gold.Chemscore.DG>
-20.3497

> <Gold.Chemscore.ZeroCoef>
-5.4800

> <Gold.Chemscore.Hbond>
1.9813

> <Gold.Chemscore.Metal>
0.0000

> <Gold.Chemscore.Lipo>
106.1528

> <Gold.Chemscore.Internal_Hbond>
0.0000

> <Gold.Chemscore.DEClash>
0.0811

> <Gold.Chemscore.DEInternal>
2.9931

> <Gold.Chemscore.Rot>
1.6281

> <Gold.Chemscore.Internal.Correction>
   9.000000E+99

> <Gold.Chemscore.Hbonds>
donor molecule, donor type, donor heavy atom, donor atom, acceptor molecule, acceptor atom, score
      P1  H  7997  8009       L1     7  0.97
      P1  H 10752 10763       L1    19  0.78

> <Gold.Chemscore.Hbond.Weighted>
-6.6177

> <Gold.Chemscore.Metal.Weighted>
-0.0000

> <Gold.Chemscore.Lipo.Weighted>
-12.4199

> <Gold.Chemscore.Internal_Hbond.Weighted>
0.0000

> <Gold.Chemscore.DEClash.Weighted>
0.0811

> <Gold.Chemscore.DEInternal.Weighted>
2.9931

> <Gold.Chemscore.Rot.Weighted>
4.1678

> <Gold.Chemscore.Internal.Correction.Weighted>
   9.000000E+99

> <Gold.Protein.RotatedTorsions>
[ 6907 6896 6895 6894 ] final    1.15 input  -60.11 | X-H torsion
[ 7974 7965 7964 7962 ] final -120.73 input  175.53 | X-H torsion
[ 8008 7997 7996 7995 ] final -153.60 input   59.86 | X-H torsion
[ 10167 10162 10161 10158 ] final  116.69 input  -65.29 | X-H torsion
[ 10718 10713 10712 10709 ] final  159.24 input   66.30 | X-H torsion
[ 10763 10752 10751 10750 ] final   75.74 input  -60.55 | X-H torsion
[ 11005 11000 10999 10996 ] final -169.53 input  -57.11 | X-H torsion

> <Gold.Protein.ActiveResidues>
 VAL166  LYS551  ARG553  GLY616  TRP617  ASP618  TYR619  PRO620  LYS621  CYS622 
 ASP623  PHE694  ASN695  SER759  ASP760  ASP761  ALA762  ILE779  LEU786  VAL792 
 PHE793  MET794  SER795  GLU796  ALA797  LYS798  CYS799  TRP800  GLU811  SER814 

> <Gold.Protein.RotatedAtoms>
  151.5880  135.1055  160.0032 H   0  0  0  0  0  0  0  0  0  0  0  0  # atno 6907 bound_to 6896
  152.4321  133.7291  159.6588 H   0  0  0  0  0  0  0  0  0  0  0  0  # atno 6908 bound_to 6896
  150.8214  133.8175  159.3160 H   0  0  0  0  0  0  0  0  0  0  0  0  # atno 6909 bound_to 6896
  145.0481  140.8197  143.4226 H   0  0  0  0  0  0  0  0  0  0  0  0  # atno 7974 bound_to 7965
  155.6734  140.0736  157.2511 H   0  0  0  0  0  0  0  0  0  0  0  0  # atno 8008 bound_to 7997
  154.4119  140.1695  156.1955 H   0  0  0  0  0  0  0  0  0  0  0  0  # atno 8009 bound_to 7997
  155.9597  140.3371  155.6483 H   0  0  0  0  0  0  0  0  0  0  0  0  # atno 8010 bound_to 7997
  139.6229  144.7104  151.2595 H   0  0  0  0  0  0  0  0  0  0  0  0  # atno 10167 bound_to 10162
  157.1669  131.0600  151.2203 H   0  0  0  0  0  0  0  0  0  0  0  0  # atno 10718 bound_to 10713
  153.0676  135.4977  154.8234 H   0  0  0  0  0  0  0  0  0  0  0  0  # atno 10763 bound_to 10752
  154.6976  135.2995  154.9391 H   0  0  0  0  0  0  0  0  0  0  0  0  # atno 10764 bound_to 10752
  154.0125  135.6752  153.4819 H   0  0  0  0  0  0  0  0  0  0  0  0  # atno 10765 bound_to 10752
  140.5297  134.5628  157.5071 H   0  0  0  0  0  0  0  0  0  0  0  0  # atno 11005 bound_to 11000
  145.1562  139.2485  143.5415 LP  0  0  0  0  0  0  0  0  0  0  0  0  # atno 17320 bound_to 7965
  146.3515  140.1277  142.8598 LP  0  0  0  0  0  0  0  0  0  0  0  0  # atno 17321 bound_to 7965
  140.7393  143.6621  150.8155 LP  0  0  0  0  0  0  0  0  0  0  0  0  # atno 17342 bound_to 10162
  140.0235  143.5518  152.2790 LP  0  0  0  0  0  0  0  0  0  0  0  0  # atno 17343 bound_to 10162
  157.4080  130.7369  149.6817 LP  0  0  0  0  0  0  0  0  0  0  0  0  # atno 17370 bound_to 10713
  155.9744  130.4103  150.3922 LP  0  0  0  0  0  0  0  0  0  0  0  0  # atno 17371 bound_to 10713
  139.9561  134.7533  156.0339 LP  0  0  0  0  0  0  0  0  0  0  0  0  # atno 17394 bound_to 11000
  141.1288  133.6592  156.3409 LP  0  0  0  0  0  0  0  0  0  0  0  0  # atno 17395 bound_to 11000

$$$$
