AV-unprocessed.smi:2514|AV-procd|sdf|9896|dock8
  -GOLD-   2272013533D 1   1.00000     0.00000
 Structure written by MMmdl.
 24 25  0  0  0  0  0  0  0  0  1 V2000
  147.8802  141.6485  154.7057 C   0  0  0  0  0  0  0  0  0  0  0  0
  149.0837  140.6981  154.6736 C   0  0  1  0  0  0  0  0  0  0  0  0
  149.7701  140.8414  153.4464 O   0  0  0  0  0  0  0  0  0  0  0  0
  150.0732  140.9802  155.7693 C   0  0  0  0  0  0  0  0  0  0  0  0
  150.0213  141.9431  156.7372 C   0  0  0  0  0  0  0  0  0  0  0  0
  151.1819  141.7417  157.4539 N   0  0  0  0  0  0  0  0  0  0  0  0
  151.6404  142.4862  158.5913 C   0  0  0  0  0  0  0  0  0  0  0  0
  152.1574  143.9237  158.4712 C   0  0  0  0  0  0  0  0  0  0  0  0
  153.1039  143.5834  159.5200 N   0  0  0  0  0  0  0  0  0  0  0  0
  152.9965  142.1654  159.2202 C   0  0  0  0  0  0  0  0  0  0  0  0
  151.9088  140.7170  156.9484 N   0  0  0  0  0  0  0  0  0  0  0  0
  151.2517  140.2478  155.9349 N   0  0  0  0  0  0  0  0  0  0  0  0
  147.3390  141.5603  155.6482 H   0  0  0  0  0  0  0  0  0  0  0  0
  147.1805  141.4234  153.9007 H   0  0  0  0  0  0  0  0  0  0  0  0
  148.1904  142.6883  154.5959 H   0  0  0  0  0  0  0  0  0  0  0  0
  148.7303  139.6687  154.7430 H   0  0  0  0  0  0  0  0  0  0  0  0
  149.4036  140.2303  152.8258 H   0  0  0  0  0  0  0  0  0  0  0  0
  149.2995  142.7131  156.9668 H   0  0  0  0  0  0  0  0  0  0  0  0
  150.8424  142.4252  159.3349 H   0  0  0  0  0  0  0  0  0  0  0  0
  152.6615  144.1554  157.5318 H   0  0  0  0  0  0  0  0  0  0  0  0
  151.4332  144.6868  158.7574 H   0  0  0  0  0  0  0  0  0  0  0  0
  154.0286  143.9464  159.3363 H   0  0  0  0  0  0  0  0  0  0  0  0
  152.9419  141.5272  160.1025 H   0  0  0  0  0  0  0  0  0  0  0  0
  153.7569  141.8369  158.5099 H   0  0  0  0  0  0  0  0  0  0  0  0
  1  2  1  0  0  0  0
  1 13  1  0  0  0  0
  1 14  1  0  0  0  0
  1 15  1  0  0  0  0
  2  3  1  0  0  0  0
  2  4  1  0  0  0  0
  2 16  1  0  0  0  0
  3 17  1  0  0  0  0
  4 12  1  0  0  0  0
  4  5  2  0  0  0  0
  5  6  1  0  0  0  0
  5 18  1  0  0  0  0
  6  7  1  0  0  0  0
  6 11  1  0  0  0  0
  7 10  1  0  0  0  0
  7  8  1  0  0  0  0
  7 19  1  0  0  0  0
  8  9  1  0  0  0  0
  8 20  1  0  0  0  0
  8 21  1  0  0  0  0
  9 10  1  0  0  0  0
  9 22  1  0  0  0  0
 10 23  1  0  0  0  0
 10 24  1  0  0  0  0
 11 12  2  0  0  0  0
M  END
> <s_m_source_file>
AV-unprocessed.smi

> <i_m_source_file_index>
2514

> <i_lp_mmshare_version>
43012

> <i_f3d_flags>
0

> <s_epik_input>
W0NIM11bQ0BIXShbT0hdKWMxW2NIXW4obm4xKVtDSF0yW0NIMl1bTkhdW0NIMl0y

> <s_epik_cmdline>
J2VwaWtfcHl0aG9uJywgJy1waCcsICc3LjAnLCAnLXRuJywgJzgnLCAnLW1hJywgJzIwMCcsICctbWV0YWxfYmluZGluZycsICctaW1hZScsICc8aW5maWxlLm1hZT4nLCAnLW9tYWUnLCAnPG91dGZpbGUubWFlPic=

> <r_lp_tautomer_probability>
1

> <r_epik_Ionization_Penalty>
0.704859

> <r_epik_Ionization_Penalty_Charging>
0

> <r_epik_Ionization_Penalty_Neutral>
0.704859

> <r_epik_State_Penalty>
0.727806

> <r_epik_Charging_Adjusted_Penalty>
0.727806

> <i_epik_Tot_Q>
0

> <i_epik_Tot_abs_Q>
0

> <r_epik_Metal_State_Penalty>
0.727738

> <b_epik_Metal_Only>
0

> <s_lp_Force_Field>
OPLS_2005

> <r_lp_Energy>
11.7069

> <b_lp_Chiralities_Consistent>
1

> <s_lp_Variant>
AV-unprocessed.smi:2514-4

> <Gold.Version>
5.8.1

> <Gold.Id.Protein>
6NUR|6NUR_protein|mol2

> <Gold.PLP.Fitness>
34.3445

> <Gold.PLP.PLP>
-25.5725

> <Gold.PLP.part.hbond>
-2.2989

> <Gold.PLP.part.metal>
0.0000

> <Gold.PLP.part.buried>
-2.3935

> <Gold.PLP.part.nonpolar>
-20.0843

> <Gold.PLP.part.repulsive>
0.0000

> <Gold.PLP.ligand.clash>
0.0000

> <Gold.PLP.ligand.torsion>
0.1330

> <Gold.PLP.Chemscore.Hbond>
1.9440

> <Gold.PLP.Chemscore.CHOScore>
1.0000

> <Gold.PLP.Chemscore.Metal>
0.0000

> <Gold.Chemscore.Hbonds>
donor molecule, donor type, donor heavy atom, donor atom, acceptor molecule, acceptor atom, score
      L1  H     3    17       P1  7957  0.64
      P1  H  7989  7998       L1     3  0.30
      P1  H  8011  8017       L1     3  0.95
      L1  C     5    18       P1  8028  0.93

> <Gold.PLP.Chemscore.Internal.Correction>
0.2060

> <Gold.Rescore>
     Score         DG    S(hbond)    S(metal)    S(lipo)     H(rot)  DE(clash)    DE(int)     intcor
     12.72     -12.83       1.48        0.00      59.46       1.78       0.01       0.10       ----

> <Gold.Chemscore.Fitness>
12.7164

> <Gold.Chemscore.DG>
-12.8272

> <Gold.Chemscore.ZeroCoef>
-5.4800

> <Gold.Chemscore.Hbond>
1.4831

> <Gold.Chemscore.Metal>
0.0000

> <Gold.Chemscore.Lipo>
59.4566

> <Gold.Chemscore.Internal_Hbond>
0.0000

> <Gold.Chemscore.DEClash>
0.0064

> <Gold.Chemscore.DEInternal>
0.1044

> <Gold.Chemscore.Rot>
1.7823

> <Gold.Chemscore.Internal.Correction>
   9.000000E+99

> <Gold.Chemscore.Hbonds>
donor molecule, donor type, donor heavy atom, donor atom, acceptor molecule, acceptor atom, score
      L1  H     3    17       P1  7957  0.64
      P1  H  7989  7998       L1     3  0.26
      P1  H  8011  8017       L1     3  0.21

> <Gold.Chemscore.Hbond.Weighted>
-4.9535

> <Gold.Chemscore.Metal.Weighted>
-0.0000

> <Gold.Chemscore.Lipo.Weighted>
-6.9564

> <Gold.Chemscore.Internal_Hbond.Weighted>
0.0000

> <Gold.Chemscore.DEClash.Weighted>
0.0064

> <Gold.Chemscore.DEInternal.Weighted>
0.1044

> <Gold.Chemscore.Rot.Weighted>
4.5627

> <Gold.Chemscore.Internal.Correction.Weighted>
   9.000000E+99

> <Gold.Protein.RotatedTorsions>
[ 6907 6896 6895 6894 ] final -168.23 input  -60.11 | X-H torsion
[ 7974 7965 7964 7962 ] final -120.53 input  175.53 | X-H torsion
[ 8008 7997 7996 7995 ] final   59.77 input   59.86 | X-H torsion
[ 10167 10162 10161 10158 ] final   88.99 input  -65.29 | X-H torsion
[ 10718 10713 10712 10709 ] final  125.52 input   66.30 | X-H torsion
[ 10763 10752 10751 10750 ] final   22.01 input  -60.55 | X-H torsion
[ 11005 11000 10999 10996 ] final   10.82 input  -57.11 | X-H torsion

> <Gold.Protein.ActiveResidues>
 VAL166  LYS551  ARG553  GLY616  TRP617  ASP618  TYR619  PRO620  LYS621  CYS622 
 ASP623  PHE694  ASN695  SER759  ASP760  ASP761  ALA762  ILE779  LEU786  VAL792 
 PHE793  MET794  SER795  GLU796  ALA797  LYS798  CYS799  TRP800  GLU811  SER814 

> <Gold.Protein.RotatedAtoms>
  151.4722  133.3566  159.2824 H   0  0  0  0  0  0  0  0  0  0  0  0  # atno 6907 bound_to 6896
  150.8953  134.8363  159.7333 H   0  0  0  0  0  0  0  0  0  0  0  0  # atno 6908 bound_to 6896
  152.4848  134.4636  159.9665 H   0  0  0  0  0  0  0  0  0  0  0  0  # atno 6909 bound_to 6896
  145.0504  140.8214  143.4213 H   0  0  0  0  0  0  0  0  0  0  0  0  # atno 7974 bound_to 7965
  155.5716  140.3490  155.4516 H   0  0  0  0  0  0  0  0  0  0  0  0  # atno 8008 bound_to 7997
  156.0440  140.1302  157.0150 H   0  0  0  0  0  0  0  0  0  0  0  0  # atno 8009 bound_to 7997
  154.4404  140.1018  156.6264 H   0  0  0  0  0  0  0  0  0  0  0  0  # atno 8010 bound_to 7997
  139.8618  144.6540  150.9050 H   0  0  0  0  0  0  0  0  0  0  0  0  # atno 10167 bound_to 10162
  157.5496  131.1094  150.8724 H   0  0  0  0  0  0  0  0  0  0  0  0  # atno 10718 bound_to 10713
  153.0949  135.6657  153.9782 H   0  0  0  0  0  0  0  0  0  0  0  0  # atno 10763 bound_to 10752
  153.9368  135.2998  155.3445 H   0  0  0  0  0  0  0  0  0  0  0  0  # atno 10764 bound_to 10752
  154.7367  135.5098  153.9127 H   0  0  0  0  0  0  0  0  0  0  0  0  # atno 10765 bound_to 10752
  140.5102  134.0660  155.7816 H   0  0  0  0  0  0  0  0  0  0  0  0  # atno 11005 bound_to 11000
  145.1535  139.2500  143.5428 LP  0  0  0  0  0  0  0  0  0  0  0  0  # atno 17320 bound_to 7965
  146.3517  140.1244  142.8599 LP  0  0  0  0  0  0  0  0  0  0  0  0  # atno 17321 bound_to 7965
  140.7774  143.3738  151.1600 LP  0  0  0  0  0  0  0  0  0  0  0  0  # atno 17342 bound_to 10162
  139.7367  143.8988  152.3037 LP  0  0  0  0  0  0  0  0  0  0  0  0  # atno 17343 bound_to 10162
  156.9253  130.5330  149.5279 LP  0  0  0  0  0  0  0  0  0  0  0  0  # atno 17370 bound_to 10713
  156.0565  130.5626  150.9103 LP  0  0  0  0  0  0  0  0  0  0  0  0  # atno 17371 bound_to 10713
  141.1390  133.9172  157.2370 LP  0  0  0  0  0  0  0  0  0  0  0  0  # atno 17394 bound_to 11000
  139.9663  135.0141  156.9396 LP  0  0  0  0  0  0  0  0  0  0  0  0  # atno 17395 bound_to 11000

$$$$
