AV-unprocessed.smi:3266|AV-procd|sdf|12502|dock2
  -GOLD-   2272018403D 1   1.00000     0.00000
 Structure written by MMmdl.
 39 40  0  0  0  0  0  0  0  0  2 V2000
  153.0438  139.4504  157.3679 O   0  0  0  0  0  0  0  0  0  0  0  0
  152.1192  140.2513  157.2251 C   0  0  0  0  0  0  0  0  0  0  0  0
  151.7993  141.2765  158.3169 C   0  0  0  0  0  0  0  0  0  0  0  0
  150.8300  142.3758  157.8443 C   0  0  0  0  0  0  0  0  0  0  0  0
  150.6688  143.5049  158.8728 C   0  0  2  0  0  0  0  0  0  0  0  0
  151.5834  144.7034  158.6200 C   0  0  0  0  0  0  0  0  0  0  0  0
  151.7222  145.2819  160.0090 C   0  0  0  0  0  0  0  0  0  0  0  0
  151.7971  144.0184  160.8595 C   0  0  0  0  0  0  0  0  0  0  0  0
  151.0049  143.0470  160.1814 O   0  0  0  0  0  0  0  0  0  0  0  0
  151.3403  140.2825  156.1328 N   0  0  0  0  0  0  0  0  0  0  0  0
  151.4737  139.3895  154.9877 C   0  0  0  0  0  0  0  0  0  0  0  0
  150.2295  138.5025  154.8107 C   0  0  0  0  0  0  0  0  0  0  0  0
  149.0656  139.2606  154.2031 C   0  0  0  0  0  0  0  0  0  0  0  0
  148.8045  140.6136  154.5106 C   0  0  0  0  0  0  0  0  0  0  0  0
  147.7018  141.2556  153.9093 C   0  0  0  0  0  0  0  0  0  0  0  0
  146.8846  140.5327  153.0154 C   0  0  0  0  0  0  0  0  0  0  0  0
  147.1906  139.1831  152.7455 C   0  0  0  0  0  0  0  0  0  0  0  0
  148.2554  138.6032  153.3416 N   0  3  0  0  0  0  0  0  0  0  0  0
  151.3750  140.7631  159.1814 H   0  0  0  0  0  0  0  0  0  0  0  0
  152.7371  141.7236  158.6483 H   0  0  0  0  0  0  0  0  0  0  0  0
  151.1744  142.7992  156.8996 H   0  0  0  0  0  0  0  0  0  0  0  0
  149.8522  141.9337  157.6468 H   0  0  0  0  0  0  0  0  0  0  0  0
  149.6335  143.8489  158.8961 H   0  0  0  0  0  0  0  0  0  0  0  0
  152.5587  144.3765  158.2562 H   0  0  0  0  0  0  0  0  0  0  0  0
  151.1698  145.4107  157.9006 H   0  0  0  0  0  0  0  0  0  0  0  0
  152.5944  145.9263  160.1222 H   0  0  0  0  0  0  0  0  0  0  0  0
  150.8323  145.8580  160.2663 H   0  0  0  0  0  0  0  0  0  0  0  0
  152.8238  143.6535  160.9080 H   0  0  0  0  0  0  0  0  0  0  0  0
  151.4466  144.1803  161.8790 H   0  0  0  0  0  0  0  0  0  0  0  0
  150.5994  140.9681  156.0966 H   0  0  0  0  0  0  0  0  0  0  0  0
  151.6617  139.9737  154.0851 H   0  0  0  0  0  0  0  0  0  0  0  0
  152.3548  138.7663  155.1434 H   0  0  0  0  0  0  0  0  0  0  0  0
  150.4692  137.6461  154.1788 H   0  0  0  0  0  0  0  0  0  0  0  0
  149.9117  138.0953  155.7716 H   0  0  0  0  0  0  0  0  0  0  0  0
  149.4395  141.1542  155.1976 H   0  0  0  0  0  0  0  0  0  0  0  0
  147.4854  142.2906  154.1312 H   0  0  0  0  0  0  0  0  0  0  0  0
  146.0357  141.0062  152.5441 H   0  0  0  0  0  0  0  0  0  0  0  0
  146.6205  138.5550  152.0765 H   0  0  0  0  0  0  0  0  0  0  0  0
  148.4582  137.6250  153.1329 H   0  0  0  0  0  0  0  0  0  0  0  0
  1  2  2  0  0  0  0
  2  3  1  0  0  0  0
  2 10  1  0  0  0  0
  3  4  1  0  0  0  0
  3 19  1  0  0  0  0
  3 20  1  0  0  0  0
  4  5  1  0  0  0  0
  4 21  1  0  0  0  0
  4 22  1  0  0  0  0
  5  9  1  0  0  0  0
  5  6  1  0  0  0  0
  5 23  1  0  0  0  0
  6  7  1  0  0  0  0
  6 24  1  0  0  0  0
  6 25  1  0  0  0  0
  7  8  1  0  0  0  0
  7 26  1  0  0  0  0
  7 27  1  0  0  0  0
  8  9  1  0  0  0  0
  8 28  1  0  0  0  0
  8 29  1  0  0  0  0
 10 11  1  0  0  0  0
 10 30  1  0  0  0  0
 11 12  1  0  0  0  0
 11 31  1  0  0  0  0
 11 32  1  0  0  0  0
 12 13  1  0  0  0  0
 12 33  1  0  0  0  0
 12 34  1  0  0  0  0
 13 18  1  0  0  0  0
 13 14  2  0  0  0  0
 14 15  1  0  0  0  0
 14 35  1  0  0  0  0
 15 16  2  0  0  0  0
 15 36  1  0  0  0  0
 16 17  1  0  0  0  0
 16 37  1  0  0  0  0
 17 18  2  0  0  0  0
 17 38  1  0  0  0  0
 18 39  1  0  0  0  0
M  CHG  1  18   1
M  END
> <s_m_source_file>
AV-unprocessed.smi

> <i_m_source_file_index>
3266

> <i_lp_mmshare_version>
43012

> <i_f3d_flags>
0

> <s_epik_input>
TzFbQ0gyXVtDSDJdW0NIMl1bQ0BIXTFbQ0gyXVtDSDJdQyg9TylbTkhdW0NIMl1bQ0gyXWMyW2NIXVtjSF1bY0hdW2NIXW4y

> <s_epik_cmdline>
J2VwaWtfcHl0aG9uJywgJy1waCcsICc3LjAnLCAnLXRuJywgJzgnLCAnLW1hJywgJzIwMCcsICctbWV0YWxfYmluZGluZycsICctaW1hZScsICc8aW5maWxlLm1hZT4nLCAnLW9tYWUnLCAnPG91dGZpbGUubWFlPic=

> <r_epik_Ionization_Penalty>
1.8495

> <r_epik_Ionization_Penalty_Charging>
1.8495

> <r_epik_Ionization_Penalty_Neutral>
1.53068e-08

> <r_epik_State_Penalty>
1.96688

> <r_epik_Charging_Adjusted_Penalty>
3.81638

> <i_epik_Tot_Q>
1

> <i_epik_Tot_abs_Q>
1

> <r_epik_Metal_State_Penalty>
1.99263

> <b_epik_Metal_Only>
0

> <s_lp_Force_Field>
OPLS_2005

> <r_lp_Energy>
20.4442

> <b_lp_Chiralities_Consistent>
1

> <s_lp_Variant>
AV-unprocessed.smi:3266-3

> <Gold.Version>
5.8.1

> <Gold.Id.Protein>
6NUR|6NUR_protein|mol2

> <Gold.PLP.Fitness>
49.4056

> <Gold.PLP.PLP>
-42.4358

> <Gold.PLP.part.hbond>
-4.0000

> <Gold.PLP.part.metal>
0.0000

> <Gold.PLP.part.buried>
-0.5220

> <Gold.PLP.part.nonpolar>
-37.1864

> <Gold.PLP.part.repulsive>
0.2304

> <Gold.PLP.ligand.clash>
0.0000

> <Gold.PLP.ligand.torsion>
1.0606

> <Gold.PLP.Chemscore.Hbond>
3.0000

> <Gold.PLP.Chemscore.CHOScore>
0.0000

> <Gold.PLP.Chemscore.Metal>
0.0000

> <Gold.Chemscore.Hbonds>
donor molecule, donor type, donor heavy atom, donor atom, acceptor molecule, acceptor atom, score
      L1  H    18    39       P1  7948  1.98
      P1  H  7997  8010       L1     1  1.00

> <Gold.PLP.Chemscore.Internal.Correction>
0.0909

> <Gold.Rescore>
     Score         DG    S(hbond)    S(metal)    S(lipo)     H(rot)  DE(clash)    DE(int)     intcor
     17.79     -19.90       1.87        0.00     110.17       1.84       0.52       1.59       ----

> <Gold.Chemscore.Fitness>
17.7893

> <Gold.Chemscore.DG>
-19.9003

> <Gold.Chemscore.ZeroCoef>
-5.4800

> <Gold.Chemscore.Hbond>
1.8672

> <Gold.Chemscore.Metal>
0.0000

> <Gold.Chemscore.Lipo>
110.1669

> <Gold.Chemscore.Internal_Hbond>
0.0000

> <Gold.Chemscore.DEClash>
0.5231

> <Gold.Chemscore.DEInternal>
1.5878

> <Gold.Chemscore.Rot>
1.8382

> <Gold.Chemscore.Internal.Correction>
   9.000000E+99

> <Gold.Chemscore.Hbonds>
donor molecule, donor type, donor heavy atom, donor atom, acceptor molecule, acceptor atom, score
      L1  H    18    39       P1  7948  0.93
      P1  H  7997  8010       L1     1  0.74

> <Gold.Chemscore.Hbond.Weighted>
-6.2365

> <Gold.Chemscore.Metal.Weighted>
-0.0000

> <Gold.Chemscore.Lipo.Weighted>
-12.8895

> <Gold.Chemscore.Internal_Hbond.Weighted>
0.0000

> <Gold.Chemscore.DEClash.Weighted>
0.5231

> <Gold.Chemscore.DEInternal.Weighted>
1.5878

> <Gold.Chemscore.Rot.Weighted>
4.7058

> <Gold.Chemscore.Internal.Correction.Weighted>
   9.000000E+99

> <Gold.Protein.RotatedTorsions>
[ 6907 6896 6895 6894 ] final   75.42 input  -60.11 | X-H torsion
[ 7974 7965 7964 7962 ] final  -61.29 input  175.53 | X-H torsion
[ 8008 7997 7996 7995 ] final   53.92 input   59.86 | X-H torsion
[ 10167 10162 10161 10158 ] final  155.54 input  -65.29 | X-H torsion
[ 10718 10713 10712 10709 ] final  -78.57 input   66.30 | X-H torsion
[ 10763 10752 10751 10750 ] final  123.47 input  -60.55 | X-H torsion
[ 11005 11000 10999 10996 ] final   51.17 input  -57.11 | X-H torsion

> <Gold.Protein.ActiveResidues>
 VAL166  LYS551  ARG553  GLY616  TRP617  ASP618  TYR619  PRO620  LYS621  CYS622 
 ASP623  PHE694  ASN695  SER759  ASP760  ASP761  ALA762  ILE779  LEU786  VAL792 
 PHE793  MET794  SER795  GLU796  ALA797  LYS798  CYS799  TRP800  GLU811  SER814 

> <Gold.Protein.RotatedAtoms>
  152.5025  134.4122  159.9452 H   0  0  0  0  0  0  0  0  0  0  0  0  # atno 6907 bound_to 6896
  151.4091  133.3727  159.2749 H   0  0  0  0  0  0  0  0  0  0  0  0  # atno 6908 bound_to 6896
  150.9305  134.8742  159.7607 H   0  0  0  0  0  0  0  0  0  0  0  0  # atno 6909 bound_to 6896
  145.8053  140.8631  143.0210 H   0  0  0  0  0  0  0  0  0  0  0  0  # atno 7974 bound_to 7965
  155.4762  140.3467  155.4333 H   0  0  0  0  0  0  0  0  0  0  0  0  # atno 8008 bound_to 7997
  156.1069  140.1450  156.9421 H   0  0  0  0  0  0  0  0  0  0  0  0  # atno 8009 bound_to 7997
  154.4730  140.0894  156.7170 H   0  0  0  0  0  0  0  0  0  0  0  0  # atno 8010 bound_to 7997
  139.4821  144.5089  151.8054 H   0  0  0  0  0  0  0  0  0  0  0  0  # atno 10167 bound_to 10162
  156.0114  130.4521  150.3516 H   0  0  0  0  0  0  0  0  0  0  0  0  # atno 10718 bound_to 10713
  153.6460  135.3371  155.3086 H   0  0  0  0  0  0  0  0  0  0  0  0  # atno 10763 bound_to 10752
  154.8548  135.4329  154.1954 H   0  0  0  0  0  0  0  0  0  0  0  0  # atno 10764 bound_to 10752
  153.2885  135.7015  153.7390 H   0  0  0  0  0  0  0  0  0  0  0  0  # atno 10765 bound_to 10752
  140.0955  134.5151  155.8811 H   0  0  0  0  0  0  0  0  0  0  0  0  # atno 11005 bound_to 11000
  144.6764  140.0317  143.7482 LP  0  0  0  0  0  0  0  0  0  0  0  0  # atno 17320 bound_to 7965
  145.9835  139.2959  143.1028 LP  0  0  0  0  0  0  0  0  0  0  0  0  # atno 17321 bound_to 7965
  140.4590  144.1748  150.5904 LP  0  0  0  0  0  0  0  0  0  0  0  0  # atno 17342 bound_to 10162
  140.4504  143.2489  151.9355 LP  0  0  0  0  0  0  0  0  0  0  0  0  # atno 17343 bound_to 10162
  157.1608  131.0344  151.2842 LP  0  0  0  0  0  0  0  0  0  0  0  0  # atno 17370 bound_to 10713
  157.4313  130.7492  149.6992 LP  0  0  0  0  0  0  0  0  0  0  0  0  # atno 17371 bound_to 10713
  141.2091  133.6680  156.6413 LP  0  0  0  0  0  0  0  0  0  0  0  0  # atno 17394 bound_to 11000
  140.3292  134.7943  157.4313 LP  0  0  0  0  0  0  0  0  0  0  0  0  # atno 17395 bound_to 11000

$$$$
