AV-unprocessed.smi:515|AV-procd|sdf|2781|dock7
  -GOLD-   2262023253D 1   1.00000     0.00000
 Structure written by MMmdl.
 48 50  0  0  0  0  0  0  0  0  2 V2000
  143.8436  144.9188  154.3080 C   0  0  0  0  0  0  0  0  0  0  0  0
  144.9738  144.0963  153.6856 C   0  0  0  0  0  0  0  0  0  0  0  0
  145.3110  143.0454  154.5732 O   0  0  0  0  0  0  0  0  0  0  0  0
  146.5599  142.4450  154.2741 C   0  0  0  0  0  0  0  0  0  0  0  0
  146.9015  141.4043  155.3503 C   0  0  0  0  0  0  0  0  0  0  0  0
  148.0250  140.5588  154.9590 N   0  0  0  0  0  0  0  0  0  0  0  0
  148.1055  139.7302  153.8841 C   0  0  0  0  0  0  0  0  0  0  0  0
  147.0000  139.5560  152.8812 C   0  0  0  0  0  0  0  0  0  0  0  0
  146.7652  138.0908  152.8258 N   0  3  0  0  0  0  0  0  0  0  0  0
  146.3558  137.4950  154.1233 C   0  0  0  0  0  0  0  0  0  0  0  0
  146.1713  135.9750  153.9812 C   0  0  0  0  0  0  0  0  0  0  0  0
  145.2182  135.7021  152.9616 O   0  0  0  0  0  0  0  0  0  0  0  0
  145.6417  136.1892  151.6945 C   0  0  0  0  0  0  0  0  0  0  0  0
  145.8072  137.7169  151.7591 C   0  0  0  0  0  0  0  0  0  0  0  0
  149.2681  139.0773  153.7825 N   0  0  0  0  0  0  0  0  0  0  0  0
  149.9882  139.5327  154.8767 C   0  0  0  0  0  0  0  0  0  0  0  0
  149.2615  140.4271  155.5927 C   0  0  0  0  0  0  0  0  0  0  0  0
  149.7878  141.0853  156.7975 C   0  0  0  0  0  0  0  0  0  0  0  0
  149.1511  141.9024  157.4583 O   0  0  0  0  0  0  0  0  0  0  0  0
  151.0504  140.7004  157.1039 N   0  0  0  0  0  0  0  0  0  0  0  0
  151.8338  139.8046  156.4292 C   0  0  0  0  0  0  0  0  0  0  0  0
  152.9705  139.5564  156.8307 O   0  0  0  0  0  0  0  0  0  0  0  0
  151.3052  139.2109  155.3116 N   0  0  0  0  0  0  0  0  0  0  0  0
  152.0993  138.2431  154.5524 C   0  0  0  0  0  0  0  0  0  0  0  0
  151.4607  141.1247  157.9231 H   0  0  0  0  0  0  0  0  0  0  0  0
  143.5539  145.7406  153.6532 H   0  0  0  0  0  0  0  0  0  0  0  0
  144.1497  145.3433  155.2644 H   0  0  0  0  0  0  0  0  0  0  0  0
  142.9615  144.3021  154.4819 H   0  0  0  0  0  0  0  0  0  0  0  0
  144.6543  143.6914  152.7244 H   0  0  0  0  0  0  0  0  0  0  0  0
  145.8428  144.7312  153.5066 H   0  0  0  0  0  0  0  0  0  0  0  0
  146.5195  141.9647  153.2956 H   0  0  0  0  0  0  0  0  0  0  0  0
  147.3377  143.2087  154.2315 H   0  0  0  0  0  0  0  0  0  0  0  0
  147.1296  141.8967  156.2940 H   0  0  0  0  0  0  0  0  0  0  0  0
  146.0348  140.7789  155.5608 H   0  0  0  0  0  0  0  0  0  0  0  0
  146.0958  140.1058  153.1390 H   0  0  0  0  0  0  0  0  0  0  0  0
  147.3502  139.9296  151.9180 H   0  0  0  0  0  0  0  0  0  0  0  0
  147.1041  137.6940  154.8907 H   0  0  0  0  0  0  0  0  0  0  0  0
  145.4244  137.9539  154.4585 H   0  0  0  0  0  0  0  0  0  0  0  0
  147.1198  135.4873  153.7505 H   0  0  0  0  0  0  0  0  0  0  0  0
  145.8155  135.5507  154.9201 H   0  0  0  0  0  0  0  0  0  0  0  0
  146.5748  135.7072  151.3980 H   0  0  0  0  0  0  0  0  0  0  0  0
  144.8948  135.9238  150.9462 H   0  0  0  0  0  0  0  0  0  0  0  0
  144.8428  138.1902  151.9508 H   0  0  0  0  0  0  0  0  0  0  0  0
  146.1616  138.0877  150.7964 H   0  0  0  0  0  0  0  0  0  0  0  0
  152.4160  137.4189  155.1931 H   0  0  0  0  0  0  0  0  0  0  0  0
  152.9917  138.7198  154.1444 H   0  0  0  0  0  0  0  0  0  0  0  0
  151.5486  137.8104  153.7174 H   0  0  0  0  0  0  0  0  0  0  0  0
  147.6494  137.6719  152.5729 H   0  0  0  0  0  0  0  0  0  0  0  0
  1  2  1  0  0  0  0
  1 26  1  0  0  0  0
  1 27  1  0  0  0  0
  1 28  1  0  0  0  0
  2  3  1  0  0  0  0
  2 29  1  0  0  0  0
  2 30  1  0  0  0  0
  3  4  1  0  0  0  0
  4  5  1  0  0  0  0
  4 31  1  0  0  0  0
  4 32  1  0  0  0  0
  5  6  1  0  0  0  0
  5 33  1  0  0  0  0
  5 34  1  0  0  0  0
  6 17  1  0  0  0  0
  6  7  1  0  0  0  0
  7  8  1  0  0  0  0
  7 15  2  0  0  0  0
  8  9  1  0  0  0  0
  8 35  1  0  0  0  0
  8 36  1  0  0  0  0
  9 14  1  0  0  0  0
  9 10  1  0  0  0  0
  9 48  1  0  0  0  0
 10 11  1  0  0  0  0
 10 37  1  0  0  0  0
 10 38  1  0  0  0  0
 11 12  1  0  0  0  0
 11 39  1  0  0  0  0
 11 40  1  0  0  0  0
 12 13  1  0  0  0  0
 13 14  1  0  0  0  0
 13 41  1  0  0  0  0
 13 42  1  0  0  0  0
 14 43  1  0  0  0  0
 14 44  1  0  0  0  0
 15 16  1  0  0  0  0
 16 23  1  0  0  0  0
 16 17  2  0  0  0  0
 17 18  1  0  0  0  0
 18 19  2  0  0  0  0
 18 20  1  0  0  0  0
 20 25  1  0  0  0  0
 20 21  1  0  0  0  0
 21 22  2  0  0  0  0
 21 23  1  0  0  0  0
 23 24  1  0  0  0  0
 24 45  1  0  0  0  0
 24 46  1  0  0  0  0
 24 47  1  0  0  0  0
M  CHG  1   9   1
M  END
> <s_m_source_file>
AV-unprocessed.smi

> <i_m_source_file_index>
515

> <i_lp_mmshare_version>
43012

> <i_f3d_flags>
0

> <s_epik_input>
W0NIM11uMWMoPU8pW25IXWMoPU8pYyhjMTIpbihbQ0gyXVtDSDJdT1tDSDJdW0NIM10pYyhuMilbQ0gyXU4zW0NIMl1bQ0gyXU9bQ0gyXVtDSDJdMw==

> <s_epik_cmdline>
J2VwaWtfcHl0aG9uJywgJy1waCcsICc3LjAnLCAnLXRuJywgJzgnLCAnLW1hJywgJzIwMCcsICctbWV0YWxfYmluZGluZycsICctaW1hZScsICc8aW5maWxlLm1hZT4nLCAnLW9tYWUnLCAnPG91dGZpbGUubWFlPic=

> <r_epik_Ionization_Penalty>
1.12075

> <r_epik_Ionization_Penalty_Charging>
1.12075

> <r_epik_Ionization_Penalty_Neutral>
5.33793e-09

> <r_epik_State_Penalty>
1.17893

> <r_epik_Charging_Adjusted_Penalty>
2.29968

> <i_epik_Tot_Q>
1

> <i_epik_Tot_abs_Q>
1

> <r_epik_Metal_State_Penalty>
1.3264

> <b_epik_Metal_Only>
0

> <s_lp_Force_Field>
OPLS_2005

> <r_lp_Energy>
34.9817

> <b_lp_Chiralities_Consistent>
1

> <s_lp_Variant>
AV-unprocessed.smi:515-2

> <Gold.Version>
5.8.1

> <Gold.Id.Protein>
6NUR|6NUR_protein|mol2

> <Gold.PLP.Fitness>
44.5949

> <Gold.PLP.PLP>
-35.8284

> <Gold.PLP.part.hbond>
-2.0000

> <Gold.PLP.part.metal>
0.0000

> <Gold.PLP.part.buried>
-2.9973

> <Gold.PLP.part.nonpolar>
-35.3027

> <Gold.PLP.part.repulsive>
2.8259

> <Gold.PLP.ligand.clash>
0.0000

> <Gold.PLP.ligand.torsion>
0.1556

> <Gold.PLP.Chemscore.Hbond>
3.0000

> <Gold.PLP.Chemscore.CHOScore>
0.0000

> <Gold.PLP.Chemscore.Metal>
0.0000

> <Gold.Chemscore.Hbonds>
donor molecule, donor type, donor heavy atom, donor atom, acceptor molecule, acceptor atom, score
      L1  H     9    48       P1  7948  1.89
      P1  H  7997  8009       L1    22  0.94

> <Gold.PLP.Chemscore.Internal.Correction>
0.0777

> <Gold.Rescore>
     Score         DG    S(hbond)    S(metal)    S(lipo)     H(rot)  DE(clash)    DE(int)     intcor
     13.17     -13.72       1.97        0.00      62.78       2.22       0.32       0.23       ----

> <Gold.Chemscore.Fitness>
13.1699

> <Gold.Chemscore.DG>
-13.7196

> <Gold.Chemscore.ZeroCoef>
-5.4800

> <Gold.Chemscore.Hbond>
1.9681

> <Gold.Chemscore.Metal>
0.0000

> <Gold.Chemscore.Lipo>
62.7767

> <Gold.Chemscore.Internal_Hbond>
0.0000

> <Gold.Chemscore.DEClash>
0.3211

> <Gold.Chemscore.DEInternal>
0.2287

> <Gold.Chemscore.Rot>
2.2182

> <Gold.Chemscore.Internal.Correction>
   9.000000E+99

> <Gold.Chemscore.Hbonds>
donor molecule, donor type, donor heavy atom, donor atom, acceptor molecule, acceptor atom, score
      L1  H     9    48       P1  7948  0.89
      P1  H  7997  8009       L1    22  0.90

> <Gold.Chemscore.Hbond.Weighted>
-6.5733

> <Gold.Chemscore.Metal.Weighted>
-0.0000

> <Gold.Chemscore.Lipo.Weighted>
-7.3449

> <Gold.Chemscore.Internal_Hbond.Weighted>
0.0000

> <Gold.Chemscore.DEClash.Weighted>
0.3211

> <Gold.Chemscore.DEInternal.Weighted>
0.2287

> <Gold.Chemscore.Rot.Weighted>
5.6785

> <Gold.Chemscore.Internal.Correction.Weighted>
   9.000000E+99

> <Gold.Protein.RotatedTorsions>
[ 6907 6896 6895 6894 ] final  -27.78 input  -60.11 | X-H torsion
[ 7974 7965 7964 7962 ] final  125.03 input  175.53 | X-H torsion
[ 8008 7997 7996 7995 ] final -174.38 input   59.86 | X-H torsion
[ 10167 10162 10161 10158 ] final  132.68 input  -65.29 | X-H torsion
[ 10718 10713 10712 10709 ] final  -48.22 input   66.30 | X-H torsion
[ 10763 10752 10751 10750 ] final -171.15 input  -60.55 | X-H torsion
[ 11005 11000 10999 10996 ] final   -1.86 input  -57.11 | X-H torsion

> <Gold.Protein.ActiveResidues>
 VAL166  LYS551  ARG553  GLY616  TRP617  ASP618  TYR619  PRO620  LYS621  CYS622 
 ASP623  PHE694  ASN695  SER759  ASP760  ASP761  ALA762  ILE779  LEU786  VAL792 
 PHE793  MET794  SER795  GLU796  ALA797  LYS798  CYS799  TRP800  GLU811  SER814 

> <Gold.Protein.RotatedAtoms>
  151.1421  135.0185  159.8630 H   0  0  0  0  0  0  0  0  0  0  0  0  # atno 6907 bound_to 6896
  152.5452  134.1487  159.8519 H   0  0  0  0  0  0  0  0  0  0  0  0  # atno 6908 bound_to 6896
  151.1563  133.4828  159.2627 H   0  0  0  0  0  0  0  0  0  0  0  0  # atno 6909 bound_to 6896
  145.0776  139.3682  143.4926 H   0  0  0  0  0  0  0  0  0  0  0  0  # atno 7974 bound_to 7965
  155.9694  140.1160  157.0826 H   0  0  0  0  0  0  0  0  0  0  0  0  # atno 8008 bound_to 7997
  154.4152  140.1166  156.5353 H   0  0  0  0  0  0  0  0  0  0  0  0  # atno 8009 bound_to 7997
  155.6617  140.3473  155.4787 H   0  0  0  0  0  0  0  0  0  0  0  0  # atno 8010 bound_to 7997
  139.5329  144.6650  151.4887 H   0  0  0  0  0  0  0  0  0  0  0  0  # atno 10167 bound_to 10162
  156.2009  130.4156  149.9243 H   0  0  0  0  0  0  0  0  0  0  0  0  # atno 10718 bound_to 10713
  154.6337  135.2890  155.0186 H   0  0  0  0  0  0  0  0  0  0  0  0  # atno 10763 bound_to 10752
  154.1338  135.6529  153.4931 H   0  0  0  0  0  0  0  0  0  0  0  0  # atno 10764 bound_to 10752
  153.0292  135.5316  154.7175 H   0  0  0  0  0  0  0  0  0  0  0  0  # atno 10765 bound_to 10752
  140.6520  133.9396  155.8385 H   0  0  0  0  0  0  0  0  0  0  0  0  # atno 11005 bound_to 11000
  146.3530  140.0551  142.8633 LP  0  0  0  0  0  0  0  0  0  0  0  0  # atno 17320 bound_to 7965
  145.1217  140.9466  143.4596 LP  0  0  0  0  0  0  0  0  0  0  0  0  # atno 17321 bound_to 7965
  140.6518  143.8681  150.6794 LP  0  0  0  0  0  0  0  0  0  0  0  0  # atno 17342 bound_to 10162
  140.2048  143.3930  152.1764 LP  0  0  0  0  0  0  0  0  0  0  0  0  # atno 17343 bound_to 10162
  156.6952  130.8911  151.3593 LP  0  0  0  0  0  0  0  0  0  0  0  0  # atno 17370 bound_to 10713
  157.6985  130.9307  150.0714 LP  0  0  0  0  0  0  0  0  0  0  0  0  # atno 17371 bound_to 10713
  141.0530  134.0458  157.3759 LP  0  0  0  0  0  0  0  0  0  0  0  0  # atno 17394 bound_to 11000
  139.9042  135.0174  156.7412 LP  0  0  0  0  0  0  0  0  0  0  0  0  # atno 17395 bound_to 11000

$$$$
