AV-unprocessed.smi:104|AV-procd|sdf|1005|dock5
  -GOLD-   2262017593D 1   1.00000     0.00000
 Structure written by MMmdl.
 47 49  0  0  0  0  0  0  0  0  1 V2000
  145.9241  134.4662  151.1013 C   0  0  0  0  0  0  0  0  0  0  0  0
  145.9369  134.1195  152.5842 C   0  0  0  0  0  0  0  0  0  0  0  0
  146.6998  133.2661  153.0360 O   0  0  0  0  0  0  0  0  0  0  0  0
  145.0457  134.8407  153.2858 O   0  0  0  0  0  0  0  0  0  0  0  0
  144.8724  134.6254  154.6801 C   0  0  0  0  0  0  0  0  0  0  0  0
  145.9823  135.3271  155.4831 C   0  0  2  0  0  0  0  0  0  0  0  0
  147.2423  134.6833  155.2991 O   0  0  0  0  0  0  0  0  0  0  0  0
  148.0251  134.8528  156.4443 C   0  0  1  0  0  0  0  0  0  0  0  0
  149.3142  135.5191  156.0863 N   0  0  0  0  0  0  0  0  0  0  0  0
  150.5975  135.0672  156.2919 C   0  0  0  0  0  0  0  0  0  0  0  0
  150.9647  133.4016  157.1394 Br  0  0  0  0  0  0  0  0  0  0  0  0
  151.5720  135.8384  155.8986 N   0  0  0  0  0  0  0  0  0  0  0  0
  150.9003  136.9389  155.3817 C   0  0  0  0  0  0  0  0  0  0  0  0
  151.3180  138.1583  154.7913 C   0  0  0  0  0  0  0  0  0  0  0  0
  152.6063  138.4794  154.6093 N   0  0  0  0  0  0  0  0  0  0  0  0
  150.3732  139.0426  154.3947 N   0  0  0  0  0  0  0  0  0  0  0  0
  149.0810  138.7481  154.5675 C   0  0  0  0  0  0  0  0  0  0  0  0
  148.5386  137.6505  155.1012 N   0  0  0  0  0  0  0  0  0  0  0  0
  149.4907  136.7564  155.4983 C   0  0  0  0  0  0  0  0  0  0  0  0
  147.2328  135.7236  157.4168 C   0  0  2  0  0  0  0  0  0  0  0  0
  147.5448  135.3951  158.7642 O   0  0  0  0  0  0  0  0  0  0  0  0
  147.0759  136.1517  159.7686 C   0  0  0  0  0  0  0  0  0  0  0  0
  147.4811  135.6147  161.1344 C   0  0  0  0  0  0  0  0  0  0  0  0
  146.3882  137.1660  159.6528 O   0  0  0  0  0  0  0  0  0  0  0  0
  145.8019  135.4070  157.0035 C   0  0  2  0  0  0  0  0  0  0  0  0
  145.3721  134.1417  157.5039 O   0  0  0  0  0  0  0  0  0  0  0  0
  144.0742  133.7895  157.4563 C   0  0  0  0  0  0  0  0  0  0  0  0
  143.8331  132.3923  158.0101 C   0  0  0  0  0  0  0  0  0  0  0  0
  143.1500  134.4795  157.0263 O   0  0  0  0  0  0  0  0  0  0  0  0
  145.0785  133.9854  150.6097 H   0  0  0  0  0  0  0  0  0  0  0  0
  146.8425  134.1266  150.6217 H   0  0  0  0  0  0  0  0  0  0  0  0
  145.8407  135.5440  150.9610 H   0  0  0  0  0  0  0  0  0  0  0  0
  143.8758  134.9008  155.0272 H   0  0  0  0  0  0  0  0  0  0  0  0
  144.9584  133.5501  154.8370 H   0  0  0  0  0  0  0  0  0  0  0  0
  146.0973  136.3407  155.0968 H   0  0  0  0  0  0  0  0  0  0  0  0
  148.2911  133.8741  156.8435 H   0  0  0  0  0  0  0  0  0  0  0  0
  153.3306  137.8380  154.8987 H   0  0  0  0  0  0  0  0  0  0  0  0
  152.8503  139.3617  154.1830 H   0  0  0  0  0  0  0  0  0  0  0  0
  148.3815  139.4986  154.2299 H   0  0  0  0  0  0  0  0  0  0  0  0
  147.4547  136.7692  157.1940 H   0  0  0  0  0  0  0  0  0  0  0  0
  148.5673  135.5908  161.2246 H   0  0  0  0  0  0  0  0  0  0  0  0
  147.0988  134.6030  161.2707 H   0  0  0  0  0  0  0  0  0  0  0  0
  147.0813  136.2453  161.9286 H   0  0  0  0  0  0  0  0  0  0  0  0
  145.1072  136.2028  157.2762 H   0  0  0  0  0  0  0  0  0  0  0  0
  144.1608  132.3346  159.0481 H   0  0  0  0  0  0  0  0  0  0  0  0
  144.3869  131.6550  157.4284 H   0  0  0  0  0  0  0  0  0  0  0  0
  142.7729  132.1411  157.9675 H   0  0  0  0  0  0  0  0  0  0  0  0
  1  2  1  0  0  0  0
  1 30  1  0  0  0  0
  1 31  1  0  0  0  0
  1 32  1  0  0  0  0
  2  3  2  0  0  0  0
  2  4  1  0  0  0  0
  4  5  1  0  0  0  0
  5  6  1  0  0  0  0
  5 33  1  0  0  0  0
  5 34  1  0  0  0  0
  6 25  1  0  0  0  0
  6  7  1  0  0  0  0
  6 35  1  0  0  0  0
  7  8  1  0  0  0  0
  8  9  1  0  0  0  0
  8 20  1  0  0  0  0
  8 36  1  0  0  0  0
  9 19  1  0  0  0  0
  9 10  1  0  0  0  0
 10 11  1  0  0  0  0
 10 12  2  0  0  0  0
 12 13  1  0  0  0  0
 13 19  2  0  0  0  0
 13 14  1  0  0  0  0
 14 15  1  0  0  0  0
 14 16  2  0  0  0  0
 15 37  1  0  0  0  0
 15 38  1  0  0  0  0
 16 17  1  0  0  0  0
 17 18  2  0  0  0  0
 17 39  1  0  0  0  0
 18 19  1  0  0  0  0
 20 21  1  0  0  0  0
 20 25  1  0  0  0  0
 20 40  1  0  0  0  0
 21 22  1  0  0  0  0
 22 23  1  0  0  0  0
 22 24  2  0  0  0  0
 23 41  1  0  0  0  0
 23 42  1  0  0  0  0
 23 43  1  0  0  0  0
 25 26  1  0  0  0  0
 25 44  1  0  0  0  0
 26 27  1  0  0  0  0
 27 28  1  0  0  0  0
 27 29  2  0  0  0  0
 28 45  1  0  0  0  0
 28 46  1  0  0  0  0
 28 47  1  0  0  0  0
M  END
> <s_m_source_file>
AV-unprocessed.smi

> <i_m_source_file_index>
104

> <i_lp_mmshare_version>
43012

> <i_f3d_flags>
0

> <s_epik_input>
W0NIM11DKD1PKU9bQ0gyXVtDQEBIXTFPW0NASF0oW0NAQEhdKE9DKD1PKVtDSDNdKVtDQEhdMU9DKD1PKVtDSDNdKW4oYyhCciluMiljKGMyMyluW2NIXW5jM1tOSDJd

> <s_epik_cmdline>
J2VwaWtfcHl0aG9uJywgJy1waCcsICc3LjAnLCAnLXRuJywgJzgnLCAnLW1hJywgJzIwMCcsICctbWV0YWxfYmluZGluZycsICctaW1hZScsICc8aW5maWxlLm1hZT4nLCAnLW9tYWUnLCAnPG91dGZpbGUubWFlPic=

> <r_lp_tautomer_probability>
1

> <r_epik_Ionization_Penalty>
7.36622e-05

> <r_epik_Ionization_Penalty_Charging>
0

> <r_epik_Ionization_Penalty_Neutral>
7.36622e-05

> <r_epik_State_Penalty>
-0

> <r_epik_Charging_Adjusted_Penalty>
0

> <i_epik_Tot_Q>
0

> <i_epik_Tot_abs_Q>
0

> <r_epik_Metal_State_Penalty>
-0

> <b_epik_Metal_Only>
0

> <s_epik_Chemistry_Notes>
This compound has an ester and may undergo hydrolysis at high or low pH. This compound contains an acetal/aminal-like group ( X-CH(R)-Y where X, Y are N, S, or O) that may be acid/base labile, releasing an aldehyde.

> <s_lp_Force_Field>
OPLS_2005

> <r_lp_Energy>
18.0917

> <b_lp_Chiralities_Consistent>
1

> <s_lp_Variant>
AV-unprocessed.smi:104-13

> <Gold.Version>
5.8.1

> <Gold.Id.Protein>
6NUR|6NUR_protein|mol2

> <Gold.PLP.Fitness>
35.4509

> <Gold.PLP.PLP>
-26.9175

> <Gold.PLP.part.hbond>
-3.5928

> <Gold.PLP.part.metal>
0.0000

> <Gold.PLP.part.buried>
-5.5882

> <Gold.PLP.part.nonpolar>
-18.8165

> <Gold.PLP.part.repulsive>
0.8390

> <Gold.PLP.ligand.clash>
0.0000

> <Gold.PLP.ligand.torsion>
0.3774

> <Gold.PLP.Chemscore.Hbond>
2.9920

> <Gold.PLP.Chemscore.CHOScore>
0.0000

> <Gold.PLP.Chemscore.Metal>
0.0000

> <Gold.Chemscore.Hbonds>
donor molecule, donor type, donor heavy atom, donor atom, acceptor molecule, acceptor atom, score
      P1  H  6934  6947       L1    24  0.15
      P1  H  7989  7998       L1    16  0.11
      P1  H 10752 10763       L1    12  1.00

> <Gold.PLP.Chemscore.Internal.Correction>
0.3122

> <Gold.Rescore>
     Score         DG    S(hbond)    S(metal)    S(lipo)     H(rot)  DE(clash)    DE(int)     intcor
      6.24      -7.16       2.84        0.00      27.46       4.31       0.00       0.91       ----

> <Gold.Chemscore.Fitness>
6.2443

> <Gold.Chemscore.DG>
-7.1582

> <Gold.Chemscore.ZeroCoef>
-5.4800

> <Gold.Chemscore.Hbond>
2.8418

> <Gold.Chemscore.Metal>
0.0000

> <Gold.Chemscore.Lipo>
27.4572

> <Gold.Chemscore.Internal_Hbond>
0.0000

> <Gold.Chemscore.DEClash>
0.0000

> <Gold.Chemscore.DEInternal>
0.9139

> <Gold.Chemscore.Rot>
4.3070

> <Gold.Chemscore.Internal.Correction>
   9.000000E+99

> <Gold.Chemscore.Hbonds>
donor molecule, donor type, donor heavy atom, donor atom, acceptor molecule, acceptor atom, score
      P1  H  6934  6947       L1    24  0.14
      P1  H  7989  7998       L1    16  0.06
      P1  H 10752 10763       L1    12  0.44

> <Gold.Chemscore.Hbond.Weighted>
-9.4916

> <Gold.Chemscore.Metal.Weighted>
-0.0000

> <Gold.Chemscore.Lipo.Weighted>
-3.2125

> <Gold.Chemscore.Internal_Hbond.Weighted>
0.0000

> <Gold.Chemscore.DEClash.Weighted>
0.0000

> <Gold.Chemscore.DEInternal.Weighted>
0.9139

> <Gold.Chemscore.Rot.Weighted>
11.0259

> <Gold.Chemscore.Internal.Correction.Weighted>
   9.000000E+99

> <Gold.Protein.RotatedTorsions>
[ 6907 6896 6895 6894 ] final -117.47 input  -60.11 | X-H torsion
[ 7974 7965 7964 7962 ] final   50.97 input  175.53 | X-H torsion
[ 8008 7997 7996 7995 ] final  -14.77 input   59.86 | X-H torsion
[ 10167 10162 10161 10158 ] final -156.58 input  -65.29 | X-H torsion
[ 10718 10713 10712 10709 ] final   -5.49 input   66.30 | X-H torsion
[ 10763 10752 10751 10750 ] final   64.38 input  -60.55 | X-H torsion
[ 11005 11000 10999 10996 ] final   41.67 input  -57.11 | X-H torsion

> <Gold.Protein.ActiveResidues>
 VAL166  LYS551  ARG553  GLY616  TRP617  ASP618  TYR619  PRO620  LYS621  CYS622 
 ASP623  PHE694  ASN695  SER759  ASP760  ASP761  ALA762  ILE779  LEU786  VAL792 
 PHE793  MET794  SER795  GLU796  ALA797  LYS798  CYS799  TRP800  GLU811  SER814 

> <Gold.Protein.RotatedAtoms>
  150.8140  133.8371  159.3169 H   0  0  0  0  0  0  0  0  0  0  0  0  # atno 6907 bound_to 6896
  151.6148  135.1035  160.0098 H   0  0  0  0  0  0  0  0  0  0  0  0  # atno 6908 bound_to 6896
  152.4231  133.7110  159.6535 H   0  0  0  0  0  0  0  0  0  0  0  0  # atno 6909 bound_to 6896
  145.9959  139.4388  143.0044 H   0  0  0  0  0  0  0  0  0  0  0  0  # atno 7974 bound_to 7965
  154.5184  140.2214  155.9023 H   0  0  0  0  0  0  0  0  0  0  0  0  # atno 8008 bound_to 7997
  156.1633  140.3137  155.8811 H   0  0  0  0  0  0  0  0  0  0  0  0  # atno 8009 bound_to 7997
  155.3707  140.0466  157.3036 H   0  0  0  0  0  0  0  0  0  0  0  0  # atno 8010 bound_to 7997
  139.6839  143.9535  152.2351 H   0  0  0  0  0  0  0  0  0  0  0  0  # atno 10167 bound_to 10162
  156.7458  130.5224  149.5814 H   0  0  0  0  0  0  0  0  0  0  0  0  # atno 10718 bound_to 10713
  153.0054  135.5395  154.6501 H   0  0  0  0  0  0  0  0  0  0  0  0  # atno 10763 bound_to 10752
  154.5736  135.2844  155.0805 H   0  0  0  0  0  0  0  0  0  0  0  0  # atno 10764 bound_to 10752
  154.1962  135.6492  153.5126 H   0  0  0  0  0  0  0  0  0  0  0  0  # atno 10765 bound_to 10752
  140.1812  134.4102  155.8199 H   0  0  0  0  0  0  0  0  0  0  0  0  # atno 11005 bound_to 11000
  145.7560  140.9954  143.1225 LP  0  0  0  0  0  0  0  0  0  0  0  0  # atno 17320 bound_to 7965
  144.6903  139.9272  143.7470 LP  0  0  0  0  0  0  0  0  0  0  0  0  # atno 17321 bound_to 7965
  139.9332  144.6728  150.8341 LP  0  0  0  0  0  0  0  0  0  0  0  0  # atno 17342 bound_to 10162
  140.7661  143.3294  151.2443 LP  0  0  0  0  0  0  0  0  0  0  0  0  # atno 17343 bound_to 10162
  156.1434  130.6260  151.0498 LP  0  0  0  0  0  0  0  0  0  0  0  0  # atno 17370 bound_to 10713
  157.6799  131.0841  150.7398 LP  0  0  0  0  0  0  0  0  0  0  0  0  # atno 17371 bound_to 10713
  141.2223  133.7001  156.7933 LP  0  0  0  0  0  0  0  0  0  0  0  0  # atno 17394 bound_to 11000
  140.2265  134.8717  157.3432 LP  0  0  0  0  0  0  0  0  0  0  0  0  # atno 17395 bound_to 11000

$$$$
