AV-unprocessed.smi:2816|AV-procd|sdf|10844|dock2
  -GOLD-   2272015283D 1   1.00000     0.00000
 Structure written by MMmdl.
 43 45  0  0  0  0  0  0  0  0  1 V2000
  150.2729  129.4690  157.2999 C   0  0  0  0  0  0  0  0  0  0  0  0
  151.5409  130.3388  157.2448 C   0  0  0  0  0  0  0  0  0  0  0  0
  152.3763  130.1061  158.5171 C   0  0  0  0  0  0  0  0  0  0  0  0
  152.3589  129.9781  155.9915 C   0  0  0  0  0  0  0  0  0  0  0  0
  151.0035  132.1187  157.1481 S   0  0  0  0  0  0  0  0  0  0  0  0
  150.0809  132.3705  158.2666 O   0  0  0  0  0  0  0  0  0  0  0  0
  152.2031  132.9592  157.0053 O   0  0  0  0  0  0  0  0  0  0  0  0
  150.0602  132.2658  155.6290 C   0  0  0  0  0  0  0  0  0  0  0  0
  149.6291  133.5327  155.1868 C   0  0  0  0  0  0  0  0  0  0  0  0
  148.8535  133.5980  154.0144 C   0  0  0  0  0  0  0  0  0  0  0  0
  148.5302  132.3983  153.3367 C   0  0  0  0  0  0  0  0  0  0  0  0
  147.7581  132.3557  152.1666 N   0  0  0  0  0  0  0  0  0  0  0  0
  146.6656  133.2951  151.9393 C   0  0  2  0  0  0  0  0  0  0  0  0
  145.4378  133.0589  152.8268 C   0  0  0  0  0  0  0  0  0  0  0  0
  144.3118  132.9666  151.7877 C   0  0  2  0  0  0  0  0  0  0  0  0
  144.3379  131.6225  151.0498 C   0  0  0  0  0  0  0  0  0  0  0  0
  145.5664  131.7842  150.1572 C   0  0  0  0  0  0  0  0  0  0  0  0
  146.0513  133.1962  150.5312 C   0  0  1  0  0  0  0  0  0  0  0  0
  144.8051  133.8273  150.7742 O   0  0  0  0  0  0  0  0  0  0  0  0
  149.0129  131.1868  153.8772 C   0  0  0  0  0  0  0  0  0  0  0  0
  149.7558  131.1100  155.0011 N   0  0  0  0  0  0  0  0  0  0  0  0
  150.5196  128.4085  157.3606 H   0  0  0  0  0  0  0  0  0  0  0  0
  149.6548  129.6122  156.4130 H   0  0  0  0  0  0  0  0  0  0  0  0
  149.6616  129.7156  158.1685 H   0  0  0  0  0  0  0  0  0  0  0  0
  151.8337  130.4103  159.4126 H   0  0  0  0  0  0  0  0  0  0  0  0
  153.3143  130.6594  158.4925 H   0  0  0  0  0  0  0  0  0  0  0  0
  152.6304  129.0518  158.6318 H   0  0  0  0  0  0  0  0  0  0  0  0
  152.6403  128.9245  155.9948 H   0  0  0  0  0  0  0  0  0  0  0  0
  153.2797  130.5581  155.9320 H   0  0  0  0  0  0  0  0  0  0  0  0
  151.7923  130.1628  155.0784 H   0  0  0  0  0  0  0  0  0  0  0  0
  149.8802  134.4316  155.7299 H   0  0  0  0  0  0  0  0  0  0  0  0
  148.5183  134.5602  153.6585 H   0  0  0  0  0  0  0  0  0  0  0  0
  147.8245  131.5480  151.5636 H   0  0  0  0  0  0  0  0  0  0  0  0
  147.0303  134.3133  152.0797 H   0  0  0  0  0  0  0  0  0  0  0  0
  145.5021  132.1573  153.4380 H   0  0  0  0  0  0  0  0  0  0  0  0
  145.2850  133.9085  153.4933 H   0  0  0  0  0  0  0  0  0  0  0  0
  143.3294  133.2397  152.1737 H   0  0  0  0  0  0  0  0  0  0  0  0
  144.4167  130.7747  151.7310 H   0  0  0  0  0  0  0  0  0  0  0  0
  143.4399  131.4932  150.4447 H   0  0  0  0  0  0  0  0  0  0  0  0
  146.3179  131.0126  150.3240 H   0  0  0  0  0  0  0  0  0  0  0  0
  145.2759  131.7463  149.1066 H   0  0  0  0  0  0  0  0  0  0  0  0
  146.6499  133.6754  149.7561 H   0  0  0  0  0  0  0  0  0  0  0  0
  148.7898  130.2455  153.3964 H   0  0  0  0  0  0  0  0  0  0  0  0
  1  2  1  0  0  0  0
  1 22  1  0  0  0  0
  1 23  1  0  0  0  0
  1 24  1  0  0  0  0
  2  3  1  0  0  0  0
  2  4  1  0  0  0  0
  2  5  1  0  0  0  0
  3 25  1  0  0  0  0
  3 26  1  0  0  0  0
  3 27  1  0  0  0  0
  4 28  1  0  0  0  0
  4 29  1  0  0  0  0
  4 30  1  0  0  0  0
  5  6  2  0  0  0  0
  5  7  2  0  0  0  0
  5  8  1  0  0  0  0
  8 21  1  0  0  0  0
  8  9  2  0  0  0  0
  9 10  1  0  0  0  0
  9 31  1  0  0  0  0
 10 11  2  0  0  0  0
 10 32  1  0  0  0  0
 11 12  1  0  0  0  0
 11 20  1  0  0  0  0
 12 13  1  0  0  0  0
 12 33  1  0  0  0  0
 13 18  1  0  0  0  0
 13 14  1  0  0  0  0
 13 34  1  0  0  0  0
 14 15  1  0  0  0  0
 14 35  1  0  0  0  0
 14 36  1  0  0  0  0
 15 19  1  0  0  0  0
 15 16  1  0  0  0  0
 15 37  1  0  0  0  0
 16 17  1  0  0  0  0
 16 38  1  0  0  0  0
 16 39  1  0  0  0  0
 17 18  1  0  0  0  0
 17 40  1  0  0  0  0
 17 41  1  0  0  0  0
 18 19  1  0  0  0  0
 18 42  1  0  0  0  0
 20 21  2  0  0  0  0
 20 43  1  0  0  0  0
M  END
> <s_m_source_file>
AV-unprocessed.smi

> <i_m_source_file_index>
2816

> <i_lp_mmshare_version>
43012

> <i_f3d_flags>
0

> <s_epik_input>
W0NIM11DKFtDSDNdKShbQ0gzXSlTKD1PKSg9TyljMVtjSF1bY0hdYyhbY0hdbjEpW05IXVtDQEhdKFtDSDJdW0NAQEhdMjMpW0NAQEhdKE8zKVtDSDJdW0NIMl0y

> <s_epik_cmdline>
J2VwaWtfcHl0aG9uJywgJy1waCcsICc3LjAnLCAnLXRuJywgJzgnLCAnLW1hJywgJzIwMCcsICctbWV0YWxfYmluZGluZycsICctaW1hZScsICc8aW5maWxlLm1hZT4nLCAnLW9tYWUnLCAnPG91dGZpbGUubWFlPic=

> <r_lp_tautomer_probability>
1

> <r_epik_Ionization_Penalty>
1.94439e-07

> <r_epik_Ionization_Penalty_Charging>
0

> <r_epik_Ionization_Penalty_Neutral>
1.94439e-07

> <r_epik_State_Penalty>
-0

> <r_epik_Charging_Adjusted_Penalty>
0

> <i_epik_Tot_Q>
0

> <i_epik_Tot_abs_Q>
0

> <r_epik_Metal_State_Penalty>
-0

> <b_epik_Metal_Only>
0

> <s_lp_Force_Field>
OPLS_2005

> <r_lp_Energy>
43.8741

> <b_lp_Chiralities_Consistent>
1

> <s_lp_Variant>
AV-unprocessed.smi:2816-3

> <Gold.Version>
5.8.1

> <Gold.Id.Protein>
6NUR|6NUR_protein|mol2

> <Gold.PLP.Fitness>
40.6356

> <Gold.PLP.PLP>
-35.0002

> <Gold.PLP.part.hbond>
-2.5401

> <Gold.PLP.part.metal>
0.0000

> <Gold.PLP.part.buried>
-5.3963

> <Gold.PLP.part.nonpolar>
-27.2068

> <Gold.PLP.part.repulsive>
0.1713

> <Gold.PLP.ligand.clash>
0.0000

> <Gold.PLP.ligand.torsion>
1.6273

> <Gold.PLP.Chemscore.Hbond>
2.0000

> <Gold.PLP.Chemscore.CHOScore>
0.2173

> <Gold.PLP.Chemscore.Metal>
0.0000

> <Gold.Chemscore.Hbonds>
donor molecule, donor type, donor heavy atom, donor atom, acceptor molecule, acceptor atom, score
      L1  H    12    33       P1 10747  0.77
      P1  H  6896  6909       L1     6  1.00

> <Gold.PLP.Chemscore.Internal.Correction>
2.2380

> <Gold.Rescore>
     Score         DG    S(hbond)    S(metal)    S(lipo)     H(rot)  DE(clash)    DE(int)     intcor
     13.78     -17.99       1.78        0.00      81.35       1.15       0.28       3.94       ----

> <Gold.Chemscore.Fitness>
13.7799

> <Gold.Chemscore.DG>
-17.9927

> <Gold.Chemscore.ZeroCoef>
-5.4800

> <Gold.Chemscore.Hbond>
1.7757

> <Gold.Chemscore.Metal>
0.0000

> <Gold.Chemscore.Lipo>
81.3544

> <Gold.Chemscore.Internal_Hbond>
0.0000

> <Gold.Chemscore.DEClash>
0.2767

> <Gold.Chemscore.DEInternal>
3.9361

> <Gold.Chemscore.Rot>
1.1471

> <Gold.Chemscore.Internal.Correction>
   9.000000E+99

> <Gold.Chemscore.Hbonds>
donor molecule, donor type, donor heavy atom, donor atom, acceptor molecule, acceptor atom, score
      L1  H    12    33       P1 10747  0.76
      P1  H  6896  6909       L1     6  0.35

> <Gold.Chemscore.Hbond.Weighted>
-5.9309

> <Gold.Chemscore.Metal.Weighted>
-0.0000

> <Gold.Chemscore.Lipo.Weighted>
-9.5185

> <Gold.Chemscore.Internal_Hbond.Weighted>
0.0000

> <Gold.Chemscore.DEClash.Weighted>
0.2767

> <Gold.Chemscore.DEInternal.Weighted>
3.9361

> <Gold.Chemscore.Rot.Weighted>
2.9366

> <Gold.Chemscore.Internal.Correction.Weighted>
   9.000000E+99

> <Gold.Protein.RotatedTorsions>
[ 6907 6896 6895 6894 ] final  -19.03 input  -60.11 | X-H torsion
[ 7974 7965 7964 7962 ] final   50.61 input  175.53 | X-H torsion
[ 8008 7997 7996 7995 ] final   90.00 input   59.86 | X-H torsion
[ 10167 10162 10161 10158 ] final  172.83 input  -65.29 | X-H torsion
[ 10718 10713 10712 10709 ] final  155.58 input   66.30 | X-H torsion
[ 10763 10752 10751 10750 ] final -141.60 input  -60.55 | X-H torsion
[ 11005 11000 10999 10996 ] final -134.50 input  -57.11 | X-H torsion

> <Gold.Protein.ActiveResidues>
 VAL166  LYS551  ARG553  GLY616  TRP617  ASP618  TYR619  PRO620  LYS621  CYS622 
 ASP623  PHE694  ASN695  SER759  ASP760  ASP761  ALA762  ILE779  LEU786  VAL792 
 PHE793  MET794  SER795  GLU796  ALA797  LYS798  CYS799  TRP800  GLU811  SER814 

> <Gold.Protein.RotatedAtoms>
  151.2693  135.0679  159.9127 H   0  0  0  0  0  0  0  0  0  0  0  0  # atno 6907 bound_to 6896
  152.5353  134.0148  159.7965 H   0  0  0  0  0  0  0  0  0  0  0  0  # atno 6908 bound_to 6896
  151.0383  133.5678  159.2684 H   0  0  0  0  0  0  0  0  0  0  0  0  # atno 6909 bound_to 6896
  145.9995  139.4424  143.0024 H   0  0  0  0  0  0  0  0  0  0  0  0  # atno 7974 bound_to 7965
  156.0067  140.3354  155.6900 H   0  0  0  0  0  0  0  0  0  0  0  0  # atno 8008 bound_to 7997
  155.6214  140.0675  157.2694 H   0  0  0  0  0  0  0  0  0  0  0  0  # atno 8009 bound_to 7997
  154.4267  140.1776  156.1364 H   0  0  0  0  0  0  0  0  0  0  0  0  # atno 8010 bound_to 7997
  139.5089  144.3330  152.0093 H   0  0  0  0  0  0  0  0  0  0  0  0  # atno 10167 bound_to 10162
  157.2164  131.0709  151.1938 H   0  0  0  0  0  0  0  0  0  0  0  0  # atno 10718 bound_to 10713
  154.8539  135.3520  154.5893 H   0  0  0  0  0  0  0  0  0  0  0  0  # atno 10763 bound_to 10752
  153.6503  135.6994  153.5216 H   0  0  0  0  0  0  0  0  0  0  0  0  # atno 10764 bound_to 10752
  153.2899  135.4238  155.1115 H   0  0  0  0  0  0  0  0  0  0  0  0  # atno 10765 bound_to 10752
  140.8984  134.1722  157.4478 H   0  0  0  0  0  0  0  0  0  0  0  0  # atno 11005 bound_to 11000
  145.7509  140.9973  143.1251 LP  0  0  0  0  0  0  0  0  0  0  0  0  # atno 17320 bound_to 7965
  144.6914  139.9213  143.7468 LP  0  0  0  0  0  0  0  0  0  0  0  0  # atno 17321 bound_to 7965
  140.2769  144.3903  150.6132 LP  0  0  0  0  0  0  0  0  0  0  0  0  # atno 17342 bound_to 10162
  140.6047  143.2167  151.7004 LP  0  0  0  0  0  0  0  0  0  0  0  0  # atno 17343 bound_to 10162
  157.3620  130.7136  149.6508 LP  0  0  0  0  0  0  0  0  0  0  0  0  # atno 17370 bound_to 10713
  155.9686  130.4223  150.4508 LP  0  0  0  0  0  0  0  0  0  0  0  0  # atno 17371 bound_to 10713
  139.8739  134.9888  156.5428 LP  0  0  0  0  0  0  0  0  0  0  0  0  # atno 17394 bound_to 11000
  140.8260  133.8316  155.8940 LP  0  0  0  0  0  0  0  0  0  0  0  0  # atno 17395 bound_to 11000

$$$$
