AV-unprocessed.smi:2091|AV-procd|sdf|8538|dock1
  -GOLD-   2272011263D 1   1.00000     0.00000
 Structure written by MMmdl.
 36 37  0  0  0  0  0  0  0  0  1 V2000
  150.2144  139.8253  156.9934 O   0  0  0  0  0  0  0  0  0  0  0  0
  150.5308  140.9877  156.7368 C   0  0  0  0  0  0  0  0  0  0  0  0
  149.9642  141.6960  155.4991 C   0  0  0  0  0  0  0  0  0  0  0  0
  149.0990  140.8225  154.6939 N   0  0  0  0  0  0  0  0  0  0  0  0
  147.7619  141.1405  154.5031 C   0  0  0  0  0  0  0  0  0  0  0  0
  146.9100  140.3767  153.7788 C   0  0  0  0  0  0  0  0  0  0  0  0
  147.3757  139.1468  153.1471 C   0  0  0  0  0  0  0  0  0  0  0  0
  146.6826  138.3911  152.4701 O   0  0  0  0  0  0  0  0  0  0  0  0
  148.7257  138.8597  153.3650 N   0  0  0  0  0  0  0  0  0  0  0  0
  149.6084  139.6411  154.1121 C   0  0  0  0  0  0  0  0  0  0  0  0
  150.7817  139.2941  154.2444 O   0  0  0  0  0  0  0  0  0  0  0  0
  151.3562  141.7130  157.5084 N   0  0  0  0  0  0  0  0  0  0  0  0
  152.0212  141.2411  158.7250 C   0  0  2  0  0  0  0  0  0  0  0  0
  152.9287  142.3858  159.2312 C   0  0  0  0  0  0  0  0  0  0  0  0
  153.2754  142.2905  160.7269 C   0  0  0  0  0  0  0  0  0  0  0  0
  154.1262  141.0734  161.1192 C   0  0  0  0  0  0  0  0  0  0  0  0
  153.4316  139.7257  160.8609 C   0  0  0  0  0  0  0  0  0  0  0  0
  153.4698  139.3500  159.4538 N   0  0  0  0  0  0  0  0  0  0  0  0
  152.8885  139.9940  158.4302 C   0  0  0  0  0  0  0  0  0  0  0  0
  153.0493  139.5976  157.2760 O   0  0  0  0  0  0  0  0  0  0  0  0
  149.0935  138.0166  152.9489 H   0  0  0  0  0  0  0  0  0  0  0  0
  149.4100  142.5726  155.8371 H   0  0  0  0  0  0  0  0  0  0  0  0
  150.7763  142.0887  154.8835 H   0  0  0  0  0  0  0  0  0  0  0  0
  147.3719  142.0411  154.9561 H   0  0  0  0  0  0  0  0  0  0  0  0
  145.8784  140.6771  153.6665 H   0  0  0  0  0  0  0  0  0  0  0  0
  151.5628  142.6574  157.2179 H   0  0  0  0  0  0  0  0  0  0  0  0
  151.2635  141.0021  159.4734 H   0  0  0  0  0  0  0  0  0  0  0  0
  153.8410  142.4540  158.6359 H   0  0  0  0  0  0  0  0  0  0  0  0
  152.4150  143.3374  159.0851 H   0  0  0  0  0  0  0  0  0  0  0  0
  153.8120  143.1945  161.0163 H   0  0  0  0  0  0  0  0  0  0  0  0
  152.3552  142.2934  161.3123 H   0  0  0  0  0  0  0  0  0  0  0  0
  155.0898  141.1049  160.6084 H   0  0  0  0  0  0  0  0  0  0  0  0
  154.3509  141.1478  162.1837 H   0  0  0  0  0  0  0  0  0  0  0  0
  153.9509  138.9433  161.4150 H   0  0  0  0  0  0  0  0  0  0  0  0
  152.4047  139.7318  161.2289 H   0  0  0  0  0  0  0  0  0  0  0  0
  154.0202  138.5343  159.2266 H   0  0  0  0  0  0  0  0  0  0  0  0
  1  2  2  0  0  0  0
  2  3  1  0  0  0  0
  2 12  1  0  0  0  0
  3  4  1  0  0  0  0
  3 22  1  0  0  0  0
  3 23  1  0  0  0  0
  4 10  1  0  0  0  0
  4  5  1  0  0  0  0
  5  6  2  0  0  0  0
  5 24  1  0  0  0  0
  6  7  1  0  0  0  0
  6 25  1  0  0  0  0
  7  8  2  0  0  0  0
  7  9  1  0  0  0  0
  9 21  1  0  0  0  0
  9 10  1  0  0  0  0
 10 11  2  0  0  0  0
 12 13  1  0  0  0  0
 12 26  1  0  0  0  0
 13 19  1  0  0  0  0
 13 14  1  0  0  0  0
 13 27  1  0  0  0  0
 14 15  1  0  0  0  0
 14 28  1  0  0  0  0
 14 29  1  0  0  0  0
 15 16  1  0  0  0  0
 15 30  1  0  0  0  0
 15 31  1  0  0  0  0
 16 17  1  0  0  0  0
 16 32  1  0  0  0  0
 16 33  1  0  0  0  0
 17 18  1  0  0  0  0
 17 34  1  0  0  0  0
 17 35  1  0  0  0  0
 18 19  1  0  0  0  0
 18 36  1  0  0  0  0
 19 20  2  0  0  0  0
M  END
> <s_m_source_file>
AV-unprocessed.smi

> <i_m_source_file_index>
2091

> <i_lp_mmshare_version>
43012

> <i_f3d_flags>
0

> <s_epik_input>
Tz1jMVtuSF1jKD1PKVtjSF1bY0hdbjFbQ0gyXUMoPU8pW05IXVtDQEBIXTJbQ0gyXVtDSDJdW0NIMl1bQ0gyXVtOSF1DMj1P

> <s_epik_cmdline>
J2VwaWtfcHl0aG9uJywgJy1waCcsICc3LjAnLCAnLXRuJywgJzgnLCAnLW1hJywgJzIwMCcsICctbWV0YWxfYmluZGluZycsICctaW1hZScsICc8aW5maWxlLm1hZT4nLCAnLW9tYWUnLCAnPG91dGZpbGUubWFlPic=

> <r_lp_tautomer_probability>
0.999537

> <r_epik_Ionization_Penalty>
0.00356328

> <r_epik_Ionization_Penalty_Charging>
0.00356323

> <r_epik_Ionization_Penalty_Neutral>
5.33217e-08

> <r_epik_State_Penalty>
0.00253125

> <r_epik_Charging_Adjusted_Penalty>
0.00609448

> <i_epik_Tot_Q>
0

> <i_epik_Tot_abs_Q>
0

> <r_epik_Metal_State_Penalty>
0.368636

> <b_epik_Metal_Only>
0

> <s_lp_Force_Field>
OPLS_2005

> <r_lp_Energy>
10.0871

> <b_lp_Chiralities_Consistent>
1

> <s_lp_Variant>
AV-unprocessed.smi:2091-1

> <Gold.Version>
5.8.1

> <Gold.Id.Protein>
6NUR|6NUR_protein|mol2

> <Gold.PLP.Fitness>
41.9653

> <Gold.PLP.PLP>
-33.0190

> <Gold.PLP.part.hbond>
-4.0000

> <Gold.PLP.part.metal>
0.0000

> <Gold.PLP.part.buried>
-1.4819

> <Gold.PLP.part.nonpolar>
-28.3200

> <Gold.PLP.part.repulsive>
0.6843

> <Gold.PLP.ligand.clash>
0.0000

> <Gold.PLP.ligand.torsion>
0.0148

> <Gold.PLP.Chemscore.Hbond>
2.9913

> <Gold.PLP.Chemscore.CHOScore>
0.0000

> <Gold.PLP.Chemscore.Metal>
0.0000

> <Gold.Chemscore.Hbonds>
donor molecule, donor type, donor heavy atom, donor atom, acceptor molecule, acceptor atom, score
      L1  H     9    21       P1  7948  0.91
      P1  H  7989  7998       L1    11  0.95
      P1  H  7997  8009       L1    20  1.00

> <Gold.PLP.Chemscore.Internal.Correction>
0.0021

> <Gold.Rescore>
     Score         DG    S(hbond)    S(metal)    S(lipo)     H(rot)  DE(clash)    DE(int)     intcor
     14.15     -16.21       2.29        0.00      67.45       1.88       0.27       1.79       ----

> <Gold.Chemscore.Fitness>
14.1509

> <Gold.Chemscore.DG>
-16.2090

> <Gold.Chemscore.ZeroCoef>
-5.4800

> <Gold.Chemscore.Hbond>
2.2938

> <Gold.Chemscore.Metal>
0.0000

> <Gold.Chemscore.Lipo>
67.4535

> <Gold.Chemscore.Internal_Hbond>
0.0000

> <Gold.Chemscore.DEClash>
0.2676

> <Gold.Chemscore.DEInternal>
1.7906

> <Gold.Chemscore.Rot>
1.8844

> <Gold.Chemscore.Internal.Correction>
   9.000000E+99

> <Gold.Chemscore.Hbonds>
donor molecule, donor type, donor heavy atom, donor atom, acceptor molecule, acceptor atom, score
      L1  H     9    21       P1  7948  0.86
      P1  H  7989  7998       L1    11  0.21
      P1  H  7997  8009       L1    20  0.73

> <Gold.Chemscore.Hbond.Weighted>
-7.6611

> <Gold.Chemscore.Metal.Weighted>
-0.0000

> <Gold.Chemscore.Lipo.Weighted>
-7.8921

> <Gold.Chemscore.Internal_Hbond.Weighted>
0.0000

> <Gold.Chemscore.DEClash.Weighted>
0.2676

> <Gold.Chemscore.DEInternal.Weighted>
1.7906

> <Gold.Chemscore.Rot.Weighted>
4.8242

> <Gold.Chemscore.Internal.Correction.Weighted>
   9.000000E+99

> <Gold.Protein.RotatedTorsions>
[ 6907 6896 6895 6894 ] final -134.63 input  -60.11 | X-H torsion
[ 7974 7965 7964 7962 ] final  -37.64 input  175.53 | X-H torsion
[ 8008 7997 7996 7995 ] final  175.02 input   59.86 | X-H torsion
[ 10167 10162 10161 10158 ] final  169.90 input  -65.29 | X-H torsion
[ 10718 10713 10712 10709 ] final  -46.77 input   66.30 | X-H torsion
[ 10763 10752 10751 10750 ] final  148.65 input  -60.55 | X-H torsion
[ 11005 11000 10999 10996 ] final   15.93 input  -57.11 | X-H torsion

> <Gold.Protein.ActiveResidues>
 VAL166  LYS551  ARG553  GLY616  TRP617  ASP618  TYR619  PRO620  LYS621  CYS622 
 ASP623  PHE694  ASN695  SER759  ASP760  ASP761  ALA762  ILE779  LEU786  VAL792 
 PHE793  MET794  SER795  GLU796  ALA797  LYS798  CYS799  TRP800  GLU811  SER814 

> <Gold.Protein.RotatedAtoms>
  150.9882  133.6176  159.2712 H   0  0  0  0  0  0  0  0  0  0  0  0  # atno 6907 bound_to 6896
  151.3406  135.0862  159.9379 H   0  0  0  0  0  0  0  0  0  0  0  0  # atno 6908 bound_to 6896
  152.5237  133.9494  159.7719 H   0  0  0  0  0  0  0  0  0  0  0  0  # atno 6909 bound_to 6896
  146.0557  140.6420  142.9021 H   0  0  0  0  0  0  0  0  0  0  0  0  # atno 7974 bound_to 7965
  156.0914  140.1419  156.9587 H   0  0  0  0  0  0  0  0  0  0  0  0  # atno 8008 bound_to 7997
  154.4644  140.0931  156.7028 H   0  0  0  0  0  0  0  0  0  0  0  0  # atno 8009 bound_to 7997
  155.4913  140.3448  155.4357 H   0  0  0  0  0  0  0  0  0  0  0  0  # atno 8010 bound_to 7997
  139.5004  144.3656  151.9779 H   0  0  0  0  0  0  0  0  0  0  0  0  # atno 10167 bound_to 10162
  156.2150  130.4163  149.9066 H   0  0  0  0  0  0  0  0  0  0  0  0  # atno 10718 bound_to 10713
  154.0583  135.2876  155.3329 H   0  0  0  0  0  0  0  0  0  0  0  0  # atno 10763 bound_to 10752
  154.6825  135.5258  153.8285 H   0  0  0  0  0  0  0  0  0  0  0  0  # atno 10764 bound_to 10752
  153.0533  135.6585  154.0773 H   0  0  0  0  0  0  0  0  0  0  0  0  # atno 10765 bound_to 10752
  140.4527  134.1207  155.7705 H   0  0  0  0  0  0  0  0  0  0  0  0  # atno 11005 bound_to 11000
  144.7146  140.4165  143.7054 LP  0  0  0  0  0  0  0  0  0  0  0  0  # atno 17320 bound_to 7965
  145.6648  139.1588  143.2788 LP  0  0  0  0  0  0  0  0  0  0  0  0  # atno 17321 bound_to 7965
  140.3092  144.3558  150.6038 LP  0  0  0  0  0  0  0  0  0  0  0  0  # atno 17342 bound_to 10162
  140.5812  143.2172  151.7424 LP  0  0  0  0  0  0  0  0  0  0  0  0  # atno 17343 bound_to 10162
  156.6731  130.8828  151.3565 LP  0  0  0  0  0  0  0  0  0  0  0  0  # atno 17370 bound_to 10713
  157.7058  130.9384  150.0928 LP  0  0  0  0  0  0  0  0  0  0  0  0  # atno 17371 bound_to 10713
  141.1657  133.8708  157.1722 LP  0  0  0  0  0  0  0  0  0  0  0  0  # atno 17394 bound_to 11000
  139.9996  135.0033  157.0160 LP  0  0  0  0  0  0  0  0  0  0  0  0  # atno 17395 bound_to 11000

$$$$
