AV-unprocessed.smi:2489|AV-procd|sdf|9802|dock6
  -GOLD-   2272013433D 1   1.00000     0.00000
 Structure written by MMmdl.
 33 34  0  0  0  0  0  0  0  0  1 V2000
  147.3026  141.8938  154.3359 C   0  0  0  0  0  0  0  0  0  0  0  0
  148.6005  141.6703  153.8033 O   0  0  0  0  0  0  0  0  0  0  0  0
  149.4423  140.8411  154.5085 C   0  0  0  0  0  0  0  0  0  0  0  0
  149.7348  139.4657  154.1120 C   0  0  0  0  0  0  0  0  0  0  0  0
  150.5755  138.7502  154.8739 C   0  0  0  0  0  0  0  0  0  0  0  0
  151.1673  139.2722  156.0150 N   0  0  0  0  0  0  0  0  0  0  0  0
  150.9273  140.5856  156.4567 C   0  0  0  0  0  0  0  0  0  0  0  0
  151.4472  141.1330  157.5168 N   0  0  0  0  0  0  0  0  0  0  0  0
  152.3343  140.4605  158.3529 C   0  0  0  0  0  0  0  0  0  0  0  0
  153.1047  139.5320  158.0917 O   0  0  0  0  0  0  0  0  0  0  0  0
  152.2889  141.0055  159.7875 C   0  0  1  0  0  0  0  0  0  0  0  0
  153.6551  141.5164  160.2763 C   0  0  0  0  0  0  0  0  0  0  0  0
  153.3276  142.8606  160.8940 C   0  0  0  0  0  0  0  0  0  0  0  0
  152.1530  143.3222  160.0401 C   0  0  2  0  0  0  0  0  0  0  0  0
  151.2805  144.3953  160.6992 C   0  0  0  0  0  0  0  0  0  0  0  0
  151.4075  142.1290  159.8394 O   0  0  0  0  0  0  0  0  0  0  0  0
  150.0146  141.3550  155.6224 C   0  0  0  0  0  0  0  0  0  0  0  0
  146.7547  142.5645  153.6743 H   0  0  0  0  0  0  0  0  0  0  0  0
  147.3493  142.3679  155.3172 H   0  0  0  0  0  0  0  0  0  0  0  0
  146.7328  140.9663  154.4066 H   0  0  0  0  0  0  0  0  0  0  0  0
  149.3015  139.0089  153.2352 H   0  0  0  0  0  0  0  0  0  0  0  0
  150.8470  137.7279  154.6554 H   0  0  0  0  0  0  0  0  0  0  0  0
  151.8970  140.2515  160.4724 H   0  0  0  0  0  0  0  0  0  0  0  0
  154.1197  140.8388  160.9928 H   0  0  0  0  0  0  0  0  0  0  0  0
  154.3543  141.6527  159.4493 H   0  0  0  0  0  0  0  0  0  0  0  0
  153.0150  142.7258  161.9304 H   0  0  0  0  0  0  0  0  0  0  0  0
  154.1677  143.5556  160.8773 H   0  0  0  0  0  0  0  0  0  0  0  0
  152.5159  143.6731  159.0727 H   0  0  0  0  0  0  0  0  0  0  0  0
  151.8507  145.3062  160.8822 H   0  0  0  0  0  0  0  0  0  0  0  0
  150.8839  144.0497  161.6542 H   0  0  0  0  0  0  0  0  0  0  0  0
  150.4348  144.6536  160.0615 H   0  0  0  0  0  0  0  0  0  0  0  0
  149.7695  142.3763  155.8765 H   0  0  0  0  0  0  0  0  0  0  0  0
  151.7868  138.6566  156.5228 H   0  0  0  0  0  0  0  0  0  0  0  0
  1  2  1  0  0  0  0
  1 18  1  0  0  0  0
  1 19  1  0  0  0  0
  1 20  1  0  0  0  0
  2  3  1  0  0  0  0
  3 17  2  0  0  0  0
  3  4  1  0  0  0  0
  4  5  2  0  0  0  0
  4 21  1  0  0  0  0
  5  6  1  0  0  0  0
  5 22  1  0  0  0  0
  6  7  1  0  0  0  0
  6 33  1  0  0  0  0
  7  8  2  0  0  0  0
  7 17  1  0  0  0  0
  8  9  1  0  0  0  0
  9 10  2  0  0  0  0
  9 11  1  0  0  0  0
 11 16  1  0  0  0  0
 11 12  1  0  0  0  0
 11 23  1  0  0  0  0
 12 13  1  0  0  0  0
 12 24  1  0  0  0  0
 12 25  1  0  0  0  0
 13 14  1  0  0  0  0
 13 26  1  0  0  0  0
 13 27  1  0  0  0  0
 14 15  1  0  0  0  0
 14 16  1  0  0  0  0
 14 28  1  0  0  0  0
 15 29  1  0  0  0  0
 15 30  1  0  0  0  0
 15 31  1  0  0  0  0
 17 32  1  0  0  0  0
M  END
> <s_m_source_file>
AV-unprocessed.smi

> <i_m_source_file_index>
2489

> <i_lp_mmshare_version>
43012

> <i_f3d_flags>
0

> <s_epik_input>
W0NIM11PYzFbY0hdW2NIXW5jKFtjSF0xKVtOSF1DKD1PKVtDQEBIXTJbQ0gyXVtDSDJdW0NASF0oTzIpW0NIM10=

> <s_epik_cmdline>
J2VwaWtfcHl0aG9uJywgJy1waCcsICc3LjAnLCAnLXRuJywgJzgnLCAnLW1hJywgJzIwMCcsICctbWV0YWxfYmluZGluZycsICctaW1hZScsICc8aW5maWxlLm1hZT4nLCAnLW9tYWUnLCAnPG91dGZpbGUubWFlPic=

> <r_epik_Ionization_Penalty>
0.410206

> <r_epik_Ionization_Penalty_Charging>
0.410206

> <r_epik_Ionization_Penalty_Neutral>
6.57528e-13

> <r_epik_State_Penalty>
1.30987

> <r_epik_Charging_Adjusted_Penalty>
1.72007

> <i_epik_Tot_Q>
0

> <i_epik_Tot_abs_Q>
0

> <r_epik_Metal_State_Penalty>
1.32171

> <b_epik_Metal_Only>
0

> <s_lp_Force_Field>
OPLS_2005

> <r_lp_Energy>
36.1754

> <b_lp_Chiralities_Consistent>
1

> <s_lp_Variant>
AV-unprocessed.smi:2489-8

> <Gold.Version>
5.8.1

> <Gold.Id.Protein>
6NUR|6NUR_protein|mol2

> <Gold.PLP.Fitness>
40.8266

> <Gold.PLP.PLP>
-36.8046

> <Gold.PLP.part.hbond>
-2.8949

> <Gold.PLP.part.metal>
0.0000

> <Gold.PLP.part.buried>
-2.7224

> <Gold.PLP.part.nonpolar>
-30.6303

> <Gold.PLP.part.repulsive>
0.2869

> <Gold.PLP.ligand.clash>
0.0000

> <Gold.PLP.ligand.torsion>
0.3799

> <Gold.PLP.Chemscore.Hbond>
1.5920

> <Gold.PLP.Chemscore.CHOScore>
0.0000

> <Gold.PLP.Chemscore.Metal>
0.0000

> <Gold.Chemscore.Hbonds>
donor molecule, donor type, donor heavy atom, donor atom, acceptor molecule, acceptor atom, score
      P1  H  7997  8009       L1    10  1.00
      P1  H  8011  8017       L1     2  0.61

> <Gold.PLP.Chemscore.Internal.Correction>
0.0059

> <Gold.Rescore>
     Score         DG    S(hbond)    S(metal)    S(lipo)     H(rot)  DE(clash)    DE(int)     intcor
     15.81     -18.04       1.60        0.00      88.44       1.23       0.47       1.76       ----

> <Gold.Chemscore.Fitness>
15.8088

> <Gold.Chemscore.DG>
-18.0396

> <Gold.Chemscore.ZeroCoef>
-5.4800

> <Gold.Chemscore.Hbond>
1.6022

> <Gold.Chemscore.Metal>
0.0000

> <Gold.Chemscore.Lipo>
88.4419

> <Gold.Chemscore.Internal_Hbond>
0.0000

> <Gold.Chemscore.DEClash>
0.4750

> <Gold.Chemscore.DEInternal>
1.7558

> <Gold.Chemscore.Rot>
1.2264

> <Gold.Chemscore.Internal.Correction>
   9.000000E+99

> <Gold.Chemscore.Hbonds>
donor molecule, donor type, donor heavy atom, donor atom, acceptor molecule, acceptor atom, score
      P1  H  7997  8009       L1    10  0.74
      P1  H  8011  8017       L1     2  0.25

> <Gold.Chemscore.Hbond.Weighted>
-5.3515

> <Gold.Chemscore.Metal.Weighted>
-0.0000

> <Gold.Chemscore.Lipo.Weighted>
-10.3477

> <Gold.Chemscore.Internal_Hbond.Weighted>
0.0000

> <Gold.Chemscore.DEClash.Weighted>
0.4750

> <Gold.Chemscore.DEInternal.Weighted>
1.7558

> <Gold.Chemscore.Rot.Weighted>
3.1396

> <Gold.Chemscore.Internal.Correction.Weighted>
   9.000000E+99

> <Gold.Protein.RotatedTorsions>
[ 6907 6896 6895 6894 ] final   77.63 input  -60.11 | X-H torsion
[ 7974 7965 7964 7962 ] final  -32.90 input  175.53 | X-H torsion
[ 8008 7997 7996 7995 ] final  176.31 input   59.86 | X-H torsion
[ 10167 10162 10161 10158 ] final -142.89 input  -65.29 | X-H torsion
[ 10718 10713 10712 10709 ] final   71.16 input   66.30 | X-H torsion
[ 10763 10752 10751 10750 ] final -128.63 input  -60.55 | X-H torsion
[ 11005 11000 10999 10996 ] final  -25.65 input  -57.11 | X-H torsion

> <Gold.Protein.ActiveResidues>
 VAL166  LYS551  ARG553  GLY616  TRP617  ASP618  TYR619  PRO620  LYS621  CYS622 
 ASP623  PHE694  ASN695  SER759  ASP760  ASP761  ALA762  ILE779  LEU786  VAL792 
 PHE793  MET794  SER795  GLU796  ALA797  LYS798  CYS799  TRP800  GLU811  SER814 

> <Gold.Protein.RotatedAtoms>
  152.5126  134.3787  159.9343 H   0  0  0  0  0  0  0  0  0  0  0  0  # atno 6907 bound_to 6896
  151.3743  133.3837  159.2711 H   0  0  0  0  0  0  0  0  0  0  0  0  # atno 6908 bound_to 6896
  150.9553  134.8968  159.7756 H   0  0  0  0  0  0  0  0  0  0  0  0  # atno 6909 bound_to 6896
  146.0953  140.5850  142.8845 H   0  0  0  0  0  0  0  0  0  0  0  0  # atno 7974 bound_to 7965
  156.0778  140.1387  156.9750 H   0  0  0  0  0  0  0  0  0  0  0  0  # atno 8008 bound_to 7997
  154.4567  140.0958  156.6828 H   0  0  0  0  0  0  0  0  0  0  0  0  # atno 8009 bound_to 7997
  155.5125  140.3454  155.4393 H   0  0  0  0  0  0  0  0  0  0  0  0  # atno 8010 bound_to 7997
  139.8045  143.7787  152.2660 H   0  0  0  0  0  0  0  0  0  0  0  0  # atno 10167 bound_to 10162
  157.6437  130.9514  150.0751 H   0  0  0  0  0  0  0  0  0  0  0  0  # atno 10718 bound_to 10713
  154.8756  135.3922  154.3787 H   0  0  0  0  0  0  0  0  0  0  0  0  # atno 10763 bound_to 10752
  153.4538  135.7028  153.6098 H   0  0  0  0  0  0  0  0  0  0  0  0  # atno 10764 bound_to 10752
  153.4626  135.3808  155.2315 H   0  0  0  0  0  0  0  0  0  0  0  0  # atno 10765 bound_to 10752
  140.8957  133.7558  156.0479 H   0  0  0  0  0  0  0  0  0  0  0  0  # atno 11005 bound_to 11000
  144.7391  140.4891  143.6882 LP  0  0  0  0  0  0  0  0  0  0  0  0  # atno 17320 bound_to 7965
  145.5960  139.1499  143.3156 LP  0  0  0  0  0  0  0  0  0  0  0  0  # atno 17321 bound_to 7965
  139.7918  144.7407  150.9945 LP  0  0  0  0  0  0  0  0  0  0  0  0  # atno 17342 bound_to 10162
  140.7819  143.4435  151.0517 LP  0  0  0  0  0  0  0  0  0  0  0  0  # atno 17343 bound_to 10162
  156.1743  130.3647  149.9121 LP  0  0  0  0  0  0  0  0  0  0  0  0  # atno 17370 bound_to 10713
  156.7089  130.8962  151.3607 LP  0  0  0  0  0  0  0  0  0  0  0  0  # atno 17371 bound_to 10713
  140.8292  134.3199  157.5355 LP  0  0  0  0  0  0  0  0  0  0  0  0  # atno 17394 bound_to 11000
  139.8735  134.9353  156.3631 LP  0  0  0  0  0  0  0  0  0  0  0  0  # atno 17395 bound_to 11000

$$$$
