AV-unprocessed.smi:54|AV-procd|sdf|542|dock1
  -GOLD-   2262016433D 1   1.00000     0.00000
 Structure written by MMmdl.
 44 46  0  0  0  0  0  0  0  0  1 V2000
  145.5845  133.5053  150.9663 C   0  0  0  0  0  0  0  0  0  0  0  0
  146.8104  132.9506  151.7094 C   0  0  0  0  0  0  0  0  0  0  0  0
  146.5571  131.5212  152.2151 C   0  0  0  0  0  0  0  0  0  0  0  0
  147.1996  133.8760  152.8680 C   0  0  0  0  0  0  0  0  0  0  0  0
  146.5365  134.8724  153.1590 O   0  0  0  0  0  0  0  0  0  0  0  0
  148.4058  133.5019  153.5852 N   0  0  0  0  0  0  0  0  0  0  0  0
  148.9765  134.1523  154.6256 C   0  0  0  0  0  0  0  0  0  0  0  0
  148.9137  135.4674  154.7786 N   0  0  0  0  0  0  0  0  0  0  0  0
  149.5576  135.9427  155.8866 C   0  0  0  0  0  0  0  0  0  0  0  0
  150.2296  135.1961  156.8310 C   0  0  0  0  0  0  0  0  0  0  0  0
  150.7509  136.0282  157.8150 N   0  0  0  0  0  0  0  0  0  0  0  0
  150.3863  137.2246  157.4452 C   0  0  0  0  0  0  0  0  0  0  0  0
  149.6687  137.2614  156.2714 N   0  0  0  0  0  0  0  0  0  0  0  0
  149.0706  138.4307  155.5496 C   0  0  1  0  0  0  0  0  0  0  0  0
  149.2757  139.5733  156.3253 O   0  0  0  0  0  0  0  0  0  0  0  0
  150.4509  140.2415  155.8799 C   0  0  2  0  0  0  0  0  0  0  0  0
  150.5056  141.6868  156.4042 C   0  0  0  0  0  0  0  0  0  0  0  0
  149.2518  142.3101  156.2253 O   0  0  0  0  0  0  0  0  0  0  0  0
  150.3377  140.0874  154.3585 C   0  0  2  0  0  0  0  0  0  0  0  0
  149.4498  141.0572  153.8257 O   0  0  0  0  0  0  0  0  0  0  0  0
  149.8076  138.6605  154.2151 C   0  0  2  0  0  0  0  0  0  0  0  0
  148.9802  138.4925  153.0789 O   0  0  0  0  0  0  0  0  0  0  0  0
  150.2941  133.7699  156.6884 C   0  0  0  0  0  0  0  0  0  0  0  0
  150.8403  132.9539  157.4276 O   0  0  0  0  0  0  0  0  0  0  0  0
  149.6303  133.3236  155.5378 N   0  0  0  0  0  0  0  0  0  0  0  0
  148.0102  138.1918  155.4580 H   0  0  0  0  0  0  0  0  0  0  0  0
  151.3308  139.6888  156.2162 H   0  0  0  0  0  0  0  0  0  0  0  0
  151.3041  140.2067  153.8676 H   0  0  0  0  0  0  0  0  0  0  0  0
  150.6504  137.9712  154.1401 H   0  0  0  0  0  0  0  0  0  0  0  0
  145.7637  134.5197  150.6075 H   0  0  0  0  0  0  0  0  0  0  0  0
  144.7026  133.5298  151.6079 H   0  0  0  0  0  0  0  0  0  0  0  0
  145.3442  132.8903  150.0987 H   0  0  0  0  0  0  0  0  0  0  0  0
  147.6442  132.9156  151.0066 H   0  0  0  0  0  0  0  0  0  0  0  0
  147.4222  131.1304  152.7523 H   0  0  0  0  0  0  0  0  0  0  0  0
  146.3566  130.8449  151.3839 H   0  0  0  0  0  0  0  0  0  0  0  0
  145.6995  131.4787  152.8880 H   0  0  0  0  0  0  0  0  0  0  0  0
  148.8866  132.6829  153.2437 H   0  0  0  0  0  0  0  0  0  0  0  0
  150.6347  138.1047  158.0204 H   0  0  0  0  0  0  0  0  0  0  0  0
  150.7232  141.6903  157.4725 H   0  0  0  0  0  0  0  0  0  0  0  0
  151.2876  142.2638  155.9095 H   0  0  0  0  0  0  0  0  0  0  0  0
  149.3986  143.1939  155.9247 H   0  0  0  0  0  0  0  0  0  0  0  0
  149.0778  141.5451  154.5450 H   0  0  0  0  0  0  0  0  0  0  0  0
  148.9563  137.5728  152.8595 H   0  0  0  0  0  0  0  0  0  0  0  0
  149.6399  132.3282  155.3700 H   0  0  0  0  0  0  0  0  0  0  0  0
  1  2  1  0  0  0  0
  1 30  1  0  0  0  0
  1 31  1  0  0  0  0
  1 32  1  0  0  0  0
  2  3  1  0  0  0  0
  2  4  1  0  0  0  0
  2 33  1  0  0  0  0
  3 34  1  0  0  0  0
  3 35  1  0  0  0  0
  3 36  1  0  0  0  0
  4  5  2  0  0  0  0
  4  6  1  0  0  0  0
  6 37  1  0  0  0  0
  6  7  1  0  0  0  0
  7 25  1  0  0  0  0
  7  8  2  0  0  0  0
  8  9  1  0  0  0  0
  9 13  1  0  0  0  0
  9 10  2  0  0  0  0
 10 11  1  0  0  0  0
 10 23  1  0  0  0  0
 11 12  2  0  0  0  0
 12 13  1  0  0  0  0
 12 38  1  0  0  0  0
 13 14  1  0  0  0  0
 14 26  1  0  0  0  0
 14 21  1  0  0  0  0
 14 15  1  0  0  0  0
 15 16  1  0  0  0  0
 16 27  1  0  0  0  0
 16 17  1  0  0  0  0
 16 19  1  0  0  0  0
 17 18  1  0  0  0  0
 17 39  1  0  0  0  0
 17 40  1  0  0  0  0
 18 41  1  0  0  0  0
 19 28  1  0  0  0  0
 19 20  1  0  0  0  0
 19 21  1  0  0  0  0
 20 42  1  0  0  0  0
 21 29  1  0  0  0  0
 21 22  1  0  0  0  0
 22 43  1  0  0  0  0
 23 24  2  0  0  0  0
 23 25  1  0  0  0  0
 25 44  1  0  0  0  0
M  END
> <s_m_source_file>
AV-unprocessed.smi

> <i_m_source_file_index>
54

> <i_lp_mmshare_version>
43012

> <i_f3d_flags>
0

> <s_epik_input>
W0NIM11bQ0hdKFtDSDNdKUMoPU8pW05IXWMobjEpW25IXWMoPU8pYyhjMTIpbltjSF1uMltDQEBIXTNPW0NASF0oW0NIMl1bT0hdKVtDQEBIXShbT0hdKVtDQEhdM1tPSF0=

> <s_epik_cmdline>
J2VwaWtfcHl0aG9uJywgJy1waCcsICc3LjAnLCAnLXRuJywgJzgnLCAnLW1hJywgJzIwMCcsICctbWV0YWxfYmluZGluZycsICctaW1hZScsICc8aW5maWxlLm1hZT4nLCAnLW9tYWUnLCAnPG91dGZpbGUubWFlPic=

> <r_lp_tautomer_probability>
0.85571

> <r_epik_Ionization_Penalty>
0.0316551

> <r_epik_Ionization_Penalty_Charging>
0.0316043

> <r_epik_Ionization_Penalty_Neutral>
5.07097e-05

> <r_epik_State_Penalty>
3.15494e-07

> <r_epik_Charging_Adjusted_Penalty>
0.0316047

> <i_epik_Tot_Q>
0

> <i_epik_Tot_abs_Q>
0

> <r_epik_Metal_State_Penalty>
0.421206

> <b_epik_Metal_Only>
0

> <s_epik_Chemistry_Notes>
This compound contains an acetal/aminal-like group ( X-CH(R)-Y where X, Y are N, S, or O) that may be acid/base labile, releasing an aldehyde.

> <s_lp_Force_Field>
OPLS_2005

> <r_lp_Energy>
43.5631

> <b_lp_Chiralities_Consistent>
1

> <s_lp_Variant>
AV-unprocessed.smi:54-14

> <Gold.Version>
5.8.1

> <Gold.Id.Protein>
6NUR|6NUR_protein|mol2

> <Gold.PLP.Fitness>
43.0568

> <Gold.PLP.PLP>
-31.1194

> <Gold.PLP.part.hbond>
-7.9954

> <Gold.PLP.part.metal>
0.0000

> <Gold.PLP.part.buried>
-2.3715

> <Gold.PLP.part.nonpolar>
-22.2946

> <Gold.PLP.part.repulsive>
1.0404

> <Gold.PLP.ligand.clash>
0.0000

> <Gold.PLP.ligand.torsion>
0.4021

> <Gold.PLP.Chemscore.Hbond>
4.2191

> <Gold.PLP.Chemscore.CHOScore>
0.0000

> <Gold.PLP.Chemscore.Metal>
0.0000

> <Gold.Chemscore.Hbonds>
donor molecule, donor type, donor heavy atom, donor atom, acceptor molecule, acceptor atom, score
      L1  H    18    41       P1  8028  1.00
      L1  H    22    43       P1  7948  1.00
      P1  H  6896  6908       L1    24  1.00
      P1  H  6896  6909       L1    11  0.28
      P1  H  8011  8017       L1    20  0.89

> <Gold.PLP.Chemscore.Internal.Correction>
0.0841

> <Gold.Rescore>
     Score         DG    S(hbond)    S(metal)    S(lipo)     H(rot)  DE(clash)    DE(int)     intcor
     11.04     -12.92       3.70        0.00      46.43       4.05       0.19       1.69       ----

> <Gold.Chemscore.Fitness>
11.0373

> <Gold.Chemscore.DG>
-12.9177

> <Gold.Chemscore.ZeroCoef>
-5.4800

> <Gold.Chemscore.Hbond>
3.7042

> <Gold.Chemscore.Metal>
0.0000

> <Gold.Chemscore.Lipo>
46.4256

> <Gold.Chemscore.Internal_Hbond>
0.0000

> <Gold.Chemscore.DEClash>
0.1889

> <Gold.Chemscore.DEInternal>
1.6914

> <Gold.Chemscore.Rot>
4.0493

> <Gold.Chemscore.Internal.Correction>
   9.000000E+99

> <Gold.Chemscore.Hbonds>
donor molecule, donor type, donor heavy atom, donor atom, acceptor molecule, acceptor atom, score
      L1  H    18    41       P1  8028  0.95
      L1  H    22    43       P1  7948  0.98
      P1  H  6896  6908       L1    24  0.94
      P1  H  6896  6909       L1    11  0.23
      P1  H  8011  8017       L1    20  0.46

> <Gold.Chemscore.Hbond.Weighted>
-12.3721

> <Gold.Chemscore.Metal.Weighted>
-0.0000

> <Gold.Chemscore.Lipo.Weighted>
-5.4318

> <Gold.Chemscore.Internal_Hbond.Weighted>
0.0000

> <Gold.Chemscore.DEClash.Weighted>
0.1889

> <Gold.Chemscore.DEInternal.Weighted>
1.6914

> <Gold.Chemscore.Rot.Weighted>
10.3662

> <Gold.Chemscore.Internal.Correction.Weighted>
   9.000000E+99

> <Gold.Protein.RotatedTorsions>
[ 6907 6896 6895 6894 ] final   83.16 input  -60.11 | X-H torsion
[ 7974 7965 7964 7962 ] final  115.30 input  175.53 | X-H torsion
[ 8008 7997 7996 7995 ] final  114.04 input   59.86 | X-H torsion
[ 10167 10162 10161 10158 ] final  154.65 input  -65.29 | X-H torsion
[ 10718 10713 10712 10709 ] final   79.17 input   66.30 | X-H torsion
[ 10763 10752 10751 10750 ] final   -6.86 input  -60.55 | X-H torsion
[ 11005 11000 10999 10996 ] final  -66.88 input  -57.11 | X-H torsion

> <Gold.Protein.ActiveResidues>
 VAL166  LYS551  ARG553  GLY616  TRP617  ASP618  TYR619  PRO620  LYS621  CYS622 
 ASP623  PHE694  ASN695  SER759  ASP760  ASP761  ALA762  ILE779  LEU786  VAL792 
 PHE793  MET794  SER795  GLU796  ALA797  LYS798  CYS799  TRP800  GLU811  SER814 

> <Gold.Protein.RotatedAtoms>
  152.5319  134.2938  159.9052 H   0  0  0  0  0  0  0  0  0  0  0  0  # atno 6907 bound_to 6896
  151.2890  133.4167  159.2639 H   0  0  0  0  0  0  0  0  0  0  0  0  # atno 6908 bound_to 6896
  151.0217  134.9490  159.8120 H   0  0  0  0  0  0  0  0  0  0  0  0  # atno 6909 bound_to 6896
  145.1936  139.2987  143.4355 H   0  0  0  0  0  0  0  0  0  0  0  0  # atno 7974 bound_to 7965
  156.2296  140.2967  156.0155 H   0  0  0  0  0  0  0  0  0  0  0  0  # atno 8008 bound_to 7997
  155.2261  140.0417  157.2972 H   0  0  0  0  0  0  0  0  0  0  0  0  # atno 8009 bound_to 7997
  154.5973  140.2417  155.7846 H   0  0  0  0  0  0  0  0  0  0  0  0  # atno 8010 bound_to 7997
  139.4823  144.5168  151.7939 H   0  0  0  0  0  0  0  0  0  0  0  0  # atno 10167 bound_to 10162
  157.6768  130.9902  150.1893 H   0  0  0  0  0  0  0  0  0  0  0  0  # atno 10718 bound_to 10713
  153.4182  135.7009  153.6312 H   0  0  0  0  0  0  0  0  0  0  0  0  # atno 10763 bound_to 10752
  153.4777  135.3700  155.2426 H   0  0  0  0  0  0  0  0  0  0  0  0  # atno 10764 bound_to 10752
  154.8721  135.4058  154.3546 H   0  0  0  0  0  0  0  0  0  0  0  0  # atno 10765 bound_to 10752
  141.1493  133.6708  156.6206 H   0  0  0  0  0  0  0  0  0  0  0  0  # atno 11005 bound_to 11000
  146.3431  140.2157  142.8590 LP  0  0  0  0  0  0  0  0  0  0  0  0  # atno 17320 bound_to 7965
  145.0016  140.8637  143.5278 LP  0  0  0  0  0  0  0  0  0  0  0  0  # atno 17321 bound_to 7965
  140.4677  144.1632  150.5914 LP  0  0  0  0  0  0  0  0  0  0  0  0  # atno 17342 bound_to 10162
  140.4416  143.2524  151.9465 LP  0  0  0  0  0  0  0  0  0  0  0  0  # atno 17343 bound_to 10162
  156.2608  130.3710  149.8133 LP  0  0  0  0  0  0  0  0  0  0  0  0  # atno 17370 bound_to 10713
  156.5878  130.8493  151.3400 LP  0  0  0  0  0  0  0  0  0  0  0  0  # atno 17371 bound_to 10713
  140.3543  134.7742  157.4489 LP  0  0  0  0  0  0  0  0  0  0  0  0  # atno 17394 bound_to 11000
  140.0836  134.5698  155.8515 LP  0  0  0  0  0  0  0  0  0  0  0  0  # atno 17395 bound_to 11000

$$$$
