AV-unprocessed.smi:224|AV-procd|sdf|1707|dock10
  -GOLD-   2262020173D 1   1.00000     0.00000
 Structure written by MMmdl.
 56 59  0  0  0  0  0  0  0  0  2 V2000
  142.9998  132.3742  150.6504 C   0  0  0  0  0  0  0  0  0  0  0  0
  144.2567  133.1276  150.1903 C   0  0  2  0  0  0  0  0  0  0  0  0
  144.2135  133.2404  148.7832 O   0  0  0  0  0  0  0  0  0  0  0  0
  145.5664  132.4114  150.5819 C   0  0  0  0  0  0  0  0  0  0  0  0
  145.6937  132.2011  152.0529 N   0  3  2  0  0  0  0  0  0  0  0  0
  145.8743  133.4953  152.7714 C   0  0  0  0  0  0  0  0  0  0  0  0
  145.9368  133.3073  154.2935 C   0  0  0  0  0  0  0  0  0  0  0  0
  146.9859  132.3599  154.6412 N   0  0  0  0  0  0  0  0  0  0  0  0
  148.2309  132.8732  154.8314 C   0  0  0  0  0  0  0  0  0  0  0  0
  149.3119  132.0483  154.8119 N   0  0  0  0  0  0  0  0  0  0  0  0
  150.5423  132.5382  154.9873 C   0  0  0  0  0  0  0  0  0  0  0  0
  150.9138  133.8013  155.1990 N   0  0  0  0  0  0  0  0  0  0  0  0
  149.8355  134.6348  155.2349 C   0  0  0  0  0  0  0  0  0  0  0  0
  148.4731  134.2585  155.0607 C   0  0  0  0  0  0  0  0  0  0  0  0
  147.6582  135.3794  155.1731 N   0  0  0  0  0  0  0  0  0  0  0  0
  148.4906  136.3606  155.3914 C   0  0  0  0  0  0  0  0  0  0  0  0
  149.8181  136.0019  155.4503 N   0  0  0  0  0  0  0  0  0  0  0  0
  150.9489  136.8868  155.6863 C   0  0  0  0  0  0  0  0  0  0  0  0
  150.9506  138.1355  154.7744 C   0  0  1  0  0  0  0  0  0  0  0  0
  150.9707  137.7159  153.4206 O   0  0  0  0  0  0  0  0  0  0  0  0
  149.7534  139.0595  154.9777 C   0  0  0  0  0  0  0  0  0  0  0  0
  150.3296  140.4331  154.6655 C   0  0  0  0  0  0  0  0  0  0  0  0
  151.6193  140.3654  155.2494 O   0  0  0  0  0  0  0  0  0  0  0  0
  152.1557  139.0676  155.0126 C   0  0  0  0  0  0  0  0  0  0  0  0
  146.8356  131.0650  153.9841 C   0  0  0  0  0  0  0  0  0  0  0  0
  146.7237  131.1847  152.4439 C   0  0  1  0  0  0  0  0  0  0  0  0
  146.4302  129.7801  151.8778 C   0  0  0  0  0  0  0  0  0  0  0  0
  142.9606  132.2972  151.7372 H   0  0  0  0  0  0  0  0  0  0  0  0
  142.9688  131.3626  150.2442 H   0  0  0  0  0  0  0  0  0  0  0  0
  142.0940  132.8897  150.3289 H   0  0  0  0  0  0  0  0  0  0  0  0
  144.2349  134.1426  150.5847 H   0  0  0  0  0  0  0  0  0  0  0  0
  144.9759  133.7166  148.4907 H   0  0  0  0  0  0  0  0  0  0  0  0
  145.5874  131.4691  150.0404 H   0  0  0  0  0  0  0  0  0  0  0  0
  146.4316  132.9729  150.2250 H   0  0  0  0  0  0  0  0  0  0  0  0
  146.7910  133.9759  152.4251 H   0  0  0  0  0  0  0  0  0  0  0  0
  145.0580  134.1790  152.5445 H   0  0  0  0  0  0  0  0  0  0  0  0
  146.0807  134.2729  154.7758 H   0  0  0  0  0  0  0  0  0  0  0  0
  144.9854  132.9209  154.6605 H   0  0  0  0  0  0  0  0  0  0  0  0
  151.3436  131.8148  154.9544 H   0  0  0  0  0  0  0  0  0  0  0  0
  148.1570  137.3799  155.5245 H   0  0  0  0  0  0  0  0  0  0  0  0
  150.9332  137.1891  156.7342 H   0  0  0  0  0  0  0  0  0  0  0  0
  151.8677  136.3151  155.5479 H   0  0  0  0  0  0  0  0  0  0  0  0
  150.1132  137.3880  153.1965 H   0  0  0  0  0  0  0  0  0  0  0  0
  148.8878  138.8035  154.3656 H   0  0  0  0  0  0  0  0  0  0  0  0
  149.4385  139.0452  156.0216 H   0  0  0  0  0  0  0  0  0  0  0  0
  150.4183  140.5878  153.5890 H   0  0  0  0  0  0  0  0  0  0  0  0
  149.7381  141.2465  155.0861 H   0  0  0  0  0  0  0  0  0  0  0  0
  152.7504  138.7663  155.8756 H   0  0  0  0  0  0  0  0  0  0  0  0
  152.8262  139.1014  154.1521 H   0  0  0  0  0  0  0  0  0  0  0  0
  147.6533  130.3983  154.2618 H   0  0  0  0  0  0  0  0  0  0  0  0
  145.9304  130.6023  154.3793 H   0  0  0  0  0  0  0  0  0  0  0  0
  147.6844  131.5186  152.0493 H   0  0  0  0  0  0  0  0  0  0  0  0
  147.0984  129.0397  152.3188 H   0  0  0  0  0  0  0  0  0  0  0  0
  146.5830  129.7147  150.8018 H   0  0  0  0  0  0  0  0  0  0  0  0
  145.4084  129.4686  152.0972 H   0  0  0  0  0  0  0  0  0  0  0  0
  144.8103  131.8222  152.3627 H   0  0  0  0  0  0  0  0  0  0  0  0
  1  2  1  0  0  0  0
  1 28  1  0  0  0  0
  1 29  1  0  0  0  0
  1 30  1  0  0  0  0
  2  3  1  0  0  0  0
  2  4  1  0  0  0  0
  2 31  1  0  0  0  0
  3 32  1  0  0  0  0
  4  5  1  0  0  0  0
  4 33  1  0  0  0  0
  4 34  1  0  0  0  0
  5 26  1  0  0  0  0
  5  6  1  0  0  0  0
  5 56  1  0  0  0  0
  6  7  1  0  0  0  0
  6 35  1  0  0  0  0
  6 36  1  0  0  0  0
  7  8  1  0  0  0  0
  7 37  1  0  0  0  0
  7 38  1  0  0  0  0
  8  9  1  0  0  0  0
  8 25  1  0  0  0  0
  9 14  1  0  0  0  0
  9 10  2  0  0  0  0
 10 11  1  0  0  0  0
 11 12  2  0  0  0  0
 11 39  1  0  0  0  0
 12 13  1  0  0  0  0
 13 17  1  0  0  0  0
 13 14  2  0  0  0  0
 14 15  1  0  0  0  0
 15 16  2  0  0  0  0
 16 17  1  0  0  0  0
 16 40  1  0  0  0  0
 17 18  1  0  0  0  0
 18 19  1  0  0  0  0
 18 41  1  0  0  0  0
 18 42  1  0  0  0  0
 19 24  1  0  0  0  0
 19 20  1  0  0  0  0
 19 21  1  0  0  0  0
 20 43  1  0  0  0  0
 21 22  1  0  0  0  0
 21 44  1  0  0  0  0
 21 45  1  0  0  0  0
 22 23  1  0  0  0  0
 22 46  1  0  0  0  0
 22 47  1  0  0  0  0
 23 24  1  0  0  0  0
 24 48  1  0  0  0  0
 24 49  1  0  0  0  0
 25 26  1  0  0  0  0
 25 50  1  0  0  0  0
 25 51  1  0  0  0  0
 26 27  1  0  0  0  0
 26 52  1  0  0  0  0
 27 53  1  0  0  0  0
 27 54  1  0  0  0  0
 27 55  1  0  0  0  0
M  CHG  1   5   1
M  END
> <s_m_source_file>
AV-unprocessed.smi

> <i_m_source_file_index>
224

> <i_lp_mmshare_version>
43012

> <i_f3d_flags>
0

> <s_epik_input>
W0NIM11bQ0BIXShbT0hdKVtDSDJdTjFbQ0gyXVtDSDJdTihbQ0gyXVtDQEhdMVtDSDNdKWMobltjSF1uMiljKGMyMyluW2NIXW4zW0NIMl1bQ0BAXTQoW09IXSlbQ0gyXVtDSDJdT1tDSDJdNA==

> <s_epik_cmdline>
J2VwaWtfcHl0aG9uJywgJy1waCcsICc3LjAnLCAnLXRuJywgJzgnLCAnLW1hJywgJzIwMCcsICctbWV0YWxfYmluZGluZycsICctaW1hZScsICc8aW5maWxlLm1hZT4nLCAnLW9tYWUnLCAnPG91dGZpbGUubWFlPic=

> <r_lp_tautomer_probability>
1

> <r_epik_Ionization_Penalty>
0.00516958

> <r_epik_Ionization_Penalty_Charging>
0.00509693

> <r_epik_Ionization_Penalty_Neutral>
7.26542e-05

> <r_epik_State_Penalty>
-0

> <r_epik_Charging_Adjusted_Penalty>
0.00509693

> <i_epik_Tot_Q>
1

> <i_epik_Tot_abs_Q>
1

> <r_epik_Metal_State_Penalty>
-0

> <b_epik_Metal_Only>
0

> <s_lp_Force_Field>
OPLS_2005

> <r_lp_Energy>
50.3284

> <b_lp_Chiralities_Consistent>
1

> <s_lp_Variant>
AV-unprocessed.smi:224-1

> <Gold.Version>
5.8.1

> <Gold.Id.Protein>
6NUR|6NUR_protein|mol2

> <Gold.PLP.Fitness>
40.3298

> <Gold.PLP.PLP>
-35.6057

> <Gold.PLP.part.hbond>
-4.3959

> <Gold.PLP.part.metal>
0.0000

> <Gold.PLP.part.buried>
1.1234

> <Gold.PLP.part.nonpolar>
-31.1769

> <Gold.PLP.part.repulsive>
0.1918

> <Gold.PLP.ligand.clash>
0.0000

> <Gold.PLP.ligand.torsion>
0.6973

> <Gold.PLP.Chemscore.Hbond>
1.8422

> <Gold.PLP.Chemscore.CHOScore>
0.0000

> <Gold.PLP.Chemscore.Metal>
0.0000

> <Gold.Chemscore.Hbonds>
donor molecule, donor type, donor heavy atom, donor atom, acceptor molecule, acceptor atom, score
      L1  H     3    32       P1  7921  1.00
      L1  H    20    43       P1  7948  0.75

> <Gold.PLP.Chemscore.Internal.Correction>
0.5924

> <Gold.Rescore>
     Score         DG    S(hbond)    S(metal)    S(lipo)     H(rot)  DE(clash)    DE(int)     intcor
      8.69     -11.09       1.32        0.00      83.75       3.36       0.35       2.05       ----

> <Gold.Chemscore.Fitness>
8.6887

> <Gold.Chemscore.DG>
-11.0915

> <Gold.Chemscore.ZeroCoef>
-5.4800

> <Gold.Chemscore.Hbond>
1.3224

> <Gold.Chemscore.Metal>
0.0000

> <Gold.Chemscore.Lipo>
83.7530

> <Gold.Chemscore.Internal_Hbond>
0.0000

> <Gold.Chemscore.DEClash>
0.3507

> <Gold.Chemscore.DEInternal>
2.0521

> <Gold.Chemscore.Rot>
3.3611

> <Gold.Chemscore.Internal.Correction>
   9.000000E+99

> <Gold.Chemscore.Hbonds>
donor molecule, donor type, donor heavy atom, donor atom, acceptor molecule, acceptor atom, score
      L1  H     3    32       P1  7921  0.93
      L1  H    20    43       P1  7948  0.14

> <Gold.Chemscore.Hbond.Weighted>
-4.4169

> <Gold.Chemscore.Metal.Weighted>
-0.0000

> <Gold.Chemscore.Lipo.Weighted>
-9.7991

> <Gold.Chemscore.Internal_Hbond.Weighted>
0.0000

> <Gold.Chemscore.DEClash.Weighted>
0.3507

> <Gold.Chemscore.DEInternal.Weighted>
2.0521

> <Gold.Chemscore.Rot.Weighted>
8.6045

> <Gold.Chemscore.Internal.Correction.Weighted>
   9.000000E+99

> <Gold.Protein.RotatedTorsions>
[ 6907 6896 6895 6894 ] final  168.88 input  -60.11 | X-H torsion
[ 7974 7965 7964 7962 ] final -172.16 input  175.53 | X-H torsion
[ 8008 7997 7996 7995 ] final   44.41 input   59.86 | X-H torsion
[ 10167 10162 10161 10158 ] final    9.62 input  -65.29 | X-H torsion
[ 10718 10713 10712 10709 ] final   34.09 input   66.30 | X-H torsion
[ 10763 10752 10751 10750 ] final  -79.39 input  -60.55 | X-H torsion
[ 11005 11000 10999 10996 ] final  132.41 input  -57.11 | X-H torsion

> <Gold.Protein.ActiveResidues>
 VAL166  LYS551  ARG553  GLY616  TRP617  ASP618  TYR619  PRO620  LYS621  CYS622 
 ASP623  PHE694  ASN695  SER759  ASP760  ASP761  ALA762  ILE779  LEU786  VAL792 
 PHE793  MET794  SER795  GLU796  ALA797  LYS798  CYS799  TRP800  GLU811  SER814 

> <Gold.Protein.RotatedAtoms>
  151.8407  133.3423  159.3641 H   0  0  0  0  0  0  0  0  0  0  0  0  # atno 6907 bound_to 6896
  150.7236  134.5394  159.5749 H   0  0  0  0  0  0  0  0  0  0  0  0  # atno 6908 bound_to 6896
  152.2867  134.7769  160.0437 H   0  0  0  0  0  0  0  0  0  0  0  0  # atno 6909 bound_to 6896
  144.7149  140.1813  143.6358 H   0  0  0  0  0  0  0  0  0  0  0  0  # atno 7974 bound_to 7965
  155.3188  140.3395  155.4242 H   0  0  0  0  0  0  0  0  0  0  0  0  # atno 8008 bound_to 7997
  156.1919  140.1701  156.8112 H   0  0  0  0  0  0  0  0  0  0  0  0  # atno 8009 bound_to 7997
  154.5453  140.0716  156.8561 H   0  0  0  0  0  0  0  0  0  0  0  0  # atno 8010 bound_to 7997
  140.6244  143.8133  150.7215 H   0  0  0  0  0  0  0  0  0  0  0  0  # atno 10167 bound_to 10162
  157.3059  130.7374  149.6695 H   0  0  0  0  0  0  0  0  0  0  0  0  # atno 10718 bound_to 10713
  154.5380  135.5697  153.6815 H   0  0  0  0  0  0  0  0  0  0  0  0  # atno 10763 bound_to 10752
  152.9956  135.6221  154.2539 H   0  0  0  0  0  0  0  0  0  0  0  0  # atno 10764 bound_to 10752
  154.2469  135.2860  155.2811 H   0  0  0  0  0  0  0  0  0  0  0  0  # atno 10765 bound_to 10752
  139.9788  134.9555  156.9577 H   0  0  0  0  0  0  0  0  0  0  0  0  # atno 11005 bound_to 11000
  145.8853  139.2345  143.1581 LP  0  0  0  0  0  0  0  0  0  0  0  0  # atno 17320 bound_to 7965
  145.9955  140.8565  143.0044 LP  0  0  0  0  0  0  0  0  0  0  0  0  # atno 17321 bound_to 7965
  140.1731  143.4178  152.1987 LP  0  0  0  0  0  0  0  0  0  0  0  0  # atno 17342 bound_to 10162
  139.5467  144.7304  151.4562 LP  0  0  0  0  0  0  0  0  0  0  0  0  # atno 17343 bound_to 10162
  155.9674  130.4266  150.4705 LP  0  0  0  0  0  0  0  0  0  0  0  0  # atno 17370 bound_to 10713
  157.2694  131.0584  151.2269 LP  0  0  0  0  0  0  0  0  0  0  0  0  # atno 17371 bound_to 10713
  140.5139  134.0975  155.7276 LP  0  0  0  0  0  0  0  0  0  0  0  0  # atno 17394 bound_to 11000
  141.1463  133.9050  157.2208 LP  0  0  0  0  0  0  0  0  0  0  0  0  # atno 17395 bound_to 11000

$$$$
