AV-unprocessed.smi:3301|AV-procd|sdf|12653|dock9
  -GOLD-   2272018593D 1   1.00000     0.00000
 Structure written by MMmdl.
 37 38  0  0  0  0  0  0  0  0  2 V2000
  148.4091  141.2121  157.0372 C   0  0  0  0  0  0  0  0  0  0  0  0
  149.6021  140.4793  156.4026 C   0  0  1  0  0  0  0  0  0  0  0  0
  149.6335  140.5953  154.8630 C   0  0  0  0  0  0  0  0  0  0  0  0
  148.3280  140.9394  154.2921 N   0  0  0  0  0  0  0  0  0  0  0  0
  147.7739  142.1896  154.1933 C   0  0  0  0  0  0  0  0  0  0  0  0
  146.5483  142.0282  153.6001 C   0  0  0  0  0  0  0  0  0  0  0  0
  146.4047  140.6867  153.3659 N   0  3  0  0  0  0  0  0  0  0  0  0
  147.4867  140.0256  153.7905 C   0  0  0  0  0  0  0  0  0  0  0  0
  150.8429  140.9968  156.9718 N   0  0  0  0  0  0  0  0  0  0  0  0
  151.2502  140.8102  158.2369 C   0  0  0  0  0  0  0  0  0  0  0  0
  150.5946  140.1826  159.0700 O   0  0  0  0  0  0  0  0  0  0  0  0
  152.5936  141.4467  158.6148 C   0  0  0  0  0  0  0  0  0  0  0  0
  152.4567  142.5418  159.5763 N   0  0  0  0  0  0  0  0  0  0  0  0
  152.9604  142.4064  160.9334 C   0  0  0  0  0  0  0  0  0  0  0  0
  152.4864  143.6698  161.6664 C   0  0  0  0  0  0  0  0  0  0  0  0
  151.9715  144.6198  160.5793 C   0  0  0  0  0  0  0  0  0  0  0  0
  151.9133  143.7425  159.3407 C   0  0  0  0  0  0  0  0  0  0  0  0
  151.4265  144.1210  158.2760 O   0  0  0  0  0  0  0  0  0  0  0  0
  147.4592  140.7957  156.7016 H   0  0  0  0  0  0  0  0  0  0  0  0
  148.4160  142.2732  156.7857 H   0  0  0  0  0  0  0  0  0  0  0  0
  148.4315  141.1277  158.1243 H   0  0  0  0  0  0  0  0  0  0  0  0
  149.5154  139.4246  156.6711 H   0  0  0  0  0  0  0  0  0  0  0  0
  150.3589  141.3471  154.5477 H   0  0  0  0  0  0  0  0  0  0  0  0
  149.9415  139.6517  154.4100 H   0  0  0  0  0  0  0  0  0  0  0  0
  148.2812  143.0777  154.5426 H   0  0  0  0  0  0  0  0  0  0  0  0
  145.7876  142.7479  153.3353 H   0  0  0  0  0  0  0  0  0  0  0  0
  147.6492  138.9639  153.7350 H   0  0  0  0  0  0  0  0  0  0  0  0
  151.4396  141.5320  156.3574 H   0  0  0  0  0  0  0  0  0  0  0  0
  153.2600  140.6878  159.0286 H   0  0  0  0  0  0  0  0  0  0  0  0
  153.0697  141.8141  157.7050 H   0  0  0  0  0  0  0  0  0  0  0  0
  152.5823  141.5004  161.4089 H   0  0  0  0  0  0  0  0  0  0  0  0
  154.0497  142.3516  160.9096 H   0  0  0  0  0  0  0  0  0  0  0  0
  151.6786  143.4229  162.3571 H   0  0  0  0  0  0  0  0  0  0  0  0
  153.2899  144.1195  162.2506 H   0  0  0  0  0  0  0  0  0  0  0  0
  150.9907  145.0302  160.8219 H   0  0  0  0  0  0  0  0  0  0  0  0
  152.6649  145.4440  160.4087 H   0  0  0  0  0  0  0  0  0  0  0  0
  145.5968  140.2550  152.9349 H   0  0  0  0  0  0  0  0  0  0  0  0
  1  2  1  0  0  0  0
  1 19  1  0  0  0  0
  1 20  1  0  0  0  0
  1 21  1  0  0  0  0
  2  3  1  0  0  0  0
  2  9  1  0  0  0  0
  2 22  1  0  0  0  0
  3  4  1  0  0  0  0
  3 23  1  0  0  0  0
  3 24  1  0  0  0  0
  4  8  1  0  0  0  0
  4  5  1  0  0  0  0
  5  6  2  0  0  0  0
  5 25  1  0  0  0  0
  6  7  1  0  0  0  0
  6 26  1  0  0  0  0
  7  8  2  0  0  0  0
  7 37  1  0  0  0  0
  8 27  1  0  0  0  0
  9 10  1  0  0  0  0
  9 28  1  0  0  0  0
 10 11  2  0  0  0  0
 10 12  1  0  0  0  0
 12 13  1  0  0  0  0
 12 29  1  0  0  0  0
 12 30  1  0  0  0  0
 13 17  1  0  0  0  0
 13 14  1  0  0  0  0
 14 15  1  0  0  0  0
 14 31  1  0  0  0  0
 14 32  1  0  0  0  0
 15 16  1  0  0  0  0
 15 33  1  0  0  0  0
 15 34  1  0  0  0  0
 16 17  1  0  0  0  0
 16 35  1  0  0  0  0
 16 36  1  0  0  0  0
 17 18  2  0  0  0  0
M  CHG  1   7   1
M  END
> <s_m_source_file>
AV-unprocessed.smi

> <i_m_source_file_index>
3301

> <i_lp_mmshare_version>
43012

> <i_f3d_flags>
0

> <s_epik_input>
W2NIXTFuW2NIXVtjSF1uMVtDSDJdW0NAQEhdKFtDSDNdKVtOSF1DKD1PKVtDSDJdTjJbQ0gyXVtDSDJdW0NIMl1DMj1P

> <s_epik_cmdline>
J2VwaWtfcHl0aG9uJywgJy1waCcsICc3LjAnLCAnLXRuJywgJzgnLCAnLW1hJywgJzIwMCcsICctbWV0YWxfYmluZGluZycsICctaW1hZScsICc8aW5maWxlLm1hZT4nLCAnLW9tYWUnLCAnPG91dGZpbGUubWFlPic=

> <r_lp_tautomer_probability>
1

> <r_epik_Ionization_Penalty>
0.254232

> <r_epik_Ionization_Penalty_Charging>
0

> <r_epik_Ionization_Penalty_Neutral>
0.254232

> <r_epik_State_Penalty>
0.245698

> <r_epik_Charging_Adjusted_Penalty>
0.245698

> <i_epik_Tot_Q>
1

> <i_epik_Tot_abs_Q>
1

> <r_epik_Metal_State_Penalty>
0.5358

> <b_epik_Metal_Only>
0

> <s_lp_Force_Field>
OPLS_2005

> <r_lp_Energy>
15.9577

> <b_lp_Chiralities_Consistent>
1

> <s_lp_Variant>
AV-unprocessed.smi:3301-2

> <Gold.Version>
5.8.1

> <Gold.Id.Protein>
6NUR|6NUR_protein|mol2

> <Gold.PLP.Fitness>
44.6328

> <Gold.PLP.PLP>
-38.5871

> <Gold.PLP.part.hbond>
-1.2184

> <Gold.PLP.part.metal>
0.0000

> <Gold.PLP.part.buried>
-4.5635

> <Gold.PLP.part.nonpolar>
-33.4102

> <Gold.PLP.part.repulsive>
0.1893

> <Gold.PLP.ligand.clash>
0.0000

> <Gold.PLP.ligand.torsion>
1.0957

> <Gold.PLP.Chemscore.Hbond>
1.7920

> <Gold.PLP.Chemscore.CHOScore>
0.9400

> <Gold.PLP.Chemscore.Metal>
0.0000

> <Gold.Chemscore.Hbonds>
donor molecule, donor type, donor heavy atom, donor atom, acceptor molecule, acceptor atom, score
      L1  H     7    37       P1 10175  1.79
      L1  C     5    25       P1  8028  1.00

> <Gold.PLP.Chemscore.Internal.Correction>
0.0412

> <Gold.Rescore>
     Score         DG    S(hbond)    S(metal)    S(lipo)     H(rot)  DE(clash)    DE(int)     intcor
      9.96     -11.13       0.93        0.00      73.10       2.35       0.07       1.10       ----

> <Gold.Chemscore.Fitness>
9.9592

> <Gold.Chemscore.DG>
-11.1286

> <Gold.Chemscore.ZeroCoef>
-5.4800

> <Gold.Chemscore.Hbond>
0.9295

> <Gold.Chemscore.Metal>
0.0000

> <Gold.Chemscore.Lipo>
73.0984

> <Gold.Chemscore.Internal_Hbond>
0.0000

> <Gold.Chemscore.DEClash>
0.0687

> <Gold.Chemscore.DEInternal>
1.1007

> <Gold.Chemscore.Rot>
2.3470

> <Gold.Chemscore.Internal.Correction>
   9.000000E+99

> <Gold.Chemscore.Hbonds>
donor molecule, donor type, donor heavy atom, donor atom, acceptor molecule, acceptor atom, score
      L1  H     7    37       P1 10175  0.83

> <Gold.Chemscore.Hbond.Weighted>
-3.1044

> <Gold.Chemscore.Metal.Weighted>
-0.0000

> <Gold.Chemscore.Lipo.Weighted>
-8.5525

> <Gold.Chemscore.Internal_Hbond.Weighted>
0.0000

> <Gold.Chemscore.DEClash.Weighted>
0.0687

> <Gold.Chemscore.DEInternal.Weighted>
1.1007

> <Gold.Chemscore.Rot.Weighted>
6.0083

> <Gold.Chemscore.Internal.Correction.Weighted>
   9.000000E+99

> <Gold.Protein.RotatedTorsions>
[ 6907 6896 6895 6894 ] final   26.83 input  -60.11 | X-H torsion
[ 7974 7965 7964 7962 ] final -155.57 input  175.53 | X-H torsion
[ 8008 7997 7996 7995 ] final  131.73 input   59.86 | X-H torsion
[ 10167 10162 10161 10158 ] final  113.68 input  -65.29 | X-H torsion
[ 10718 10713 10712 10709 ] final -150.32 input   66.30 | X-H torsion
[ 10763 10752 10751 10750 ] final  178.20 input  -60.55 | X-H torsion
[ 11005 11000 10999 10996 ] final -161.36 input  -57.11 | X-H torsion

> <Gold.Protein.ActiveResidues>
 VAL166  LYS551  ARG553  GLY616  TRP617  ASP618  TYR619  PRO620  LYS621  CYS622 
 ASP623  PHE694  ASN695  SER759  ASP760  ASP761  ALA762  ILE779  LEU786  VAL792 
 PHE793  MET794  SER795  GLU796  ALA797  LYS798  CYS799  TRP800  GLU811  SER814 

> <Gold.Protein.RotatedAtoms>
  151.9933  134.9967  160.0562 H   0  0  0  0  0  0  0  0  0  0  0  0  # atno 6907 bound_to 6896
  152.1588  133.4563  159.4858 H   0  0  0  0  0  0  0  0  0  0  0  0  # atno 6908 bound_to 6896
  150.6885  134.2016  159.4367 H   0  0  0  0  0  0  0  0  0  0  0  0  # atno 6909 bound_to 6896
  144.7634  140.4231  143.5960 H   0  0  0  0  0  0  0  0  0  0  0  0  # atno 7974 bound_to 7965
  156.2974  140.2564  156.2974 H   0  0  0  0  0  0  0  0  0  0  0  0  # atno 8008 bound_to 7997
  154.9451  140.0395  157.2135 H   0  0  0  0  0  0  0  0  0  0  0  0  # atno 8009 bound_to 7997
  154.8090  140.2841  155.5871 H   0  0  0  0  0  0  0  0  0  0  0  0  # atno 8010 bound_to 7997
  139.6444  144.7126  151.2173 H   0  0  0  0  0  0  0  0  0  0  0  0  # atno 10167 bound_to 10162
  156.4446  130.8138  151.2369 H   0  0  0  0  0  0  0  0  0  0  0  0  # atno 10718 bound_to 10713
  154.5046  135.2785  155.1393 H   0  0  0  0  0  0  0  0  0  0  0  0  # atno 10763 bound_to 10752
  154.3013  135.6247  153.5429 H   0  0  0  0  0  0  0  0  0  0  0  0  # atno 10764 bound_to 10752
  152.9908  135.5697  154.5496 H   0  0  0  0  0  0  0  0  0  0  0  0  # atno 10765 bound_to 10752
  140.6212  134.4748  157.5223 H   0  0  0  0  0  0  0  0  0  0  0  0  # atno 11005 bound_to 11000
  145.6548  139.1571  143.2842 LP  0  0  0  0  0  0  0  0  0  0  0  0  # atno 17320 bound_to 7965
  146.1718  140.6633  142.9229 LP  0  0  0  0  0  0  0  0  0  0  0  0  # atno 17321 bound_to 7965
  140.7507  143.6257  150.8471 LP  0  0  0  0  0  0  0  0  0  0  0  0  # atno 17342 bound_to 10162
  139.9898  143.5860  152.2914 LP  0  0  0  0  0  0  0  0  0  0  0  0  # atno 17343 bound_to 10162
  157.7505  131.0157  150.3515 LP  0  0  0  0  0  0  0  0  0  0  0  0  # atno 17370 bound_to 10713
  156.3880  130.3893  149.7051 LP  0  0  0  0  0  0  0  0  0  0  0  0  # atno 17371 bound_to 10713
  139.9152  134.8260  156.1389 LP  0  0  0  0  0  0  0  0  0  0  0  0  # atno 17394 bound_to 11000
  141.0741  133.6783  156.2200 LP  0  0  0  0  0  0  0  0  0  0  0  0  # atno 17395 bound_to 11000

$$$$
