AV-unprocessed.smi:2356|AV-procd|sdf|9394|dock1
  -GOLD-   2272013 23D 1   1.00000     0.00000
 Structure written by MMmdl.
 53 56  0  0  0  0  0  0  0  0  1 V2000
  151.2762  138.0532  154.1664 C   0  0  0  0  0  0  0  0  0  0  0  0
  150.4470  139.1764  154.7656 C   0  0  0  0  0  0  0  0  0  0  0  0
  151.1468  140.1162  155.4371 N   0  0  0  0  0  0  0  0  0  0  0  0
  150.4875  141.1508  156.0087 C   0  0  0  0  0  0  0  0  0  0  0  0
  151.2617  142.1048  156.6993 N   0  0  0  0  0  0  0  0  0  0  0  0
  150.9789  143.5289  156.6245 C   0  0  0  0  0  0  0  0  0  0  0  0
  151.9327  144.1698  157.6319 C   0  0  0  0  0  0  0  0  0  0  0  0
  152.0782  143.0932  158.7069 C   0  0  0  0  0  0  0  0  0  0  0  0
  151.9694  141.7762  157.9308 C   0  0  0  0  0  0  0  0  0  0  0  0
  149.0817  141.2761  155.9146 C   0  0  0  0  0  0  0  0  0  0  0  0
  148.3508  140.2984  155.2140 C   0  0  0  0  0  0  0  0  0  0  0  0
  149.0413  139.2209  154.6125 C   0  0  0  0  0  0  0  0  0  0  0  0
  148.3940  138.1702  153.9070 N   0  0  0  0  0  0  0  0  0  0  0  0
  147.2082  137.5819  154.1575 C   0  0  0  0  0  0  0  0  0  0  0  0
  146.4726  137.8605  155.1019 O   0  0  0  0  0  0  0  0  0  0  0  0
  146.8592  136.6482  153.2529 N   0  0  0  0  0  0  0  0  0  0  0  0
  145.6466  135.8259  153.2252 C   0  0  1  0  0  0  0  0  0  0  0  0
  144.4577  136.6507  152.7120 C   0  0  0  0  0  0  0  0  0  0  0  0
  143.2084  135.7643  152.5703 C   0  0  0  0  0  0  0  0  0  0  0  0
  143.4854  134.6548  151.7204 O   0  0  0  0  0  0  0  0  0  0  0  0
  144.5100  133.8032  152.2256 C   0  0  1  0  0  0  0  0  0  0  0  0
  144.6411  132.6054  151.3063 C   0  0  0  0  0  0  0  0  0  0  0  0
  145.7023  131.5557  151.5428 C   0  0  0  0  0  0  0  0  0  0  0  0
  145.8179  132.4914  150.3642 C   0  0  0  0  0  0  0  0  0  0  0  0
  145.8247  134.5965  152.3177 C   0  0  0  0  0  0  0  0  0  0  0  0
  151.2151  138.0783  153.0783 H   0  0  0  0  0  0  0  0  0  0  0  0
  150.9145  137.0838  154.5105 H   0  0  0  0  0  0  0  0  0  0  0  0
  152.3272  138.1374  154.4457 H   0  0  0  0  0  0  0  0  0  0  0  0
  151.1374  143.9206  155.6193 H   0  0  0  0  0  0  0  0  0  0  0  0
  149.9413  143.7085  156.9088 H   0  0  0  0  0  0  0  0  0  0  0  0
  152.8999  144.3527  157.1615 H   0  0  0  0  0  0  0  0  0  0  0  0
  151.5624  145.1179  158.0223 H   0  0  0  0  0  0  0  0  0  0  0  0
  153.0073  143.1763  159.2712 H   0  0  0  0  0  0  0  0  0  0  0  0
  151.2498  143.1704  159.4123 H   0  0  0  0  0  0  0  0  0  0  0  0
  151.4525  141.0188  158.5210 H   0  0  0  0  0  0  0  0  0  0  0  0
  152.9584  141.3943  157.6757 H   0  0  0  0  0  0  0  0  0  0  0  0
  148.5527  142.0991  156.3710 H   0  0  0  0  0  0  0  0  0  0  0  0
  147.2768  140.3871  155.1668 H   0  0  0  0  0  0  0  0  0  0  0  0
  148.8477  137.8857  153.0513 H   0  0  0  0  0  0  0  0  0  0  0  0
  147.5021  136.5048  152.4874 H   0  0  0  0  0  0  0  0  0  0  0  0
  145.4104  135.4953  154.2385 H   0  0  0  0  0  0  0  0  0  0  0  0
  144.2516  137.4820  153.3873 H   0  0  0  0  0  0  0  0  0  0  0  0
  144.6985  137.0876  151.7417 H   0  0  0  0  0  0  0  0  0  0  0  0
  142.8709  135.4110  153.5459 H   0  0  0  0  0  0  0  0  0  0  0  0
  142.3882  136.3398  152.1409 H   0  0  0  0  0  0  0  0  0  0  0  0
  144.2258  133.4474  153.2178 H   0  0  0  0  0  0  0  0  0  0  0  0
  143.6909  132.2459  150.9154 H   0  0  0  0  0  0  0  0  0  0  0  0
  146.3908  131.7064  152.3719 H   0  0  0  0  0  0  0  0  0  0  0  0
  145.4378  130.5201  151.3394 H   0  0  0  0  0  0  0  0  0  0  0  0
  145.6290  132.0819  149.3740 H   0  0  0  0  0  0  0  0  0  0  0  0
  146.5811  133.2661  150.4102 H   0  0  0  0  0  0  0  0  0  0  0  0
  146.1325  134.9137  151.3201 H   0  0  0  0  0  0  0  0  0  0  0  0
  146.6174  133.9510  152.6950 H   0  0  0  0  0  0  0  0  0  0  0  0
  1  2  1  0  0  0  0
  1 26  1  0  0  0  0
  1 27  1  0  0  0  0
  1 28  1  0  0  0  0
  2 12  1  0  0  0  0
  2  3  2  0  0  0  0
  3  4  1  0  0  0  0
  4  5  1  0  0  0  0
  4 10  2  0  0  0  0
  5  9  1  0  0  0  0
  5  6  1  0  0  0  0
  6  7  1  0  0  0  0
  6 29  1  0  0  0  0
  6 30  1  0  0  0  0
  7  8  1  0  0  0  0
  7 31  1  0  0  0  0
  7 32  1  0  0  0  0
  8  9  1  0  0  0  0
  8 33  1  0  0  0  0
  8 34  1  0  0  0  0
  9 35  1  0  0  0  0
  9 36  1  0  0  0  0
 10 11  1  0  0  0  0
 10 37  1  0  0  0  0
 11 12  2  0  0  0  0
 11 38  1  0  0  0  0
 12 13  1  0  0  0  0
 13 14  1  0  0  0  0
 13 39  1  0  0  0  0
 14 15  2  0  0  0  0
 14 16  1  0  0  0  0
 16 17  1  0  0  0  0
 16 40  1  0  0  0  0
 17 25  1  0  0  0  0
 17 18  1  0  0  0  0
 17 41  1  0  0  0  0
 18 19  1  0  0  0  0
 18 42  1  0  0  0  0
 18 43  1  0  0  0  0
 19 20  1  0  0  0  0
 19 44  1  0  0  0  0
 19 45  1  0  0  0  0
 20 21  1  0  0  0  0
 21 22  1  0  0  0  0
 21 25  1  0  0  0  0
 21 46  1  0  0  0  0
 22 24  1  0  0  0  0
 22 23  1  0  0  0  0
 22 47  1  0  0  0  0
 23 24  1  0  0  0  0
 23 48  1  0  0  0  0
 23 49  1  0  0  0  0
 24 50  1  0  0  0  0
 24 51  1  0  0  0  0
 25 52  1  0  0  0  0
 25 53  1  0  0  0  0
M  END
> <s_m_source_file>
AV-unprocessed.smi

> <i_m_source_file_index>
2356

> <i_lp_mmshare_version>
43012

> <i_f3d_flags>
0

> <s_epik_input>
W0NIMl0xW0NIMl1bQ0gyXVtDSDJdTjFjKG5jMltDSDNdKVtjSF1bY0hdYzJbTkhdQyg9TylbTkhdW0NAQEhdM1tDSDJdW0NIMl1PW0NASF0oW0NIMl0zKVtDSF00W0NIMl1bQ0gyXTQ=

> <s_epik_cmdline>
J2VwaWtfcHl0aG9uJywgJy1waCcsICc3LjAnLCAnLXRuJywgJzgnLCAnLW1hJywgJzIwMCcsICctbWV0YWxfYmluZGluZycsICctaW1hZScsICc8aW5maWxlLm1hZT4nLCAnLW9tYWUnLCAnPG91dGZpbGUubWFlPic=

> <r_lp_tautomer_probability>
1

> <r_epik_Ionization_Penalty>
0.308781

> <r_epik_Ionization_Penalty_Charging>
0

> <r_epik_Ionization_Penalty_Neutral>
0.308781

> <r_epik_State_Penalty>
0.302092

> <r_epik_Charging_Adjusted_Penalty>
0.302092

> <i_epik_Tot_Q>
0

> <i_epik_Tot_abs_Q>
0

> <r_epik_Metal_State_Penalty>
0.197467

> <b_epik_Metal_Only>
0

> <s_lp_Force_Field>
OPLS_2005

> <r_lp_Energy>
52.5469

> <b_lp_Chiralities_Consistent>
1

> <s_lp_Variant>
AV-unprocessed.smi:2356-2

> <Gold.Version>
5.8.1

> <Gold.Id.Protein>
6NUR|6NUR_protein|mol2

> <Gold.PLP.Fitness>
43.9991

> <Gold.PLP.PLP>
-41.0882

> <Gold.PLP.part.hbond>
-2.9076

> <Gold.PLP.part.metal>
0.0000

> <Gold.PLP.part.buried>
-4.1145

> <Gold.PLP.part.nonpolar>
-35.1268

> <Gold.PLP.part.repulsive>
0.3087

> <Gold.PLP.ligand.clash>
0.0000

> <Gold.PLP.ligand.torsion>
2.1085

> <Gold.PLP.Chemscore.Hbond>
1.9472

> <Gold.PLP.Chemscore.CHOScore>
0.0000

> <Gold.PLP.Chemscore.Metal>
0.0000

> <Gold.Chemscore.Hbonds>
donor molecule, donor type, donor heavy atom, donor atom, acceptor molecule, acceptor atom, score
      L1  H    13    39       P1  7948  0.80
      L1  H    16    40       P1  7948  1.00
      P1  H  7989  7998       L1     3  0.19

> <Gold.PLP.Chemscore.Internal.Correction>
1.2860

> <Gold.Rescore>
     Score         DG    S(hbond)    S(metal)    S(lipo)     H(rot)  DE(clash)    DE(int)     intcor
     18.55     -21.89       1.67        0.00     117.44       1.14       1.44       1.90       ----

> <Gold.Chemscore.Fitness>
18.5538

> <Gold.Chemscore.DG>
-21.8930

> <Gold.Chemscore.ZeroCoef>
-5.4800

> <Gold.Chemscore.Hbond>
1.6735

> <Gold.Chemscore.Metal>
0.0000

> <Gold.Chemscore.Lipo>
117.4410

> <Gold.Chemscore.Internal_Hbond>
0.0000

> <Gold.Chemscore.DEClash>
1.4356

> <Gold.Chemscore.DEInternal>
1.9036

> <Gold.Chemscore.Rot>
1.1395

> <Gold.Chemscore.Internal.Correction>
   9.000000E+99

> <Gold.Chemscore.Hbonds>
donor molecule, donor type, donor heavy atom, donor atom, acceptor molecule, acceptor atom, score
      L1  H    13    39       P1  7948  0.75
      L1  H    16    40       P1  7948  0.96

> <Gold.Chemscore.Hbond.Weighted>
-5.5896

> <Gold.Chemscore.Metal.Weighted>
-0.0000

> <Gold.Chemscore.Lipo.Weighted>
-13.7406

> <Gold.Chemscore.Internal_Hbond.Weighted>
0.0000

> <Gold.Chemscore.DEClash.Weighted>
1.4356

> <Gold.Chemscore.DEInternal.Weighted>
1.9036

> <Gold.Chemscore.Rot.Weighted>
2.9171

> <Gold.Chemscore.Internal.Correction.Weighted>
   9.000000E+99

> <Gold.Protein.RotatedTorsions>
[ 6907 6896 6895 6894 ] final -105.45 input  -60.11 | X-H torsion
[ 7974 7965 7964 7962 ] final  125.99 input  175.53 | X-H torsion
[ 8008 7997 7996 7995 ] final -138.58 input   59.86 | X-H torsion
[ 10167 10162 10161 10158 ] final   26.03 input  -65.29 | X-H torsion
[ 10718 10713 10712 10709 ] final  -83.07 input   66.30 | X-H torsion
[ 10763 10752 10751 10750 ] final   30.41 input  -60.55 | X-H torsion
[ 11005 11000 10999 10996 ] final -170.91 input  -57.11 | X-H torsion

> <Gold.Protein.ActiveResidues>
 VAL166  LYS551  ARG553  GLY616  TRP617  ASP618  TYR619  PRO620  LYS621  CYS622 
 ASP623  PHE694  ASN695  SER759  ASP760  ASP761  ALA762  ILE779  LEU786  VAL792 
 PHE793  MET794  SER795  GLU796  ALA797  LYS798  CYS799  TRP800  GLU811  SER814 

> <Gold.Protein.RotatedAtoms>
  150.7337  134.0125  159.3674 H   0  0  0  0  0  0  0  0  0  0  0  0  # atno 6907 bound_to 6896
  151.8086  135.0685  160.0419 H   0  0  0  0  0  0  0  0  0  0  0  0  # atno 6908 bound_to 6896
  152.3089  133.5696  159.5704 H   0  0  0  0  0  0  0  0  0  0  0  0  # atno 6909 bound_to 6896
  145.0668  139.3761  143.4978 H   0  0  0  0  0  0  0  0  0  0  0  0  # atno 7974 bound_to 7965
  155.4306  140.0525  157.3019 H   0  0  0  0  0  0  0  0  0  0  0  0  # atno 8008 bound_to 7997
  154.4861  140.2101  155.9609 H   0  0  0  0  0  0  0  0  0  0  0  0  # atno 8009 bound_to 7997
  156.1277  140.3177  155.8307 H   0  0  0  0  0  0  0  0  0  0  0  0  # atno 8010 bound_to 7997
  140.5057  144.0243  150.6351 H   0  0  0  0  0  0  0  0  0  0  0  0  # atno 10167 bound_to 10162
  156.0023  130.4654  150.4201 H   0  0  0  0  0  0  0  0  0  0  0  0  # atno 10718 bound_to 10713
  153.0373  135.6465  154.1040 H   0  0  0  0  0  0  0  0  0  0  0  0  # atno 10763 bound_to 10752
  154.0753  135.2877  155.3302 H   0  0  0  0  0  0  0  0  0  0  0  0  # atno 10764 bound_to 10752
  154.6567  135.5406  153.8031 H   0  0  0  0  0  0  0  0  0  0  0  0  # atno 10765 bound_to 10752
  140.5142  134.5772  157.5028 H   0  0  0  0  0  0  0  0  0  0  0  0  # atno 11005 bound_to 11000
  146.3527  140.0393  142.8644 LP  0  0  0  0  0  0  0  0  0  0  0  0  # atno 17320 bound_to 7965
  145.1341  140.9535  143.4527 LP  0  0  0  0  0  0  0  0  0  0  0  0  # atno 17321 bound_to 7965
  140.3551  143.2940  152.0444 LP  0  0  0  0  0  0  0  0  0  0  0  0  # atno 17342 bound_to 10162
  139.4883  144.6345  151.7004 LP  0  0  0  0  0  0  0  0  0  0  0  0  # atno 17343 bound_to 10162
  157.2258  131.0493  151.2521 LP  0  0  0  0  0  0  0  0  0  0  0  0  # atno 17370 bound_to 10713
  157.3758  130.7205  149.6596 LP  0  0  0  0  0  0  0  0  0  0  0  0  # atno 17371 bound_to 10713
  139.9642  134.7401  156.0173 LP  0  0  0  0  0  0  0  0  0  0  0  0  # atno 17394 bound_to 11000
  141.1369  133.6573  156.3620 LP  0  0  0  0  0  0  0  0  0  0  0  0  # atno 17395 bound_to 11000

$$$$
