AV-unprocessed.smi:1076|AV-procd|sdf|4698|dock10
  -GOLD-   22720 3223D 1   1.00000     0.00000
 Structure written by MMmdl.
 45 46  0  0  0  0  0  0  0  0  2 V2000
  144.1336  133.3158  149.5795 C   0  0  0  0  0  0  0  0  0  0  0  0
  144.1492  134.1985  150.7941 C   0  0  0  0  0  0  0  0  0  0  0  0
  143.9482  133.8191  152.1518 C   0  0  0  0  0  0  0  0  0  0  0  0
  144.0294  134.8412  152.9880 N   0  0  0  0  0  0  0  0  0  0  0  0
  144.2813  135.9055  152.1960 N   0  0  0  0  0  0  0  0  0  0  0  0
  144.4471  137.2210  152.7879 C   0  0  0  0  0  0  0  0  0  0  0  0
  145.8717  137.7841  152.6042 C   0  0  1  0  0  0  0  0  0  0  0  0
  146.1794  138.0180  151.1193 C   0  0  0  0  0  0  0  0  0  0  0  0
  146.0407  139.0536  153.3459 N   0  3  0  0  0  0  0  0  0  0  0  0
  147.4070  139.6224  153.3114 C   0  0  0  0  0  0  0  0  0  0  0  0
  148.2682  139.1325  154.4923 C   0  0  0  0  0  0  0  0  0  0  0  0
  149.7628  139.4944  154.3999 C   0  0  0  0  0  0  0  0  0  0  0  0
  150.0853  140.6802  154.3101 O   0  0  0  0  0  0  0  0  0  0  0  0
  150.6806  138.4987  154.4318 N   0  0  0  0  0  0  0  0  0  0  0  0
  152.1250  138.7400  154.4823 C   0  0  0  0  0  0  0  0  0  0  0  0
  152.6482  138.2389  155.8411 C   0  0  0  0  0  0  0  0  0  0  0  0
  152.3300  136.8580  156.0014 O   0  0  0  0  0  0  0  0  0  0  0  0
  150.9322  136.5885  155.9181 C   0  0  0  0  0  0  0  0  0  0  0  0
  150.3973  137.0658  154.5565 C   0  0  0  0  0  0  0  0  0  0  0  0
  144.3576  135.5467  150.8673 C   0  0  0  0  0  0  0  0  0  0  0  0
  143.5112  132.4333  149.7288 H   0  0  0  0  0  0  0  0  0  0  0  0
  145.1340  132.9646  149.3262 H   0  0  0  0  0  0  0  0  0  0  0  0
  143.7443  133.8381  148.7054 H   0  0  0  0  0  0  0  0  0  0  0  0
  143.7490  132.8359  152.5522 H   0  0  0  0  0  0  0  0  0  0  0  0
  143.7197  137.8893  152.3251 H   0  0  0  0  0  0  0  0  0  0  0  0
  144.1872  137.1686  153.8466 H   0  0  0  0  0  0  0  0  0  0  0  0
  146.5918  137.0515  152.9735 H   0  0  0  0  0  0  0  0  0  0  0  0
  146.0820  137.0949  150.5469 H   0  0  0  0  0  0  0  0  0  0  0  0
  147.1982  138.3823  150.9826 H   0  0  0  0  0  0  0  0  0  0  0  0
  145.5016  138.7526  150.6829 H   0  0  0  0  0  0  0  0  0  0  0  0
  145.4157  139.7401  152.9470 H   0  0  0  0  0  0  0  0  0  0  0  0
  147.8931  139.3356  152.3787 H   0  0  0  0  0  0  0  0  0  0  0  0
  147.3471  140.7120  153.3071 H   0  0  0  0  0  0  0  0  0  0  0  0
  147.8564  139.5418  155.4158 H   0  0  0  0  0  0  0  0  0  0  0  0
  148.1849  138.0471  154.5591 H   0  0  0  0  0  0  0  0  0  0  0  0
  152.6129  138.2019  153.6683 H   0  0  0  0  0  0  0  0  0  0  0  0
  152.3874  139.7905  154.3507 H   0  0  0  0  0  0  0  0  0  0  0  0
  153.7300  138.3608  155.8984 H   0  0  0  0  0  0  0  0  0  0  0  0
  152.2171  138.8169  156.6602 H   0  0  0  0  0  0  0  0  0  0  0  0
  150.7715  135.5165  156.0330 H   0  0  0  0  0  0  0  0  0  0  0  0
  150.4067  137.0813  156.7376 H   0  0  0  0  0  0  0  0  0  0  0  0
  149.3427  136.8127  154.4612 H   0  0  0  0  0  0  0  0  0  0  0  0
  150.9010  136.5299  153.7506 H   0  0  0  0  0  0  0  0  0  0  0  0
  144.5549  136.2723  150.0917 H   0  0  0  0  0  0  0  0  0  0  0  0
  145.7732  138.8966  154.3073 H   0  0  0  0  0  0  0  0  0  0  0  0
  1  2  1  0  0  0  0
  1 21  1  0  0  0  0
  1 22  1  0  0  0  0
  1 23  1  0  0  0  0
  2 20  2  0  0  0  0
  2  3  1  0  0  0  0
  3  4  2  0  0  0  0
  3 24  1  0  0  0  0
  4  5  1  0  0  0  0
  5  6  1  0  0  0  0
  5 20  1  0  0  0  0
  6  7  1  0  0  0  0
  6 25  1  0  0  0  0
  6 26  1  0  0  0  0
  7  8  1  0  0  0  0
  7  9  1  0  0  0  0
  7 27  1  0  0  0  0
  8 28  1  0  0  0  0
  8 29  1  0  0  0  0
  8 30  1  0  0  0  0
  9 10  1  0  0  0  0
  9 31  1  0  0  0  0
  9 45  1  0  0  0  0
 10 11  1  0  0  0  0
 10 32  1  0  0  0  0
 10 33  1  0  0  0  0
 11 12  1  0  0  0  0
 11 34  1  0  0  0  0
 11 35  1  0  0  0  0
 12 13  2  0  0  0  0
 12 14  1  0  0  0  0
 14 19  1  0  0  0  0
 14 15  1  0  0  0  0
 15 16  1  0  0  0  0
 15 36  1  0  0  0  0
 15 37  1  0  0  0  0
 16 17  1  0  0  0  0
 16 38  1  0  0  0  0
 16 39  1  0  0  0  0
 17 18  1  0  0  0  0
 18 19  1  0  0  0  0
 18 40  1  0  0  0  0
 18 41  1  0  0  0  0
 19 42  1  0  0  0  0
 19 43  1  0  0  0  0
 20 44  1  0  0  0  0
M  CHG  1   9   1
M  END
> <s_m_source_file>
AV-unprocessed.smi

> <i_m_source_file_index>
1076

> <i_lp_mmshare_version>
43012

> <i_f3d_flags>
0

> <s_epik_input>
W0NIM11jMVtjSF1ubihbY0hdMSlbQ0gyXVtDQEhdKFtDSDNdKVtOSF1bQ0gyXVtDSDJdQyg9TylOMltDSDJdW0NIMl1PW0NIMl1bQ0gyXTI=

> <s_epik_cmdline>
J2VwaWtfcHl0aG9uJywgJy1waCcsICc3LjAnLCAnLXRuJywgJzgnLCAnLW1hJywgJzIwMCcsICctbWV0YWxfYmluZGluZycsICctaW1hZScsICc8aW5maWxlLm1hZT4nLCAnLW9tYWUnLCAnPG91dGZpbGUubWFlPic=

> <r_lp_tautomer_probability>
1

> <r_epik_Ionization_Penalty>
0.00797518

> <r_epik_Ionization_Penalty_Charging>
0.0079672

> <r_epik_Ionization_Penalty_Neutral>
7.97619e-06

> <r_epik_State_Penalty>
0.00597998

> <r_epik_Charging_Adjusted_Penalty>
0.0139472

> <i_epik_Tot_Q>
1

> <i_epik_Tot_abs_Q>
1

> <r_epik_Metal_State_Penalty>
0.00598062

> <b_epik_Metal_Only>
0

> <s_lp_Force_Field>
OPLS_2005

> <r_lp_Energy>
23.7914

> <b_lp_Chiralities_Consistent>
1

> <s_lp_Variant>
AV-unprocessed.smi:1076-2

> <Gold.Version>
5.8.1

> <Gold.Id.Protein>
6NUR|6NUR_protein|mol2

> <Gold.PLP.Fitness>
51.8361

> <Gold.PLP.PLP>
-35.1623

> <Gold.PLP.part.hbond>
-3.0000

> <Gold.PLP.part.metal>
0.0000

> <Gold.PLP.part.buried>
-0.5537

> <Gold.PLP.part.nonpolar>
-33.2727

> <Gold.PLP.part.repulsive>
0.2208

> <Gold.PLP.ligand.clash>
0.0000

> <Gold.PLP.ligand.torsion>
0.2761

> <Gold.PLP.Chemscore.Hbond>
3.7680

> <Gold.PLP.Chemscore.CHOScore>
1.9404

> <Gold.PLP.Chemscore.Metal>
0.0000

> <Gold.Chemscore.Hbonds>
donor molecule, donor type, donor heavy atom, donor atom, acceptor molecule, acceptor atom, score
      L1  H     9    31       P1 10175  2.00
      P1  H  7989  7998       L1    13  0.75
      P1  H 10752 10765       L1    17  0.99
      L1  C     3    24       P1 10957  0.53
      L1  C    20    44       P1 10171  1.00

> <Gold.PLP.Chemscore.Internal.Correction>
0.1007

> <Gold.Rescore>
     Score         DG    S(hbond)    S(metal)    S(lipo)     H(rot)  DE(clash)    DE(int)     intcor
     17.13     -18.71       2.54        0.00      83.98       1.98       1.21       0.37       ----

> <Gold.Chemscore.Fitness>
17.1282

> <Gold.Chemscore.DG>
-18.7062

> <Gold.Chemscore.ZeroCoef>
-5.4800

> <Gold.Chemscore.Hbond>
2.5385

> <Gold.Chemscore.Metal>
0.0000

> <Gold.Chemscore.Lipo>
83.9808

> <Gold.Chemscore.Internal_Hbond>
0.0000

> <Gold.Chemscore.DEClash>
1.2129

> <Gold.Chemscore.DEInternal>
0.3651

> <Gold.Chemscore.Rot>
1.9837

> <Gold.Chemscore.Internal.Correction>
   9.000000E+99

> <Gold.Chemscore.Hbonds>
donor molecule, donor type, donor heavy atom, donor atom, acceptor molecule, acceptor atom, score
      L1  H     9    31       P1 10175  0.97
      P1  H  7989  7998       L1    13  0.62
      P1  H 10752 10765       L1    17  0.52

> <Gold.Chemscore.Hbond.Weighted>
-8.4787

> <Gold.Chemscore.Metal.Weighted>
-0.0000

> <Gold.Chemscore.Lipo.Weighted>
-9.8258

> <Gold.Chemscore.Internal_Hbond.Weighted>
0.0000

> <Gold.Chemscore.DEClash.Weighted>
1.2129

> <Gold.Chemscore.DEInternal.Weighted>
0.3651

> <Gold.Chemscore.Rot.Weighted>
5.0782

> <Gold.Chemscore.Internal.Correction.Weighted>
   9.000000E+99

> <Gold.Protein.RotatedTorsions>
[ 6907 6896 6895 6894 ] final  108.48 input  -60.11 | X-H torsion
[ 7974 7965 7964 7962 ] final   89.60 input  175.53 | X-H torsion
[ 8008 7997 7996 7995 ] final   19.11 input   59.86 | X-H torsion
[ 10167 10162 10161 10158 ] final   54.49 input  -65.29 | X-H torsion
[ 10718 10713 10712 10709 ] final   67.84 input   66.30 | X-H torsion
[ 10763 10752 10751 10750 ] final -150.69 input  -60.55 | X-H torsion
[ 11005 11000 10999 10996 ] final   61.71 input  -57.11 | X-H torsion

> <Gold.Protein.ActiveResidues>
 VAL166  LYS551  ARG553  GLY616  TRP617  ASP618  TYR619  PRO620  LYS621  CYS622 
 ASP623  PHE694  ASN695  SER759  ASP760  ASP761  ALA762  ILE779  LEU786  VAL792 
 PHE793  MET794  SER795  GLU796  ALA797  LYS798  CYS799  TRP800  GLU811  SER814 

> <Gold.Protein.RotatedAtoms>
  152.5110  133.9083  159.7474 H   0  0  0  0  0  0  0  0  0  0  0  0  # atno 6907 bound_to 6896
  150.9482  133.6570  159.2784 H   0  0  0  0  0  0  0  0  0  0  0  0  # atno 6908 bound_to 6896
  151.3858  135.0952  159.9563 H   0  0  0  0  0  0  0  0  0  0  0  0  # atno 6909 bound_to 6896
  145.5302  139.2283  143.2623 H   0  0  0  0  0  0  0  0  0  0  0  0  # atno 7974 bound_to 7965
  154.9159  140.3020  155.5242 H   0  0  0  0  0  0  0  0  0  0  0  0  # atno 8008 bound_to 7997
  156.3012  140.2380  156.4139 H   0  0  0  0  0  0  0  0  0  0  0  0  # atno 8009 bound_to 7997
  154.8379  140.0415  157.1510 H   0  0  0  0  0  0  0  0  0  0  0  0  # atno 8010 bound_to 7997
  140.2296  144.3701  150.6419 H   0  0  0  0  0  0  0  0  0  0  0  0  # atno 10167 bound_to 10162
  157.6254  130.9342  150.0297 H   0  0  0  0  0  0  0  0  0  0  0  0  # atno 10718 bound_to 10713
  154.8104  135.3278  154.7321 H   0  0  0  0  0  0  0  0  0  0  0  0  # atno 10763 bound_to 10752
  153.7971  135.6906  153.4866 H   0  0  0  0  0  0  0  0  0  0  0  0  # atno 10764 bound_to 10752
  153.1878  135.4562  155.0057 H   0  0  0  0  0  0  0  0  0  0  0  0  # atno 10765 bound_to 10752
  140.0142  134.6250  155.9734 H   0  0  0  0  0  0  0  0  0  0  0  0  # atno 11005 bound_to 11000
  146.2049  140.6118  142.9085 LP  0  0  0  0  0  0  0  0  0  0  0  0  # atno 17320 bound_to 7965
  144.7630  140.5465  143.6722 LP  0  0  0  0  0  0  0  0  0  0  0  0  # atno 17321 bound_to 7965
  140.6195  143.2175  151.6723 LP  0  0  0  0  0  0  0  0  0  0  0  0  # atno 17342 bound_to 10162
  139.5115  144.3508  152.0654 LP  0  0  0  0  0  0  0  0  0  0  0  0  # atno 17343 bound_to 10162
  156.1423  130.3642  149.9563 LP  0  0  0  0  0  0  0  0  0  0  0  0  # atno 17370 bound_to 10713
  156.7601  130.9147  151.3641 LP  0  0  0  0  0  0  0  0  0  0  0  0  # atno 17371 bound_to 10713
  141.1732  133.6538  156.4728 LP  0  0  0  0  0  0  0  0  0  0  0  0  # atno 17394 bound_to 11000
  140.4500  134.6938  157.5035 LP  0  0  0  0  0  0  0  0  0  0  0  0  # atno 17395 bound_to 11000

$$$$
