AV-unprocessed.smi:1552|AV-procd|sdf|6237|dock10
  -GOLD-   22720 6423D 1   1.00000     0.00000
 Structure written by MMmdl.
 49 50  0  0  0  0  0  0  0  0  3 V2000
  148.1911  140.2452  156.1310 C   0  0  0  0  0  0  0  0  0  0  0  0
  149.5835  140.6608  156.4154 N   0  3  0  0  0  0  0  0  0  0  0  0
  150.5196  140.1505  155.3828 C   0  0  0  0  0  0  0  0  0  0  0  0
  149.9786  140.4283  157.8410 C   0  0  1  0  0  0  0  0  0  0  0  0
  150.1839  138.9317  158.1897 C   0  0  0  0  0  0  0  0  0  0  0  0
  148.9744  138.3327  158.7408 N   0  0  0  0  0  0  0  0  0  0  0  0
  148.8328  137.0713  159.1780 C   0  0  0  0  0  0  0  0  0  0  0  0
  149.7707  136.2783  159.1140 O   0  0  0  0  0  0  0  0  0  0  0  0
  147.4682  136.6144  159.7311 C   0  0  0  0  0  0  0  0  0  0  0  0
  147.5578  135.3888  160.5408 N   0  0  0  0  0  0  0  0  0  0  0  0
  147.1407  134.1818  159.9529 C   0  0  0  0  0  0  0  0  0  0  0  0
  147.1887  133.0132  160.6205 C   0  0  0  0  0  0  0  0  0  0  0  0
  147.6894  133.0199  161.9896 C   0  0  0  0  0  0  0  0  0  0  0  0
  147.7349  131.9630  162.6160 O   0  0  0  0  0  0  0  0  0  0  0  0
  148.0873  134.2160  162.5140 N   0  5  0  0  0  0  0  0  0  0  0  0
  148.0354  135.3964  161.8223 C   0  0  0  0  0  0  0  0  0  0  0  0
  148.4015  136.4655  162.3129 O   0  0  0  0  0  0  0  0  0  0  0  0
  151.1493  141.3594  158.2707 C   0  0  0  0  0  0  0  0  0  0  0  0
  151.8674  140.8450  159.5386 C   0  0  0  0  0  0  0  0  0  0  0  0
  153.0931  141.7064  159.8849 C   0  0  0  0  0  0  0  0  0  0  0  0
  152.7122  143.1872  160.0338 C   0  0  0  0  0  0  0  0  0  0  0  0
  152.0003  143.7054  158.7746 C   0  0  0  0  0  0  0  0  0  0  0  0
  150.7695  142.8475  158.4403 C   0  0  0  0  0  0  0  0  0  0  0  0
  148.0716  139.1686  156.2587 H   0  0  0  0  0  0  0  0  0  0  0  0
  147.9124  140.5011  155.1083 H   0  0  0  0  0  0  0  0  0  0  0  0
  147.4906  140.7512  156.7962 H   0  0  0  0  0  0  0  0  0  0  0  0
  150.4915  139.0617  155.3228 H   0  0  0  0  0  0  0  0  0  0  0  0
  151.5476  140.4536  155.5744 H   0  0  0  0  0  0  0  0  0  0  0  0
  150.2445  140.5413  154.4027 H   0  0  0  0  0  0  0  0  0  0  0  0
  149.1366  140.7489  158.4576 H   0  0  0  0  0  0  0  0  0  0  0  0
  150.4601  138.3816  157.2888 H   0  0  0  0  0  0  0  0  0  0  0  0
  150.9939  138.8046  158.9086 H   0  0  0  0  0  0  0  0  0  0  0  0
  148.1597  138.9274  158.7917 H   0  0  0  0  0  0  0  0  0  0  0  0
  147.0050  137.3985  160.3308 H   0  0  0  0  0  0  0  0  0  0  0  0
  146.7944  136.4642  158.8863 H   0  0  0  0  0  0  0  0  0  0  0  0
  146.7892  134.2630  158.9348 H   0  0  0  0  0  0  0  0  0  0  0  0
  146.8674  132.0936  160.1536 H   0  0  0  0  0  0  0  0  0  0  0  0
  151.8941  141.3194  157.4749 H   0  0  0  0  0  0  0  0  0  0  0  0
  151.1809  140.8444  160.3858 H   0  0  0  0  0  0  0  0  0  0  0  0
  152.1837  139.8109  159.3975 H   0  0  0  0  0  0  0  0  0  0  0  0
  153.5518  141.3468  160.8066 H   0  0  0  0  0  0  0  0  0  0  0  0
  153.8471  141.6007  159.1038 H   0  0  0  0  0  0  0  0  0  0  0  0
  152.0614  143.3127  160.9000 H   0  0  0  0  0  0  0  0  0  0  0  0
  153.6045  143.7827  160.2289 H   0  0  0  0  0  0  0  0  0  0  0  0
  151.7018  144.7442  158.9187 H   0  0  0  0  0  0  0  0  0  0  0  0
  152.6930  143.6978  157.9321 H   0  0  0  0  0  0  0  0  0  0  0  0
  150.3022  143.2304  157.5331 H   0  0  0  0  0  0  0  0  0  0  0  0
  150.0417  142.9611  159.2434 H   0  0  0  0  0  0  0  0  0  0  0  0
  149.5810  141.6653  156.3089 H   0  0  0  0  0  0  0  0  0  0  0  0
  1  2  1  0  0  0  0
  1 24  1  0  0  0  0
  1 25  1  0  0  0  0
  1 26  1  0  0  0  0
  2  3  1  0  0  0  0
  2  4  1  0  0  0  0
  2 49  1  0  0  0  0
  3 27  1  0  0  0  0
  3 28  1  0  0  0  0
  3 29  1  0  0  0  0
  4  5  1  0  0  0  0
  4 18  1  0  0  0  0
  4 30  1  0  0  0  0
  5  6  1  0  0  0  0
  5 31  1  0  0  0  0
  5 32  1  0  0  0  0
  6  7  1  0  0  0  0
  6 33  1  0  0  0  0
  7  8  2  0  0  0  0
  7  9  1  0  0  0  0
  9 10  1  0  0  0  0
  9 34  1  0  0  0  0
  9 35  1  0  0  0  0
 10 16  1  0  0  0  0
 10 11  1  0  0  0  0
 11 12  2  0  0  0  0
 11 36  1  0  0  0  0
 12 13  1  0  0  0  0
 12 37  1  0  0  0  0
 13 14  2  0  0  0  0
 13 15  1  0  0  0  0
 15 16  1  0  0  0  0
 16 17  2  0  0  0  0
 18 23  1  0  0  0  0
 18 19  1  0  0  0  0
 18 38  1  0  0  0  0
 19 20  1  0  0  0  0
 19 39  1  0  0  0  0
 19 40  1  0  0  0  0
 20 21  1  0  0  0  0
 20 41  1  0  0  0  0
 20 42  1  0  0  0  0
 21 22  1  0  0  0  0
 21 43  1  0  0  0  0
 21 44  1  0  0  0  0
 22 23  1  0  0  0  0
 22 45  1  0  0  0  0
 22 46  1  0  0  0  0
 23 47  1  0  0  0  0
 23 48  1  0  0  0  0
M  CHG  1   2   1
M  CHG  1  15  -1
M  END
> <s_m_source_file>
AV-unprocessed.smi

> <i_m_source_file_index>
1552

> <i_lp_mmshare_version>
43012

> <i_f3d_flags>
0

> <s_epik_input>
W0NIMl0xW0NIMl1bQ0gyXVtDSDJdW0NIMl1bQ0hdMVtDQEhdKE4oW0NIM10pW0NIM10pW0NIMl1bTkhdQyg9TylbQ0gyXW4yW2NIXVtjSF1jKD1PKVtuSF1jMj1P

> <s_epik_cmdline>
J2VwaWtfcHl0aG9uJywgJy1waCcsICc3LjAnLCAnLXRuJywgJzgnLCAnLW1hJywgJzIwMCcsICctbWV0YWxfYmluZGluZycsICctaW1hZScsICc8aW5maWxlLm1hZT4nLCAnLW9tYWUnLCAnPG91dGZpbGUubWFlPic=

> <r_lp_tautomer_probability>
1

> <r_epik_Ionization_Penalty>
2.93575

> <r_epik_Ionization_Penalty_Charging>
0.00331645

> <r_epik_Ionization_Penalty_Neutral>
2.93244

> <r_epik_State_Penalty>
2.92822

> <r_epik_Charging_Adjusted_Penalty>
2.93154

> <i_epik_Tot_Q>
0

> <i_epik_Tot_abs_Q>
2

> <r_epik_Metal_State_Penalty>
0.448509

> <b_epik_Metal_Only>
1

> <s_lp_Force_Field>
OPLS_2005

> <r_lp_Energy>
36.4882

> <b_lp_Chiralities_Consistent>
1

> <s_lp_Variant>
AV-unprocessed.smi:1552-4

> <Gold.Version>
5.8.1

> <Gold.Id.Protein>
6NUR|6NUR_protein|mol2

> <Gold.PLP.Fitness>
45.1594

> <Gold.PLP.PLP>
-40.0703

> <Gold.PLP.part.hbond>
-3.2621

> <Gold.PLP.part.metal>
0.0000

> <Gold.PLP.part.buried>
-2.6114

> <Gold.PLP.part.nonpolar>
-34.9185

> <Gold.PLP.part.repulsive>
0.3049

> <Gold.PLP.ligand.clash>
0.0000

> <Gold.PLP.ligand.torsion>
1.6282

> <Gold.PLP.Chemscore.Hbond>
2.6800

> <Gold.PLP.Chemscore.CHOScore>
0.0000

> <Gold.PLP.Chemscore.Metal>
0.0000

> <Gold.Chemscore.Hbonds>
donor molecule, donor type, donor heavy atom, donor atom, acceptor molecule, acceptor atom, score
      P1  H  6896  6908       L1     8  1.00
      P1  H  6931  6943       L1    17  1.00

> <Gold.PLP.Chemscore.Internal.Correction>
0.3054

> <Gold.Rescore>
     Score         DG    S(hbond)    S(metal)    S(lipo)     H(rot)  DE(clash)    DE(int)     intcor
     17.44     -19.47       2.79        0.00      93.08       2.43       0.01       2.01       ----

> <Gold.Chemscore.Fitness>
17.4433

> <Gold.Chemscore.DG>
-19.4709

> <Gold.Chemscore.ZeroCoef>
-5.4800

> <Gold.Chemscore.Hbond>
2.7913

> <Gold.Chemscore.Metal>
0.0000

> <Gold.Chemscore.Lipo>
93.0774

> <Gold.Chemscore.Internal_Hbond>
0.0000

> <Gold.Chemscore.DEClash>
0.0135

> <Gold.Chemscore.DEInternal>
2.0140

> <Gold.Chemscore.Rot>
2.4305

> <Gold.Chemscore.Internal.Correction>
   9.000000E+99

> <Gold.Chemscore.Hbonds>
donor molecule, donor type, donor heavy atom, donor atom, acceptor molecule, acceptor atom, score
      P1  H  6896  6908       L1     8  1.00
      P1  H  6931  6943       L1    17  0.99

> <Gold.Chemscore.Hbond.Weighted>
-9.3229

> <Gold.Chemscore.Metal.Weighted>
-0.0000

> <Gold.Chemscore.Lipo.Weighted>
-10.8901

> <Gold.Chemscore.Internal_Hbond.Weighted>
0.0000

> <Gold.Chemscore.DEClash.Weighted>
0.0135

> <Gold.Chemscore.DEInternal.Weighted>
2.0140

> <Gold.Chemscore.Rot.Weighted>
6.2220

> <Gold.Chemscore.Internal.Correction.Weighted>
   9.000000E+99

> <Gold.Protein.RotatedTorsions>
[ 6907 6896 6895 6894 ] final -176.20 input  -60.11 | X-H torsion
[ 7974 7965 7964 7962 ] final   16.86 input  175.53 | X-H torsion
[ 8008 7997 7996 7995 ] final   47.89 input   59.86 | X-H torsion
[ 10167 10162 10161 10158 ] final  169.19 input  -65.29 | X-H torsion
[ 10718 10713 10712 10709 ] final -151.68 input   66.30 | X-H torsion
[ 10763 10752 10751 10750 ] final   37.51 input  -60.55 | X-H torsion
[ 11005 11000 10999 10996 ] final -135.67 input  -57.11 | X-H torsion

> <Gold.Protein.ActiveResidues>
 VAL166  LYS551  ARG553  GLY616  TRP617  ASP618  TYR619  PRO620  LYS621  CYS622 
 ASP623  PHE694  ASN695  SER759  ASP760  ASP761  ALA762  ILE779  LEU786  VAL792 
 PHE793  MET794  SER795  GLU796  ALA797  LYS798  CYS799  TRP800  GLU811  SER814 

> <Gold.Protein.RotatedAtoms>
  151.6009  133.3356  159.3046 H   0  0  0  0  0  0  0  0  0  0  0  0  # atno 6907 bound_to 6896
  150.8208  134.7419  159.6782 H   0  0  0  0  0  0  0  0  0  0  0  0  # atno 6908 bound_to 6896
  152.4302  134.5798  159.9996 H   0  0  0  0  0  0  0  0  0  0  0  0  # atno 6909 bound_to 6896
  146.2236  139.8687  142.8591 H   0  0  0  0  0  0  0  0  0  0  0  0  # atno 7974 bound_to 7965
  155.3765  140.3426  155.4245 H   0  0  0  0  0  0  0  0  0  0  0  0  # atno 8008 bound_to 7997
  156.1634  140.1608  156.8607 H   0  0  0  0  0  0  0  0  0  0  0  0  # atno 8009 bound_to 7997
  154.5161  140.0778  156.8066 H   0  0  0  0  0  0  0  0  0  0  0  0  # atno 8010 bound_to 7997
  139.4986  144.3733  151.9701 H   0  0  0  0  0  0  0  0  0  0  0  0  # atno 10167 bound_to 10162
  156.4625  130.8220  151.2450 H   0  0  0  0  0  0  0  0  0  0  0  0  # atno 10718 bound_to 10713
  153.0035  135.6276  154.2156 H   0  0  0  0  0  0  0  0  0  0  0  0  # atno 10763 bound_to 10752
  154.1899  135.2809  155.3027 H   0  0  0  0  0  0  0  0  0  0  0  0  # atno 10764 bound_to 10752
  154.5768  135.5660  153.7206 H   0  0  0  0  0  0  0  0  0  0  0  0  # atno 10765 bound_to 10752
  140.8876  134.1852  157.4549 H   0  0  0  0  0  0  0  0  0  0  0  0  # atno 11005 bound_to 11000
  145.2630  141.0083  143.3815 LP  0  0  0  0  0  0  0  0  0  0  0  0  # atno 17320 bound_to 7965
  144.9283  139.4329  143.6507 LP  0  0  0  0  0  0  0  0  0  0  0  0  # atno 17321 bound_to 7965
  140.3169  144.3473  150.6019 LP  0  0  0  0  0  0  0  0  0  0  0  0  # atno 17342 bound_to 10162
  140.5754  143.2177  151.7524 LP  0  0  0  0  0  0  0  0  0  0  0  0  # atno 17343 bound_to 10162
  157.7497  131.0102  150.3299 LP  0  0  0  0  0  0  0  0  0  0  0  0  # atno 17370 bound_to 10713
  156.3702  130.3862  149.7181 LP  0  0  0  0  0  0  0  0  0  0  0  0  # atno 17371 bound_to 10713
  139.8726  134.9844  156.5240 LP  0  0  0  0  0  0  0  0  0  0  0  0  # atno 17394 bound_to 11000
  140.8386  133.8223  155.9053 LP  0  0  0  0  0  0  0  0  0  0  0  0  # atno 17395 bound_to 11000

$$$$
