AV-unprocessed.smi:1191|AV-procd|sdf|4987|dock4
  -GOLD-   22720 3583D 1   1.00000     0.00000
 Structure written by MMmdl.
 47 48  0  0  0  0  0  0  0  0  2 V2000
  150.8379  142.2354  156.3283 C   0  0  0  0  0  0  0  0  0  0  0  0
  150.3004  140.9949  155.6775 C   0  0  0  0  0  0  0  0  0  0  0  0
  148.9438  140.5920  155.5317 C   0  0  0  0  0  0  0  0  0  0  0  0
  149.0151  139.3956  154.8755 C   0  0  0  0  0  0  0  0  0  0  0  0
  147.9246  138.4729  154.4388 C   0  0  0  0  0  0  0  0  0  0  0  0
  150.3578  139.1355  154.6597 N   0  0  0  0  0  0  0  0  0  0  0  0
  150.9817  137.9946  154.0069 C   0  0  0  0  0  0  0  0  0  0  0  0
  150.6984  136.6971  154.7669 C   0  0  0  0  0  0  0  0  0  0  0  0
  151.4235  136.3551  155.7014 O   0  0  0  0  0  0  0  0  0  0  0  0
  149.6301  135.9890  154.3687 N   0  0  0  0  0  0  0  0  0  0  0  0
  149.1714  134.7559  154.9958 C   0  0  0  0  0  0  0  0  0  0  0  0
  148.8442  133.6819  153.9402 C   0  0  0  0  0  0  0  0  0  0  0  0
  147.7899  134.1213  152.9921 N   0  3  2  0  0  0  0  0  0  0  0  0
  146.6584  134.7898  153.6851 C   0  0  0  0  0  0  0  0  0  0  0  0
  145.6468  135.3549  152.6758 C   0  0  0  0  0  0  0  0  0  0  0  0
  145.1349  134.2547  151.7379 C   0  0  0  0  0  0  0  0  0  0  0  0
  146.3152  133.5502  151.0487 C   0  0  2  0  0  0  0  0  0  0  0  0
  145.8318  132.4235  150.1247 C   0  0  0  0  0  0  0  0  0  0  0  0
  147.3144  133.0280  152.1011 C   0  0  0  0  0  0  0  0  0  0  0  0
  151.1411  140.1199  155.1516 N   0  0  0  0  0  0  0  0  0  0  0  0
  150.0354  142.8331  156.7608 H   0  0  0  0  0  0  0  0  0  0  0  0
  151.3654  142.8600  155.6073 H   0  0  0  0  0  0  0  0  0  0  0  0
  151.5348  141.9881  157.1295 H   0  0  0  0  0  0  0  0  0  0  0  0
  148.0521  141.1045  155.8611 H   0  0  0  0  0  0  0  0  0  0  0  0
  146.9474  138.9385  154.5678 H   0  0  0  0  0  0  0  0  0  0  0  0
  147.9370  137.5539  155.0249 H   0  0  0  0  0  0  0  0  0  0  0  0
  148.0313  138.2085  153.3869 H   0  0  0  0  0  0  0  0  0  0  0  0
  150.6191  137.9340  152.9799 H   0  0  0  0  0  0  0  0  0  0  0  0
  152.0603  138.1505  153.9520 H   0  0  0  0  0  0  0  0  0  0  0  0
  149.0929  136.3361  153.5870 H   0  0  0  0  0  0  0  0  0  0  0  0
  149.9597  134.3980  155.6585 H   0  0  0  0  0  0  0  0  0  0  0  0
  148.3106  134.9749  155.6285 H   0  0  0  0  0  0  0  0  0  0  0  0
  149.7358  133.3897  153.3831 H   0  0  0  0  0  0  0  0  0  0  0  0
  148.5074  132.7880  154.4673 H   0  0  0  0  0  0  0  0  0  0  0  0
  146.1682  134.0803  154.3537 H   0  0  0  0  0  0  0  0  0  0  0  0
  147.0339  135.6045  154.3057 H   0  0  0  0  0  0  0  0  0  0  0  0
  144.8100  135.8135  153.2036 H   0  0  0  0  0  0  0  0  0  0  0  0
  146.1156  136.1477  152.0913 H   0  0  0  0  0  0  0  0  0  0  0  0
  144.5487  133.5314  152.3068 H   0  0  0  0  0  0  0  0  0  0  0  0
  144.4629  134.6846  150.9942 H   0  0  0  0  0  0  0  0  0  0  0  0
  146.8317  134.2840  150.4280 H   0  0  0  0  0  0  0  0  0  0  0  0
  145.3024  131.6512  150.6840 H   0  0  0  0  0  0  0  0  0  0  0  0
  146.6687  131.9488  149.6119 H   0  0  0  0  0  0  0  0  0  0  0  0
  145.1529  132.8053  149.3615 H   0  0  0  0  0  0  0  0  0  0  0  0
  148.1595  132.5693  151.5888 H   0  0  0  0  0  0  0  0  0  0  0  0
  146.8520  132.2446  152.7041 H   0  0  0  0  0  0  0  0  0  0  0  0
  148.2104  134.8237  152.4006 H   0  0  0  0  0  0  0  0  0  0  0  0
  1  2  1  0  0  0  0
  1 21  1  0  0  0  0
  1 22  1  0  0  0  0
  1 23  1  0  0  0  0
  2 20  2  0  0  0  0
  2  3  1  0  0  0  0
  3  4  2  0  0  0  0
  3 24  1  0  0  0  0
  4  5  1  0  0  0  0
  4  6  1  0  0  0  0
  5 25  1  0  0  0  0
  5 26  1  0  0  0  0
  5 27  1  0  0  0  0
  6  7  1  0  0  0  0
  6 20  1  0  0  0  0
  7  8  1  0  0  0  0
  7 28  1  0  0  0  0
  7 29  1  0  0  0  0
  8  9  2  0  0  0  0
  8 10  1  0  0  0  0
 10 11  1  0  0  0  0
 10 30  1  0  0  0  0
 11 12  1  0  0  0  0
 11 31  1  0  0  0  0
 11 32  1  0  0  0  0
 12 13  1  0  0  0  0
 12 33  1  0  0  0  0
 12 34  1  0  0  0  0
 13 19  1  0  0  0  0
 13 14  1  0  0  0  0
 13 47  1  0  0  0  0
 14 15  1  0  0  0  0
 14 35  1  0  0  0  0
 14 36  1  0  0  0  0
 15 16  1  0  0  0  0
 15 37  1  0  0  0  0
 15 38  1  0  0  0  0
 16 17  1  0  0  0  0
 16 39  1  0  0  0  0
 16 40  1  0  0  0  0
 17 18  1  0  0  0  0
 17 19  1  0  0  0  0
 17 41  1  0  0  0  0
 18 42  1  0  0  0  0
 18 43  1  0  0  0  0
 18 44  1  0  0  0  0
 19 45  1  0  0  0  0
 19 46  1  0  0  0  0
M  CHG  1  13   1
M  END
> <s_m_source_file>
AV-unprocessed.smi

> <i_m_source_file_index>
1191

> <i_lp_mmshare_version>
43012

> <i_f3d_flags>
0

> <s_epik_input>
W0NIM11jMVtjSF1jKFtDSDNdKW4objEpW0NIMl1DKD1PKVtOSF1bQ0gyXVtDSDJdTjJbQ0gyXVtDSDJdW0NIMl1bQ0BASF0oW0NIM10pW0NIMl0y

> <s_epik_cmdline>
J2VwaWtfcHl0aG9uJywgJy1waCcsICc3LjAnLCAnLXRuJywgJzgnLCAnLW1hJywgJzIwMCcsICctbWV0YWxfYmluZGluZycsICctaW1hZScsICc8aW5maWxlLm1hZT4nLCAnLW9tYWUnLCAnPG91dGZpbGUubWFlPic=

> <r_lp_tautomer_probability>
1

> <r_epik_Ionization_Penalty>
0.00249932

> <r_epik_Ionization_Penalty_Charging>
0.00230623

> <r_epik_Ionization_Penalty_Neutral>
0.000193092

> <r_epik_State_Penalty>
-0

> <r_epik_Charging_Adjusted_Penalty>
0.00230623

> <i_epik_Tot_Q>
1

> <i_epik_Tot_abs_Q>
1

> <r_epik_Metal_State_Penalty>
-0

> <b_epik_Metal_Only>
0

> <s_lp_Force_Field>
OPLS_2005

> <r_lp_Energy>
14.4812

> <b_lp_Chiralities_Consistent>
1

> <s_lp_Variant>
AV-unprocessed.smi:1191-4

> <Gold.Version>
5.8.1

> <Gold.Id.Protein>
6NUR|6NUR_protein|mol2

> <Gold.PLP.Fitness>
48.7329

> <Gold.PLP.PLP>
-35.4962

> <Gold.PLP.part.hbond>
-4.1762

> <Gold.PLP.part.metal>
0.0000

> <Gold.PLP.part.buried>
-3.1487

> <Gold.PLP.part.nonpolar>
-29.0668

> <Gold.PLP.part.repulsive>
0.1253

> <Gold.PLP.ligand.clash>
0.0000

> <Gold.PLP.ligand.torsion>
0.5395

> <Gold.PLP.Chemscore.Hbond>
4.7620

> <Gold.PLP.Chemscore.CHOScore>
0.0000

> <Gold.PLP.Chemscore.Metal>
0.0000

> <Gold.Chemscore.Hbonds>
donor molecule, donor type, donor heavy atom, donor atom, acceptor molecule, acceptor atom, score
      L1  H    10    30       P1  7948  0.82
      L1  H    13    47       P1  7948  2.00
      P1  H  7989  7998       L1    20  0.85
      P1  H 10752 10764       L1     9  1.00

> <Gold.PLP.Chemscore.Internal.Correction>
0.0297

> <Gold.Rescore>
     Score         DG    S(hbond)    S(metal)    S(lipo)     H(rot)  DE(clash)    DE(int)     intcor
     18.21     -18.75       2.36        0.00      82.46       1.67       0.04       0.50       ----

> <Gold.Chemscore.Fitness>
18.2059

> <Gold.Chemscore.DG>
-18.7479

> <Gold.Chemscore.ZeroCoef>
-5.4800

> <Gold.Chemscore.Hbond>
2.3605

> <Gold.Chemscore.Metal>
0.0000

> <Gold.Chemscore.Lipo>
82.4622

> <Gold.Chemscore.Internal_Hbond>
0.0000

> <Gold.Chemscore.DEClash>
0.0372

> <Gold.Chemscore.DEInternal>
0.5048

> <Gold.Chemscore.Rot>
1.6657

> <Gold.Chemscore.Internal.Correction>
   9.000000E+99

> <Gold.Chemscore.Hbonds>
donor molecule, donor type, donor heavy atom, donor atom, acceptor molecule, acceptor atom, score
      L1  H    10    30       P1  7948  0.80
      L1  H    13    47       P1  7948  0.45
      P1  H  7989  7998       L1    20  0.07
      P1  H 10752 10764       L1     9  0.54

> <Gold.Chemscore.Hbond.Weighted>
-7.8839

> <Gold.Chemscore.Metal.Weighted>
-0.0000

> <Gold.Chemscore.Lipo.Weighted>
-9.6481

> <Gold.Chemscore.Internal_Hbond.Weighted>
0.0000

> <Gold.Chemscore.DEClash.Weighted>
0.0372

> <Gold.Chemscore.DEInternal.Weighted>
0.5048

> <Gold.Chemscore.Rot.Weighted>
4.2641

> <Gold.Chemscore.Internal.Correction.Weighted>
   9.000000E+99

> <Gold.Protein.RotatedTorsions>
[ 6907 6896 6895 6894 ] final  134.50 input  -60.11 | X-H torsion
[ 7974 7965 7964 7962 ] final  -27.68 input  175.53 | X-H torsion
[ 8008 7997 7996 7995 ] final  -49.58 input   59.86 | X-H torsion
[ 10167 10162 10161 10158 ] final -146.79 input  -65.29 | X-H torsion
[ 10718 10713 10712 10709 ] final   90.19 input   66.30 | X-H torsion
[ 10763 10752 10751 10750 ] final  -42.71 input  -60.55 | X-H torsion
[ 11005 11000 10999 10996 ] final  -89.89 input  -57.11 | X-H torsion

> <Gold.Protein.ActiveResidues>
 VAL166  LYS551  ARG553  GLY616  TRP617  ASP618  TYR619  PRO620  LYS621  CYS622 
 ASP623  PHE694  ASN695  SER759  ASP760  ASP761  ALA762  ILE779  LEU786  VAL792 
 PHE793  MET794  SER795  GLU796  ALA797  LYS798  CYS799  TRP800  GLU811  SER814 

> <Gold.Protein.RotatedAtoms>
  152.3106  133.5749  159.5677 H   0  0  0  0  0  0  0  0  0  0  0  0  # atno 6907 bound_to 6896
  150.7321  134.0158  159.3693 H   0  0  0  0  0  0  0  0  0  0  0  0  # atno 6908 bound_to 6896
  151.8051  135.0698  160.0456 H   0  0  0  0  0  0  0  0  0  0  0  0  # atno 6909 bound_to 6896
  146.1341  140.5184  142.8680 H   0  0  0  0  0  0  0  0  0  0  0  0  # atno 7974 bound_to 7965
  154.4046  140.1293  156.4526 H   0  0  0  0  0  0  0  0  0  0  0  0  # atno 8008 bound_to 7997
  155.7352  140.3491  155.5058 H   0  0  0  0  0  0  0  0  0  0  0  0  # atno 8009 bound_to 7997
  155.9091  140.1032  157.1283 H   0  0  0  0  0  0  0  0  0  0  0  0  # atno 8010 bound_to 7997
  139.7681  143.8278  152.2620 H   0  0  0  0  0  0  0  0  0  0  0  0  # atno 10167 bound_to 10162
  157.6958  131.0361  150.3540 H   0  0  0  0  0  0  0  0  0  0  0  0  # atno 10718 bound_to 10713
  153.9836  135.6714  153.4751 H   0  0  0  0  0  0  0  0  0  0  0  0  # atno 10763 bound_to 10752
  153.0737  135.4960  154.8355 H   0  0  0  0  0  0  0  0  0  0  0  0  # atno 10764 bound_to 10752
  154.7150  135.3105  154.9100 H   0  0  0  0  0  0  0  0  0  0  0  0  # atno 10765 bound_to 10752
  141.1576  133.7658  156.9660 H   0  0  0  0  0  0  0  0  0  0  0  0  # atno 11005 bound_to 11000
  144.7721  140.5660  143.6663 LP  0  0  0  0  0  0  0  0  0  0  0  0  # atno 17320 bound_to 7965
  145.5195  139.1477  143.3560 LP  0  0  0  0  0  0  0  0  0  0  0  0  # atno 17321 bound_to 7965
  139.8304  144.7256  150.9458 LP  0  0  0  0  0  0  0  0  0  0  0  0  # atno 17342 bound_to 10162
  140.7812  143.4075  151.1046 LP  0  0  0  0  0  0  0  0  0  0  0  0  # atno 17343 bound_to 10162
  156.3985  130.3911  149.6977 LP  0  0  0  0  0  0  0  0  0  0  0  0  # atno 17370 bound_to 10713
  156.4302  130.7811  151.2831 LP  0  0  0  0  0  0  0  0  0  0  0  0  # atno 17371 bound_to 10713
  140.1161  134.9446  157.2136 LP  0  0  0  0  0  0  0  0  0  0  0  0  # atno 17394 bound_to 11000
  140.3131  134.3001  155.7262 LP  0  0  0  0  0  0  0  0  0  0  0  0  # atno 17395 bound_to 11000

$$$$
