AV-unprocessed.smi:2702|AV-procd|sdf|10431|dock1
  -GOLD-   2272014473D 1   1.00000     0.00000
 Structure written by MMmdl.
 47 48  0  0  0  0  0  0  0  0  1 V2000
  155.8036  133.2964  165.8127 C   0  0  0  0  0  0  0  0  0  0  0  0
  155.4631  133.1303  164.4477 O   0  0  0  0  0  0  0  0  0  0  0  0
  154.2642  133.8022  164.1012 C   0  0  0  0  0  0  0  0  0  0  0  0
  154.5629  135.2180  163.6524 C   0  0  0  0  0  0  0  0  0  0  0  0
  155.3661  135.4786  162.5946 C   0  0  0  0  0  0  0  0  0  0  0  0
  155.6493  136.8570  162.1942 C   0  0  0  0  0  0  0  0  0  0  0  0
  156.3635  137.1350  161.2305 O   0  0  0  0  0  0  0  0  0  0  0  0
  155.0626  137.8134  162.9729 N   0  0  0  0  0  0  0  0  0  0  0  0
  155.2603  139.2496  162.7032 C   0  0  0  0  0  0  0  0  0  0  0  0
  154.7617  139.6931  161.3200 C   0  0  0  0  0  0  0  0  0  0  0  0
  154.9813  139.0134  160.3162 O   0  0  0  0  0  0  0  0  0  0  0  0
  154.0733  140.8438  161.2921 N   0  0  0  0  0  0  0  0  0  0  0  0
  153.4992  141.4587  160.0976 C   0  0  1  0  0  0  0  0  0  0  0  0
  152.2841  140.6388  159.6233 C   0  0  0  0  0  0  0  0  0  0  0  0
  151.6738  141.2361  158.3467 C   0  0  0  0  0  0  0  0  0  0  0  0
  151.3159  142.7190  158.5324 C   0  0  0  0  0  0  0  0  0  0  0  0
  152.5315  143.5372  159.0135 C   0  0  1  0  0  0  0  0  0  0  0  0
  152.2101  145.0384  159.1010 C   0  0  0  0  0  0  0  0  0  0  0  0
  153.1332  142.9524  160.3194 C   0  0  1  0  0  0  0  0  0  0  0  0
  152.2474  143.1837  161.5662 C   0  0  0  0  0  0  0  0  0  0  0  0
  154.2361  137.4861  164.0665 C   0  0  0  0  0  0  0  0  0  0  0  0
  153.9979  136.2571  164.3982 N   0  0  0  0  0  0  0  0  0  0  0  0
  156.7288  132.7611  166.0263 H   0  0  0  0  0  0  0  0  0  0  0  0
  155.0254  132.8977  166.4650 H   0  0  0  0  0  0  0  0  0  0  0  0
  155.9596  134.3485  166.0552 H   0  0  0  0  0  0  0  0  0  0  0  0
  153.7556  133.2702  163.2951 H   0  0  0  0  0  0  0  0  0  0  0  0
  153.5828  133.8236  164.9536 H   0  0  0  0  0  0  0  0  0  0  0  0
  155.8035  134.6653  162.0341 H   0  0  0  0  0  0  0  0  0  0  0  0
  154.7651  139.8644  163.4571 H   0  0  0  0  0  0  0  0  0  0  0  0
  156.3193  139.5006  162.7900 H   0  0  0  0  0  0  0  0  0  0  0  0
  153.9407  141.3359  162.1636 H   0  0  0  0  0  0  0  0  0  0  0  0
  154.2481  141.4073  159.3044 H   0  0  0  0  0  0  0  0  0  0  0  0
  152.5833  139.6075  159.4318 H   0  0  0  0  0  0  0  0  0  0  0  0
  151.5267  140.5966  160.4068 H   0  0  0  0  0  0  0  0  0  0  0  0
  152.3830  141.1348  157.5241 H   0  0  0  0  0  0  0  0  0  0  0  0
  150.7862  140.6720  158.0593 H   0  0  0  0  0  0  0  0  0  0  0  0
  150.9490  143.1207  157.5873 H   0  0  0  0  0  0  0  0  0  0  0  0
  150.4930  142.8133  159.2416 H   0  0  0  0  0  0  0  0  0  0  0  0
  153.3003  143.4404  158.2449 H   0  0  0  0  0  0  0  0  0  0  0  0
  151.3782  145.2374  159.7765 H   0  0  0  0  0  0  0  0  0  0  0  0
  151.9336  145.4325  158.1228 H   0  0  0  0  0  0  0  0  0  0  0  0
  153.0725  145.6063  159.4511 H   0  0  0  0  0  0  0  0  0  0  0  0
  154.0654  143.4878  160.5060 H   0  0  0  0  0  0  0  0  0  0  0  0
  151.2722  142.7075  161.4716 H   0  0  0  0  0  0  0  0  0  0  0  0
  152.0800  144.2451  161.7459 H   0  0  0  0  0  0  0  0  0  0  0  0
  152.7159  142.7926  162.4692 H   0  0  0  0  0  0  0  0  0  0  0  0
  153.8137  138.3355  164.6057 H   0  0  0  0  0  0  0  0  0  0  0  0
  1  2  1  0  0  0  0
  1 23  1  0  0  0  0
  1 24  1  0  0  0  0
  1 25  1  0  0  0  0
  2  3  1  0  0  0  0
  3  4  1  0  0  0  0
  3 26  1  0  0  0  0
  3 27  1  0  0  0  0
  4 22  1  0  0  0  0
  4  5  2  0  0  0  0
  5  6  1  0  0  0  0
  5 28  1  0  0  0  0
  6  7  2  0  0  0  0
  6  8  1  0  0  0  0
  8  9  1  0  0  0  0
  8 21  1  0  0  0  0
  9 10  1  0  0  0  0
  9 29  1  0  0  0  0
  9 30  1  0  0  0  0
 10 11  2  0  0  0  0
 10 12  1  0  0  0  0
 12 13  1  0  0  0  0
 12 31  1  0  0  0  0
 13 19  1  0  0  0  0
 13 14  1  0  0  0  0
 13 32  1  0  0  0  0
 14 15  1  0  0  0  0
 14 33  1  0  0  0  0
 14 34  1  0  0  0  0
 15 16  1  0  0  0  0
 15 35  1  0  0  0  0
 15 36  1  0  0  0  0
 16 17  1  0  0  0  0
 16 37  1  0  0  0  0
 16 38  1  0  0  0  0
 17 18  1  0  0  0  0
 17 19  1  0  0  0  0
 17 39  1  0  0  0  0
 18 40  1  0  0  0  0
 18 41  1  0  0  0  0
 18 42  1  0  0  0  0
 19 20  1  0  0  0  0
 19 43  1  0  0  0  0
 20 44  1  0  0  0  0
 20 45  1  0  0  0  0
 20 46  1  0  0  0  0
 21 22  2  0  0  0  0
 21 47  1  0  0  0  0
M  END
> <s_m_source_file>
AV-unprocessed.smi

> <i_m_source_file_index>
2702

> <i_lp_mmshare_version>
43012

> <i_f3d_flags>
0

> <s_epik_input>
W0NIM11PW0NIMl1jMVtjSF1jKD1PKW4oW2NIXW4xKVtDSDJdQyg9TylbTkhdW0NAQEhdMltDSDJdW0NIMl1bQ0gyXVtDQEBIXShbQ0gzXSlbQ0BIXTJbQ0gzXQ==

> <s_epik_cmdline>
J2VwaWtfcHl0aG9uJywgJy1waCcsICc3LjAnLCAnLXRuJywgJzgnLCAnLW1hJywgJzIwMCcsICctbWV0YWxfYmluZGluZycsICctaW1hZScsICc8aW5maWxlLm1hZT4nLCAnLW9tYWUnLCAnPG91dGZpbGUubWFlPic=

> <r_lp_tautomer_probability>
1

> <r_epik_Ionization_Penalty>
1.22164e-06

> <r_epik_Ionization_Penalty_Charging>
3.17988e-07

> <r_epik_Ionization_Penalty_Neutral>
9.03656e-07

> <r_epik_State_Penalty>
-0

> <r_epik_Charging_Adjusted_Penalty>
3.17988e-07

> <i_epik_Tot_Q>
0

> <i_epik_Tot_abs_Q>
0

> <r_epik_Metal_State_Penalty>
-0

> <b_epik_Metal_Only>
0

> <s_lp_Force_Field>
OPLS_2005

> <r_lp_Energy>
18.9829

> <b_lp_Chiralities_Consistent>
1

> <s_lp_Variant>
AV-unprocessed.smi:2702-2

> <Gold.Version>
5.8.1

> <Gold.Id.Protein>
6NUR|6NUR_protein|mol2

> <Gold.PLP.Fitness>
42.3500

> <Gold.PLP.PLP>
-43.4161

> <Gold.PLP.part.hbond>
0.0000

> <Gold.PLP.part.metal>
0.0000

> <Gold.PLP.part.buried>
-6.1532

> <Gold.PLP.part.nonpolar>
-37.4131

> <Gold.PLP.part.repulsive>
0.1244

> <Gold.PLP.ligand.clash>
0.0000

> <Gold.PLP.ligand.torsion>
0.5757

> <Gold.PLP.Chemscore.Hbond>
0.0000

> <Gold.PLP.Chemscore.CHOScore>
0.0000

> <Gold.PLP.Chemscore.Metal>
0.0000

> <Gold.PLP.Chemscore.Internal.Correction>
0.0854

> <Gold.Rescore>
     Score         DG    S(hbond)    S(metal)    S(lipo)     H(rot)  DE(clash)    DE(int)     intcor
     13.18     -14.11       0.00        0.00     116.00       1.93       0.08       0.86       ----

> <Gold.Chemscore.Fitness>
13.1828

> <Gold.Chemscore.DG>
-14.1147

> <Gold.Chemscore.ZeroCoef>
-5.4800

> <Gold.Chemscore.Hbond>
0.0000

> <Gold.Chemscore.Metal>
0.0000

> <Gold.Chemscore.Lipo>
115.9960

> <Gold.Chemscore.Internal_Hbond>
0.0000

> <Gold.Chemscore.DEClash>
0.0759

> <Gold.Chemscore.DEInternal>
0.8561

> <Gold.Chemscore.Rot>
1.9284

> <Gold.Chemscore.Internal.Correction>
   9.000000E+99

> <Gold.Chemscore.Hbond.Weighted>
-0.0000

> <Gold.Chemscore.Metal.Weighted>
-0.0000

> <Gold.Chemscore.Lipo.Weighted>
-13.5715

> <Gold.Chemscore.Internal_Hbond.Weighted>
0.0000

> <Gold.Chemscore.DEClash.Weighted>
0.0759

> <Gold.Chemscore.DEInternal.Weighted>
0.8561

> <Gold.Chemscore.Rot.Weighted>
4.9368

> <Gold.Chemscore.Internal.Correction.Weighted>
   9.000000E+99

> <Gold.Protein.RotatedTorsions>
[ 6907 6896 6895 6894 ] final   98.03 input  -60.11 | X-H torsion
[ 7974 7965 7964 7962 ] final   14.25 input  175.53 | X-H torsion
[ 8008 7997 7996 7995 ] final   65.04 input   59.86 | X-H torsion
[ 10167 10162 10161 10158 ] final  -38.92 input  -65.29 | X-H torsion
[ 10718 10713 10712 10709 ] final  -29.49 input   66.30 | X-H torsion
[ 10763 10752 10751 10750 ] final -108.21 input  -60.55 | X-H torsion
[ 11005 11000 10999 10996 ] final   -6.75 input  -57.11 | X-H torsion

> <Gold.Protein.ActiveResidues>
 VAL166  LYS551  ARG553  GLY616  TRP617  ASP618  TYR619  PRO620  LYS621  CYS622 
 ASP623  PHE694  ASN695  SER759  ASP760  ASP761  ALA762  ILE779  LEU786  VAL792 
 PHE793  MET794  SER795  GLU796  ALA797  LYS798  CYS799  TRP800  GLU811  SER814 

> <Gold.Protein.RotatedAtoms>
  152.5415  134.0643  159.8165 H   0  0  0  0  0  0  0  0  0  0  0  0  # atno 6907 bound_to 6896
  151.0767  133.5415  159.2630 H   0  0  0  0  0  0  0  0  0  0  0  0  # atno 6908 bound_to 6896
  151.2258  135.0544  159.9022 H   0  0  0  0  0  0  0  0  0  0  0  0  # atno 6909 bound_to 6896
  146.2309  139.9068  142.8530 H   0  0  0  0  0  0  0  0  0  0  0  0  # atno 7974 bound_to 7965
  155.6556  140.3497  155.4764 H   0  0  0  0  0  0  0  0  0  0  0  0  # atno 8008 bound_to 7997
  155.9812  140.1175  157.0748 H   0  0  0  0  0  0  0  0  0  0  0  0  # atno 8009 bound_to 7997
  154.4192  140.1138  156.5424 H   0  0  0  0  0  0  0  0  0  0  0  0  # atno 8010 bound_to 7997
  140.7079  143.3247  151.2709 H   0  0  0  0  0  0  0  0  0  0  0  0  # atno 10167 bound_to 10162
  156.4118  130.4409  149.7247 H   0  0  0  0  0  0  0  0  0  0  0  0  # atno 10718 bound_to 10713
  154.8122  135.4646  154.0546 H   0  0  0  0  0  0  0  0  0  0  0  0  # atno 10763 bound_to 10752
  153.1968  135.6863  153.8288 H   0  0  0  0  0  0  0  0  0  0  0  0  # atno 10764 bound_to 10752
  153.7787  135.3259  155.3340 H   0  0  0  0  0  0  0  0  0  0  0  0  # atno 10765 bound_to 10752
  140.7053  133.8954  155.8712 H   0  0  0  0  0  0  0  0  0  0  0  0  # atno 11005 bound_to 11000
  145.2268  140.9957  143.4013 LP  0  0  0  0  0  0  0  0  0  0  0  0  # atno 17320 bound_to 7965
  144.9563  139.4027  143.6377 LP  0  0  0  0  0  0  0  0  0  0  0  0  # atno 17321 bound_to 7965
  139.6711  144.0018  152.2753 LP  0  0  0  0  0  0  0  0  0  0  0  0  # atno 17342 bound_to 10162
  139.9617  144.6553  150.8073 LP  0  0  0  0  0  0  0  0  0  0  0  0  # atno 17343 bound_to 10162
  156.4223  130.7774  151.2792 LP  0  0  0  0  0  0  0  0  0  0  0  0  # atno 17370 bound_to 10713
  157.7507  131.0179  150.3605 LP  0  0  0  0  0  0  0  0  0  0  0  0  # atno 17371 bound_to 10713
  141.0129  134.0995  157.4202 LP  0  0  0  0  0  0  0  0  0  0  0  0  # atno 17394 bound_to 11000
  139.8886  135.0098  156.6628 LP  0  0  0  0  0  0  0  0  0  0  0  0  # atno 17395 bound_to 11000

$$$$
