AV-unprocessed.smi:213|AV-procd|sdf|1633|dock8
  -GOLD-   2262019593D 1   1.00000     0.00000
 Structure written by MMmdl.
 59 62  0  0  0  0  0  0  0  0  2 V2000
  146.6401  134.7022  155.8258 C   0  0  0  0  0  0  0  0  0  0  0  0
  147.5548  135.0966  154.6547 C   0  0  2  0  0  0  0  0  0  0  0  0
  147.6468  133.9600  153.6066 C   0  0  0  0  0  0  0  0  0  0  0  0
  146.3869  133.7674  152.8439 N   0  3  0  0  0  0  0  0  0  0  0  0
  145.8551  135.0242  152.2703 C   0  0  0  0  0  0  0  0  0  0  0  0
  144.5015  134.7610  151.5891 C   0  0  0  0  0  0  0  0  0  0  0  0
  144.6556  133.7610  150.5892 O   0  0  0  0  0  0  0  0  0  0  0  0
  145.0957  132.5229  151.1347 C   0  0  0  0  0  0  0  0  0  0  0  0
  146.4675  132.7136  151.8026 C   0  0  0  0  0  0  0  0  0  0  0  0
  148.8746  135.5435  155.1284 N   0  0  0  0  0  0  0  0  0  0  0  0
  150.0823  134.9812  154.5237 C   0  0  0  0  0  0  0  0  0  0  0  0
  148.9527  136.8293  155.5637 C   0  0  0  0  0  0  0  0  0  0  0  0
  147.9219  137.3535  156.2810 N   0  0  0  0  0  0  0  0  0  0  0  0
  148.0014  138.5917  156.7756 C   0  0  0  0  0  0  0  0  0  0  0  0
  149.0077  139.4617  156.6830 N   0  0  0  0  0  0  0  0  0  0  0  0
  150.0390  138.9502  155.9527 C   0  0  0  0  0  0  0  0  0  0  0  0
  150.0920  137.6585  155.3570 C   0  0  0  0  0  0  0  0  0  0  0  0
  151.3006  137.4975  154.6893 N   0  0  0  0  0  0  0  0  0  0  0  0
  151.9296  138.6237  154.8874 C   0  0  0  0  0  0  0  0  0  0  0  0
  151.2488  139.5471  155.6468 N   0  0  0  0  0  0  0  0  0  0  0  0
  151.7170  140.8671  156.0343 C   0  0  0  0  0  0  0  0  0  0  0  0
  150.7195  141.6007  156.9574 C   0  0  2  0  0  0  0  0  0  0  0  0
  149.5833  141.9566  156.1919 O   0  0  0  0  0  0  0  0  0  0  0  0
  151.2992  142.8914  157.5705 C   0  0  2  0  0  0  0  0  0  0  0  0
  152.4481  142.6770  158.5568 C   0  0  0  0  0  0  0  0  0  0  0  0
  152.4291  143.9452  159.3913 C   0  0  0  0  0  0  0  0  0  0  0  0
  150.9975  144.4626  159.2317 C   0  0  0  0  0  0  0  0  0  0  0  0
  150.3357  143.5046  158.4149 O   0  0  0  0  0  0  0  0  0  0  0  0
  145.6290  134.4958  155.4738 H   0  0  0  0  0  0  0  0  0  0  0  0
  146.5727  135.5069  156.5585 H   0  0  0  0  0  0  0  0  0  0  0  0
  146.9923  133.8075  156.3392 H   0  0  0  0  0  0  0  0  0  0  0  0
  147.0517  135.9340  154.1761 H   0  0  0  0  0  0  0  0  0  0  0  0
  148.4553  134.1918  152.9120 H   0  0  0  0  0  0  0  0  0  0  0  0
  147.9232  133.0195  154.0858 H   0  0  0  0  0  0  0  0  0  0  0  0
  145.7286  135.7673  153.0584 H   0  0  0  0  0  0  0  0  0  0  0  0
  146.5682  135.4320  151.5522 H   0  0  0  0  0  0  0  0  0  0  0  0
  143.7532  134.4486  152.3197 H   0  0  0  0  0  0  0  0  0  0  0  0
  144.1306  135.6738  151.1226 H   0  0  0  0  0  0  0  0  0  0  0  0
  144.3633  132.1444  151.8492 H   0  0  0  0  0  0  0  0  0  0  0  0
  145.1662  131.7870  150.3337 H   0  0  0  0  0  0  0  0  0  0  0  0
  147.2126  132.9910  151.0556 H   0  0  0  0  0  0  0  0  0  0  0  0
  146.7880  131.7673  152.2365 H   0  0  0  0  0  0  0  0  0  0  0  0
  150.9675  135.2515  155.1010 H   0  0  0  0  0  0  0  0  0  0  0  0
  150.2146  135.3445  153.5042 H   0  0  0  0  0  0  0  0  0  0  0  0
  150.0396  133.8933  154.4944 H   0  0  0  0  0  0  0  0  0  0  0  0
  147.1409  138.9299  157.3339 H   0  0  0  0  0  0  0  0  0  0  0  0
  152.9173  138.8100  154.4903 H   0  0  0  0  0  0  0  0  0  0  0  0
  152.6813  140.7461  156.5286 H   0  0  0  0  0  0  0  0  0  0  0  0
  151.9012  141.4539  155.1335 H   0  0  0  0  0  0  0  0  0  0  0  0
  150.4060  140.9248  157.7543 H   0  0  0  0  0  0  0  0  0  0  0  0
  149.5679  142.8967  156.1023 H   0  0  0  0  0  0  0  0  0  0  0  0
  151.6101  143.5919  156.7924 H   0  0  0  0  0  0  0  0  0  0  0  0
  152.2409  141.8166  159.1947 H   0  0  0  0  0  0  0  0  0  0  0  0
  153.4068  142.5119  158.0643 H   0  0  0  0  0  0  0  0  0  0  0  0
  152.6859  143.7469  160.4322 H   0  0  0  0  0  0  0  0  0  0  0  0
  153.1389  144.6757  159.0016 H   0  0  0  0  0  0  0  0  0  0  0  0
  150.4856  144.5670  160.1885 H   0  0  0  0  0  0  0  0  0  0  0  0
  150.9913  145.4330  158.7339 H   0  0  0  0  0  0  0  0  0  0  0  0
  145.6985  133.4599  153.5171 H   0  0  0  0  0  0  0  0  0  0  0  0
  1  2  1  0  0  0  0
  1 29  1  0  0  0  0
  1 30  1  0  0  0  0
  1 31  1  0  0  0  0
  2  3  1  0  0  0  0
  2 10  1  0  0  0  0
  2 32  1  0  0  0  0
  3  4  1  0  0  0  0
  3 33  1  0  0  0  0
  3 34  1  0  0  0  0
  4  9  1  0  0  0  0
  4  5  1  0  0  0  0
  4 59  1  0  0  0  0
  5  6  1  0  0  0  0
  5 35  1  0  0  0  0
  5 36  1  0  0  0  0
  6  7  1  0  0  0  0
  6 37  1  0  0  0  0
  6 38  1  0  0  0  0
  7  8  1  0  0  0  0
  8  9  1  0  0  0  0
  8 39  1  0  0  0  0
  8 40  1  0  0  0  0
  9 41  1  0  0  0  0
  9 42  1  0  0  0  0
 10 11  1  0  0  0  0
 10 12  1  0  0  0  0
 11 43  1  0  0  0  0
 11 44  1  0  0  0  0
 11 45  1  0  0  0  0
 12 17  1  0  0  0  0
 12 13  2  0  0  0  0
 13 14  1  0  0  0  0
 14 15  2  0  0  0  0
 14 46  1  0  0  0  0
 15 16  1  0  0  0  0
 16 20  1  0  0  0  0
 16 17  2  0  0  0  0
 17 18  1  0  0  0  0
 18 19  2  0  0  0  0
 19 20  1  0  0  0  0
 19 47  1  0  0  0  0
 20 21  1  0  0  0  0
 21 22  1  0  0  0  0
 21 48  1  0  0  0  0
 21 49  1  0  0  0  0
 22 23  1  0  0  0  0
 22 24  1  0  0  0  0
 22 50  1  0  0  0  0
 23 51  1  0  0  0  0
 24 28  1  0  0  0  0
 24 25  1  0  0  0  0
 24 52  1  0  0  0  0
 25 26  1  0  0  0  0
 25 53  1  0  0  0  0
 25 54  1  0  0  0  0
 26 27  1  0  0  0  0
 26 55  1  0  0  0  0
 26 56  1  0  0  0  0
 27 28  1  0  0  0  0
 27 57  1  0  0  0  0
 27 58  1  0  0  0  0
M  CHG  1   4   1
M  END
> <s_m_source_file>
AV-unprocessed.smi

> <i_m_source_file_index>
213

> <i_lp_mmshare_version>
43012

> <i_f3d_flags>
0

> <s_epik_input>
W0NIMl0xW0NIMl1PW0NIMl1bQ0gyXU4xW0NIMl1bQ0BASF0oW0NIM10pTihbQ0gzXSljKG5bY0hdbjIpYyhjMjMpbltjSF1uM1tDSDJdW0NASF0oW09IXSlbQ0BASF00W0NIMl1bQ0gyXVtDSDJdTzQ=

> <s_epik_cmdline>
J2VwaWtfcHl0aG9uJywgJy1waCcsICc3LjAnLCAnLXRuJywgJzgnLCAnLW1hJywgJzIwMCcsICctbWV0YWxfYmluZGluZycsICctaW1hZScsICc8aW5maWxlLm1hZT4nLCAnLW9tYWUnLCAnPG91dGZpbGUubWFlPic=

> <r_lp_tautomer_probability>
1

> <r_epik_Ionization_Penalty>
0.399679

> <r_epik_Ionization_Penalty_Charging>
0.399433

> <r_epik_Ionization_Penalty_Neutral>
0.000246213

> <r_epik_State_Penalty>
0.286032

> <r_epik_Charging_Adjusted_Penalty>
0.685465

> <i_epik_Tot_Q>
1

> <i_epik_Tot_abs_Q>
1

> <r_epik_Metal_State_Penalty>
0.286072

> <b_epik_Metal_Only>
0

> <s_lp_Force_Field>
OPLS_2005

> <r_lp_Energy>
46.7886

> <b_lp_Chiralities_Consistent>
1

> <s_lp_Variant>
AV-unprocessed.smi:213-1

> <Gold.Version>
5.8.1

> <Gold.Id.Protein>
6NUR|6NUR_protein|mol2

> <Gold.PLP.Fitness>
40.9497

> <Gold.PLP.PLP>
-38.6016

> <Gold.PLP.part.hbond>
-1.0000

> <Gold.PLP.part.metal>
0.0000

> <Gold.PLP.part.buried>
-6.9076

> <Gold.PLP.part.nonpolar>
-32.0089

> <Gold.PLP.part.repulsive>
0.4672

> <Gold.PLP.ligand.clash>
0.0000

> <Gold.PLP.ligand.torsion>
0.8830

> <Gold.PLP.Chemscore.Hbond>
1.0000

> <Gold.PLP.Chemscore.CHOScore>
0.0000

> <Gold.PLP.Chemscore.Metal>
0.0000

> <Gold.Chemscore.Hbonds>
donor molecule, donor type, donor heavy atom, donor atom, acceptor molecule, acceptor atom, score
      L1  H    23    51       P1  8028  1.00

> <Gold.PLP.Chemscore.Internal.Correction>
1.1141

> <Gold.Rescore>
     Score         DG    S(hbond)    S(metal)    S(lipo)     H(rot)  DE(clash)    DE(int)     intcor
      8.60     -12.52       0.98        0.00      93.89       2.83       0.20       3.72       ----

> <Gold.Chemscore.Fitness>
8.6028

> <Gold.Chemscore.DG>
-12.5209

> <Gold.Chemscore.ZeroCoef>
-5.4800

> <Gold.Chemscore.Hbond>
0.9847

> <Gold.Chemscore.Metal>
0.0000

> <Gold.Chemscore.Lipo>
93.8880

> <Gold.Chemscore.Internal_Hbond>
0.0000

> <Gold.Chemscore.DEClash>
0.1976

> <Gold.Chemscore.DEInternal>
3.7205

> <Gold.Chemscore.Rot>
2.8254

> <Gold.Chemscore.Internal.Correction>
   9.000000E+99

> <Gold.Chemscore.Hbonds>
donor molecule, donor type, donor heavy atom, donor atom, acceptor molecule, acceptor atom, score
      L1  H    23    51       P1  8028  0.96

> <Gold.Chemscore.Hbond.Weighted>
-3.2890

> <Gold.Chemscore.Metal.Weighted>
-0.0000

> <Gold.Chemscore.Lipo.Weighted>
-10.9849

> <Gold.Chemscore.Internal_Hbond.Weighted>
0.0000

> <Gold.Chemscore.DEClash.Weighted>
0.1976

> <Gold.Chemscore.DEInternal.Weighted>
3.7205

> <Gold.Chemscore.Rot.Weighted>
7.2330

> <Gold.Chemscore.Internal.Correction.Weighted>
   9.000000E+99

> <Gold.Protein.RotatedTorsions>
[ 6907 6896 6895 6894 ] final  142.41 input  -60.11 | X-H torsion
[ 7974 7965 7964 7962 ] final   30.43 input  175.53 | X-H torsion
[ 8008 7997 7996 7995 ] final  156.50 input   59.86 | X-H torsion
[ 10167 10162 10161 10158 ] final  178.33 input  -65.29 | X-H torsion
[ 10718 10713 10712 10709 ] final  101.75 input   66.30 | X-H torsion
[ 10763 10752 10751 10750 ] final   74.52 input  -60.55 | X-H torsion
[ 11005 11000 10999 10996 ] final   66.97 input  -57.11 | X-H torsion

> <Gold.Protein.ActiveResidues>
 VAL166  LYS551  ARG553  GLY616  TRP617  ASP618  TYR619  PRO620  LYS621  CYS622 
 ASP623  PHE694  ASN695  SER759  ASP760  ASP761  ALA762  ILE779  LEU786  VAL792 
 PHE793  MET794  SER795  GLU796  ALA797  LYS798  CYS799  TRP800  GLU811  SER814 

> <Gold.Protein.RotatedAtoms>
  152.2191  133.4969  159.5152 H   0  0  0  0  0  0  0  0  0  0  0  0  # atno 6907 bound_to 6896
  150.7008  134.1366  159.4098 H   0  0  0  0  0  0  0  0  0  0  0  0  # atno 6908 bound_to 6896
  151.9287  135.0266  160.0578 H   0  0  0  0  0  0  0  0  0  0  0  0  # atno 6909 bound_to 6896
  146.1612  139.6790  142.9032 H   0  0  0  0  0  0  0  0  0  0  0  0  # atno 7974 bound_to 7965
  156.2419  140.1911  156.6964 H   0  0  0  0  0  0  0  0  0  0  0  0  # atno 8008 bound_to 7997
  154.6213  140.0608  156.9645 H   0  0  0  0  0  0  0  0  0  0  0  0  # atno 8009 bound_to 7997
  155.1856  140.3280  155.4370 H   0  0  0  0  0  0  0  0  0  0  0  0  # atno 8010 bound_to 7997
  139.5289  144.2693  152.0641 H   0  0  0  0  0  0  0  0  0  0  0  0  # atno 10167 bound_to 10162
  157.6821  131.0734  150.5299 H   0  0  0  0  0  0  0  0  0  0  0  0  # atno 10718 bound_to 10713
  153.0592  135.5023  154.8054 H   0  0  0  0  0  0  0  0  0  0  0  0  # atno 10763 bound_to 10752
  154.6856  135.2975  154.9555 H   0  0  0  0  0  0  0  0  0  0  0  0  # atno 10764 bound_to 10752
  154.0326  135.6727  153.4835 H   0  0  0  0  0  0  0  0  0  0  0  0  # atno 10765 bound_to 10752
  139.9799  134.6761  156.0282 H   0  0  0  0  0  0  0  0  0  0  0  0  # atno 11005 bound_to 11000
  145.4583  141.0431  143.2766 LP  0  0  0  0  0  0  0  0  0  0  0  0  # atno 17320 bound_to 7965
  144.8030  139.6105  143.7063 LP  0  0  0  0  0  0  0  0  0  0  0  0  # atno 17321 bound_to 7965
  140.2153  144.4521  150.6366 LP  0  0  0  0  0  0  0  0  0  0  0  0  # atno 17342 bound_to 10162
  140.6454  143.2212  151.6198 LP  0  0  0  0  0  0  0  0  0  0  0  0  # atno 17343 bound_to 10162
  156.5609  130.4255  149.6063 LP  0  0  0  0  0  0  0  0  0  0  0  0  # atno 17370 bound_to 10713
  156.2822  130.7077  151.1904 LP  0  0  0  0  0  0  0  0  0  0  0  0  # atno 17371 bound_to 10713
  141.1472  133.6554  156.3904 LP  0  0  0  0  0  0  0  0  0  0  0  0  # atno 17394 bound_to 11000
  140.5118  134.6388  157.5287 LP  0  0  0  0  0  0  0  0  0  0  0  0  # atno 17395 bound_to 11000

$$$$
