AV-unprocessed.smi:3162|AV-procd|sdf|12070|dock3
  -GOLD-   2272017503D 1   1.00000     0.00000
 Structure written by MMmdl.
 36 36  0  0  0  0  0  0  0  0  1 V2000
  148.6937  137.1088  154.8722 C   0  0  0  0  0  0  0  0  0  0  0  0
  147.6765  138.2272  155.1492 C   0  0  0  0  0  0  0  0  0  0  0  0
  147.4908  139.2219  153.9821 C   0  0  1  0  0  0  0  0  0  0  0  0
  148.8034  139.7821  153.6060 N   0  0  0  0  0  0  0  0  0  0  0  0
  149.3623  140.7746  154.5220 C   0  0  1  0  0  0  0  0  0  0  0  0
  148.2268  141.7371  154.9083 C   0  0  0  0  0  0  0  0  0  0  0  0
  149.9798  140.0647  155.7482 C   0  0  0  0  0  0  0  0  0  0  0  0
  150.5807  140.9918  156.6892 N   0  0  0  0  0  0  0  0  0  0  0  0
  150.5890  142.3698  156.6501 C   0  0  0  0  0  0  0  0  0  0  0  0
  151.2704  142.8081  157.7501 C   0  0  0  0  0  0  0  0  0  0  0  0
  151.5649  144.2197  158.1692 C   0  0  0  0  0  0  0  0  0  0  0  0
  151.6389  141.6027  158.4125 C   0  0  0  0  0  0  0  0  0  0  0  0
  151.2229  140.5188  157.7783 N   0  0  0  0  0  0  0  0  0  0  0  0
  146.7494  138.5784  152.7956 C   0  0  0  0  0  0  0  0  0  0  0  0
  147.3120  138.6899  151.5898 N   0  0  0  0  0  0  0  0  0  0  0  0
  145.6940  137.9718  152.9704 O   0  0  0  0  0  0  0  0  0  0  0  0
  148.7278  136.4052  155.7040 H   0  0  0  0  0  0  0  0  0  0  0  0
  149.7012  137.5024  154.7359 H   0  0  0  0  0  0  0  0  0  0  0  0
  148.4268  136.5487  153.9756 H   0  0  0  0  0  0  0  0  0  0  0  0
  146.7159  137.7597  155.3704 H   0  0  0  0  0  0  0  0  0  0  0  0
  147.9623  138.7598  156.0576 H   0  0  0  0  0  0  0  0  0  0  0  0
  146.8812  140.0470  154.3559 H   0  0  0  0  0  0  0  0  0  0  0  0
  148.8117  140.1313  152.6583 H   0  0  0  0  0  0  0  0  0  0  0  0
  150.1265  141.3656  154.0145 H   0  0  0  0  0  0  0  0  0  0  0  0
  148.5886  142.5453  155.5444 H   0  0  0  0  0  0  0  0  0  0  0  0
  147.4319  141.2210  155.4477 H   0  0  0  0  0  0  0  0  0  0  0  0
  147.7850  142.1982  154.0243 H   0  0  0  0  0  0  0  0  0  0  0  0
  149.2166  139.4896  156.2745 H   0  0  0  0  0  0  0  0  0  0  0  0
  150.7475  139.3518  155.4476 H   0  0  0  0  0  0  0  0  0  0  0  0
  150.1169  142.9190  155.8488 H   0  0  0  0  0  0  0  0  0  0  0  0
  152.1096  144.2576  159.1129 H   0  0  0  0  0  0  0  0  0  0  0  0
  150.6506  144.7982  158.3028 H   0  0  0  0  0  0  0  0  0  0  0  0
  152.1707  144.7408  157.4276 H   0  0  0  0  0  0  0  0  0  0  0  0
  152.1932  141.4847  159.3318 H   0  0  0  0  0  0  0  0  0  0  0  0
  146.8596  138.2854  150.7831 H   0  0  0  0  0  0  0  0  0  0  0  0
  148.1882  139.1816  151.4895 H   0  0  0  0  0  0  0  0  0  0  0  0
  1  2  1  0  0  0  0
  1 17  1  0  0  0  0
  1 18  1  0  0  0  0
  1 19  1  0  0  0  0
  2  3  1  0  0  0  0
  2 20  1  0  0  0  0
  2 21  1  0  0  0  0
  3  4  1  0  0  0  0
  3 14  1  0  0  0  0
  3 22  1  0  0  0  0
  4  5  1  0  0  0  0
  4 23  1  0  0  0  0
  5  6  1  0  0  0  0
  5  7  1  0  0  0  0
  5 24  1  0  0  0  0
  6 25  1  0  0  0  0
  6 26  1  0  0  0  0
  6 27  1  0  0  0  0
  7  8  1  0  0  0  0
  7 28  1  0  0  0  0
  7 29  1  0  0  0  0
  8 13  1  0  0  0  0
  8  9  1  0  0  0  0
  9 10  2  0  0  0  0
  9 30  1  0  0  0  0
 10 11  1  0  0  0  0
 10 12  1  0  0  0  0
 11 31  1  0  0  0  0
 11 32  1  0  0  0  0
 11 33  1  0  0  0  0
 12 13  2  0  0  0  0
 12 34  1  0  0  0  0
 14 15  1  0  0  0  0
 14 16  2  0  0  0  0
 15 35  1  0  0  0  0
 15 36  1  0  0  0  0
M  END
> <s_m_source_file>
AV-unprocessed.smi

> <i_m_source_file_index>
3162

> <i_lp_mmshare_version>
43012

> <i_f3d_flags>
0

> <s_epik_input>
W0NIM11bQ0gyXVtDQEBIXShDKD1PKVtOSDJdKVtOSF1bQ0BIXShbQ0gzXSlbQ0gyXW4xW2NIXWMoW0NIM10pW2NIXW4x

> <s_epik_cmdline>
J2VwaWtfcHl0aG9uJywgJy1waCcsICc3LjAnLCAnLXRuJywgJzgnLCAnLW1hJywgJzIwMCcsICctbWV0YWxfYmluZGluZycsICctaW1hZScsICc8aW5maWxlLm1hZT4nLCAnLW9tYWUnLCAnPG91dGZpbGUubWFlPic=

> <r_lp_tautomer_probability>
1

> <r_epik_Ionization_Penalty>
1.04167

> <r_epik_Ionization_Penalty_Charging>
0

> <r_epik_Ionization_Penalty_Neutral>
1.04167

> <r_epik_State_Penalty>
1.09367

> <r_epik_Charging_Adjusted_Penalty>
1.09367

> <i_epik_Tot_Q>
0

> <i_epik_Tot_abs_Q>
0

> <r_epik_Metal_State_Penalty>
1.09362

> <b_epik_Metal_Only>
0

> <s_lp_Force_Field>
OPLS_2005

> <r_lp_Energy>
2.92594

> <b_lp_Chiralities_Consistent>
1

> <s_lp_Variant>
AV-unprocessed.smi:3162-8

> <Gold.Version>
5.8.1

> <Gold.Id.Protein>
6NUR|6NUR_protein|mol2

> <Gold.PLP.Fitness>
36.2340

> <Gold.PLP.PLP>
-27.9988

> <Gold.PLP.part.hbond>
-3.0000

> <Gold.PLP.part.metal>
0.0000

> <Gold.PLP.part.buried>
-3.0393

> <Gold.PLP.part.nonpolar>
-22.9164

> <Gold.PLP.part.repulsive>
1.2306

> <Gold.PLP.ligand.clash>
0.0000

> <Gold.PLP.ligand.torsion>
0.4482

> <Gold.PLP.Chemscore.Hbond>
2.0000

> <Gold.PLP.Chemscore.CHOScore>
1.0000

> <Gold.PLP.Chemscore.Metal>
0.0000

> <Gold.Chemscore.Hbonds>
donor molecule, donor type, donor heavy atom, donor atom, acceptor molecule, acceptor atom, score
      L1  H     4    23       P1  7957  0.90
      L1  H    15    36       P1  7957  1.00
      L1  C     9    30       P1  8028  1.00

> <Gold.PLP.Chemscore.Internal.Correction>
0.1317

> <Gold.Rescore>
     Score         DG    S(hbond)    S(metal)    S(lipo)     H(rot)  DE(clash)    DE(int)     intcor
     12.58     -13.74       1.92        0.00      68.91       2.43       0.33       0.84       ----

> <Gold.Chemscore.Fitness>
12.5766

> <Gold.Chemscore.DG>
-13.7427

> <Gold.Chemscore.ZeroCoef>
-5.4800

> <Gold.Chemscore.Hbond>
1.9245

> <Gold.Chemscore.Metal>
0.0000

> <Gold.Chemscore.Lipo>
68.9127

> <Gold.Chemscore.Internal_Hbond>
0.0000

> <Gold.Chemscore.DEClash>
0.3257

> <Gold.Chemscore.DEInternal>
0.8403

> <Gold.Chemscore.Rot>
2.4328

> <Gold.Chemscore.Internal.Correction>
   9.000000E+99

> <Gold.Chemscore.Hbonds>
donor molecule, donor type, donor heavy atom, donor atom, acceptor molecule, acceptor atom, score
      L1  H     4    23       P1  7957  0.88
      L1  H    15    36       P1  7957  0.85

> <Gold.Chemscore.Hbond.Weighted>
-6.4278

> <Gold.Chemscore.Metal.Weighted>
-0.0000

> <Gold.Chemscore.Lipo.Weighted>
-8.0628

> <Gold.Chemscore.Internal_Hbond.Weighted>
0.0000

> <Gold.Chemscore.DEClash.Weighted>
0.3257

> <Gold.Chemscore.DEInternal.Weighted>
0.8403

> <Gold.Chemscore.Rot.Weighted>
6.2279

> <Gold.Chemscore.Internal.Correction.Weighted>
   9.000000E+99

> <Gold.Protein.RotatedTorsions>
[ 6907 6896 6895 6894 ] final  -28.67 input  -60.11 | X-H torsion
[ 7974 7965 7964 7962 ] final -164.03 input  175.53 | X-H torsion
[ 8008 7997 7996 7995 ] final   53.37 input   59.86 | X-H torsion
[ 10167 10162 10161 10158 ] final  138.43 input  -65.29 | X-H torsion
[ 10718 10713 10712 10709 ] final   85.78 input   66.30 | X-H torsion
[ 10763 10752 10751 10750 ] final -179.02 input  -60.55 | X-H torsion
[ 11005 11000 10999 10996 ] final   87.27 input  -57.11 | X-H torsion

> <Gold.Protein.ActiveResidues>
 VAL166  LYS551  ARG553  GLY616  TRP617  ASP618  TYR619  PRO620  LYS621  CYS622 
 ASP623  PHE694  ASN695  SER759  ASP760  ASP761  ALA762  ILE779  LEU786  VAL792 
 PHE793  MET794  SER795  GLU796  ALA797  LYS798  CYS799  TRP800  GLU811  SER814 

> <Gold.Protein.RotatedAtoms>
  151.1298  135.0124  159.8576 H   0  0  0  0  0  0  0  0  0  0  0  0  # atno 6907 bound_to 6896
  152.5450  134.1624  159.8573 H   0  0  0  0  0  0  0  0  0  0  0  0  # atno 6908 bound_to 6896
  151.1689  133.4752  159.2627 H   0  0  0  0  0  0  0  0  0  0  0  0  # atno 6909 bound_to 6896
  144.7308  140.3020  143.6203 H   0  0  0  0  0  0  0  0  0  0  0  0  # atno 7974 bound_to 7965
  155.4672  140.3464  155.4320 H   0  0  0  0  0  0  0  0  0  0  0  0  # atno 8008 bound_to 7997
  156.1124  140.1464  156.9349 H   0  0  0  0  0  0  0  0  0  0  0  0  # atno 8009 bound_to 7997
  154.4765  140.0883  156.7254 H   0  0  0  0  0  0  0  0  0  0  0  0  # atno 8010 bound_to 7997
  139.5111  144.6353  151.5711 H   0  0  0  0  0  0  0  0  0  0  0  0  # atno 10167 bound_to 10162
  157.6919  131.0188  150.2873 H   0  0  0  0  0  0  0  0  0  0  0  0  # atno 10718 bound_to 10713
  154.5404  135.2805  155.1101 H   0  0  0  0  0  0  0  0  0  0  0  0  # atno 10763 bound_to 10752
  154.2586  135.6326  153.5270 H   0  0  0  0  0  0  0  0  0  0  0  0  # atno 10764 bound_to 10752
  152.9977  135.5600  154.5942 H   0  0  0  0  0  0  0  0  0  0  0  0  # atno 10765 bound_to 10752
  139.8924  134.8411  156.2836 H   0  0  0  0  0  0  0  0  0  0  0  0  # atno 11005 bound_to 11000
  145.7751  139.1871  143.2190 LP  0  0  0  0  0  0  0  0  0  0  0  0  # atno 17320 bound_to 7965
  146.0879  140.7689  142.9609 LP  0  0  0  0  0  0  0  0  0  0  0  0  # atno 17321 bound_to 7965
  140.6100  143.9453  150.6446 LP  0  0  0  0  0  0  0  0  0  0  0  0  # atno 17342 bound_to 10162
  140.2692  143.3468  152.1253 LP  0  0  0  0  0  0  0  0  0  0  0  0  # atno 17343 bound_to 10162
  156.3410  130.3815  149.7409 LP  0  0  0  0  0  0  0  0  0  0  0  0  # atno 17370 bound_to 10713
  156.4918  130.8088  151.3097 LP  0  0  0  0  0  0  0  0  0  0  0  0  # atno 17371 bound_to 10713
  141.0022  133.7144  156.0978 LP  0  0  0  0  0  0  0  0  0  0  0  0  # atno 17394 bound_to 11000
  140.7482  134.4074  157.5545 LP  0  0  0  0  0  0  0  0  0  0  0  0  # atno 17395 bound_to 11000

$$$$
