AV-unprocessed.smi:949|AV-procd|sdf|4246|dock3
  -GOLD-   22720 2153D 1   1.00000     0.00000
 Structure written by MMmdl.
 32 33  0  0  0  0  0  0  0  0  1 V2000
  151.5016  140.9611  156.3863 C   0  0  0  0  0  0  0  0  0  0  0  0
  150.2223  141.4778  157.0706 C   0  0  2  0  0  0  0  0  0  0  0  0
  149.2577  141.9191  156.0698 N   0  0  0  0  0  0  0  0  0  0  0  0
  148.6719  141.0478  155.1343 C   0  0  0  0  0  0  0  0  0  0  0  0
  149.2118  139.7757  154.8283 C   0  0  0  0  0  0  0  0  0  0  0  0
  148.5563  138.9676  153.8787 C   0  0  0  0  0  0  0  0  0  0  0  0
  147.4301  139.3390  153.2368 N   0  0  0  0  0  0  0  0  0  0  0  0
  146.9141  140.5508  153.5276 C   0  0  0  0  0  0  0  0  0  0  0  0
  147.4888  141.4400  154.4603 C   0  0  0  0  0  0  0  0  0  0  0  0
  146.8820  142.6764  154.6953 N   0  0  0  0  0  0  0  0  0  0  0  0
  150.5265  142.6377  158.0386 C   0  0  2  0  0  0  0  0  0  0  0  0
  151.3712  143.7667  157.4450 C   0  0  0  0  0  0  0  0  0  0  0  0
  152.0444  144.3896  158.6579 C   0  0  0  0  0  0  0  0  0  0  0  0
  151.8714  143.3400  159.7587 C   0  0  0  0  0  0  0  0  0  0  0  0
  151.3592  142.1912  159.0985 O   0  0  0  0  0  0  0  0  0  0  0  0
  152.2126  140.5708  157.1144 H   0  0  0  0  0  0  0  0  0  0  0  0
  151.9992  141.7555  155.8292 H   0  0  0  0  0  0  0  0  0  0  0  0
  151.2875  140.1540  155.6859 H   0  0  0  0  0  0  0  0  0  0  0  0
  149.7810  140.6708  157.6558 H   0  0  0  0  0  0  0  0  0  0  0  0
  148.9144  142.8666  156.1305 H   0  0  0  0  0  0  0  0  0  0  0  0
  150.1102  139.4055  155.2970 H   0  0  0  0  0  0  0  0  0  0  0  0
  148.9494  137.9935  153.6281 H   0  0  0  0  0  0  0  0  0  0  0  0
  146.0121  140.8190  152.9967 H   0  0  0  0  0  0  0  0  0  0  0  0
  147.2678  143.3355  155.3564 H   0  0  0  0  0  0  0  0  0  0  0  0
  146.0759  142.9770  154.1667 H   0  0  0  0  0  0  0  0  0  0  0  0
  149.6033  143.0447  158.4569 H   0  0  0  0  0  0  0  0  0  0  0  0
  152.1311  143.3568  156.7782 H   0  0  0  0  0  0  0  0  0  0  0  0
  150.7781  144.4847  156.8779 H   0  0  0  0  0  0  0  0  0  0  0  0
  153.0958  144.5984  158.4575 H   0  0  0  0  0  0  0  0  0  0  0  0
  151.5639  145.3260  158.9432 H   0  0  0  0  0  0  0  0  0  0  0  0
  152.8059  143.1120  160.2715 H   0  0  0  0  0  0  0  0  0  0  0  0
  151.1489  143.6794  160.5022 H   0  0  0  0  0  0  0  0  0  0  0  0
  1  2  1  0  0  0  0
  1 16  1  0  0  0  0
  1 17  1  0  0  0  0
  1 18  1  0  0  0  0
  2  3  1  0  0  0  0
  2 11  1  0  0  0  0
  2 19  1  0  0  0  0
  3  4  1  0  0  0  0
  3 20  1  0  0  0  0
  4  9  1  0  0  0  0
  4  5  2  0  0  0  0
  5  6  1  0  0  0  0
  5 21  1  0  0  0  0
  6  7  2  0  0  0  0
  6 22  1  0  0  0  0
  7  8  1  0  0  0  0
  8  9  2  0  0  0  0
  8 23  1  0  0  0  0
  9 10  1  0  0  0  0
 10 24  1  0  0  0  0
 10 25  1  0  0  0  0
 11 15  1  0  0  0  0
 11 12  1  0  0  0  0
 11 26  1  0  0  0  0
 12 13  1  0  0  0  0
 12 27  1  0  0  0  0
 12 28  1  0  0  0  0
 13 14  1  0  0  0  0
 13 29  1  0  0  0  0
 13 30  1  0  0  0  0
 14 15  1  0  0  0  0
 14 31  1  0  0  0  0
 14 32  1  0  0  0  0
M  END
> <s_m_source_file>
AV-unprocessed.smi

> <i_m_source_file_index>
949

> <i_lp_mmshare_version>
43012

> <i_f3d_flags>
0

> <s_epik_input>
TzFbQ0gyXVtDSDJdW0NIMl1bQ0BIXTFbQ0BIXShbQ0gzXSlbTkhdYzJbY0hdW2NIXW5bY0hdYzJbTkgyXQ==

> <s_epik_cmdline>
J2VwaWtfcHl0aG9uJywgJy1waCcsICc3LjAnLCAnLXRuJywgJzgnLCAnLW1hJywgJzIwMCcsICctbWV0YWxfYmluZGluZycsICctaW1hZScsICc8aW5maWxlLm1hZT4nLCAnLW9tYWUnLCAnPG91dGZpbGUubWFlPic=

> <r_epik_Ionization_Penalty>
3.88091

> <r_epik_Ionization_Penalty_Charging>
0

> <r_epik_Ionization_Penalty_Neutral>
3.88091

> <r_epik_State_Penalty>
3.88049

> <r_epik_Charging_Adjusted_Penalty>
3.88049

> <i_epik_Tot_Q>
0

> <i_epik_Tot_abs_Q>
0

> <r_epik_Metal_State_Penalty>
0.313783

> <b_epik_Metal_Only>
1

> <s_lp_Force_Field>
OPLS_2005

> <r_lp_Energy>
24.4145

> <b_lp_Chiralities_Consistent>
1

> <s_lp_Variant>
AV-unprocessed.smi:949-5

> <Gold.Version>
5.8.1

> <Gold.Id.Protein>
6NUR|6NUR_protein|mol2

> <Gold.PLP.Fitness>
41.3912

> <Gold.PLP.PLP>
-30.3358

> <Gold.PLP.part.hbond>
-2.0000

> <Gold.PLP.part.metal>
0.0000

> <Gold.PLP.part.buried>
-5.1420

> <Gold.PLP.part.nonpolar>
-26.1429

> <Gold.PLP.part.repulsive>
1.1581

> <Gold.PLP.ligand.clash>
0.0000

> <Gold.PLP.ligand.torsion>
0.1750

> <Gold.PLP.Chemscore.Hbond>
1.9000

> <Gold.PLP.Chemscore.CHOScore>
1.8915

> <Gold.PLP.Chemscore.Metal>
0.0000

> <Gold.Chemscore.Hbonds>
donor molecule, donor type, donor heavy atom, donor atom, acceptor molecule, acceptor atom, score
      L1  H     3    20       P1  8028  1.00
      L1  H    10    24       P1  8028  0.42
      L1  C     6    22       P1  7948  1.00
      L1  C     8    23       P1 10175  1.00

> <Gold.PLP.Chemscore.Internal.Correction>
0.0309

> <Gold.Rescore>
     Score         DG    S(hbond)    S(metal)    S(lipo)     H(rot)  DE(clash)    DE(int)     intcor
     15.13     -15.39       1.01        0.00      82.56       1.22       0.02       0.25       ----

> <Gold.Chemscore.Fitness>
15.1270

> <Gold.Chemscore.DG>
-15.3925

> <Gold.Chemscore.ZeroCoef>
-5.4800

> <Gold.Chemscore.Hbond>
1.0083

> <Gold.Chemscore.Metal>
0.0000

> <Gold.Chemscore.Lipo>
82.5637

> <Gold.Chemscore.Internal_Hbond>
0.0000

> <Gold.Chemscore.DEClash>
0.0179

> <Gold.Chemscore.DEInternal>
0.2476

> <Gold.Chemscore.Rot>
1.2169

> <Gold.Chemscore.Internal.Correction>
   9.000000E+99

> <Gold.Chemscore.Hbonds>
donor molecule, donor type, donor heavy atom, donor atom, acceptor molecule, acceptor atom, score
      L1  H     3    20       P1  8028  0.98
      L1  H    10    24       P1  8028  0.03

> <Gold.Chemscore.Hbond.Weighted>
-3.3677

> <Gold.Chemscore.Metal.Weighted>
-0.0000

> <Gold.Chemscore.Lipo.Weighted>
-9.6600

> <Gold.Chemscore.Internal_Hbond.Weighted>
0.0000

> <Gold.Chemscore.DEClash.Weighted>
0.0179

> <Gold.Chemscore.DEInternal.Weighted>
0.2476

> <Gold.Chemscore.Rot.Weighted>
3.1152

> <Gold.Chemscore.Internal.Correction.Weighted>
   9.000000E+99

> <Gold.Protein.RotatedTorsions>
[ 6907 6896 6895 6894 ] final -159.14 input  -60.11 | X-H torsion
[ 7974 7965 7964 7962 ] final -160.93 input  175.53 | X-H torsion
[ 8008 7997 7996 7995 ] final  -24.87 input   59.86 | X-H torsion
[ 10167 10162 10161 10158 ] final   73.82 input  -65.29 | X-H torsion
[ 10718 10713 10712 10709 ] final   25.28 input   66.30 | X-H torsion
[ 10763 10752 10751 10750 ] final   20.97 input  -60.55 | X-H torsion
[ 11005 11000 10999 10996 ] final    5.15 input  -57.11 | X-H torsion

> <Gold.Protein.ActiveResidues>
 VAL166  LYS551  ARG553  GLY616  TRP617  ASP618  TYR619  PRO620  LYS621  CYS622 
 ASP623  PHE694  ASN695  SER759  ASP760  ASP761  ALA762  ILE779  LEU786  VAL792 
 PHE793  MET794  SER795  GLU796  ALA797  LYS798  CYS799  TRP800  GLU811  SER814 

> <Gold.Protein.RotatedAtoms>
  151.3290  133.4008  159.2660 H   0  0  0  0  0  0  0  0  0  0  0  0  # atno 6907 bound_to 6896
  150.9971  134.9293  159.7943 H   0  0  0  0  0  0  0  0  0  0  0  0  # atno 6908 bound_to 6896
  152.5264  134.3255  159.9216 H   0  0  0  0  0  0  0  0  0  0  0  0  # atno 6909 bound_to 6896
  144.7409  140.3471  143.6123 H   0  0  0  0  0  0  0  0  0  0  0  0  # atno 7974 bound_to 7965
  154.4506  140.1942  156.0531 H   0  0  0  0  0  0  0  0  0  0  0  0  # atno 8008 bound_to 7997
  156.0639  140.3293  155.7467 H   0  0  0  0  0  0  0  0  0  0  0  0  # atno 8009 bound_to 7997
  155.5368  140.0583  157.2869 H   0  0  0  0  0  0  0  0  0  0  0  0  # atno 8010 bound_to 7997
  140.0203  144.5545  150.7587 H   0  0  0  0  0  0  0  0  0  0  0  0  # atno 10167 bound_to 10162
  157.1912  130.6847  149.6151 H   0  0  0  0  0  0  0  0  0  0  0  0  # atno 10718 bound_to 10713
  153.1033  135.6678  153.9632 H   0  0  0  0  0  0  0  0  0  0  0  0  # atno 10763 bound_to 10752
  153.9196  135.3016  155.3449 H   0  0  0  0  0  0  0  0  0  0  0  0  # atno 10764 bound_to 10752
  154.7454  135.5060  153.9271 H   0  0  0  0  0  0  0  0  0  0  0  0  # atno 10765 bound_to 10752
  140.5739  134.0076  155.8020 H   0  0  0  0  0  0  0  0  0  0  0  0  # atno 11005 bound_to 11000
  145.7314  139.1737  143.2428 LP  0  0  0  0  0  0  0  0  0  0  0  0  # atno 17320 bound_to 7965
  146.1203  140.7317  142.9461 LP  0  0  0  0  0  0  0  0  0  0  0  0  # atno 17321 bound_to 7965
  140.7345  143.2729  151.3830 LP  0  0  0  0  0  0  0  0  0  0  0  0  # atno 17342 bound_to 10162
  139.6144  144.1033  152.2331 LP  0  0  0  0  0  0  0  0  0  0  0  0  # atno 17343 bound_to 10162
  155.9711  130.4614  150.6107 LP  0  0  0  0  0  0  0  0  0  0  0  0  # atno 17370 bound_to 10713
  157.3858  131.0788  151.1437 LP  0  0  0  0  0  0  0  0  0  0  0  0  # atno 17371 bound_to 10713
  141.1039  133.9725  157.3032 LP  0  0  0  0  0  0  0  0  0  0  0  0  # atno 17394 bound_to 11000
  139.9349  135.0197  156.8521 LP  0  0  0  0  0  0  0  0  0  0  0  0  # atno 17395 bound_to 11000

$$$$
