#       Name:                AV-unprocessed.smi:3116
#       Creating user name   scv26
#       Creation time:       Fri Mar 27 17:25:51 2020


#       File generated by GOLD software.
#

@<TRIPOS>MOLECULE
AV-unprocessed.smi:3116
    37    37     1
SMALL
NO_CHARGES


@<TRIPOS>ATOM
      1 ****        -1.9580   1.2097  -2.0459 C.3            1 S1                 0.0000
      2 ****        -1.1344   1.7401  -0.8553 C.3            1 S1                 0.0000
      3 ****        -0.5115   0.6232  -0.1266 N.3            1 S1                 0.0000
      4 ****         0.9329   0.4817  -0.3102 C.3            1 S1                 0.0000
      5 ****         1.2522  -0.0085  -1.7361 C.3            1 S1                 0.0000
      6 ****         1.5114  -0.4582   0.7814 C.3            1 S1                 0.0000
      7 ****         1.3217   0.0821   2.2110 C.3            1 S1                 0.0000
      8 ****         1.0410  -1.8361   0.6620 N.pl3          1 S1                 0.0000
      9 ****        -0.1749  -2.3765   1.0349 C.2            1 S1                 0.0000
     10 ****        -0.1577  -3.6992   0.6975 C.2            1 S1                 0.0000
     11 ****         1.1253  -3.8808   0.1114 C.2            1 S1                 0.0000
     12 ****         1.8370  -2.7661   0.0881 N.2            1 S1                 0.0000
     13 ****        -1.9880   2.5825   0.1061 C.2            1 S1                 0.0000
     14 ****        -1.3450   3.1783   1.1143 N.am           1 S1                 0.0000
     15 ****        -3.2021   2.7042  -0.0489 O.2            1 S1                 0.0000
     16 ****        -2.4205   2.0255  -2.6028 H              1 S1                 0.0000
     17 ****        -2.7527   0.5388  -1.7162 H              1 S1                 0.0000
     18 ****        -1.3374   0.6555  -2.7490 H              1 S1                 0.0000
     19 ****        -0.3647   2.4099  -1.2426 H              1 S1                 0.0000
     20 ****        -0.9844  -0.2534  -0.2943 H              1 S1                 0.0000
     21 ****         1.3968   1.4594  -0.1698 H              1 S1                 0.0000
     22 ****         2.3168  -0.2163  -1.8450 H              1 S1                 0.0000
     23 ****         0.9985   0.7415  -2.4848 H              1 S1                 0.0000
     24 ****         0.7109  -0.9229  -1.9815 H              1 S1                 0.0000
     25 ****         2.5912  -0.4830   0.6223 H              1 S1                 0.0000
     26 ****         1.7494   1.0798   2.3105 H              1 S1                 0.0000
     27 ****         1.8163  -0.5610   2.9395 H              1 S1                 0.0000
     28 ****         0.2691   0.1460   2.4880 H              1 S1                 0.0000
     29 ****        -0.9455  -1.7813   1.5024 H              1 S1                 0.0000
     30 ****        -0.9429  -4.4258   0.8446 H              1 S1                 0.0000
     31 ****         1.5568  -4.7823  -0.2976 H              1 S1                 0.0000
     32 ****        -1.8586   3.7519   1.7671 H              1 S1                 0.0000
     33 ****        -0.3469   3.0610   1.2119 H              1 S1                 0.0000
     34 ****        -0.6287   0.8745   0.8342 LP             1 S1                 0.0000
     35 ****         2.7604  -2.6393  -0.2742 LP             1 S1                 0.0000
     36 ****        -3.6564   2.2492  -0.8147 LP             1 S1                 0.0000
     37 ****        -3.7348   3.2581   0.5910 LP             1 S1                 0.0000
@<TRIPOS>BOND
    1    1    2 1     
    2    1   16 1     
    3    1   17 1     
    4    1   18 1     
    5    2    3 1     
    6    2   13 1     
    7    2   19 1     
    8    3    4 1     
    9    3   20 1     
   10    4    5 1     
   11    4    6 1     
   12    4   21 1     
   13    5   22 1     
   14    5   23 1     
   15    5   24 1     
   16    6    7 1     
   17    6    8 1     
   18    6   25 1     
   19    7   26 1     
   20    7   27 1     
   21    7   28 1     
   22    8   12 1     
   23    8    9 1     
   24    9   10 2     
   25    9   29 1     
   26   10   11 1     
   27   10   30 1     
   28   11   12 2     
   29   11   31 1     
   30   13   14 am    
   31   13   15 2     
   32   14   32 1     
   33   14   33 1     
   34    3   34 1     
   35   12   35 1     
   36   15   36 1     
   37   15   37 1     
@<TRIPOS>SUBSTRUCTURE
      1 S1             1
@<TRIPOS>SET
LONE_PAIRS      STATIC     ATOMS    <user>   **** ""
4 34 35 36 37
DONOR_HYDROGENS      STATIC     ATOMS    <user>   **** ""
3 20 32 33
ATOM$BLUE        STATIC     ATOMS    COLORGROUP SYSTEM
4 34 35 36 37
ATOM$RED        STATIC     ATOMS    COLORGROUP SYSTEM
3 20 32 33
