AV-unprocessed.smi:2751|AV-procd|sdf|10601|dock2
  -GOLD-   2272015 53D 1   1.00000     0.00000
 Structure written by MMmdl.
 34 35  0  0  0  0  0  0  0  0  1 V2000
  151.6072  140.1775  155.0127 O   0  0  0  0  0  0  0  0  0  0  0  0
  150.7817  140.7239  155.7514 C   0  0  0  0  0  0  0  0  0  0  0  0
  151.0217  140.9015  157.0593 N   0  0  0  0  0  0  0  0  0  0  0  0
  152.2367  140.5003  157.7601 C   0  0  0  0  0  0  0  0  0  0  0  0
  152.2750  141.0565  159.1939 C   0  0  0  0  0  0  0  0  0  0  0  0
  152.4805  142.5791  159.2383 C   0  0  2  0  0  0  0  0  0  0  0  0
  152.0230  143.1835  160.5804 C   0  0  0  0  0  0  0  0  0  0  0  0
  152.1672  144.7096  160.5633 C   0  0  0  0  0  0  0  0  0  0  0  0
  151.4475  145.2827  159.3382 C   0  0  0  0  0  0  0  0  0  0  0  0
  151.9256  144.5760  158.0600 C   0  0  0  0  0  0  0  0  0  0  0  0
  151.7279  143.1705  158.1805 O   0  0  0  0  0  0  0  0  0  0  0  0
  149.5362  141.2402  155.4218 N   0  0  0  0  0  0  0  0  0  0  0  0
  148.7812  140.6230  154.5648 C   0  0  0  0  0  0  0  0  0  0  0  0
  148.9431  139.4551  153.8240 N   0  0  0  0  0  0  0  0  0  0  0  0
  147.8216  139.2726  153.0644 C   0  0  0  0  0  0  0  0  0  0  0  0
  146.9877  140.2779  153.3134 C   0  0  0  0  0  0  0  0  0  0  0  0
  147.5472  141.1194  154.2276 O   0  0  0  0  0  0  0  0  0  0  0  0
  150.3077  141.3554  157.6108 H   0  0  0  0  0  0  0  0  0  0  0  0
  152.3246  139.4125  157.7676 H   0  0  0  0  0  0  0  0  0  0  0  0
  153.0890  140.8743  157.1923 H   0  0  0  0  0  0  0  0  0  0  0  0
  151.3532  140.7960  159.7157 H   0  0  0  0  0  0  0  0  0  0  0  0
  153.0846  140.5745  159.7434 H   0  0  0  0  0  0  0  0  0  0  0  0
  153.5402  142.7943  159.0890 H   0  0  0  0  0  0  0  0  0  0  0  0
  150.9814  142.9187  160.7677 H   0  0  0  0  0  0  0  0  0  0  0  0
  152.6043  142.7651  161.4025 H   0  0  0  0  0  0  0  0  0  0  0  0
  151.7630  145.1410  161.4792 H   0  0  0  0  0  0  0  0  0  0  0  0
  153.2237  144.9783  160.5281 H   0  0  0  0  0  0  0  0  0  0  0  0
  150.3711  145.1461  159.4485 H   0  0  0  0  0  0  0  0  0  0  0  0
  151.6218  146.3565  159.2652 H   0  0  0  0  0  0  0  0  0  0  0  0
  151.3633  144.9379  157.1990 H   0  0  0  0  0  0  0  0  0  0  0  0
  152.9777  144.7909  157.8661 H   0  0  0  0  0  0  0  0  0  0  0  0
  149.7320  138.8245  153.8166 H   0  0  0  0  0  0  0  0  0  0  0  0
  147.7382  138.4189  152.4081 H   0  0  0  0  0  0  0  0  0  0  0  0
  146.0058  140.5264  152.9385 H   0  0  0  0  0  0  0  0  0  0  0  0
  1  2  2  0  0  0  0
  2 12  1  0  0  0  0
  2  3  1  0  0  0  0
  3  4  1  0  0  0  0
  3 18  1  0  0  0  0
  4  5  1  0  0  0  0
  4 19  1  0  0  0  0
  4 20  1  0  0  0  0
  5  6  1  0  0  0  0
  5 21  1  0  0  0  0
  5 22  1  0  0  0  0
  6 11  1  0  0  0  0
  6  7  1  0  0  0  0
  6 23  1  0  0  0  0
  7  8  1  0  0  0  0
  7 24  1  0  0  0  0
  7 25  1  0  0  0  0
  8  9  1  0  0  0  0
  8 26  1  0  0  0  0
  8 27  1  0  0  0  0
  9 10  1  0  0  0  0
  9 28  1  0  0  0  0
  9 29  1  0  0  0  0
 10 11  1  0  0  0  0
 10 30  1  0  0  0  0
 10 31  1  0  0  0  0
 12 13  2  0  0  0  0
 13 17  1  0  0  0  0
 13 14  1  0  0  0  0
 14 32  1  0  0  0  0
 14 15  1  0  0  0  0
 15 33  1  0  0  0  0
 15 16  2  0  0  0  0
 16 34  1  0  0  0  0
 16 17  1  0  0  0  0
M  END
> <s_m_source_file>
AV-unprocessed.smi

> <i_m_source_file_index>
2751

> <i_lp_mmshare_version>
43012

> <i_f3d_flags>
0

> <s_epik_input>
bzFbY0hdW2NIXW5jMVtOSF1DKD1PKVtOSF1bQ0gyXVtDSDJdW0NAQEhdMltDSDJdW0NIMl1bQ0gyXVtDSDJdTzI=

> <s_epik_cmdline>
J2VwaWtfcHl0aG9uJywgJy1waCcsICc3LjAnLCAnLXRuJywgJzgnLCAnLW1hJywgJzIwMCcsICctbWV0YWxfYmluZGluZycsICctaW1hZScsICc8aW5maWxlLm1hZT4nLCAnLW9tYWUnLCAnPG91dGZpbGUubWFlPic=

> <r_lp_tautomer_probability>
0.107061

> <r_epik_Ionization_Penalty>
1.421

> <r_epik_Ionization_Penalty_Charging>
1.42064

> <r_epik_Ionization_Penalty_Neutral>
0.0003614

> <r_epik_State_Penalty>
2.61489

> <r_epik_Charging_Adjusted_Penalty>
4.03553

> <i_epik_Tot_Q>
0

> <i_epik_Tot_abs_Q>
0

> <r_epik_Metal_State_Penalty>
3.57288

> <b_epik_Metal_Only>
0

> <s_lp_Force_Field>
OPLS_2005

> <r_lp_Energy>
32.5826

> <b_lp_Chiralities_Consistent>
1

> <s_lp_Variant>
AV-unprocessed.smi:2751-7

> <Gold.Version>
5.8.1

> <Gold.Id.Protein>
6NUR|6NUR_protein|mol2

> <Gold.PLP.Fitness>
43.6086

> <Gold.PLP.PLP>
-35.7288

> <Gold.PLP.part.hbond>
-2.0000

> <Gold.PLP.part.metal>
0.0000

> <Gold.PLP.part.buried>
-2.3419

> <Gold.PLP.part.nonpolar>
-31.3700

> <Gold.PLP.part.repulsive>
0.5228

> <Gold.PLP.ligand.clash>
0.0000

> <Gold.PLP.ligand.torsion>
0.5564

> <Gold.PLP.Chemscore.Hbond>
0.9920

> <Gold.PLP.Chemscore.CHOScore>
2.0000

> <Gold.PLP.Chemscore.Metal>
0.0000

> <Gold.Chemscore.Hbonds>
donor molecule, donor type, donor heavy atom, donor atom, acceptor molecule, acceptor atom, score
      P1  H  7989  7998       L1     1  0.99
      L1  C    15    33       P1  7948  0.98
      L1  C    16    34       P1 10175  1.00

> <Gold.PLP.Chemscore.Internal.Correction>
0.0166

> <Gold.Rescore>
     Score         DG    S(hbond)    S(metal)    S(lipo)     H(rot)  DE(clash)    DE(int)     intcor
     12.39     -14.60       0.93        0.00      87.01       1.63       0.07       2.14       ----

> <Gold.Chemscore.Fitness>
12.3928

> <Gold.Chemscore.DG>
-14.5959

> <Gold.Chemscore.ZeroCoef>
-5.4800

> <Gold.Chemscore.Hbond>
0.9327

> <Gold.Chemscore.Metal>
0.0000

> <Gold.Chemscore.Lipo>
87.0134

> <Gold.Chemscore.Internal_Hbond>
0.0000

> <Gold.Chemscore.DEClash>
0.0669

> <Gold.Chemscore.DEInternal>
2.1362

> <Gold.Chemscore.Rot>
1.6328

> <Gold.Chemscore.Internal.Correction>
   9.000000E+99

> <Gold.Chemscore.Hbonds>
donor molecule, donor type, donor heavy atom, donor atom, acceptor molecule, acceptor atom, score
      P1  H  7989  7998       L1     1  0.77

> <Gold.Chemscore.Hbond.Weighted>
-3.1152

> <Gold.Chemscore.Metal.Weighted>
-0.0000

> <Gold.Chemscore.Lipo.Weighted>
-10.1806

> <Gold.Chemscore.Internal_Hbond.Weighted>
0.0000

> <Gold.Chemscore.DEClash.Weighted>
0.0669

> <Gold.Chemscore.DEInternal.Weighted>
2.1362

> <Gold.Chemscore.Rot.Weighted>
4.1799

> <Gold.Chemscore.Internal.Correction.Weighted>
   9.000000E+99

> <Gold.Protein.RotatedTorsions>
[ 6907 6896 6895 6894 ] final   77.65 input  -60.11 | X-H torsion
[ 7974 7965 7964 7962 ] final   52.15 input  175.53 | X-H torsion
[ 8008 7997 7996 7995 ] final  172.08 input   59.86 | X-H torsion
[ 10167 10162 10161 10158 ] final -148.54 input  -65.29 | X-H torsion
[ 10718 10713 10712 10709 ] final -133.72 input   66.30 | X-H torsion
[ 10763 10752 10751 10750 ] final -110.75 input  -60.55 | X-H torsion
[ 11005 11000 10999 10996 ] final  122.36 input  -57.11 | X-H torsion

> <Gold.Protein.ActiveResidues>
 VAL166  LYS551  ARG553  GLY616  TRP617  ASP618  TYR619  PRO620  LYS621  CYS622 
 ASP623  PHE694  ASN695  SER759  ASP760  ASP761  ALA762  ILE779  LEU786  VAL792 
 PHE793  MET794  SER795  GLU796  ALA797  LYS798  CYS799  TRP800  GLU811  SER814 

> <Gold.Protein.RotatedAtoms>
  152.5126  134.3785  159.9342 H   0  0  0  0  0  0  0  0  0  0  0  0  # atno 6907 bound_to 6896
  151.3741  133.3838  159.2710 H   0  0  0  0  0  0  0  0  0  0  0  0  # atno 6908 bound_to 6896
  150.9555  134.8969  159.7757 H   0  0  0  0  0  0  0  0  0  0  0  0  # atno 6909 bound_to 6896
  145.9842  139.4273  143.0113 H   0  0  0  0  0  0  0  0  0  0  0  0  # atno 7974 bound_to 7965
  156.1209  140.1495  156.9205 H   0  0  0  0  0  0  0  0  0  0  0  0  # atno 8008 bound_to 7997
  154.4835  140.0872  156.7475 H   0  0  0  0  0  0  0  0  0  0  0  0  # atno 8009 bound_to 7997
  155.4429  140.3432  155.4294 H   0  0  0  0  0  0  0  0  0  0  0  0  # atno 8010 bound_to 7997
  139.7523  143.8500  152.2589 H   0  0  0  0  0  0  0  0  0  0  0  0  # atno 10167 bound_to 10162
  156.2479  130.7135  151.1023 H   0  0  0  0  0  0  0  0  0  0  0  0  # atno 10718 bound_to 10713
  154.8265  135.4552  154.0934 H   0  0  0  0  0  0  0  0  0  0  0  0  # atno 10763 bound_to 10752
  153.2244  135.6898  153.7969 H   0  0  0  0  0  0  0  0  0  0  0  0  # atno 10764 bound_to 10752
  153.7374  135.3317  155.3274 H   0  0  0  0  0  0  0  0  0  0  0  0  # atno 10765 bound_to 10752
  139.9265  134.9641  156.8097 H   0  0  0  0  0  0  0  0  0  0  0  0  # atno 11005 bound_to 11000
  145.7725  140.9891  143.1142 LP  0  0  0  0  0  0  0  0  0  0  0  0  # atno 17320 bound_to 7965
  144.6870  139.9464  143.7476 LP  0  0  0  0  0  0  0  0  0  0  0  0  # atno 17321 bound_to 7965
  139.8482  144.7177  150.9247 LP  0  0  0  0  0  0  0  0  0  0  0  0  # atno 17342 bound_to 10162
  140.7799  143.3923  151.1290 LP  0  0  0  0  0  0  0  0  0  0  0  0  # atno 17343 bound_to 10162
  157.7202  131.0686  150.6164 LP  0  0  0  0  0  0  0  0  0  0  0  0  # atno 17370 bound_to 10713
  156.6242  130.4414  149.5810 LP  0  0  0  0  0  0  0  0  0  0  0  0  # atno 17371 bound_to 10713
  140.6322  133.9895  155.7667 LP  0  0  0  0  0  0  0  0  0  0  0  0  # atno 17394 bound_to 11000
  141.0825  134.0040  157.3363 LP  0  0  0  0  0  0  0  0  0  0  0  0  # atno 17395 bound_to 11000

$$$$
