AV-unprocessed.smi:100|AV-procd|sdf|903|dock5
  -GOLD-   2262017403D 1   1.00000     0.00000
 Structure written by MMmdl.
 31 33  0  0  0  0  0  0  0  0  1 V2000
  142.4398  138.3550  153.0266 N   0  0  0  0  0  0  0  0  0  0  0  0
  142.7799  137.0594  153.0681 C   0  0  0  0  0  0  0  0  0  0  0  0
  141.9892  136.2085  153.7633 N   0  0  0  0  0  0  0  0  0  0  0  0
  142.3090  134.9114  153.8230 C   0  0  0  0  0  0  0  0  0  0  0  0
  143.3483  134.2804  153.2689 N   0  0  0  0  0  0  0  0  0  0  0  0
  144.1404  135.1405  152.5639 C   0  0  0  0  0  0  0  0  0  0  0  0
  143.9286  136.5392  152.4200 C   0  0  0  0  0  0  0  0  0  0  0  0
  144.9415  137.0930  151.6493 N   0  0  0  0  0  0  0  0  0  0  0  0
  145.7097  136.0761  151.3623 C   0  0  0  0  0  0  0  0  0  0  0  0
  145.2868  134.8567  151.8521 N   0  0  0  0  0  0  0  0  0  0  0  0
  145.9330  133.5109  151.7253 C   0  0  2  0  0  0  0  0  0  0  0  0
  146.1333  133.2552  150.3626 O   0  0  0  0  0  0  0  0  0  0  0  0
  145.2497  132.2369  149.8897 C   0  0  2  0  0  0  0  0  0  0  0  0
  143.9287  132.8365  149.3667 C   0  0  0  0  0  0  0  0  0  0  0  0
  144.0697  133.2100  148.0132 O   0  0  0  0  0  0  0  0  0  0  0  0
  145.0654  131.3736  151.1364 C   0  0  1  0  0  0  0  0  0  0  0  0
  146.1506  130.6034  151.2561 F   0  0  0  0  0  0  0  0  0  0  0  0
  144.9992  132.4064  152.2514 C   0  0  1  0  0  0  0  0  0  0  0  0
  145.4103  131.8459  153.4827 O   0  0  0  0  0  0  0  0  0  0  0  0
  143.0146  139.0094  152.5152 H   0  0  0  0  0  0  0  0  0  0  0  0
  141.6111  138.6743  153.5067 H   0  0  0  0  0  0  0  0  0  0  0  0
  141.6357  134.2905  154.3950 H   0  0  0  0  0  0  0  0  0  0  0  0
  146.6085  136.1934  150.7740 H   0  0  0  0  0  0  0  0  0  0  0  0
  146.8848  133.6009  152.2508 H   0  0  0  0  0  0  0  0  0  0  0  0
  145.7272  131.6595  149.0964 H   0  0  0  0  0  0  0  0  0  0  0  0
  143.1387  132.0865  149.4121 H   0  0  0  0  0  0  0  0  0  0  0  0
  143.5901  133.6853  149.9591 H   0  0  0  0  0  0  0  0  0  0  0  0
  144.7261  133.8873  147.9545 H   0  0  0  0  0  0  0  0  0  0  0  0
  144.1969  130.7155  151.0966 H   0  0  0  0  0  0  0  0  0  0  0  0
  143.9811  132.7893  152.3388 H   0  0  0  0  0  0  0  0  0  0  0  0
  144.7438  132.0269  154.1286 H   0  0  0  0  0  0  0  0  0  0  0  0
  1  2  1  0  0  0  0
  1 20  1  0  0  0  0
  1 21  1  0  0  0  0
  2  7  1  0  0  0  0
  2  3  2  0  0  0  0
  3  4  1  0  0  0  0
  4  5  2  0  0  0  0
  4 22  1  0  0  0  0
  5  6  1  0  0  0  0
  6 10  1  0  0  0  0
  6  7  2  0  0  0  0
  7  8  1  0  0  0  0
  8  9  2  0  0  0  0
  9 10  1  0  0  0  0
  9 23  1  0  0  0  0
 10 11  1  0  0  0  0
 11 18  1  0  0  0  0
 11 12  1  0  0  0  0
 11 24  1  0  0  0  0
 12 13  1  0  0  0  0
 13 14  1  0  0  0  0
 13 16  1  0  0  0  0
 13 25  1  0  0  0  0
 14 15  1  0  0  0  0
 14 26  1  0  0  0  0
 14 27  1  0  0  0  0
 15 28  1  0  0  0  0
 16 17  1  0  0  0  0
 16 18  1  0  0  0  0
 16 29  1  0  0  0  0
 18 19  1  0  0  0  0
 18 30  1  0  0  0  0
 19 31  1  0  0  0  0
M  END
> <s_m_source_file>
AV-unprocessed.smi

> <i_m_source_file_index>
100

> <i_lp_mmshare_version>
43012

> <i_f3d_flags>
0

> <s_epik_input>
bjFbY0hdbmMoW05IMl0pYyhjMTIpbltjSF1uMltDQEBIXTNPW0NAQEhdKFtDSDJdW09IXSlbQ0BIXShGKVtDQEhdM1tPSF0=

> <s_epik_cmdline>
J2VwaWtfcHl0aG9uJywgJy1waCcsICc3LjAnLCAnLXRuJywgJzgnLCAnLW1hJywgJzIwMCcsICctbWV0YWxfYmluZGluZycsICctaW1hZScsICc8aW5maWxlLm1hZT4nLCAnLW9tYWUnLCAnPG91dGZpbGUubWFlPic=

> <r_lp_tautomer_probability>
1

> <r_epik_Ionization_Penalty>
0.000750324

> <r_epik_Ionization_Penalty_Charging>
0

> <r_epik_Ionization_Penalty_Neutral>
0.000750324

> <r_epik_State_Penalty>
-0

> <r_epik_Charging_Adjusted_Penalty>
0

> <i_epik_Tot_Q>
0

> <i_epik_Tot_abs_Q>
0

> <r_epik_Metal_State_Penalty>
-0

> <b_epik_Metal_Only>
0

> <s_epik_Chemistry_Notes>
This compound contains an acetal/aminal-like group ( X-CH(R)-Y where X, Y are N, S, or O) that may be acid/base labile, releasing an aldehyde.

> <s_lp_Force_Field>
OPLS_2005

> <r_lp_Energy>
31.6472

> <b_lp_Chiralities_Consistent>
1

> <s_lp_Variant>
AV-unprocessed.smi:100-7

> <Gold.Version>
5.8.1

> <Gold.Id.Protein>
6NUR|6NUR_protein|mol2

> <Gold.PLP.Fitness>
38.8832

> <Gold.PLP.PLP>
-27.1119

> <Gold.PLP.part.hbond>
-3.9155

> <Gold.PLP.part.metal>
0.0000

> <Gold.PLP.part.buried>
-5.6544

> <Gold.PLP.part.nonpolar>
-24.6254

> <Gold.PLP.part.repulsive>
4.7085

> <Gold.PLP.ligand.clash>
1.9147

> <Gold.PLP.ligand.torsion>
0.3892

> <Gold.PLP.Chemscore.Hbond>
2.8080

> <Gold.PLP.Chemscore.CHOScore>
2.0024

> <Gold.PLP.Chemscore.Metal>
0.0000

> <Gold.Chemscore.Hbonds>
donor molecule, donor type, donor heavy atom, donor atom, acceptor molecule, acceptor atom, score
      L1  H     1    20       P1 10175  0.94
      L1  H    15    28       P1  7921  1.00
      L1  H    19    31       P1 10957  0.46
      L1  C     4    22       P1 10957  0.32
      L1  C     4    22       P1 11000  0.82
      L1  C     9    23       P1  7948  0.86

> <Gold.PLP.Chemscore.Internal.Correction>
0.0332

> <Gold.Rescore>
     Score         DG    S(hbond)    S(metal)    S(lipo)     H(rot)  DE(clash)    DE(int)     intcor
      4.76      -9.08       2.14        0.00      39.62       3.19       2.34       1.98       ----

> <Gold.Chemscore.Fitness>
4.7600

> <Gold.Chemscore.DG>
-9.0821

> <Gold.Chemscore.ZeroCoef>
-5.4800

> <Gold.Chemscore.Hbond>
2.1358

> <Gold.Chemscore.Metal>
0.0000

> <Gold.Chemscore.Lipo>
39.6179

> <Gold.Chemscore.Internal_Hbond>
0.0000

> <Gold.Chemscore.DEClash>
2.3404

> <Gold.Chemscore.DEInternal>
1.9816

> <Gold.Chemscore.Rot>
3.1901

> <Gold.Chemscore.Internal.Correction>
   9.000000E+99

> <Gold.Chemscore.Hbonds>
donor molecule, donor type, donor heavy atom, donor atom, acceptor molecule, acceptor atom, score
      L1  H     1    20       P1 10175  0.86
      L1  H    15    28       P1  7921  0.99
      L1  H    19    31       P1 10957  0.06

> <Gold.Chemscore.Hbond.Weighted>
-7.1334

> <Gold.Chemscore.Metal.Weighted>
-0.0000

> <Gold.Chemscore.Lipo.Weighted>
-4.6353

> <Gold.Chemscore.Internal_Hbond.Weighted>
0.0000

> <Gold.Chemscore.DEClash.Weighted>
2.3404

> <Gold.Chemscore.DEInternal.Weighted>
1.9816

> <Gold.Chemscore.Rot.Weighted>
8.1667

> <Gold.Chemscore.Internal.Correction.Weighted>
   9.000000E+99

> <Gold.Protein.RotatedTorsions>
[ 6907 6896 6895 6894 ] final   41.78 input  -60.11 | X-H torsion
[ 7974 7965 7964 7962 ] final  150.87 input  175.53 | X-H torsion
[ 8008 7997 7996 7995 ] final    0.30 input   59.86 | X-H torsion
[ 10167 10162 10161 10158 ] final -171.45 input  -65.29 | X-H torsion
[ 10718 10713 10712 10709 ] final   63.40 input   66.30 | X-H torsion
[ 10763 10752 10751 10750 ] final  -84.85 input  -60.55 | X-H torsion
[ 11005 11000 10999 10996 ] final -161.29 input  -57.11 | X-H torsion

> <Gold.Protein.ActiveResidues>
 VAL166  LYS551  ARG553  GLY616  TRP617  ASP618  TYR619  PRO620  LYS621  CYS622 
 ASP623  PHE694  ASN695  SER759  ASP760  ASP761  ALA762  ILE779  LEU786  VAL792 
 PHE793  MET794  SER795  GLU796  ALA797  LYS798  CYS799  TRP800  GLU811  SER814 

> <Gold.Protein.RotatedAtoms>
  152.1996  134.8600  160.0509 H   0  0  0  0  0  0  0  0  0  0  0  0  # atno 6907 bound_to 6896
  151.9458  133.3646  159.3990 H   0  0  0  0  0  0  0  0  0  0  0  0  # atno 6908 bound_to 6896
  150.6952  134.4315  159.5295 H   0  0  0  0  0  0  0  0  0  0  0  0  # atno 6909 bound_to 6896
  144.8333  139.6464  143.6049 H   0  0  0  0  0  0  0  0  0  0  0  0  # atno 7974 bound_to 7965
  154.6665  140.2602  155.7052 H   0  0  0  0  0  0  0  0  0  0  0  0  # atno 8008 bound_to 7997
  156.2641  140.2838  156.1079 H   0  0  0  0  0  0  0  0  0  0  0  0  # atno 8009 bound_to 7997
  155.1231  140.0377  157.2745 H   0  0  0  0  0  0  0  0  0  0  0  0  # atno 8010 bound_to 7997
  139.5801  144.1442  152.1504 H   0  0  0  0  0  0  0  0  0  0  0  0  # atno 10167 bound_to 10162
  157.5968  130.9103  149.9711 H   0  0  0  0  0  0  0  0  0  0  0  0  # atno 10718 bound_to 10713
  154.6043  135.5506  153.7407 H   0  0  0  0  0  0  0  0  0  0  0  0  # atno 10763 bound_to 10752
  153.0168  135.6374  154.1669 H   0  0  0  0  0  0  0  0  0  0  0  0  # atno 10764 bound_to 10752
  154.1608  135.2897  155.3089 H   0  0  0  0  0  0  0  0  0  0  0  0  # atno 10765 bound_to 10752
  140.6221  134.4740  157.5224 H   0  0  0  0  0  0  0  0  0  0  0  0  # atno 11005 bound_to 11000
  146.2634  139.6463  142.9346 LP  0  0  0  0  0  0  0  0  0  0  0  0  # atno 17320 bound_to 7965
  145.4849  141.0438  143.2625 LP  0  0  0  0  0  0  0  0  0  0  0  0  # atno 17321 bound_to 7965
  140.0993  144.5553  150.7000 LP  0  0  0  0  0  0  0  0  0  0  0  0  # atno 17342 bound_to 10162
  140.7080  143.2483  151.4666 LP  0  0  0  0  0  0  0  0  0  0  0  0  # atno 17343 bound_to 10162
  156.1033  130.3654  150.0179 LP  0  0  0  0  0  0  0  0  0  0  0  0  # atno 17370 bound_to 10713
  156.8291  130.9386  151.3638 LP  0  0  0  0  0  0  0  0  0  0  0  0  # atno 17371 bound_to 10713
  139.9149  134.8267  156.1400 LP  0  0  0  0  0  0  0  0  0  0  0  0  # atno 17394 bound_to 11000
  141.0735  133.6786  156.2189 LP  0  0  0  0  0  0  0  0  0  0  0  0  # atno 17395 bound_to 11000

$$$$
