#       Name:                AV-unprocessed.smi:1046
#       Creating user name   scv26
#       Creation time:       Fri Mar 27 02:59:40 2020


#       File generated by GOLD software.
#

@<TRIPOS>MOLECULE
AV-unprocessed.smi:1046
    59    61     1
SMALL
NO_CHARGES


@<TRIPOS>ATOM
      1 ****        -6.8678   1.2077   2.9349 C.3            1 S1                 0.0000
      2 ****        -5.6478   1.0217   2.0487 C.ar           1 S1                 0.0000
      3 ****        -5.7748   0.2329   0.8832 C.ar           1 S1                 0.0000
      4 ****        -4.6408   0.0789   0.0945 C.ar           1 S1                 0.0000
      5 ****        -4.4430  -0.6275  -1.0936 N.pl3          1 S1                 1.0000
      6 ****        -3.1506  -0.4847  -1.4977 C.2            1 S1                 0.0000
      7 ****        -2.5189   0.3018  -0.5844 N.pl3          1 S1                 0.0000
      8 ****        -1.1242   0.7663  -0.5528 C.3            1 S1                 0.0000
      9 ****        -0.1630  -0.2564   0.0881 C.3            1 S1                 0.0000
     10 ****        -0.5722  -0.5273   1.4130 O.3            1 S1                 0.0000
     11 ****         1.2903   0.2542   0.1479 C.3            1 S1                 0.0000
     12 ****         1.9259   0.5043  -1.1511 N.3            1 S1                 0.0000
     13 ****         3.1875   1.2351  -1.0322 C.3            1 S1                 0.0000
     14 ****         4.3330   0.3840  -0.4468 C.3            1 S1                 0.0000
     15 ****         4.5444  -0.8359  -1.2681 N.4            1 S1                 1.0000
     16 ****         5.6876  -1.6521  -0.7863 C.3            1 S1                 0.0000
     17 ****         6.2524  -2.5834  -1.8726 C.3            1 S1                 0.0000
     18 ****         6.8096  -1.8216  -2.9231 O.3            1 S1                 0.0000
     19 ****         3.2769  -1.6022  -1.4040 C.3            1 S1                 0.0000
     20 ****         2.1594  -0.6953  -1.9596 C.3            1 S1                 0.0000
     21 ****        -3.4107   0.6790   0.4273 C.ar           1 S1                 0.0000
     22 ****        -3.2692   1.4604   1.5722 C.ar           1 S1                 0.0000
     23 ****        -4.4108   1.6284   2.3881 C.ar           1 S1                 0.0000
     24 ****        -4.2850   2.4746   3.6437 C.3            1 S1                 0.0000
     25 ****        -7.7183   0.6317   2.5688 H              1 S1                 0.0000
     26 ****        -7.1624   2.2570   2.9637 H              1 S1                 0.0000
     27 ****        -6.6576   0.8780   3.9526 H              1 S1                 0.0000
     28 ****        -6.7135  -0.2314   0.6180 H              1 S1                 0.0000
     29 ****        -2.7079  -0.9164  -2.3838 H              1 S1                 0.0000
     30 ****        -0.8308   0.9554  -1.5860 H              1 S1                 0.0000
     31 ****        -1.0755   1.7294  -0.0442 H              1 S1                 0.0000
     32 ****        -0.2142  -1.1998  -0.4547 H              1 S1                 0.0000
     33 ****        -1.4512  -0.8735   1.3902 H              1 S1                 0.0000
     34 ****         1.2913   1.1817   0.7229 H              1 S1                 0.0000
     35 ****         1.8894  -0.4472   0.7280 H              1 S1                 0.0000
     36 ****         3.4840   1.5936  -2.0189 H              1 S1                 0.0000
     37 ****         3.0426   2.1293  -0.4246 H              1 S1                 0.0000
     38 ****         5.2481   0.9773  -0.4336 H              1 S1                 0.0000
     39 ****         4.1243   0.1063   0.5872 H              1 S1                 0.0000
     40 ****         6.4901  -0.9955  -0.4464 H              1 S1                 0.0000
     41 ****         5.3782  -2.2306   0.0855 H              1 S1                 0.0000
     42 ****         7.0412  -3.2054  -1.4487 H              1 S1                 0.0000
     43 ****         5.4975  -3.2619  -2.2687 H              1 S1                 0.0000
     44 ****         7.2034  -2.4116  -3.5487 H              1 S1                 0.0000
     45 ****         3.4170  -2.4408  -2.0848 H              1 S1                 0.0000
     46 ****         2.9910  -2.0273  -0.4413 H              1 S1                 0.0000
     47 ****         1.2391  -1.2662  -2.0747 H              1 S1                 0.0000
     48 ****         2.4336  -0.3878  -2.9696 H              1 S1                 0.0000
     49 ****        -2.3273   1.9185   1.8357 H              1 S1                 0.0000
     50 ****        -3.2913   2.9151   3.7302 H              1 S1                 0.0000
     51 ****        -4.4597   1.8675   4.5323 H              1 S1                 0.0000
     52 ****        -5.0091   3.2897   3.6328 H              1 S1                 0.0000
     53 ****         4.7958  -0.5125  -2.1917 H              1 S1                 0.0000
     54 ****        -5.1374  -1.1672  -1.5945 H              1 S1                 0.0000
     55 ****        -0.5555   0.3159   1.9503 LP             1 S1                 0.0000
     56 ****         0.0440  -1.1979   1.8259 LP             1 S1                 0.0000
     57 ****         1.2498   1.0665  -1.6274 LP             1 S1                 0.0000
     58 ****         7.5062  -1.2038  -2.5583 LP             1 S1                 0.0000
     59 ****         6.0915  -1.2878  -3.3696 LP             1 S1                 0.0000
@<TRIPOS>BOND
    1    1    2 1     
    2    1   25 1     
    3    1   26 1     
    4    1   27 1     
    5    2   23 ar    
    6    2    3 ar    
    7    3    4 ar    
    8    3   28 1     
    9    4   21 ar    
   10    4    5 1     
   11    5    6 2     
   12    5   54 1     
   13    6    7 1     
   14    6   29 1     
   15    7    8 1     
   16    7   21 1     
   17    8    9 1     
   18    8   30 1     
   19    8   31 1     
   20    9   10 1     
   21    9   11 1     
   22    9   32 1     
   23   10   33 1     
   24   11   12 1     
   25   11   34 1     
   26   11   35 1     
   27   12   20 1     
   28   12   13 1     
   29   13   14 1     
   30   13   36 1     
   31   13   37 1     
   32   14   15 1     
   33   14   38 1     
   34   14   39 1     
   35   15   16 1     
   36   15   19 1     
   37   15   53 1     
   38   16   17 1     
   39   16   40 1     
   40   16   41 1     
   41   17   18 1     
   42   17   42 1     
   43   17   43 1     
   44   18   44 1     
   45   19   20 1     
   46   19   45 1     
   47   19   46 1     
   48   20   47 1     
   49   20   48 1     
   50   21   22 ar    
   51   22   23 ar    
   52   22   49 1     
   53   23   24 1     
   54   24   50 1     
   55   24   51 1     
   56   24   52 1     
   57   10   55 1     
   58   10   56 1     
   59   12   57 1     
   60   18   58 1     
   61   18   59 1     
@<TRIPOS>SUBSTRUCTURE
      1 S1             1
@<TRIPOS>SET
LONE_PAIRS      STATIC     ATOMS    <user>   **** ""
5 55 56 57 58 59
DONOR_HYDROGENS      STATIC     ATOMS    <user>   **** ""
4 54 33 53 44
ATOM$BLUE        STATIC     ATOMS    COLORGROUP SYSTEM
5 55 56 57 58 59
ATOM$RED        STATIC     ATOMS    COLORGROUP SYSTEM
4 54 33 53 44
