AV-unprocessed.smi:2702|AV-procd|sdf|10430|dock4
  -GOLD-   2272014473D 1   1.00000     0.00000
 Structure written by MMmdl.
 47 48  0  0  0  0  0  0  0  0  1 V2000
  157.3980  138.9569  151.4682 C   0  0  0  0  0  0  0  0  0  0  0  0
  156.2764  138.6579  152.2801 O   0  0  0  0  0  0  0  0  0  0  0  0
  155.5898  139.8218  152.7077 C   0  0  0  0  0  0  0  0  0  0  0  0
  154.5412  139.4668  153.7420 C   0  0  0  0  0  0  0  0  0  0  0  0
  153.2218  139.6672  153.5179 C   0  0  0  0  0  0  0  0  0  0  0  0
  152.2314  139.3298  154.5404 C   0  0  0  0  0  0  0  0  0  0  0  0
  151.0220  139.4849  154.3690 O   0  0  0  0  0  0  0  0  0  0  0  0
  152.7506  138.8295  155.7003 N   0  0  0  0  0  0  0  0  0  0  0  0
  151.8797  138.4346  156.8229 C   0  0  0  0  0  0  0  0  0  0  0  0
  151.8523  139.4571  157.9692 C   0  0  0  0  0  0  0  0  0  0  0  0
  151.9721  139.0983  159.1415 O   0  0  0  0  0  0  0  0  0  0  0  0
  151.7140  140.7400  157.5998 N   0  0  0  0  0  0  0  0  0  0  0  0
  151.6803  141.8942  158.4975 C   0  0  2  0  0  0  0  0  0  0  0  0
  150.9073  143.0343  157.8064 C   0  0  0  0  0  0  0  0  0  0  0  0
  150.8935  144.3131  158.6550 C   0  0  0  0  0  0  0  0  0  0  0  0
  152.3209  144.7518  159.0175 C   0  0  0  0  0  0  0  0  0  0  0  0
  153.1089  143.6364  159.7340 C   0  0  1  0  0  0  0  0  0  0  0  0
  152.6158  143.4316  161.1814 C   0  0  0  0  0  0  0  0  0  0  0  0
  153.1172  142.3417  158.8773 C   0  0  1  0  0  0  0  0  0  0  0  0
  153.9527  141.2184  159.5231 C   0  0  0  0  0  0  0  0  0  0  0  0
  154.1361  138.6485  155.8842 C   0  0  0  0  0  0  0  0  0  0  0  0
  154.9925  138.9523  154.9616 N   0  0  0  0  0  0  0  0  0  0  0  0
  157.8918  138.0318  151.1713 H   0  0  0  0  0  0  0  0  0  0  0  0
  158.1236  139.5681  152.0066 H   0  0  0  0  0  0  0  0  0  0  0  0
  157.0992  139.4845  150.5614 H   0  0  0  0  0  0  0  0  0  0  0  0
  156.2940  140.5357  153.1387 H   0  0  0  0  0  0  0  0  0  0  0  0
  155.1128  140.3128  151.8578 H   0  0  0  0  0  0  0  0  0  0  0  0
  152.8894  140.0761  152.5748 H   0  0  0  0  0  0  0  0  0  0  0  0
  150.8541  138.2715  156.4864 H   0  0  0  0  0  0  0  0  0  0  0  0
  152.1986  137.4694  157.2209 H   0  0  0  0  0  0  0  0  0  0  0  0
  151.6280  140.9361  156.6130 H   0  0  0  0  0  0  0  0  0  0  0  0
  151.1431  141.6354  159.4110 H   0  0  0  0  0  0  0  0  0  0  0  0
  151.3605  143.2536  156.8384 H   0  0  0  0  0  0  0  0  0  0  0  0
  149.8828  142.7207  157.6020 H   0  0  0  0  0  0  0  0  0  0  0  0
  150.3883  145.1116  158.1110 H   0  0  0  0  0  0  0  0  0  0  0  0
  150.3109  144.1473  159.5616 H   0  0  0  0  0  0  0  0  0  0  0  0
  152.8475  145.0332  158.1045 H   0  0  0  0  0  0  0  0  0  0  0  0
  152.2900  145.6502  159.6350 H   0  0  0  0  0  0  0  0  0  0  0  0
  154.1408  143.9822  159.8108 H   0  0  0  0  0  0  0  0  0  0  0  0
  151.6038  143.0301  161.2196 H   0  0  0  0  0  0  0  0  0  0  0  0
  152.6141  144.3751  161.7279 H   0  0  0  0  0  0  0  0  0  0  0  0
  153.2627  142.7491  161.7320 H   0  0  0  0  0  0  0  0  0  0  0  0
  153.6260  142.5964  157.9458 H   0  0  0  0  0  0  0  0  0  0  0  0
  153.4524  140.7971  160.3954 H   0  0  0  0  0  0  0  0  0  0  0  0
  154.9284  141.5867  159.8405 H   0  0  0  0  0  0  0  0  0  0  0  0
  154.1314  140.4012  158.8241 H   0  0  0  0  0  0  0  0  0  0  0  0
  154.4303  138.2338  156.8498 H   0  0  0  0  0  0  0  0  0  0  0  0
  1  2  1  0  0  0  0
  1 23  1  0  0  0  0
  1 24  1  0  0  0  0
  1 25  1  0  0  0  0
  2  3  1  0  0  0  0
  3  4  1  0  0  0  0
  3 26  1  0  0  0  0
  3 27  1  0  0  0  0
  4 22  1  0  0  0  0
  4  5  2  0  0  0  0
  5  6  1  0  0  0  0
  5 28  1  0  0  0  0
  6  7  2  0  0  0  0
  6  8  1  0  0  0  0
  8  9  1  0  0  0  0
  8 21  1  0  0  0  0
  9 10  1  0  0  0  0
  9 29  1  0  0  0  0
  9 30  1  0  0  0  0
 10 11  2  0  0  0  0
 10 12  1  0  0  0  0
 12 13  1  0  0  0  0
 12 31  1  0  0  0  0
 13 19  1  0  0  0  0
 13 14  1  0  0  0  0
 13 32  1  0  0  0  0
 14 15  1  0  0  0  0
 14 33  1  0  0  0  0
 14 34  1  0  0  0  0
 15 16  1  0  0  0  0
 15 35  1  0  0  0  0
 15 36  1  0  0  0  0
 16 17  1  0  0  0  0
 16 37  1  0  0  0  0
 16 38  1  0  0  0  0
 17 18  1  0  0  0  0
 17 19  1  0  0  0  0
 17 39  1  0  0  0  0
 18 40  1  0  0  0  0
 18 41  1  0  0  0  0
 18 42  1  0  0  0  0
 19 20  1  0  0  0  0
 19 43  1  0  0  0  0
 20 44  1  0  0  0  0
 20 45  1  0  0  0  0
 20 46  1  0  0  0  0
 21 22  2  0  0  0  0
 21 47  1  0  0  0  0
M  END
> <s_m_source_file>
AV-unprocessed.smi

> <i_m_source_file_index>
2702

> <i_lp_mmshare_version>
43012

> <i_f3d_flags>
0

> <s_epik_input>
W0NIM11PW0NIMl1jMVtjSF1jKD1PKW4oW2NIXW4xKVtDSDJdQyg9TylbTkhdW0NAQEhdMltDSDJdW0NIMl1bQ0gyXVtDQEBIXShbQ0gzXSlbQ0BIXTJbQ0gzXQ==

> <s_epik_cmdline>
J2VwaWtfcHl0aG9uJywgJy1waCcsICc3LjAnLCAnLXRuJywgJzgnLCAnLW1hJywgJzIwMCcsICctbWV0YWxfYmluZGluZycsICctaW1hZScsICc8aW5maWxlLm1hZT4nLCAnLW9tYWUnLCAnPG91dGZpbGUubWFlPic=

> <r_lp_tautomer_probability>
1

> <r_epik_Ionization_Penalty>
1.22164e-06

> <r_epik_Ionization_Penalty_Charging>
3.17988e-07

> <r_epik_Ionization_Penalty_Neutral>
9.03656e-07

> <r_epik_State_Penalty>
-0

> <r_epik_Charging_Adjusted_Penalty>
3.17988e-07

> <i_epik_Tot_Q>
0

> <i_epik_Tot_abs_Q>
0

> <r_epik_Metal_State_Penalty>
-0

> <b_epik_Metal_Only>
0

> <s_lp_Force_Field>
OPLS_2005

> <r_lp_Energy>
19.3371

> <b_lp_Chiralities_Consistent>
1

> <s_lp_Variant>
AV-unprocessed.smi:2702-1

> <Gold.Version>
5.8.1

> <Gold.Id.Protein>
6NUR|6NUR_protein|mol2

> <Gold.PLP.Fitness>
45.7716

> <Gold.PLP.PLP>
-41.3355

> <Gold.PLP.part.hbond>
-4.9181

> <Gold.PLP.part.metal>
0.0000

> <Gold.PLP.part.buried>
-1.3868

> <Gold.PLP.part.nonpolar>
-35.8033

> <Gold.PLP.part.repulsive>
0.2085

> <Gold.PLP.ligand.clash>
0.0000

> <Gold.PLP.ligand.torsion>
0.7739

> <Gold.PLP.Chemscore.Hbond>
1.9913

> <Gold.PLP.Chemscore.CHOScore>
0.0000

> <Gold.PLP.Chemscore.Metal>
0.0000

> <Gold.Chemscore.Hbonds>
donor molecule, donor type, donor heavy atom, donor atom, acceptor molecule, acceptor atom, score
      P1  H  7997  8010       L1    22  0.15

> <Gold.PLP.Chemscore.Internal.Correction>
0.0102

> <Gold.Rescore>
     Score         DG    S(hbond)    S(metal)    S(lipo)     H(rot)  DE(clash)    DE(int)     intcor
     19.13     -21.58       1.88        0.00     125.97       1.93       1.59       0.86       ----

> <Gold.Chemscore.Fitness>
19.1279

> <Gold.Chemscore.DG>
-21.5767

> <Gold.Chemscore.ZeroCoef>
-5.4800

> <Gold.Chemscore.Hbond>
1.8849

> <Gold.Chemscore.Metal>
0.0000

> <Gold.Chemscore.Lipo>
125.9663

> <Gold.Chemscore.Internal_Hbond>
0.0000

> <Gold.Chemscore.DEClash>
1.5876

> <Gold.Chemscore.DEInternal>
0.8612

> <Gold.Chemscore.Rot>
1.9284

> <Gold.Chemscore.Internal.Correction>
   9.000000E+99

> <Gold.Chemscore.Hbonds>
donor molecule, donor type, donor heavy atom, donor atom, acceptor molecule, acceptor atom, score
      P1  H  7997  8010       L1    22  0.01

> <Gold.Chemscore.Hbond.Weighted>
-6.2954

> <Gold.Chemscore.Metal.Weighted>
-0.0000

> <Gold.Chemscore.Lipo.Weighted>
-14.7381

> <Gold.Chemscore.Internal_Hbond.Weighted>
0.0000

> <Gold.Chemscore.DEClash.Weighted>
1.5876

> <Gold.Chemscore.DEInternal.Weighted>
0.8612

> <Gold.Chemscore.Rot.Weighted>
4.9368

> <Gold.Chemscore.Internal.Correction.Weighted>
   9.000000E+99

> <Gold.Protein.RotatedTorsions>
[ 6907 6896 6895 6894 ] final   58.90 input  -60.11 | X-H torsion
[ 7974 7965 7964 7962 ] final -110.37 input  175.53 | X-H torsion
[ 8008 7997 7996 7995 ] final  179.87 input   59.86 | X-H torsion
[ 10167 10162 10161 10158 ] final  174.35 input  -65.29 | X-H torsion
[ 10718 10713 10712 10709 ] final -165.82 input   66.30 | X-H torsion
[ 10763 10752 10751 10750 ] final  140.13 input  -60.55 | X-H torsion
[ 11005 11000 10999 10996 ] final  159.47 input  -57.11 | X-H torsion

> <Gold.Protein.ActiveResidues>
 VAL166  LYS551  ARG553  GLY616  TRP617  ASP618  TYR619  PRO620  LYS621  CYS622 
 ASP623  PHE694  ASN695  SER759  ASP760  ASP761  ALA762  ILE779  LEU786  VAL792 
 PHE793  MET794  SER795  GLU796  ALA797  LYS798  CYS799  TRP800  GLU811  SER814 

> <Gold.Protein.RotatedAtoms>
  152.3866  134.6507  160.0122 H   0  0  0  0  0  0  0  0  0  0  0  0  # atno 6907 bound_to 6896
  151.6754  133.3307  159.3214 H   0  0  0  0  0  0  0  0  0  0  0  0  # atno 6908 bound_to 6896
  150.7791  134.6763  159.6464 H   0  0  0  0  0  0  0  0  0  0  0  0  # atno 6909 bound_to 6896
  145.1691  140.8916  143.3546 H   0  0  0  0  0  0  0  0  0  0  0  0  # atno 7974 bound_to 7965
  156.0384  140.1298  157.0182 H   0  0  0  0  0  0  0  0  0  0  0  0  # atno 8008 bound_to 7997
  154.4380  140.1035  156.6272 H   0  0  0  0  0  0  0  0  0  0  0  0  # atno 8009 bound_to 7997
  155.5703  140.3466  155.4515 H   0  0  0  0  0  0  0  0  0  0  0  0  # atno 8010 bound_to 7997
  139.5139  144.3156  152.0251 H   0  0  0  0  0  0  0  0  0  0  0  0  # atno 10167 bound_to 10162
  156.6590  130.9038  151.3026 H   0  0  0  0  0  0  0  0  0  0  0  0  # atno 10718 bound_to 10713
  153.9175  135.3004  155.3448 H   0  0  0  0  0  0  0  0  0  0  0  0  # atno 10763 bound_to 10752
  154.7592  135.4942  153.9435 H   0  0  0  0  0  0  0  0  0  0  0  0  # atno 10764 bound_to 10752
  153.1159  135.6770  153.9521 H   0  0  0  0  0  0  0  0  0  0  0  0  # atno 10765 bound_to 10752
  140.1965  134.8369  157.2971 H   0  0  0  0  0  0  0  0  0  0  0  0  # atno 11005 bound_to 11000
  145.0252  139.3389  143.6052 LP  0  0  0  0  0  0  0  0  0  0  0  0  # atno 17320 bound_to 7965
  146.3471  139.9568  142.8722 LP  0  0  0  0  0  0  0  0  0  0  0  0  # atno 17321 bound_to 7965
  140.2599  144.4078  150.6189 LP  0  0  0  0  0  0  0  0  0  0  0  0  # atno 17342 bound_to 10162
  140.6164  143.2173  151.6782 LP  0  0  0  0  0  0  0  0  0  0  0  0  # atno 17343 bound_to 10162
  157.7116  130.9447  150.1108 LP  0  0  0  0  0  0  0  0  0  0  0  0  # atno 17370 bound_to 10713
  156.2026  130.3661  149.8770 LP  0  0  0  0  0  0  0  0  0  0  0  0  # atno 17371 bound_to 10713
  140.2101  134.4149  155.7617 LP  0  0  0  0  0  0  0  0  0  0  0  0  # atno 17394 bound_to 11000
  141.2227  133.7114  156.8324 LP  0  0  0  0  0  0  0  0  0  0  0  0  # atno 17395 bound_to 11000

$$$$
