AV-unprocessed.smi:3038|AV-procd|sdf|11589|dock1
  -GOLD-   2272016563D 1   1.00000     0.00000
 Structure written by MMmdl.
 37 39  0  0  0  0  0  0  0  0  2 V2000
  149.3938  135.3623  156.3976 O   0  0  0  0  0  0  0  0  0  0  0  0
  149.6072  135.4953  155.1931 C   0  0  0  0  0  0  0  0  0  0  0  0
  150.8691  136.2167  154.7159 C   0  0  0  0  0  0  0  0  0  0  0  0
  150.7406  137.6557  154.8563 N   0  0  0  0  0  0  0  0  0  0  0  0
  150.2146  138.5739  154.0428 C   0  0  0  0  0  0  0  0  0  0  0  0
  150.3180  139.7926  154.5507 N   0  0  0  0  0  0  0  0  0  0  0  0
  150.9539  139.5766  155.7618 N   0  0  0  0  0  0  0  0  0  0  0  0
  151.2072  138.3106  155.9489 N   0  0  0  0  0  0  0  0  0  0  0  0
  148.7844  135.0265  154.2409 N   0  0  0  0  0  0  0  0  0  0  0  0
  147.5289  134.3235  154.4820 C   0  0  2  0  0  0  0  0  0  0  0  0
  147.5255  132.9565  153.7733 C   0  0  0  0  0  0  0  0  0  0  0  0
  146.1637  132.2529  153.9245 C   0  0  0  0  0  0  0  0  0  0  0  0
  145.0389  133.1016  153.4534 N   0  3  2  0  0  0  0  0  0  0  0  0
  144.9538  133.1976  151.9770 C   0  0  0  0  0  0  0  0  0  0  0  0
  144.1945  134.4106  151.4919 C   0  0  0  0  0  0  0  0  0  0  0  0
  143.5507  133.0433  151.4379 C   0  0  0  0  0  0  0  0  0  0  0  0
  145.0149  134.4236  154.1309 C   0  0  0  0  0  0  0  0  0  0  0  0
  146.3510  135.1761  153.9820 C   0  0  0  0  0  0  0  0  0  0  0  0
  151.7327  135.8856  155.2942 H   0  0  0  0  0  0  0  0  0  0  0  0
  151.0643  135.9681  153.6716 H   0  0  0  0  0  0  0  0  0  0  0  0
  149.7666  138.3525  153.0853 H   0  0  0  0  0  0  0  0  0  0  0  0
  149.0438  135.1817  153.2769 H   0  0  0  0  0  0  0  0  0  0  0  0
  147.4031  134.1676  155.5554 H   0  0  0  0  0  0  0  0  0  0  0  0
  147.7606  133.0836  152.7157 H   0  0  0  0  0  0  0  0  0  0  0  0
  148.3100  132.3199  154.1843 H   0  0  0  0  0  0  0  0  0  0  0  0
  146.1646  131.3032  153.3882 H   0  0  0  0  0  0  0  0  0  0  0  0
  145.9953  132.0110  154.9746 H   0  0  0  0  0  0  0  0  0  0  0  0
  145.8020  132.8194  151.4099 H   0  0  0  0  0  0  0  0  0  0  0  0
  143.8159  135.1136  152.2318 H   0  0  0  0  0  0  0  0  0  0  0  0
  144.5044  134.8524  150.5469 H   0  0  0  0  0  0  0  0  0  0  0  0
  143.4370  132.5851  150.4575 H   0  0  0  0  0  0  0  0  0  0  0  0
  142.7455  132.8402  152.1421 H   0  0  0  0  0  0  0  0  0  0  0  0
  144.1932  135.0264  153.7428 H   0  0  0  0  0  0  0  0  0  0  0  0
  144.8042  134.2637  155.1892 H   0  0  0  0  0  0  0  0  0  0  0  0
  146.3069  136.1122  154.5401 H   0  0  0  0  0  0  0  0  0  0  0  0
  146.5056  135.4522  152.9379 H   0  0  0  0  0  0  0  0  0  0  0  0
  144.1935  132.6268  153.7366 H   0  0  0  0  0  0  0  0  0  0  0  0
  1  2  2  0  0  0  0
  2  3  1  0  0  0  0
  2  9  1  0  0  0  0
  3  4  1  0  0  0  0
  3 19  1  0  0  0  0
  3 20  1  0  0  0  0
  4  8  1  0  0  0  0
  4  5  1  0  0  0  0
  5  6  2  0  0  0  0
  5 21  1  0  0  0  0
  6  7  1  0  0  0  0
  7  8  2  0  0  0  0
  9 10  1  0  0  0  0
  9 22  1  0  0  0  0
 10 18  1  0  0  0  0
 10 11  1  0  0  0  0
 10 23  1  0  0  0  0
 11 12  1  0  0  0  0
 11 24  1  0  0  0  0
 11 25  1  0  0  0  0
 12 13  1  0  0  0  0
 12 26  1  0  0  0  0
 12 27  1  0  0  0  0
 13 14  1  0  0  0  0
 13 17  1  0  0  0  0
 13 37  1  0  0  0  0
 14 16  1  0  0  0  0
 14 15  1  0  0  0  0
 14 28  1  0  0  0  0
 15 16  1  0  0  0  0
 15 29  1  0  0  0  0
 15 30  1  0  0  0  0
 16 31  1  0  0  0  0
 16 32  1  0  0  0  0
 17 18  1  0  0  0  0
 17 33  1  0  0  0  0
 17 34  1  0  0  0  0
 18 35  1  0  0  0  0
 18 36  1  0  0  0  0
M  CHG  1  13   1
M  END
> <s_m_source_file>
AV-unprocessed.smi

> <i_m_source_file_index>
3038

> <i_lp_mmshare_version>
43012

> <i_f3d_flags>
0

> <s_epik_input>
bjFubltjSF1uMVtDSDJdQyg9TylbTkhdW0NIXTJbQ0gyXVtDSDJdTihbQ0gyXVtDSDJdMilbQ0hdM1tDSDJdW0NIMl0z

> <s_epik_cmdline>
J2VwaWtfcHl0aG9uJywgJy1waCcsICc3LjAnLCAnLXRuJywgJzgnLCAnLW1hJywgJzIwMCcsICctbWV0YWxfYmluZGluZycsICctaW1hZScsICc8aW5maWxlLm1hZT4nLCAnLW9tYWUnLCAnPG91dGZpbGUubWFlPic=

> <r_lp_tautomer_probability>
1

> <r_epik_Ionization_Penalty>
0.284275

> <r_epik_Ionization_Penalty_Charging>
0.284273

> <r_epik_Ionization_Penalty_Neutral>
2.31262e-06

> <r_epik_State_Penalty>
0.277002

> <r_epik_Charging_Adjusted_Penalty>
0.561274

> <i_epik_Tot_Q>
1

> <i_epik_Tot_abs_Q>
1

> <r_epik_Metal_State_Penalty>
0.277002

> <b_epik_Metal_Only>
0

> <s_lp_Force_Field>
OPLS_2005

> <r_lp_Energy>
29.3434

> <b_lp_Chiralities_Consistent>
1

> <s_lp_Variant>
AV-unprocessed.smi:3038-2

> <Gold.Version>
5.8.1

> <Gold.Id.Protein>
6NUR|6NUR_protein|mol2

> <Gold.PLP.Fitness>
37.4328

> <Gold.PLP.PLP>
-21.4619

> <Gold.PLP.part.hbond>
-3.0000

> <Gold.PLP.part.metal>
0.0000

> <Gold.PLP.part.buried>
-3.3490

> <Gold.PLP.part.nonpolar>
-16.2798

> <Gold.PLP.part.repulsive>
0.1264

> <Gold.PLP.ligand.clash>
0.0000

> <Gold.PLP.ligand.torsion>
1.4618

> <Gold.PLP.Chemscore.Hbond>
3.9920

> <Gold.PLP.Chemscore.CHOScore>
1.8812

> <Gold.PLP.Chemscore.Metal>
0.0000

> <Gold.Chemscore.Hbonds>
donor molecule, donor type, donor heavy atom, donor atom, acceptor molecule, acceptor atom, score
      L1  H     9    22       P1  7948  0.99
      L1  H    13    37       P1 10957  1.98
      P1  H  7989  7998       L1     6  1.00
      L1  C     5    21       P1  7948  0.99
      L1  C     5    21       P1  7957  0.85

> <Gold.PLP.Chemscore.Internal.Correction>
1.2750

> <Gold.Rescore>
     Score         DG    S(hbond)    S(metal)    S(lipo)     H(rot)  DE(clash)    DE(int)     intcor
     10.20     -11.65       2.46        0.00      31.82       2.25       0.02       1.44       ----

> <Gold.Chemscore.Fitness>
10.1959

> <Gold.Chemscore.DG>
-11.6545

> <Gold.Chemscore.ZeroCoef>
-5.4800

> <Gold.Chemscore.Hbond>
2.4607

> <Gold.Chemscore.Metal>
0.0000

> <Gold.Chemscore.Lipo>
31.8193

> <Gold.Chemscore.Internal_Hbond>
0.0000

> <Gold.Chemscore.DEClash>
0.0234

> <Gold.Chemscore.DEInternal>
1.4352

> <Gold.Chemscore.Rot>
2.2528

> <Gold.Chemscore.Internal.Correction>
   9.000000E+99

> <Gold.Chemscore.Hbonds>
donor molecule, donor type, donor heavy atom, donor atom, acceptor molecule, acceptor atom, score
      L1  H     9    22       P1  7948  0.28
      L1  H    13    37       P1 10957  0.51
      P1  H  7989  7998       L1     6  0.36

> <Gold.Chemscore.Hbond.Weighted>
-8.2189

> <Gold.Chemscore.Metal.Weighted>
-0.0000

> <Gold.Chemscore.Lipo.Weighted>
-3.7229

> <Gold.Chemscore.Internal_Hbond.Weighted>
0.0000

> <Gold.Chemscore.DEClash.Weighted>
0.0234

> <Gold.Chemscore.DEInternal.Weighted>
1.4352

> <Gold.Chemscore.Rot.Weighted>
5.7672

> <Gold.Chemscore.Internal.Correction.Weighted>
   9.000000E+99

> <Gold.Protein.RotatedTorsions>
[ 6907 6896 6895 6894 ] final   87.63 input  -60.11 | X-H torsion
[ 7974 7965 7964 7962 ] final  -71.97 input  175.53 | X-H torsion
[ 8008 7997 7996 7995 ] final -170.51 input   59.86 | X-H torsion
[ 10167 10162 10161 10158 ] final  104.55 input  -65.29 | X-H torsion
[ 10718 10713 10712 10709 ] final -132.20 input   66.30 | X-H torsion
[ 10763 10752 10751 10750 ] final  -74.98 input  -60.55 | X-H torsion
[ 11005 11000 10999 10996 ] final -172.20 input  -57.11 | X-H torsion

> <Gold.Protein.ActiveResidues>
 VAL166  LYS551  ARG553  GLY616  TRP617  ASP618  TYR619  PRO620  LYS621  CYS622 
 ASP623  PHE694  ASN695  SER759  ASP760  ASP761  ALA762  ILE779  LEU786  VAL792 
 PHE793  MET794  SER795  GLU796  ALA797  LYS798  CYS799  TRP800  GLU811  SER814 

> <Gold.Protein.RotatedAtoms>
  152.5414  134.2247  159.8801 H   0  0  0  0  0  0  0  0  0  0  0  0  # atno 6907 bound_to 6896
  151.2222  133.4489  159.2608 H   0  0  0  0  0  0  0  0  0  0  0  0  # atno 6908 bound_to 6896
  151.0794  134.9862  159.8404 H   0  0  0  0  0  0  0  0  0  0  0  0  # atno 6909 bound_to 6896
  145.6712  140.9220  143.0882 H   0  0  0  0  0  0  0  0  0  0  0  0  # atno 7974 bound_to 7965
  155.9192  140.1071  157.1220 H   0  0  0  0  0  0  0  0  0  0  0  0  # atno 8008 bound_to 7997
  154.4051  140.1259  156.4723 H   0  0  0  0  0  0  0  0  0  0  0  0  # atno 8009 bound_to 7997
  155.7216  140.3469  155.5021 H   0  0  0  0  0  0  0  0  0  0  0  0  # atno 8010 bound_to 7997
  139.7168  144.7066  151.0937 H   0  0  0  0  0  0  0  0  0  0  0  0  # atno 10167 bound_to 10162
  156.2321  130.7044  151.0869 H   0  0  0  0  0  0  0  0  0  0  0  0  # atno 10718 bound_to 10713
  154.4804  135.5846  153.6385 H   0  0  0  0  0  0  0  0  0  0  0  0  # atno 10763 bound_to 10752
  152.9847  135.6088  154.3253 H   0  0  0  0  0  0  0  0  0  0  0  0  # atno 10764 bound_to 10752
  154.3144  135.2844  155.2529 H   0  0  0  0  0  0  0  0  0  0  0  0  # atno 10765 bound_to 10752
  140.4997  134.5906  157.4983 H   0  0  0  0  0  0  0  0  0  0  0  0  # atno 11005 bound_to 11000
  144.7056  139.8575  143.7431 LP  0  0  0  0  0  0  0  0  0  0  0  0  # atno 17320 bound_to 7965
  146.1044  139.4042  143.0327 LP  0  0  0  0  0  0  0  0  0  0  0  0  # atno 17321 bound_to 7965
  140.7745  143.5219  150.9526 LP  0  0  0  0  0  0  0  0  0  0  0  0  # atno 17342 bound_to 10162
  139.8905  143.6959  152.3146 LP  0  0  0  0  0  0  0  0  0  0  0  0  # atno 17343 bound_to 10162
  157.7138  131.0721  150.6404 LP  0  0  0  0  0  0  0  0  0  0  0  0  # atno 17370 bound_to 10713
  156.6472  130.4475  149.5732 LP  0  0  0  0  0  0  0  0  0  0  0  0  # atno 17371 bound_to 10713
  139.9721  134.7276  156.0022 LP  0  0  0  0  0  0  0  0  0  0  0  0  # atno 17394 bound_to 11000
  141.1442  133.6559  156.3818 LP  0  0  0  0  0  0  0  0  0  0  0  0  # atno 17395 bound_to 11000

$$$$
