#       Name:                AV-unprocessed.smi:2609
#       Creating user name   scv26
#       Creation time:       Fri Mar 27 14:21:25 2020


#       File generated by GOLD software.
#

@<TRIPOS>MOLECULE
AV-unprocessed.smi:2609
    30    31     1
SMALL
NO_CHARGES


@<TRIPOS>ATOM
      1 ****        -3.3304   2.6830  -0.4431 O.2            1 S1                 0.0000
      2 ****        -2.8937   1.5795  -0.1248 C.2            1 S1                 0.0000
      3 ****        -3.7360   0.4329   0.2254 C.2            1 S1                 0.0000
      4 ****        -3.1587  -0.7443   0.5611 C.2            1 S1                 0.0000
      5 ****        -1.7718  -0.9235   0.5909 N.2            1 S1                 0.0000
      6 ****        -1.0247   0.0914   0.2842 C.2            1 S1                 0.0000
      7 ****         0.5038   0.0770   0.2589 C.3            1 S1                 0.0000
      8 ****         1.0707   0.3258  -1.1530 C.3            1 S1                 0.0000
      9 ****         2.6076   0.2738  -1.1420 C.3            1 S1                 0.0000
     10 ****         3.0522  -0.9736  -0.6207 O.3            1 S1                 0.0000
     11 ****         2.6493  -1.1862   0.7276 C.3            1 S1                 0.0000
     12 ****         1.1152  -1.2249   0.8152 C.3            1 S1                 0.0000
     13 ****        -1.5621   1.3357  -0.0723 N.am           1 S1                 0.0000
     14 ****        -0.9322   2.0899  -0.3038 H              1 S1                 0.0000
     15 ****        -4.8118   0.5288   0.2159 H              1 S1                 0.0000
     16 ****        -3.7529  -1.6068   0.8244 H              1 S1                 0.0000
     17 ****         0.8399   0.8936   0.9003 H              1 S1                 0.0000
     18 ****         0.6906  -0.4282  -1.8441 H              1 S1                 0.0000
     19 ****         0.7472   1.2933  -1.5385 H              1 S1                 0.0000
     20 ****         2.9921   0.3879  -2.1556 H              1 S1                 0.0000
     21 ****         3.0205   1.0934  -0.5520 H              1 S1                 0.0000
     22 ****         3.0668  -2.1316   1.0741 H              1 S1                 0.0000
     23 ****         3.0575  -0.4038   1.3694 H              1 S1                 0.0000
     24 ****         0.8106  -1.3780   1.8514 H              1 S1                 0.0000
     25 ****         0.7513  -2.0848   0.2503 H              1 S1                 0.0000
     26 ****        -4.3175   2.8400  -0.4745 LP             1 S1                 0.0000
     27 ****        -2.6988   3.4240  -0.6707 LP             1 S1                 0.0000
     28 ****        -1.3698  -1.8045   0.8403 LP             1 S1                 0.0000
     29 ****         4.0509  -0.9992  -0.6630 LP             1 S1                 0.0000
     30 ****         2.6757  -1.7078  -1.1856 LP             1 S1                 0.0000
@<TRIPOS>BOND
    1    1    2 2     
    2    2    3 1     
    3    2   13 am    
    4    3   15 1     
    5    3    4 2     
    6    4   16 1     
    7    4    5 1     
    8    5    6 2     
    9    6    7 1     
   10    6   13 1     
   11    7   12 1     
   12    7    8 1     
   13    7   17 1     
   14    8    9 1     
   15    8   18 1     
   16    8   19 1     
   17    9   10 1     
   18    9   20 1     
   19    9   21 1     
   20   10   11 1     
   21   11   12 1     
   22   11   22 1     
   23   11   23 1     
   24   12   24 1     
   25   12   25 1     
   26   13   14 1     
   27    1   26 1     
   28    1   27 1     
   29    5   28 1     
   30   10   29 1     
   31   10   30 1     
@<TRIPOS>SUBSTRUCTURE
      1 S1             1
@<TRIPOS>SET
LONE_PAIRS      STATIC     ATOMS    <user>   **** ""
5 26 27 28 29 30
DONOR_HYDROGENS      STATIC     ATOMS    <user>   **** ""
1 14
ATOM$BLUE        STATIC     ATOMS    COLORGROUP SYSTEM
5 26 27 28 29 30
ATOM$RED        STATIC     ATOMS    COLORGROUP SYSTEM
1 14
