AV-unprocessed.smi:558|AV-procd|sdf|2923|dock8
  -GOLD-   2262023413D 1   1.00000     0.00000
 Structure written by MMmdl.
 36 37  0  0  0  0  0  0  0  0  1 V2000
  152.0395  144.7292  158.3829 C   0  0  0  0  0  0  0  0  0  0  0  0
  152.4593  143.4896  159.1160 C   0  0  0  0  0  0  0  0  0  0  0  0
  153.1549  143.3883  160.3529 C   0  0  0  0  0  0  0  0  0  0  0  0
  153.2808  142.0437  160.5611 C   0  0  0  0  0  0  0  0  0  0  0  0
  153.9196  141.3051  161.6917 C   0  0  0  0  0  0  0  0  0  0  0  0
  152.6788  141.4126  159.4854 N   0  0  0  0  0  0  0  0  0  0  0  0
  152.5310  139.9912  159.2135 C   0  0  0  0  0  0  0  0  0  0  0  0
  152.2330  139.7352  157.7349 C   0  0  0  0  0  0  0  0  0  0  0  0
  152.9718  139.0042  157.0759 O   0  0  0  0  0  0  0  0  0  0  0  0
  151.1469  140.3406  157.2299 N   0  0  0  0  0  0  0  0  0  0  0  0
  150.6818  140.2388  155.8506 C   0  0  0  0  0  0  0  0  0  0  0  0
  149.5426  141.2324  155.5582 C   0  0  1  0  0  0  0  0  0  0  0  0
  148.7355  140.8917  154.3223 C   0  0  0  0  0  0  0  0  0  0  0  0
  147.4692  141.7159  154.5349 C   0  0  0  0  0  0  0  0  0  0  0  0
  147.2874  141.7940  155.9459 O   0  0  0  0  0  0  0  0  0  0  0  0
  148.4385  141.2883  156.6159 C   0  0  0  0  0  0  0  0  0  0  0  0
  152.1779  142.3040  158.6022 N   0  0  0  0  0  0  0  0  0  0  0  0
  152.3906  145.6265  158.8928 H   0  0  0  0  0  0  0  0  0  0  0  0
  150.9536  144.7927  158.3100 H   0  0  0  0  0  0  0  0  0  0  0  0
  152.4442  144.7435  157.3707 H   0  0  0  0  0  0  0  0  0  0  0  0
  153.5084  144.1842  160.9918 H   0  0  0  0  0  0  0  0  0  0  0  0
  154.4790  141.9863  162.3329 H   0  0  0  0  0  0  0  0  0  0  0  0
  154.6138  140.5482  161.3268 H   0  0  0  0  0  0  0  0  0  0  0  0
  153.1671  140.8112  162.3064 H   0  0  0  0  0  0  0  0  0  0  0  0
  153.4495  139.4728  159.4943 H   0  0  0  0  0  0  0  0  0  0  0  0
  151.7383  139.5851  159.8427 H   0  0  0  0  0  0  0  0  0  0  0  0
  150.6010  140.9214  157.8495 H   0  0  0  0  0  0  0  0  0  0  0  0
  151.5298  140.4570  155.2010 H   0  0  0  0  0  0  0  0  0  0  0  0
  150.3745  139.2183  155.6156 H   0  0  0  0  0  0  0  0  0  0  0  0
  149.9580  142.2337  155.4319 H   0  0  0  0  0  0  0  0  0  0  0  0
  149.2495  141.1368  153.3925 H   0  0  0  0  0  0  0  0  0  0  0  0
  148.4908  139.8285  154.3077 H   0  0  0  0  0  0  0  0  0  0  0  0
  147.6044  142.7262  154.1470 H   0  0  0  0  0  0  0  0  0  0  0  0
  146.6000  141.2781  154.0435 H   0  0  0  0  0  0  0  0  0  0  0  0
  148.2076  140.2887  156.9869 H   0  0  0  0  0  0  0  0  0  0  0  0
  148.7069  141.9113  157.4695 H   0  0  0  0  0  0  0  0  0  0  0  0
  1  2  1  0  0  0  0
  1 18  1  0  0  0  0
  1 19  1  0  0  0  0
  1 20  1  0  0  0  0
  2 17  2  0  0  0  0
  2  3  1  0  0  0  0
  3  4  2  0  0  0  0
  3 21  1  0  0  0  0
  4  5  1  0  0  0  0
  4  6  1  0  0  0  0
  5 22  1  0  0  0  0
  5 23  1  0  0  0  0
  5 24  1  0  0  0  0
  6  7  1  0  0  0  0
  6 17  1  0  0  0  0
  7  8  1  0  0  0  0
  7 25  1  0  0  0  0
  7 26  1  0  0  0  0
  8  9  2  0  0  0  0
  8 10  1  0  0  0  0
 10 11  1  0  0  0  0
 10 27  1  0  0  0  0
 11 12  1  0  0  0  0
 11 28  1  0  0  0  0
 11 29  1  0  0  0  0
 12 16  1  0  0  0  0
 12 13  1  0  0  0  0
 12 30  1  0  0  0  0
 13 14  1  0  0  0  0
 13 31  1  0  0  0  0
 13 32  1  0  0  0  0
 14 15  1  0  0  0  0
 14 33  1  0  0  0  0
 14 34  1  0  0  0  0
 15 16  1  0  0  0  0
 16 35  1  0  0  0  0
 16 36  1  0  0  0  0
M  END
> <s_m_source_file>
AV-unprocessed.smi

> <i_m_source_file_index>
558

> <i_lp_mmshare_version>
43012

> <i_f3d_flags>
0

> <s_epik_input>
W0NIM11jMVtjSF1jKFtDSDNdKW4objEpW0NIMl1DKD1PKVtOSF1bQ0gyXVtDQEBIXTJbQ0gyXVtDSDJdT1tDSDJdMg==

> <s_epik_cmdline>
J2VwaWtfcHl0aG9uJywgJy1waCcsICc3LjAnLCAnLXRuJywgJzgnLCAnLW1hJywgJzIwMCcsICctbWV0YWxfYmluZGluZycsICctaW1hZScsICc8aW5maWxlLm1hZT4nLCAnLW9tYWUnLCAnPG91dGZpbGUubWFlPic=

> <r_lp_tautomer_probability>
1

> <r_epik_Ionization_Penalty>
0.000376629

> <r_epik_Ionization_Penalty_Charging>
0

> <r_epik_Ionization_Penalty_Neutral>
0.000376629

> <r_epik_State_Penalty>
-0

> <r_epik_Charging_Adjusted_Penalty>
0

> <i_epik_Tot_Q>
0

> <i_epik_Tot_abs_Q>
0

> <r_epik_Metal_State_Penalty>
-0

> <b_epik_Metal_Only>
0

> <s_lp_Force_Field>
OPLS_2005

> <r_lp_Energy>
17.6381

> <b_lp_Chiralities_Consistent>
1

> <s_lp_Variant>
AV-unprocessed.smi:558-2

> <Gold.Version>
5.8.1

> <Gold.Id.Protein>
6NUR|6NUR_protein|mol2

> <Gold.PLP.Fitness>
41.7687

> <Gold.PLP.PLP>
-39.6366

> <Gold.PLP.part.hbond>
-1.0000

> <Gold.PLP.part.metal>
0.0000

> <Gold.PLP.part.buried>
-4.1381

> <Gold.PLP.part.nonpolar>
-35.0778

> <Gold.PLP.part.repulsive>
0.2065

> <Gold.PLP.ligand.clash>
0.0000

> <Gold.PLP.ligand.torsion>
0.4391

> <Gold.PLP.Chemscore.Hbond>
1.0000

> <Gold.PLP.Chemscore.CHOScore>
0.0000

> <Gold.PLP.Chemscore.Metal>
0.0000

> <Gold.Chemscore.Hbonds>
donor molecule, donor type, donor heavy atom, donor atom, acceptor molecule, acceptor atom, score
      P1  H  7997  8009       L1     9  1.00

> <Gold.PLP.Chemscore.Internal.Correction>
0.0103

> <Gold.Rescore>
     Score         DG    S(hbond)    S(metal)    S(lipo)     H(rot)  DE(clash)    DE(int)     intcor
     14.45     -16.54       0.97        0.00     100.55       1.54       0.04       2.06       ----

> <Gold.Chemscore.Fitness>
14.4468

> <Gold.Chemscore.DG>
-16.5430

> <Gold.Chemscore.ZeroCoef>
-5.4800

> <Gold.Chemscore.Hbond>
0.9694

> <Gold.Chemscore.Metal>
0.0000

> <Gold.Chemscore.Lipo>
100.5513

> <Gold.Chemscore.Internal_Hbond>
0.0000

> <Gold.Chemscore.DEClash>
0.0397

> <Gold.Chemscore.DEInternal>
2.0565

> <Gold.Chemscore.Rot>
1.5387

> <Gold.Chemscore.Internal.Correction>
   9.000000E+99

> <Gold.Chemscore.Hbonds>
donor molecule, donor type, donor heavy atom, donor atom, acceptor molecule, acceptor atom, score
      P1  H  7997  8009       L1     9  0.40

> <Gold.Chemscore.Hbond.Weighted>
-3.2377

> <Gold.Chemscore.Metal.Weighted>
-0.0000

> <Gold.Chemscore.Lipo.Weighted>
-11.7645

> <Gold.Chemscore.Internal_Hbond.Weighted>
0.0000

> <Gold.Chemscore.DEClash.Weighted>
0.0397

> <Gold.Chemscore.DEInternal.Weighted>
2.0565

> <Gold.Chemscore.Rot.Weighted>
3.9392

> <Gold.Chemscore.Internal.Correction.Weighted>
   9.000000E+99

> <Gold.Protein.RotatedTorsions>
[ 6907 6896 6895 6894 ] final  -74.95 input  -60.11 | X-H torsion
[ 7974 7965 7964 7962 ] final  135.90 input  175.53 | X-H torsion
[ 8008 7997 7996 7995 ] final  167.78 input   59.86 | X-H torsion
[ 10167 10162 10161 10158 ] final  173.51 input  -65.29 | X-H torsion
[ 10718 10713 10712 10709 ] final  -42.89 input   66.30 | X-H torsion
[ 10763 10752 10751 10750 ] final    6.08 input  -60.55 | X-H torsion
[ 11005 11000 10999 10996 ] final    8.45 input  -57.11 | X-H torsion

> <Gold.Protein.ActiveResidues>
 VAL166  LYS551  ARG553  GLY616  TRP617  ASP618  TYR619  PRO620  LYS621  CYS622 
 ASP623  PHE694  ASN695  SER759  ASP760  ASP761  ALA762  ILE779  LEU786  VAL792 
 PHE793  MET794  SER795  GLU796  ALA797  LYS798  CYS799  TRP800  GLU811  SER814 

> <Gold.Protein.RotatedAtoms>
  150.7075  134.4793  159.5462 H   0  0  0  0  0  0  0  0  0  0  0  0  # atno 6907 bound_to 6896
  152.2433  134.8204  160.0466 H   0  0  0  0  0  0  0  0  0  0  0  0  # atno 6908 bound_to 6896
  151.8977  133.3495  159.3857 H   0  0  0  0  0  0  0  0  0  0  0  0  # atno 6909 bound_to 6896
  144.9617  139.4702  143.5476 H   0  0  0  0  0  0  0  0  0  0  0  0  # atno 7974 bound_to 7965
  156.1604  140.1608  156.8621 H   0  0  0  0  0  0  0  0  0  0  0  0  # atno 8008 bound_to 7997
  154.5155  140.0790  156.8109 H   0  0  0  0  0  0  0  0  0  0  0  0  # atno 8009 bound_to 7997
  155.3718  140.3400  155.4246 H   0  0  0  0  0  0  0  0  0  0  0  0  # atno 8010 bound_to 7997
  139.5111  144.3252  152.0164 H   0  0  0  0  0  0  0  0  0  0  0  0  # atno 10167 bound_to 10162
  156.2548  130.4191  149.8609 H   0  0  0  0  0  0  0  0  0  0  0  0  # atno 10718 bound_to 10713
  153.2518  135.6914  153.7671 H   0  0  0  0  0  0  0  0  0  0  0  0  # atno 10763 bound_to 10752
  153.6762  135.3336  155.3167 H   0  0  0  0  0  0  0  0  0  0  0  0  # atno 10764 bound_to 10752
  154.8397  135.4511  154.1478 H   0  0  0  0  0  0  0  0  0  0  0  0  # atno 10765 bound_to 10752
  140.5369  134.0412  155.7891 H   0  0  0  0  0  0  0  0  0  0  0  0  # atno 11005 bound_to 11000
  146.3355  139.8772  142.8830 LP  0  0  0  0  0  0  0  0  0  0  0  0  # atno 17320 bound_to 7965
  145.2689  141.0102  143.3783 LP  0  0  0  0  0  0  0  0  0  0  0  0  # atno 17321 bound_to 7965
  140.2693  144.3982  150.6157 LP  0  0  0  0  0  0  0  0  0  0  0  0  # atno 17342 bound_to 10162
  140.6100  143.2169  151.6904 LP  0  0  0  0  0  0  0  0  0  0  0  0  # atno 17343 bound_to 10162
  156.6145  130.8600  151.3461 LP  0  0  0  0  0  0  0  0  0  0  0  0  # atno 17370 bound_to 10713
  157.7228  130.9582  150.1509 LP  0  0  0  0  0  0  0  0  0  0  0  0  # atno 17371 bound_to 10713
  141.1249  133.9399  157.2654 LP  0  0  0  0  0  0  0  0  0  0  0  0  # atno 17394 bound_to 11000
  139.9524  135.0172  156.9033 LP  0  0  0  0  0  0  0  0  0  0  0  0  # atno 17395 bound_to 11000

$$$$
