AV-unprocessed.smi:1845|AV-procd|sdf|7513|dock9
  -GOLD-   22720 9223D 1   1.00000     0.00000
 Structure written by MMmdl.
 44 45  0  0  0  0  0  0  0  0  2 V2000
  150.8801  131.0465  155.5910 C   0  0  0  0  0  0  0  0  0  0  0  0
  150.2127  131.5856  157.2234 S   0  0  0  0  0  0  0  0  0  0  0  0
  148.7613  131.3664  157.1321 O   0  0  0  0  0  0  0  0  0  0  0  0
  150.9359  130.8065  158.2427 O   0  0  0  0  0  0  0  0  0  0  0  0
  150.5624  133.1746  157.2380 N   0  5  0  0  0  0  0  0  0  0  0  0
  149.7593  134.1383  156.4972 C   0  0  0  0  0  0  0  0  0  0  0  0
  150.6472  134.8801  155.4742 C   0  0  0  0  0  0  0  0  0  0  0  0
  150.1488  136.2941  155.1385 C   0  0  0  0  0  0  0  0  0  0  0  0
  149.0833  136.7106  155.5989 O   0  0  0  0  0  0  0  0  0  0  0  0
  150.9530  137.0410  154.3628 N   0  0  0  0  0  0  0  0  0  0  0  0
  150.6745  138.4003  153.9082 C   0  0  0  0  0  0  0  0  0  0  0  0
  150.8571  139.4775  154.9688 C   0  0  0  0  0  0  0  0  0  0  0  0
  150.1322  140.6885  154.9597 C   0  0  0  0  0  0  0  0  0  0  0  0
  150.3700  141.6368  155.9733 C   0  0  0  0  0  0  0  0  0  0  0  0
  151.3287  141.3538  156.9755 C   0  0  0  0  0  0  0  0  0  0  0  0
  151.5815  142.2868  158.0058 N   0  0  0  0  0  0  0  0  0  0  0  0
  152.6340  141.9221  158.9514 C   0  0  0  0  0  0  0  0  0  0  0  0
  152.6002  142.8510  160.1774 C   0  0  0  0  0  0  0  0  0  0  0  0
  152.6822  144.2086  159.7571 O   0  0  0  0  0  0  0  0  0  0  0  0
  151.5821  144.5724  158.9303 C   0  0  0  0  0  0  0  0  0  0  0  0
  151.5817  143.7074  157.6586 C   0  0  0  0  0  0  0  0  0  0  0  0
  152.0326  140.1948  156.9718 N   0  0  0  0  0  0  0  0  0  0  0  0
  151.8018  139.2905  155.9973 C   0  0  0  0  0  0  0  0  0  0  0  0
  150.6205  130.0013  155.4269 H   0  0  0  0  0  0  0  0  0  0  0  0
  151.9645  131.1506  155.5771 H   0  0  0  0  0  0  0  0  0  0  0  0
  150.4430  131.6546  154.7995 H   0  0  0  0  0  0  0  0  0  0  0  0
  148.9387  133.6605  155.9610 H   0  0  0  0  0  0  0  0  0  0  0  0
  149.2907  134.8596  157.1675 H   0  0  0  0  0  0  0  0  0  0  0  0
  151.6649  134.9621  155.8588 H   0  0  0  0  0  0  0  0  0  0  0  0
  150.7161  134.2979  154.5534 H   0  0  0  0  0  0  0  0  0  0  0  0
  151.8144  136.6235  154.0413 H   0  0  0  0  0  0  0  0  0  0  0  0
  151.3501  138.6090  153.0781 H   0  0  0  0  0  0  0  0  0  0  0  0
  149.6647  138.4770  153.5019 H   0  0  0  0  0  0  0  0  0  0  0  0
  149.4073  140.9036  154.1893 H   0  0  0  0  0  0  0  0  0  0  0  0
  149.8283  142.5706  155.9584 H   0  0  0  0  0  0  0  0  0  0  0  0
  152.5375  140.8914  159.2888 H   0  0  0  0  0  0  0  0  0  0  0  0
  153.5992  142.0023  158.4498 H   0  0  0  0  0  0  0  0  0  0  0  0
  151.6908  142.6932  160.7594 H   0  0  0  0  0  0  0  0  0  0  0  0
  153.4407  142.6329  160.8364 H   0  0  0  0  0  0  0  0  0  0  0  0
  150.6462  144.4578  159.4796 H   0  0  0  0  0  0  0  0  0  0  0  0
  151.6692  145.6265  158.6666 H   0  0  0  0  0  0  0  0  0  0  0  0
  152.4622  143.9313  157.0549 H   0  0  0  0  0  0  0  0  0  0  0  0
  150.7035  143.9510  157.0592 H   0  0  0  0  0  0  0  0  0  0  0  0
  152.3913  138.3868  156.0429 H   0  0  0  0  0  0  0  0  0  0  0  0
  1  2  1  0  0  0  0
  1 24  1  0  0  0  0
  1 25  1  0  0  0  0
  1 26  1  0  0  0  0
  2  3  2  0  0  0  0
  2  4  2  0  0  0  0
  2  5  1  0  0  0  0
  5  6  1  0  0  0  0
  6  7  1  0  0  0  0
  6 27  1  0  0  0  0
  6 28  1  0  0  0  0
  7  8  1  0  0  0  0
  7 29  1  0  0  0  0
  7 30  1  0  0  0  0
  8  9  2  0  0  0  0
  8 10  1  0  0  0  0
 10 11  1  0  0  0  0
 10 31  1  0  0  0  0
 11 12  1  0  0  0  0
 11 32  1  0  0  0  0
 11 33  1  0  0  0  0
 12 23  1  0  0  0  0
 12 13  2  0  0  0  0
 13 14  1  0  0  0  0
 13 34  1  0  0  0  0
 14 15  2  0  0  0  0
 14 35  1  0  0  0  0
 15 16  1  0  0  0  0
 15 22  1  0  0  0  0
 16 21  1  0  0  0  0
 16 17  1  0  0  0  0
 17 18  1  0  0  0  0
 17 36  1  0  0  0  0
 17 37  1  0  0  0  0
 18 19  1  0  0  0  0
 18 38  1  0  0  0  0
 18 39  1  0  0  0  0
 19 20  1  0  0  0  0
 20 21  1  0  0  0  0
 20 40  1  0  0  0  0
 20 41  1  0  0  0  0
 21 42  1  0  0  0  0
 21 43  1  0  0  0  0
 22 23  2  0  0  0  0
 23 44  1  0  0  0  0
M  CHG  1   5  -1
M  END
> <s_m_source_file>
AV-unprocessed.smi

> <i_m_source_file_index>
1845

> <i_lp_mmshare_version>
43012

> <i_f3d_flags>
0

> <s_epik_input>
W0NIM11TKD1PKSg9TylbTkhdW0NIMl1bQ0gyXUMoPU8pW05IXVtDSDJdYzFbY0hdW2NIXWMobltjSF0xKU4yW0NIMl1bQ0gyXU9bQ0gyXVtDSDJdMg==

> <s_epik_cmdline>
J2VwaWtfcHl0aG9uJywgJy1waCcsICc3LjAnLCAnLXRuJywgJzgnLCAnLW1hJywgJzIwMCcsICctbWV0YWxfYmluZGluZycsICctaW1hZScsICc8aW5maWxlLm1hZT4nLCAnLW9tYWUnLCAnPG91dGZpbGUubWFlPic=

> <r_lp_tautomer_probability>
1

> <r_epik_Ionization_Penalty>
6.31253

> <r_epik_Ionization_Penalty_Charging>
6.30704

> <r_epik_Ionization_Penalty_Neutral>
0.00548995

> <r_epik_State_Penalty>
6.31049

> <r_epik_Charging_Adjusted_Penalty>
12.6175

> <i_epik_Tot_Q>
-1

> <i_epik_Tot_abs_Q>
1

> <r_epik_Metal_State_Penalty>
2.24651

> <b_epik_Metal_Only>
1

> <s_lp_Force_Field>
OPLS_2005

> <r_lp_Energy>
11.4109

> <b_lp_Chiralities_Consistent>
1

> <s_lp_Variant>
AV-unprocessed.smi:1845-2

> <Gold.Version>
5.8.1

> <Gold.Id.Protein>
6NUR|6NUR_protein|mol2

> <Gold.PLP.Fitness>
43.7246

> <Gold.PLP.PLP>
-39.3292

> <Gold.PLP.part.hbond>
-2.2250

> <Gold.PLP.part.metal>
0.0000

> <Gold.PLP.part.buried>
-3.6863

> <Gold.PLP.part.nonpolar>
-34.1066

> <Gold.PLP.part.repulsive>
0.2119

> <Gold.PLP.ligand.clash>
0.0000

> <Gold.PLP.ligand.torsion>
1.4763

> <Gold.PLP.Chemscore.Hbond>
1.9840

> <Gold.PLP.Chemscore.CHOScore>
0.0000

> <Gold.PLP.Chemscore.Metal>
0.0000

> <Gold.Chemscore.Hbonds>
donor molecule, donor type, donor heavy atom, donor atom, acceptor molecule, acceptor atom, score
      P1  H  6896  6909       L1     5  1.89

> <Gold.PLP.Chemscore.Internal.Correction>
1.3959

> <Gold.Rescore>
     Score         DG    S(hbond)    S(metal)    S(lipo)     H(rot)  DE(clash)    DE(int)     intcor
     10.93     -12.37       0.72        0.00      92.10       2.46       0.03       1.41       ----

> <Gold.Chemscore.Fitness>
10.9291

> <Gold.Chemscore.DG>
-12.3729

> <Gold.Chemscore.ZeroCoef>
-5.4800

> <Gold.Chemscore.Hbond>
0.7248

> <Gold.Chemscore.Metal>
0.0000

> <Gold.Chemscore.Lipo>
92.1042

> <Gold.Chemscore.Internal_Hbond>
0.0000

> <Gold.Chemscore.DEClash>
0.0341

> <Gold.Chemscore.DEInternal>
1.4097

> <Gold.Chemscore.Rot>
2.4625

> <Gold.Chemscore.Internal.Correction>
   9.000000E+99

> <Gold.Chemscore.Hbonds>
donor molecule, donor type, donor heavy atom, donor atom, acceptor molecule, acceptor atom, score
      P1  H  6896  6909       L1     5  0.33

> <Gold.Chemscore.Hbond.Weighted>
-2.4207

> <Gold.Chemscore.Metal.Weighted>
-0.0000

> <Gold.Chemscore.Lipo.Weighted>
-10.7762

> <Gold.Chemscore.Internal_Hbond.Weighted>
0.0000

> <Gold.Chemscore.DEClash.Weighted>
0.0341

> <Gold.Chemscore.DEInternal.Weighted>
1.4097

> <Gold.Chemscore.Rot.Weighted>
6.3040

> <Gold.Chemscore.Internal.Correction.Weighted>
   9.000000E+99

> <Gold.Protein.RotatedTorsions>
[ 6907 6896 6895 6894 ] final  -23.59 input  -60.11 | X-H torsion
[ 7974 7965 7964 7962 ] final   -7.58 input  175.53 | X-H torsion
[ 8008 7997 7996 7995 ] final  142.82 input   59.86 | X-H torsion
[ 10167 10162 10161 10158 ] final  -89.54 input  -65.29 | X-H torsion
[ 10718 10713 10712 10709 ] final  104.56 input   66.30 | X-H torsion
[ 10763 10752 10751 10750 ] final  -80.71 input  -60.55 | X-H torsion
[ 11005 11000 10999 10996 ] final    7.32 input  -57.11 | X-H torsion

> <Gold.Protein.ActiveResidues>
 VAL166  LYS551  ARG553  GLY616  TRP617  ASP618  TYR619  PRO620  LYS621  CYS622 
 ASP623  PHE694  ASN695  SER759  ASP760  ASP761  ALA762  ILE779  LEU786  VAL792 
 PHE793  MET794  SER795  GLU796  ALA797  LYS798  CYS799  TRP800  GLU811  SER814 

> <Gold.Protein.RotatedAtoms>
  151.2017  135.0445  159.8874 H   0  0  0  0  0  0  0  0  0  0  0  0  # atno 6907 bound_to 6896
  152.5432  134.0842  159.8259 H   0  0  0  0  0  0  0  0  0  0  0  0  # atno 6908 bound_to 6896
  151.0984  133.5215  159.2643 H   0  0  0  0  0  0  0  0  0  0  0  0  # atno 6909 bound_to 6896
  146.2303  140.2340  142.8341 H   0  0  0  0  0  0  0  0  0  0  0  0  # atno 7974 bound_to 7965
  156.2942  140.2278  156.4791 H   0  0  0  0  0  0  0  0  0  0  0  0  # atno 8008 bound_to 7997
  154.7869  140.0456  157.1192 H   0  0  0  0  0  0  0  0  0  0  0  0  # atno 8009 bound_to 7997
  154.9692  140.3064  155.4999 H   0  0  0  0  0  0  0  0  0  0  0  0  # atno 8010 bound_to 7997
  140.3638  143.2828  151.9583 H   0  0  0  0  0  0  0  0  0  0  0  0  # atno 10167 bound_to 10162
  157.6736  131.0807  150.5724 H   0  0  0  0  0  0  0  0  0  0  0  0  # atno 10718 bound_to 10713
  154.5546  135.5651  153.6952 H   0  0  0  0  0  0  0  0  0  0  0  0  # atno 10763 bound_to 10752
  152.9999  135.6259  154.2328 H   0  0  0  0  0  0  0  0  0  0  0  0  # atno 10764 bound_to 10752
  154.2263  135.2867  155.2886 H   0  0  0  0  0  0  0  0  0  0  0  0  # atno 10765 bound_to 10752
  140.5495  134.0296  155.7932 H   0  0  0  0  0  0  0  0  0  0  0  0  # atno 11005 bound_to 11000
  144.9535  140.8203  143.5557 LP  0  0  0  0  0  0  0  0  0  0  0  0  # atno 17320 bound_to 7965
  145.2304  139.2118  143.5046 LP  0  0  0  0  0  0  0  0  0  0  0  0  # atno 17321 bound_to 7965
  139.4811  144.5969  151.7675 LP  0  0  0  0  0  0  0  0  0  0  0  0  # atno 17342 bound_to 10162
  140.5101  144.1038  150.5993 LP  0  0  0  0  0  0  0  0  0  0  0  0  # atno 17343 bound_to 10162
  156.6026  130.4358  149.5891 LP  0  0  0  0  0  0  0  0  0  0  0  0  # atno 17370 bound_to 10713
  156.2494  130.6898  151.1631 LP  0  0  0  0  0  0  0  0  0  0  0  0  # atno 17371 bound_to 10713
  141.1180  133.9509  157.2785 LP  0  0  0  0  0  0  0  0  0  0  0  0  # atno 17394 bound_to 11000
  139.9462  135.0183  156.8859 LP  0  0  0  0  0  0  0  0  0  0  0  0  # atno 17395 bound_to 11000

$$$$
