AV-unprocessed.smi:2753|AV-procd|sdf|10609|dock2
  -GOLD-   2272015 63D 1   1.00000     0.00000
 Structure written by MMmdl.
 28 29  0  0  0  0  0  0  0  0  2 V2000
  143.9865  132.5063  149.2597 F   0  0  0  0  0  0  0  0  0  0  0  0
  144.8207  132.3351  150.2842 C   0  0  0  0  0  0  0  0  0  0  0  0
  144.4253  131.2488  150.9490 F   0  0  0  0  0  0  0  0  0  0  0  0
  146.0296  132.0835  149.7840 F   0  0  0  0  0  0  0  0  0  0  0  0
  144.8462  133.5506  151.1645 C   0  0  0  0  0  0  0  0  0  0  0  0
  145.9250  134.3356  151.5052 C   0  0  0  0  0  0  0  0  0  0  0  0
  145.4194  135.3232  152.3318 N   0  0  0  0  0  0  0  0  0  0  0  0
  144.1033  135.1164  152.4622 C   0  0  0  0  0  0  0  0  0  0  0  0
  143.2275  135.9999  153.2962 C   0  0  2  0  0  0  0  0  0  0  0  0
  141.7555  135.5451  153.2687 C   0  0  0  0  0  0  0  0  0  0  0  0
  140.8849  136.4829  154.1190 C   0  0  0  0  0  0  0  0  0  0  0  0
  141.0602  137.9460  153.6788 C   0  0  0  0  0  0  0  0  0  0  0  0
  142.4853  138.3394  153.7281 N   0  3  0  0  0  0  0  0  0  0  0  0
  143.3515  137.4826  152.8885 C   0  0  0  0  0  0  0  0  0  0  0  0
  143.6933  134.0539  151.7750 N   0  0  0  0  0  0  0  0  0  0  0  0
  145.9517  136.0669  152.7610 H   0  0  0  0  0  0  0  0  0  0  0  0
  146.9694  134.2731  151.2376 H   0  0  0  0  0  0  0  0  0  0  0  0
  143.5751  135.9146  154.3276 H   0  0  0  0  0  0  0  0  0  0  0  0
  141.3862  135.5405  152.2420 H   0  0  0  0  0  0  0  0  0  0  0  0
  141.6685  134.5218  153.6357 H   0  0  0  0  0  0  0  0  0  0  0  0
  139.8368  136.1926  154.0401 H   0  0  0  0  0  0  0  0  0  0  0  0
  141.1559  136.3808  155.1707 H   0  0  0  0  0  0  0  0  0  0  0  0
  140.6834  138.0860  152.6646 H   0  0  0  0  0  0  0  0  0  0  0  0
  140.4855  138.6080  154.3267 H   0  0  0  0  0  0  0  0  0  0  0  0
  142.5721  139.2968  153.4177 H   0  0  0  0  0  0  0  0  0  0  0  0
  144.3835  137.8196  152.9909 H   0  0  0  0  0  0  0  0  0  0  0  0
  143.0749  137.6179  151.8418 H   0  0  0  0  0  0  0  0  0  0  0  0
  142.8025  138.2777  154.6849 H   0  0  0  0  0  0  0  0  0  0  0  0
  1  2  1  0  0  0  0
  2  3  1  0  0  0  0
  2  4  1  0  0  0  0
  2  5  1  0  0  0  0
  5 15  1  0  0  0  0
  5  6  2  0  0  0  0
  6  7  1  0  0  0  0
  6 17  1  0  0  0  0
  7 16  1  0  0  0  0
  7  8  1  0  0  0  0
  8  9  1  0  0  0  0
  8 15  2  0  0  0  0
  9 14  1  0  0  0  0
  9 10  1  0  0  0  0
  9 18  1  0  0  0  0
 10 11  1  0  0  0  0
 10 19  1  0  0  0  0
 10 20  1  0  0  0  0
 11 12  1  0  0  0  0
 11 21  1  0  0  0  0
 11 22  1  0  0  0  0
 12 13  1  0  0  0  0
 12 23  1  0  0  0  0
 12 24  1  0  0  0  0
 13 14  1  0  0  0  0
 13 25  1  0  0  0  0
 13 28  1  0  0  0  0
 14 26  1  0  0  0  0
 14 27  1  0  0  0  0
M  CHG  1  13   1
M  END
> <s_m_source_file>
AV-unprocessed.smi

> <i_m_source_file_index>
2753

> <i_lp_mmshare_version>
43012

> <i_f3d_flags>
0

> <s_epik_input>
RkMoRikoRiljMVtjSF1bbkhdYyhuMSlbQ0BASF0yW0NIMl1bQ0gyXVtDSDJdW05IXVtDSDJdMg==

> <s_epik_cmdline>
J2VwaWtfcHl0aG9uJywgJy1waCcsICc3LjAnLCAnLXRuJywgJzgnLCAnLW1hJywgJzIwMCcsICctbWV0YWxfYmluZGluZycsICctaW1hZScsICc8aW5maWxlLm1hZT4nLCAnLW9tYWUnLCAnPG91dGZpbGUubWFlPic=

> <r_lp_tautomer_probability>
0.5

> <r_epik_Ionization_Penalty>
0.00052307

> <r_epik_Ionization_Penalty_Charging>
0.000431517

> <r_epik_Ionization_Penalty_Neutral>
9.15529e-05

> <r_epik_State_Penalty>
0.103148

> <r_epik_Charging_Adjusted_Penalty>
0.103579

> <i_epik_Tot_Q>
1

> <i_epik_Tot_abs_Q>
1

> <r_epik_Metal_State_Penalty>
0.166025

> <b_epik_Metal_Only>
0

> <s_lp_Force_Field>
OPLS_2005

> <r_lp_Energy>
16.8068

> <b_lp_Chiralities_Consistent>
1

> <s_lp_Variant>
AV-unprocessed.smi:2753-1

> <Gold.Version>
5.8.1

> <Gold.Id.Protein>
6NUR|6NUR_protein|mol2

> <Gold.PLP.Fitness>
36.5766

> <Gold.PLP.PLP>
-30.4321

> <Gold.PLP.part.hbond>
-1.0000

> <Gold.PLP.part.metal>
0.0000

> <Gold.PLP.part.buried>
-4.0843

> <Gold.PLP.part.nonpolar>
-25.3403

> <Gold.PLP.part.repulsive>
0.1633

> <Gold.PLP.ligand.clash>
0.0000

> <Gold.PLP.ligand.torsion>
0.0427

> <Gold.PLP.Chemscore.Hbond>
1.7600

> <Gold.PLP.Chemscore.CHOScore>
0.3074

> <Gold.PLP.Chemscore.Metal>
0.0000

> <Gold.Chemscore.Hbonds>
donor molecule, donor type, donor heavy atom, donor atom, acceptor molecule, acceptor atom, score
      L1  H    13    25       P1 10175  1.79
      L1  C     6    17       P1  7948  0.31

> <Gold.PLP.Chemscore.Internal.Correction>
0.0276

> <Gold.Rescore>
     Score         DG    S(hbond)    S(metal)    S(lipo)     H(rot)  DE(clash)    DE(int)     intcor
     11.30     -11.55       0.98        0.00      45.72       1.00       0.06       0.19       ----

> <Gold.Chemscore.Fitness>
11.2968

> <Gold.Chemscore.DG>
-11.5451

> <Gold.Chemscore.ZeroCoef>
-5.4800

> <Gold.Chemscore.Hbond>
0.9807

> <Gold.Chemscore.Metal>
0.0000

> <Gold.Chemscore.Lipo>
45.7229

> <Gold.Chemscore.Internal_Hbond>
0.0000

> <Gold.Chemscore.DEClash>
0.0621

> <Gold.Chemscore.DEInternal>
0.1861

> <Gold.Chemscore.Rot>
1.0000

> <Gold.Chemscore.Internal.Correction>
   9.000000E+99

> <Gold.Chemscore.Hbonds>
donor molecule, donor type, donor heavy atom, donor atom, acceptor molecule, acceptor atom, score
      L1  H    13    25       P1 10175  0.88

> <Gold.Chemscore.Hbond.Weighted>
-3.2755

> <Gold.Chemscore.Metal.Weighted>
-0.0000

> <Gold.Chemscore.Lipo.Weighted>
-5.3496

> <Gold.Chemscore.Internal_Hbond.Weighted>
0.0000

> <Gold.Chemscore.DEClash.Weighted>
0.0621

> <Gold.Chemscore.DEInternal.Weighted>
0.1861

> <Gold.Chemscore.Rot.Weighted>
2.5600

> <Gold.Chemscore.Internal.Correction.Weighted>
   9.000000E+99

> <Gold.Protein.RotatedTorsions>
[ 6907 6896 6895 6894 ] final    1.77 input  -60.11 | X-H torsion
[ 7974 7965 7964 7962 ] final  -16.45 input  175.53 | X-H torsion
[ 8008 7997 7996 7995 ] final  -84.78 input   59.86 | X-H torsion
[ 10167 10162 10161 10158 ] final   69.14 input  -65.29 | X-H torsion
[ 10718 10713 10712 10709 ] final   86.27 input   66.30 | X-H torsion
[ 10763 10752 10751 10750 ] final   58.73 input  -60.55 | X-H torsion
[ 11005 11000 10999 10996 ] final   -3.19 input  -57.11 | X-H torsion

> <Gold.Protein.ActiveResidues>
 VAL166  LYS551  ARG553  GLY616  TRP617  ASP618  TYR619  PRO620  LYS621  CYS622 
 ASP623  PHE694  ASN695  SER759  ASP760  ASP761  ALA762  ILE779  LEU786  VAL792 
 PHE793  MET794  SER795  GLU796  ALA797  LYS798  CYS799  TRP800  GLU811  SER814 

> <Gold.Protein.RotatedAtoms>
  151.5981  135.1049  160.0053 H   0  0  0  0  0  0  0  0  0  0  0  0  # atno 6907 bound_to 6896
  152.4272  133.7211  159.6544 H   0  0  0  0  0  0  0  0  0  0  0  0  # atno 6908 bound_to 6896
  150.8162  133.8262  159.3182 H   0  0  0  0  0  0  0  0  0  0  0  0  # atno 6909 bound_to 6896
  146.1987  140.3638  142.8431 H   0  0  0  0  0  0  0  0  0  0  0  0  # atno 7974 bound_to 7965
  154.6335  140.0600  156.9761 H   0  0  0  0  0  0  0  0  0  0  0  0  # atno 8008 bound_to 7997
  155.1627  140.3284  155.4389 H   0  0  0  0  0  0  0  0  0  0  0  0  # atno 8009 bound_to 7997
  156.2495  140.1928  156.6734 H   0  0  0  0  0  0  0  0  0  0  0  0  # atno 8010 bound_to 7997
  140.0710  144.5152  150.7227 H   0  0  0  0  0  0  0  0  0  0  0  0  # atno 10167 bound_to 10162
  157.6926  131.0208  150.2947 H   0  0  0  0  0  0  0  0  0  0  0  0  # atno 10718 bound_to 10713
  152.9877  135.5596  154.5599 H   0  0  0  0  0  0  0  0  0  0  0  0  # atno 10763 bound_to 10752
  154.5020  135.2798  155.1415 H   0  0  0  0  0  0  0  0  0  0  0  0  # atno 10764 bound_to 10752
  154.2842  135.6339  153.5412 H   0  0  0  0  0  0  0  0  0  0  0  0  # atno 10765 bound_to 10752
  140.6666  133.9273  155.8469 H   0  0  0  0  0  0  0  0  0  0  0  0  # atno 11005 bound_to 11000
  144.8635  140.7173  143.6092 LP  0  0  0  0  0  0  0  0  0  0  0  0  # atno 17320 bound_to 7965
  145.3558  139.1694  143.4410 LP  0  0  0  0  0  0  0  0  0  0  0  0  # atno 17321 bound_to 7965
  140.7125  143.2517  151.4536 LP  0  0  0  0  0  0  0  0  0  0  0  0  # atno 17342 bound_to 10162
  139.5836  144.1655  152.2000 LP  0  0  0  0  0  0  0  0  0  0  0  0  # atno 17343 bound_to 10162
  156.3472  130.3825  149.7359 LP  0  0  0  0  0  0  0  0  0  0  0  0  # atno 17370 bound_to 10713
  156.4848  130.8058  151.3070 LP  0  0  0  0  0  0  0  0  0  0  0  0  # atno 17371 bound_to 10713
  141.0424  134.0602  157.3885 LP  0  0  0  0  0  0  0  0  0  0  0  0  # atno 17394 bound_to 11000
  139.8995  135.0159  156.7199 LP  0  0  0  0  0  0  0  0  0  0  0  0  # atno 17395 bound_to 11000

$$$$
