AV-unprocessed.smi:3331|AV-procd|sdf|12825|dock3
  -GOLD-   2272019203D 1   1.00000     0.00000
 Structure written by MMmdl.
 46 47  0  0  0  0  0  0  0  0  1 V2000
  149.5774  137.7422  156.2450 C   0  0  0  0  0  0  0  0  0  0  0  0
  150.0378  138.4342  154.9498 C   0  0  1  0  0  0  0  0  0  0  0  0
  148.8823  139.1750  154.2405 C   0  0  0  0  0  0  0  0  0  0  0  0
  148.5247  140.5177  154.9165 C   0  0  2  0  0  0  0  0  0  0  0  0
  147.4687  141.2869  154.1106 C   0  0  0  0  0  0  0  0  0  0  0  0
  149.7979  141.3613  155.1347 C   0  0  0  0  0  0  0  0  0  0  0  0
  150.7663  140.5840  155.9209 N   0  0  0  0  0  0  0  0  0  0  0  0
  151.1098  140.9180  157.1920 C   0  0  0  0  0  0  0  0  0  0  0  0
  151.8891  140.2304  157.8547 O   0  0  0  0  0  0  0  0  0  0  0  0
  150.5087  142.1821  157.8434 C   0  0  2  0  0  0  0  0  0  0  0  0
  148.9712  142.0926  157.9597 C   0  0  0  0  0  0  0  0  0  0  0  0
  150.9133  143.3762  157.0834 N   0  0  0  0  0  0  0  0  0  0  0  0
  150.9781  144.5776  157.9036 C   0  0  0  0  0  0  0  0  0  0  0  0
  152.1573  144.4616  158.8801 C   0  0  0  0  0  0  0  0  0  0  0  0
  151.7080  144.1663  160.2269 N   0  0  0  0  0  0  0  0  0  0  0  0
  150.7686  144.8350  160.9830 C   0  0  0  0  0  0  0  0  0  0  0  0
  150.6770  144.1876  162.1820 C   0  0  0  0  0  0  0  0  0  0  0  0
  151.6122  143.1215  162.0630 C   0  0  0  0  0  0  0  0  0  0  0  0
  152.2288  143.1122  160.8921 N   0  0  0  0  0  0  0  0  0  0  0  0
  151.2222  139.3982  155.1788 C   0  0  0  0  0  0  0  0  0  0  0  0
  149.2041  138.4558  156.9796 H   0  0  0  0  0  0  0  0  0  0  0  0
  150.3983  137.1921  156.7058 H   0  0  0  0  0  0  0  0  0  0  0  0
  148.7787  137.0279  156.0438 H   0  0  0  0  0  0  0  0  0  0  0  0
  150.3805  137.6442  154.2808 H   0  0  0  0  0  0  0  0  0  0  0  0
  149.1812  139.3719  153.2100 H   0  0  0  0  0  0  0  0  0  0  0  0
  148.0021  138.5338  154.1797 H   0  0  0  0  0  0  0  0  0  0  0  0
  148.0928  140.3032  155.8950 H   0  0  0  0  0  0  0  0  0  0  0  0
  147.8368  141.5429  153.1165 H   0  0  0  0  0  0  0  0  0  0  0  0
  147.1910  142.2144  154.6120 H   0  0  0  0  0  0  0  0  0  0  0  0
  146.5616  140.6946  153.9881 H   0  0  0  0  0  0  0  0  0  0  0  0
  150.2448  141.6266  154.1754 H   0  0  0  0  0  0  0  0  0  0  0  0
  149.5360  142.3095  155.6058 H   0  0  0  0  0  0  0  0  0  0  0  0
  150.8985  142.2407  158.8598 H   0  0  0  0  0  0  0  0  0  0  0  0
  148.6646  141.1641  158.4434 H   0  0  0  0  0  0  0  0  0  0  0  0
  148.4898  142.1327  156.9816 H   0  0  0  0  0  0  0  0  0  0  0  0
  148.5645  142.9053  158.5610 H   0  0  0  0  0  0  0  0  0  0  0  0
  150.3131  143.5322  156.2862 H   0  0  0  0  0  0  0  0  0  0  0  0
  151.1059  145.4597  157.2763 H   0  0  0  0  0  0  0  0  0  0  0  0
  150.0461  144.6989  158.4581 H   0  0  0  0  0  0  0  0  0  0  0  0
  152.8446  143.6758  158.5620 H   0  0  0  0  0  0  0  0  0  0  0  0
  152.7277  145.3913  158.9026 H   0  0  0  0  0  0  0  0  0  0  0  0
  150.2483  145.7045  160.6086 H   0  0  0  0  0  0  0  0  0  0  0  0
  150.0387  144.4366  163.0168 H   0  0  0  0  0  0  0  0  0  0  0  0
  151.8594  142.3594  162.7873 H   0  0  0  0  0  0  0  0  0  0  0  0
  152.0477  138.8678  155.6485 H   0  0  0  0  0  0  0  0  0  0  0  0
  151.6167  139.7245  154.2153 H   0  0  0  0  0  0  0  0  0  0  0  0
  1  2  1  0  0  0  0
  1 21  1  0  0  0  0
  1 22  1  0  0  0  0
  1 23  1  0  0  0  0
  2 20  1  0  0  0  0
  2  3  1  0  0  0  0
  2 24  1  0  0  0  0
  3  4  1  0  0  0  0
  3 25  1  0  0  0  0
  3 26  1  0  0  0  0
  4  5  1  0  0  0  0
  4  6  1  0  0  0  0
  4 27  1  0  0  0  0
  5 28  1  0  0  0  0
  5 29  1  0  0  0  0
  5 30  1  0  0  0  0
  6  7  1  0  0  0  0
  6 31  1  0  0  0  0
  6 32  1  0  0  0  0
  7  8  1  0  0  0  0
  7 20  1  0  0  0  0
  8  9  2  0  0  0  0
  8 10  1  0  0  0  0
 10 11  1  0  0  0  0
 10 12  1  0  0  0  0
 10 33  1  0  0  0  0
 11 34  1  0  0  0  0
 11 35  1  0  0  0  0
 11 36  1  0  0  0  0
 12 13  1  0  0  0  0
 12 37  1  0  0  0  0
 13 14  1  0  0  0  0
 13 38  1  0  0  0  0
 13 39  1  0  0  0  0
 14 15  1  0  0  0  0
 14 40  1  0  0  0  0
 14 41  1  0  0  0  0
 15 19  1  0  0  0  0
 15 16  1  0  0  0  0
 16 17  2  0  0  0  0
 16 42  1  0  0  0  0
 17 18  1  0  0  0  0
 17 43  1  0  0  0  0
 18 19  2  0  0  0  0
 18 44  1  0  0  0  0
 20 45  1  0  0  0  0
 20 46  1  0  0  0  0
M  END
> <s_m_source_file>
AV-unprocessed.smi

> <i_m_source_file_index>
3331

> <i_lp_mmshare_version>
43012

> <i_f3d_flags>
0

> <s_epik_input>
W0NIM11bQ0BASF0xW0NIMl1bQ0BASF0oW0NIM10pW0NIMl1OKFtDSDJdMSlDKD1PKVtDQEhdKFtDSDNdKVtOSF1bQ0gyXVtDSDJdbjJbY0hdW2NIXVtjSF1uMg==

> <s_epik_cmdline>
J2VwaWtfcHl0aG9uJywgJy1waCcsICc3LjAnLCAnLXRuJywgJzgnLCAnLW1hJywgJzIwMCcsICctbWV0YWxfYmluZGluZycsICctaW1hZScsICc8aW5maWxlLm1hZT4nLCAnLW9tYWUnLCAnPG91dGZpbGUubWFlPic=

> <r_lp_tautomer_probability>
1

> <r_epik_Ionization_Penalty>
0.767994

> <r_epik_Ionization_Penalty_Charging>
0

> <r_epik_Ionization_Penalty_Neutral>
0.767994

> <r_epik_State_Penalty>
0.795453

> <r_epik_Charging_Adjusted_Penalty>
0.795453

> <i_epik_Tot_Q>
0

> <i_epik_Tot_abs_Q>
0

> <r_epik_Metal_State_Penalty>
0.794784

> <b_epik_Metal_Only>
0

> <s_lp_Force_Field>
OPLS_2005

> <r_lp_Energy>
29.2756

> <b_lp_Chiralities_Consistent>
1

> <s_lp_Variant>
AV-unprocessed.smi:3331-9

> <Gold.Version>
5.8.1

> <Gold.Id.Protein>
6NUR|6NUR_protein|mol2

> <Gold.PLP.Fitness>
50.9026

> <Gold.PLP.PLP>
-46.2362

> <Gold.PLP.part.hbond>
-2.0000

> <Gold.PLP.part.metal>
0.0000

> <Gold.PLP.part.buried>
-0.2231

> <Gold.PLP.part.nonpolar>
-43.5864

> <Gold.PLP.part.repulsive>
0.0000

> <Gold.PLP.ligand.clash>
0.0000

> <Gold.PLP.ligand.torsion>
0.6924

> <Gold.PLP.Chemscore.Hbond>
1.9920

> <Gold.PLP.Chemscore.CHOScore>
0.0000

> <Gold.PLP.Chemscore.Metal>
0.0000

> <Gold.Chemscore.Hbonds>
donor molecule, donor type, donor heavy atom, donor atom, acceptor molecule, acceptor atom, score
      L1  H    12    37       P1  8028  0.82

> <Gold.PLP.Chemscore.Internal.Correction>
0.0752

> <Gold.Rescore>
     Score         DG    S(hbond)    S(metal)    S(lipo)     H(rot)  DE(clash)    DE(int)     intcor
     16.63     -19.29       1.74        0.00     104.90       1.66       0.25       2.40       ----

> <Gold.Chemscore.Fitness>
16.6331

> <Gold.Chemscore.DG>
-19.2860

> <Gold.Chemscore.ZeroCoef>
-5.4800

> <Gold.Chemscore.Hbond>
1.7350

> <Gold.Chemscore.Metal>
0.0000

> <Gold.Chemscore.Lipo>
104.8978

> <Gold.Chemscore.Internal_Hbond>
0.0000

> <Gold.Chemscore.DEClash>
0.2528

> <Gold.Chemscore.DEInternal>
2.4000

> <Gold.Chemscore.Rot>
1.6649

> <Gold.Chemscore.Internal.Correction>
   9.000000E+99

> <Gold.Chemscore.Hbonds>
donor molecule, donor type, donor heavy atom, donor atom, acceptor molecule, acceptor atom, score
      L1  H    12    37       P1  8028  0.81

> <Gold.Chemscore.Hbond.Weighted>
-5.7950

> <Gold.Chemscore.Metal.Weighted>
-0.0000

> <Gold.Chemscore.Lipo.Weighted>
-12.2730

> <Gold.Chemscore.Internal_Hbond.Weighted>
0.0000

> <Gold.Chemscore.DEClash.Weighted>
0.2528

> <Gold.Chemscore.DEInternal.Weighted>
2.4000

> <Gold.Chemscore.Rot.Weighted>
4.2621

> <Gold.Chemscore.Internal.Correction.Weighted>
   9.000000E+99

> <Gold.Protein.RotatedTorsions>
[ 6907 6896 6895 6894 ] final  -48.82 input  -60.11 | X-H torsion
[ 7974 7965 7964 7962 ] final  -47.48 input  175.53 | X-H torsion
[ 8008 7997 7996 7995 ] final -172.20 input   59.86 | X-H torsion
[ 10167 10162 10161 10158 ] final  -98.84 input  -65.29 | X-H torsion
[ 10718 10713 10712 10709 ] final   94.69 input   66.30 | X-H torsion
[ 10763 10752 10751 10750 ] final  133.38 input  -60.55 | X-H torsion
[ 11005 11000 10999 10996 ] final  153.99 input  -57.11 | X-H torsion

> <Gold.Protein.ActiveResidues>
 VAL166  LYS551  ARG553  GLY616  TRP617  ASP618  TYR619  PRO620  LYS621  CYS622 
 ASP623  PHE694  ASN695  SER759  ASP760  ASP761  ALA762  ILE779  LEU786  VAL792 
 PHE793  MET794  SER795  GLU796  ALA797  LYS798  CYS799  TRP800  GLU811  SER814 

> <Gold.Protein.RotatedAtoms>
  150.8867  134.8265  159.7263 H   0  0  0  0  0  0  0  0  0  0  0  0  # atno 6907 bound_to 6896
  152.4812  134.4712  159.9646 H   0  0  0  0  0  0  0  0  0  0  0  0  # atno 6908 bound_to 6896
  151.4779  133.3514  159.2869 H   0  0  0  0  0  0  0  0  0  0  0  0  # atno 6909 bound_to 6896
  145.9611  140.7478  142.9457 H   0  0  0  0  0  0  0  0  0  0  0  0  # atno 7974 bound_to 7965
  155.9415  140.1109  157.1051 H   0  0  0  0  0  0  0  0  0  0  0  0  # atno 8008 bound_to 7997
  154.4090  140.1218  156.5000 H   0  0  0  0  0  0  0  0  0  0  0  0  # atno 8009 bound_to 7997
  155.6956  140.3472  155.4913 H   0  0  0  0  0  0  0  0  0  0  0  0  # atno 8010 bound_to 7997
  140.2687  143.3358  152.0555 H   0  0  0  0  0  0  0  0  0  0  0  0  # atno 10167 bound_to 10162
  157.6946  131.0521  150.4225 H   0  0  0  0  0  0  0  0  0  0  0  0  # atno 10718 bound_to 10713
  153.8062  135.3135  155.3396 H   0  0  0  0  0  0  0  0  0  0  0  0  # atno 10763 bound_to 10752
  154.8069  135.4692  154.0419 H   0  0  0  0  0  0  0  0  0  0  0  0  # atno 10764 bound_to 10752
  153.1783  135.6889  153.8601 H   0  0  0  0  0  0  0  0  0  0  0  0  # atno 10765 bound_to 10752
  140.1448  134.8714  157.2379 H   0  0  0  0  0  0  0  0  0  0  0  0  # atno 11005 bound_to 11000
  144.6815  140.2593  143.7321 LP  0  0  0  0  0  0  0  0  0  0  0  0  # atno 17320 bound_to 7965
  145.8038  139.1975  143.2033 LP  0  0  0  0  0  0  0  0  0  0  0  0  # atno 17321 bound_to 7965
  139.4995  144.6670  151.6332 LP  0  0  0  0  0  0  0  0  0  0  0  0  # atno 17342 bound_to 10162
  140.5907  143.9785  150.6323 LP  0  0  0  0  0  0  0  0  0  0  0  0  # atno 17343 bound_to 10162
  156.4599  130.4029  149.6583 LP  0  0  0  0  0  0  0  0  0  0  0  0  # atno 17370 bound_to 10713
  156.3701  130.7526  151.2508 LP  0  0  0  0  0  0  0  0  0  0  0  0  # atno 17371 bound_to 10713
  140.2677  134.3497  155.7384 LP  0  0  0  0  0  0  0  0  0  0  0  0  # atno 17394 bound_to 11000
  141.2191  133.7405  156.9175 LP  0  0  0  0  0  0  0  0  0  0  0  0  # atno 17395 bound_to 11000

$$$$
