AV-unprocessed.smi:99|AV-procd|sdf|872|dock8
  -GOLD-   2262017333D 1   1.00000     0.00000
 Structure written by MMmdl.
 53 56  0  0  0  0  0  0  0  0  1 V2000
  147.4775  130.8955  153.2933 O   0  0  0  0  0  0  0  0  0  0  0  0
  146.9655  132.0114  153.1825 C   0  0  0  0  0  0  0  0  0  0  0  0
  147.3043  133.0664  153.9491 O   0  0  0  0  0  0  0  0  0  0  0  0
  148.3063  132.9277  154.9424 C   0  0  0  0  0  0  0  0  0  0  0  0
  149.5885  133.6433  154.4733 C   0  0  1  0  0  0  0  0  0  0  0  0
  149.4042  135.0438  154.6334 O   0  0  0  0  0  0  0  0  0  0  0  0
  149.7877  135.4284  155.9181 C   0  0  2  0  0  0  0  0  0  0  0  0
  150.4847  136.7683  155.8099 N   0  0  0  0  0  0  0  0  0  0  0  0
  150.8406  137.2767  154.5682 C   0  0  0  0  0  0  0  0  0  0  0  0
  151.4554  138.4721  154.4070 C   0  0  0  0  0  0  0  0  0  0  0  0
  151.7780  139.2998  155.5648 C   0  0  0  0  0  0  0  0  0  0  0  0
  152.3301  140.3970  155.5202 O   0  0  0  0  0  0  0  0  0  0  0  0
  151.4062  138.7479  156.7945 N   0  0  0  0  0  0  0  0  0  0  0  0
  150.7747  137.5154  156.9734 C   0  0  0  0  0  0  0  0  0  0  0  0
  150.5053  137.1242  158.1084 O   0  0  0  0  0  0  0  0  0  0  0  0
  150.6851  134.3148  156.5057 C   0  0  2  0  0  0  0  0  0  0  0  0
  151.9539  134.7542  156.9572 O   0  0  0  0  0  0  0  0  0  0  0  0
  150.8305  133.3561  155.3282 C   0  0  1  0  0  0  0  0  0  0  0  0
  150.8530  131.9959  155.7473 O   0  0  0  0  0  0  0  0  0  0  0  0
  151.7523  131.5615  156.6550 C   0  0  0  0  0  0  0  0  0  0  0  0
  152.2202  132.2707  157.5477 O   0  0  0  0  0  0  0  0  0  0  0  0
  152.1152  130.1274  156.4680 C   0  0  0  0  0  0  0  0  0  0  0  0
  151.9065  129.5185  155.2086 C   0  0  0  0  0  0  0  0  0  0  0  0
  152.2409  128.1662  155.0013 C   0  0  0  0  0  0  0  0  0  0  0  0
  152.7874  127.4060  156.0512 C   0  0  0  0  0  0  0  0  0  0  0  0
  152.9990  127.9995  157.3092 C   0  0  0  0  0  0  0  0  0  0  0  0
  152.6659  129.3521  157.5184 C   0  0  0  0  0  0  0  0  0  0  0  0
  145.9050  132.3353  152.1851 C   0  0  0  0  0  0  0  0  0  0  0  0
  145.6926  133.6832  151.8121 C   0  0  0  0  0  0  0  0  0  0  0  0
  144.6996  134.0191  150.8713 C   0  0  0  0  0  0  0  0  0  0  0  0
  143.9063  133.0116  150.2924 C   0  0  0  0  0  0  0  0  0  0  0  0
  144.1074  131.6670  150.6553 C   0  0  0  0  0  0  0  0  0  0  0  0
  145.1005  131.3289  151.5953 C   0  0  0  0  0  0  0  0  0  0  0  0
  151.6156  139.2849  157.6235 H   0  0  0  0  0  0  0  0  0  0  0  0
  147.9574  133.3291  155.8948 H   0  0  0  0  0  0  0  0  0  0  0  0
  148.4998  131.8640  155.0867 H   0  0  0  0  0  0  0  0  0  0  0  0
  149.7817  133.4011  153.4276 H   0  0  0  0  0  0  0  0  0  0  0  0
  148.8780  135.5749  156.5019 H   0  0  0  0  0  0  0  0  0  0  0  0
  150.6264  136.6937  153.6838 H   0  0  0  0  0  0  0  0  0  0  0  0
  151.7113  138.8175  153.4159 H   0  0  0  0  0  0  0  0  0  0  0  0
  150.1435  133.8435  157.3272 H   0  0  0  0  0  0  0  0  0  0  0  0
  152.4197  134.0134  157.3144 H   0  0  0  0  0  0  0  0  0  0  0  0
  151.7136  133.6124  154.7399 H   0  0  0  0  0  0  0  0  0  0  0  0
  151.4883  130.0820  154.3869 H   0  0  0  0  0  0  0  0  0  0  0  0
  152.0773  127.7123  154.0350 H   0  0  0  0  0  0  0  0  0  0  0  0
  153.0439  126.3689  155.8920 H   0  0  0  0  0  0  0  0  0  0  0  0
  153.4182  127.4163  158.1158 H   0  0  0  0  0  0  0  0  0  0  0  0
  152.8414  129.7761  158.4963 H   0  0  0  0  0  0  0  0  0  0  0  0
  146.2895  134.4742  152.2426 H   0  0  0  0  0  0  0  0  0  0  0  0
  144.5475  135.0516  150.5931 H   0  0  0  0  0  0  0  0  0  0  0  0
  143.1452  133.2695  149.5708 H   0  0  0  0  0  0  0  0  0  0  0  0
  143.4993  130.8925  150.2113 H   0  0  0  0  0  0  0  0  0  0  0  0
  145.2293  130.2871  151.8503 H   0  0  0  0  0  0  0  0  0  0  0  0
  1  2  2  0  0  0  0
  2  3  1  0  0  0  0
  2 28  1  0  0  0  0
  3  4  1  0  0  0  0
  4  5  1  0  0  0  0
  4 35  1  0  0  0  0
  4 36  1  0  0  0  0
  5 18  1  0  0  0  0
  5  6  1  0  0  0  0
  5 37  1  0  0  0  0
  6  7  1  0  0  0  0
  7  8  1  0  0  0  0
  7 16  1  0  0  0  0
  7 38  1  0  0  0  0
  8 14  1  0  0  0  0
  8  9  1  0  0  0  0
  9 10  2  0  0  0  0
  9 39  1  0  0  0  0
 10 11  1  0  0  0  0
 10 40  1  0  0  0  0
 11 12  2  0  0  0  0
 11 13  1  0  0  0  0
 13 34  1  0  0  0  0
 13 14  1  0  0  0  0
 14 15  2  0  0  0  0
 16 17  1  0  0  0  0
 16 18  1  0  0  0  0
 16 41  1  0  0  0  0
 17 42  1  0  0  0  0
 18 19  1  0  0  0  0
 18 43  1  0  0  0  0
 19 20  1  0  0  0  0
 20 21  2  0  0  0  0
 20 22  1  0  0  0  0
 22 27  1  0  0  0  0
 22 23  2  0  0  0  0
 23 24  1  0  0  0  0
 23 44  1  0  0  0  0
 24 25  2  0  0  0  0
 24 45  1  0  0  0  0
 25 26  1  0  0  0  0
 25 46  1  0  0  0  0
 26 27  2  0  0  0  0
 26 47  1  0  0  0  0
 27 48  1  0  0  0  0
 28 33  1  0  0  0  0
 28 29  2  0  0  0  0
 29 30  1  0  0  0  0
 29 49  1  0  0  0  0
 30 31  2  0  0  0  0
 30 50  1  0  0  0  0
 31 32  1  0  0  0  0
 31 51  1  0  0  0  0
 32 33  2  0  0  0  0
 32 52  1  0  0  0  0
 33 53  1  0  0  0  0
M  END
> <s_m_source_file>
AV-unprocessed.smi

> <i_m_source_file_index>
99

> <i_lp_mmshare_version>
43012

> <i_f3d_flags>
0

> <s_epik_input>
W2NIXTFbY0hdW2NIXVtjSF1bY0hdYzFDKD1PKU9bQ0gyXVtDQEBIXTJPW0NAQEhdKG4zW2NIXVtjSF1jKD1PKVtuSF1jMz1PKVtDQEBIXShbT0hdKVtDQEhdMk9DKD1PKWM0W2NIXVtjSF1bY0hdW2NIXVtjSF00

> <s_epik_cmdline>
J2VwaWtfcHl0aG9uJywgJy1waCcsICc3LjAnLCAnLXRuJywgJzgnLCAnLW1hJywgJzIwMCcsICctbWV0YWxfYmluZGluZycsICctaW1hZScsICc8aW5maWxlLm1hZT4nLCAnLW9tYWUnLCAnPG91dGZpbGUubWFlPic=

> <r_lp_tautomer_probability>
1

> <r_epik_Ionization_Penalty>
0.00454555

> <r_epik_Ionization_Penalty_Charging>
0.0045191

> <r_epik_Ionization_Penalty_Neutral>
2.64449e-05

> <r_epik_State_Penalty>
-0

> <r_epik_Charging_Adjusted_Penalty>
0.0045191

> <i_epik_Tot_Q>
0

> <i_epik_Tot_abs_Q>
0

> <r_epik_Metal_State_Penalty>
1.27877

> <b_epik_Metal_Only>
0

> <s_epik_Chemistry_Notes>
This compound has an ester and may undergo hydrolysis at high or low pH. This compound contains an acetal/aminal-like group ( X-CH(R)-Y where X, Y are N, S, or O) that may be acid/base labile, releasing an aldehyde.

> <s_lp_Force_Field>
OPLS_2005

> <r_lp_Energy>
42.9918

> <b_lp_Chiralities_Consistent>
1

> <s_lp_Variant>
AV-unprocessed.smi:99-8

> <Gold.Version>
5.8.1

> <Gold.Id.Protein>
6NUR|6NUR_protein|mol2

> <Gold.PLP.Fitness>
50.1024

> <Gold.PLP.PLP>
-41.6795

> <Gold.PLP.part.hbond>
-4.4265

> <Gold.PLP.part.metal>
0.0000

> <Gold.PLP.part.buried>
-5.3227

> <Gold.PLP.part.nonpolar>
-32.1888

> <Gold.PLP.part.repulsive>
1.4592

> <Gold.PLP.ligand.clash>
0.0000

> <Gold.PLP.ligand.torsion>
1.4452

> <Gold.PLP.Chemscore.Hbond>
2.5773

> <Gold.PLP.Chemscore.CHOScore>
1.0306

> <Gold.PLP.Chemscore.Metal>
0.0000

> <Gold.Chemscore.Hbonds>
donor molecule, donor type, donor heavy atom, donor atom, acceptor molecule, acceptor atom, score
      P1  H  6896  6908       L1    21  0.84
      P1  H  7989  7998       L1    12  0.30
      P1  H  7997  8009       L1    12  0.75
      P1  H 10752 10764       L1    17  0.34
      L1  C     9    39       P1  7948  0.37
      L1  C     9    39       P1  7949  0.59

> <Gold.PLP.Chemscore.Internal.Correction>
0.4895

> <Gold.Rescore>
     Score         DG    S(hbond)    S(metal)    S(lipo)     H(rot)  DE(clash)    DE(int)     intcor
      9.16     -14.73       1.92        0.00      93.98       3.19       0.07       5.51       ----

> <Gold.Chemscore.Fitness>
9.1590

> <Gold.Chemscore.DG>
-14.7309

> <Gold.Chemscore.ZeroCoef>
-5.4800

> <Gold.Chemscore.Hbond>
1.9230

> <Gold.Chemscore.Metal>
0.0000

> <Gold.Chemscore.Lipo>
93.9766

> <Gold.Chemscore.Internal_Hbond>
0.0000

> <Gold.Chemscore.DEClash>
0.0650

> <Gold.Chemscore.DEInternal>
5.5069

> <Gold.Chemscore.Rot>
3.1903

> <Gold.Chemscore.Internal.Correction>
   9.000000E+99

> <Gold.Chemscore.Hbonds>
donor molecule, donor type, donor heavy atom, donor atom, acceptor molecule, acceptor atom, score
      P1  H  6896  6908       L1    21  0.81
      P1  H  7989  7998       L1    12  0.04
      P1  H  7997  8009       L1    12  0.51
      P1  H 10752 10764       L1    17  0.09

> <Gold.Chemscore.Hbond.Weighted>
-6.4228

> <Gold.Chemscore.Metal.Weighted>
-0.0000

> <Gold.Chemscore.Lipo.Weighted>
-10.9953

> <Gold.Chemscore.Internal_Hbond.Weighted>
0.0000

> <Gold.Chemscore.DEClash.Weighted>
0.0650

> <Gold.Chemscore.DEInternal.Weighted>
5.5069

> <Gold.Chemscore.Rot.Weighted>
8.1671

> <Gold.Chemscore.Internal.Correction.Weighted>
   9.000000E+99

> <Gold.Protein.RotatedTorsions>
[ 6907 6896 6895 6894 ] final   42.95 input  -60.11 | X-H torsion
[ 7974 7965 7964 7962 ] final  -71.89 input  175.53 | X-H torsion
[ 8008 7997 7996 7995 ] final -153.49 input   59.86 | X-H torsion
[ 10167 10162 10161 10158 ] final  156.38 input  -65.29 | X-H torsion
[ 10718 10713 10712 10709 ] final  158.55 input   66.30 | X-H torsion
[ 10763 10752 10751 10750 ] final  -15.50 input  -60.55 | X-H torsion
[ 11005 11000 10999 10996 ] final   25.49 input  -57.11 | X-H torsion

> <Gold.Protein.ActiveResidues>
 VAL166  LYS551  ARG553  GLY616  TRP617  ASP618  TYR619  PRO620  LYS621  CYS622 
 ASP623  PHE694  ASN695  SER759  ASP760  ASP761  ALA762  ILE779  LEU786  VAL792 
 PHE793  MET794  SER795  GLU796  ALA797  LYS798  CYS799  TRP800  GLU811  SER814 

> <Gold.Protein.RotatedAtoms>
  152.2142  134.8473  160.0493 H   0  0  0  0  0  0  0  0  0  0  0  0  # atno 6907 bound_to 6896
  151.9280  133.3598  159.3929 H   0  0  0  0  0  0  0  0  0  0  0  0  # atno 6908 bound_to 6896
  150.6983  134.4491  159.5372 H   0  0  0  0  0  0  0  0  0  0  0  0  # atno 6909 bound_to 6896
  145.6722  140.9217  143.0877 H   0  0  0  0  0  0  0  0  0  0  0  0  # atno 7974 bound_to 7965
  155.6717  140.0734  157.2517 H   0  0  0  0  0  0  0  0  0  0  0  0  # atno 8008 bound_to 7997
  154.4122  140.1698  156.1937 H   0  0  0  0  0  0  0  0  0  0  0  0  # atno 8009 bound_to 7997
  155.9611  140.3370  155.6494 H   0  0  0  0  0  0  0  0  0  0  0  0  # atno 8010 bound_to 7997
  139.4821  144.5014  151.8163 H   0  0  0  0  0  0  0  0  0  0  0  0  # atno 10167 bound_to 10162
  157.1764  131.0622  151.2155 H   0  0  0  0  0  0  0  0  0  0  0  0  # atno 10718 bound_to 10713
  153.5443  135.7013  153.5622 H   0  0  0  0  0  0  0  0  0  0  0  0  # atno 10763 bound_to 10752
  153.3574  135.3979  155.1692 H   0  0  0  0  0  0  0  0  0  0  0  0  # atno 10764 bound_to 10752
  154.8669  135.3780  154.4949 H   0  0  0  0  0  0  0  0  0  0  0  0  # atno 10765 bound_to 10752
  140.3473  134.2267  155.7683 H   0  0  0  0  0  0  0  0  0  0  0  0  # atno 11005 bound_to 11000
  144.7053  139.8587  143.7432 LP  0  0  0  0  0  0  0  0  0  0  0  0  # atno 17320 bound_to 7965
  146.1036  139.4033  143.0331 LP  0  0  0  0  0  0  0  0  0  0  0  0  # atno 17321 bound_to 7965
  140.4507  144.1858  150.5897 LP  0  0  0  0  0  0  0  0  0  0  0  0  # atno 17342 bound_to 10162
  140.4587  143.2457  151.9249 LP  0  0  0  0  0  0  0  0  0  0  0  0  # atno 17343 bound_to 10162
  157.3995  130.7325  149.6756 LP  0  0  0  0  0  0  0  0  0  0  0  0  # atno 17370 bound_to 10713
  155.9731  130.4124  150.4033 LP  0  0  0  0  0  0  0  0  0  0  0  0  # atno 17371 bound_to 10713
  141.2022  133.7944  157.0403 LP  0  0  0  0  0  0  0  0  0  0  0  0  # atno 17394 bound_to 11000
  140.0732  134.9691  157.1501 LP  0  0  0  0  0  0  0  0  0  0  0  0  # atno 17395 bound_to 11000

$$$$
