AV-unprocessed.smi:1740|AV-procd|sdf|7007|dock3
  -GOLD-   22720 8223D 1   1.00000     0.00000
 Structure written by MMmdl.
 52 54  0  0  0  0  0  0  0  0  2 V2000
  158.2227  138.3828  166.1087 N   0  0  0  0  0  0  0  0  0  0  0  0
  156.9020  138.5675  166.0533 C   0  0  0  0  0  0  0  0  0  0  0  0
  156.3374  139.4574  166.6868 O   0  0  0  0  0  0  0  0  0  0  0  0
  156.1085  137.6273  165.1402 C   0  0  0  0  0  0  0  0  0  0  0  0
  155.5356  138.3199  163.9576 N   0  3  2  0  0  0  0  0  0  0  0  0
  154.8185  137.4014  163.0333 C   0  0  0  0  0  0  0  0  0  0  0  0
  154.1182  138.1838  161.9105 C   0  0  0  0  0  0  0  0  0  0  0  0
  155.1171  139.0565  161.1335 C   0  0  1  0  0  0  0  0  0  0  0  0
  154.4046  139.8529  160.1398 N   0  0  0  0  0  0  0  0  0  0  0  0
  153.6954  140.9605  160.3992 C   0  0  0  0  0  0  0  0  0  0  0  0
  153.5643  141.4350  161.5273 O   0  0  0  0  0  0  0  0  0  0  0  0
  153.1743  141.4731  159.2724 N   0  0  0  0  0  0  0  0  0  0  0  0
  152.4106  142.6636  159.1084 C   0  0  0  0  0  0  0  0  0  0  0  0
  152.5545  143.7711  159.9800 C   0  0  0  0  0  0  0  0  0  0  0  0
  151.7242  144.8929  159.8126 C   0  0  0  0  0  0  0  0  0  0  0  0
  150.7648  144.8629  158.7871 C   0  0  0  0  0  0  0  0  0  0  0  0
  150.6062  143.8125  157.9575 N   0  0  0  0  0  0  0  0  0  0  0  0
  151.4094  142.7292  158.0972 C   0  0  0  0  0  0  0  0  0  0  0  0
  151.2119  141.6644  157.1885 N   0  0  0  0  0  0  0  0  0  0  0  0
  150.4179  141.9318  155.9927 C   0  0  0  0  0  0  0  0  0  0  0  0
  149.6047  140.6622  155.7189 C   0  0  0  0  0  0  0  0  0  0  0  0
  150.3752  139.5728  156.4584 C   0  0  0  0  0  0  0  0  0  0  0  0
  150.9114  140.3219  157.6748 C   0  0  0  0  0  0  0  0  0  0  0  0
  155.8837  139.9627  162.1148 C   0  0  0  0  0  0  0  0  0  0  0  0
  156.5409  139.1415  163.2367 C   0  0  0  0  0  0  0  0  0  0  0  0
  158.7865  138.9811  166.6958 H   0  0  0  0  0  0  0  0  0  0  0  0
  158.6586  137.6512  165.5657 H   0  0  0  0  0  0  0  0  0  0  0  0
  156.8040  136.8540  164.8115 H   0  0  0  0  0  0  0  0  0  0  0  0
  155.3182  137.1223  165.6984 H   0  0  0  0  0  0  0  0  0  0  0  0
  155.5243  136.6858  162.6082 H   0  0  0  0  0  0  0  0  0  0  0  0
  154.0743  136.8217  163.5800 H   0  0  0  0  0  0  0  0  0  0  0  0
  153.6213  137.4890  161.2322 H   0  0  0  0  0  0  0  0  0  0  0  0
  153.3345  138.8087  162.3418 H   0  0  0  0  0  0  0  0  0  0  0  0
  155.8251  138.3987  160.6252 H   0  0  0  0  0  0  0  0  0  0  0  0
  154.4604  139.5417  159.1809 H   0  0  0  0  0  0  0  0  0  0  0  0
  153.4406  141.0154  158.4130 H   0  0  0  0  0  0  0  0  0  0  0  0
  153.2692  143.7718  160.7882 H   0  0  0  0  0  0  0  0  0  0  0  0
  151.8123  145.7498  160.4636 H   0  0  0  0  0  0  0  0  0  0  0  0
  150.1026  145.7018  158.6318 H   0  0  0  0  0  0  0  0  0  0  0  0
  149.7699  142.8010  156.1146 H   0  0  0  0  0  0  0  0  0  0  0  0
  151.0929  142.1270  155.1593 H   0  0  0  0  0  0  0  0  0  0  0  0
  148.6090  140.7640  156.1530 H   0  0  0  0  0  0  0  0  0  0  0  0
  149.4877  140.4554  154.6549 H   0  0  0  0  0  0  0  0  0  0  0  0
  149.7562  138.7159  156.7253 H   0  0  0  0  0  0  0  0  0  0  0  0
  151.2026  139.2176  155.8424 H   0  0  0  0  0  0  0  0  0  0  0  0
  151.7984  139.8414  158.0884 H   0  0  0  0  0  0  0  0  0  0  0  0
  150.1436  140.3508  158.4488 H   0  0  0  0  0  0  0  0  0  0  0  0
  156.6470  140.5336  161.5845 H   0  0  0  0  0  0  0  0  0  0  0  0
  155.2020  140.6931  162.5537 H   0  0  0  0  0  0  0  0  0  0  0  0
  157.0312  139.8211  163.9349 H   0  0  0  0  0  0  0  0  0  0  0  0
  157.3168  138.4934  162.8260 H   0  0  0  0  0  0  0  0  0  0  0  0
  154.8493  138.9663  164.3213 H   0  0  0  0  0  0  0  0  0  0  0  0
  1  2  1  0  0  0  0
  1 26  1  0  0  0  0
  1 27  1  0  0  0  0
  2  3  2  0  0  0  0
  2  4  1  0  0  0  0
  4  5  1  0  0  0  0
  4 28  1  0  0  0  0
  4 29  1  0  0  0  0
  5 25  1  0  0  0  0
  5  6  1  0  0  0  0
  5 52  1  0  0  0  0
  6  7  1  0  0  0  0
  6 30  1  0  0  0  0
  6 31  1  0  0  0  0
  7  8  1  0  0  0  0
  7 32  1  0  0  0  0
  7 33  1  0  0  0  0
  8  9  1  0  0  0  0
  8 24  1  0  0  0  0
  8 34  1  0  0  0  0
  9 10  1  0  0  0  0
  9 35  1  0  0  0  0
 10 11  2  0  0  0  0
 10 12  1  0  0  0  0
 12 13  1  0  0  0  0
 12 36  1  0  0  0  0
 13 18  1  0  0  0  0
 13 14  2  0  0  0  0
 14 15  1  0  0  0  0
 14 37  1  0  0  0  0
 15 16  2  0  0  0  0
 15 38  1  0  0  0  0
 16 17  1  0  0  0  0
 16 39  1  0  0  0  0
 17 18  2  0  0  0  0
 18 19  1  0  0  0  0
 19 23  1  0  0  0  0
 19 20  1  0  0  0  0
 20 21  1  0  0  0  0
 20 40  1  0  0  0  0
 20 41  1  0  0  0  0
 21 22  1  0  0  0  0
 21 42  1  0  0  0  0
 21 43  1  0  0  0  0
 22 23  1  0  0  0  0
 22 44  1  0  0  0  0
 22 45  1  0  0  0  0
 23 46  1  0  0  0  0
 23 47  1  0  0  0  0
 24 25  1  0  0  0  0
 24 48  1  0  0  0  0
 24 49  1  0  0  0  0
 25 50  1  0  0  0  0
 25 51  1  0  0  0  0
M  CHG  1   5   1
M  END
> <s_m_source_file>
AV-unprocessed.smi

> <i_m_source_file_index>
1740

> <i_lp_mmshare_version>
43012

> <i_f3d_flags>
0

> <s_epik_input>
W05IMl1DKD1PKVtDSDJdTjFbQ0gyXVtDSDJdW0NIXShbQ0gyXVtDSDJdMSlbTkhdQyg9TylbTkhdYzJbY0hdW2NIXVtjSF1uYzJOM1tDSDJdW0NIMl1bQ0gyXVtDSDJdMw==

> <s_epik_cmdline>
J2VwaWtfcHl0aG9uJywgJy1waCcsICc3LjAnLCAnLXRuJywgJzgnLCAnLW1hJywgJzIwMCcsICctbWV0YWxfYmluZGluZycsICctaW1hZScsICc8aW5maWxlLm1hZT4nLCAnLW9tYWUnLCAnPG91dGZpbGUubWFlPic=

> <r_lp_tautomer_probability>
1

> <r_epik_Ionization_Penalty>
0.91661

> <r_epik_Ionization_Penalty_Charging>
0.838844

> <r_epik_Ionization_Penalty_Neutral>
0.0777664

> <r_epik_State_Penalty>
0.927046

> <r_epik_Charging_Adjusted_Penalty>
1.76589

> <i_epik_Tot_Q>
1

> <i_epik_Tot_abs_Q>
1

> <r_epik_Metal_State_Penalty>
0.950555

> <b_epik_Metal_Only>
0

> <s_lp_Force_Field>
OPLS_2005

> <r_lp_Energy>
39.0638

> <b_lp_Chiralities_Consistent>
1

> <s_lp_Variant>
AV-unprocessed.smi:1740-2

> <Gold.Version>
5.8.1

> <Gold.Id.Protein>
6NUR|6NUR_protein|mol2

> <Gold.PLP.Fitness>
40.6197

> <Gold.PLP.PLP>
-38.9455

> <Gold.PLP.part.hbond>
-0.5225

> <Gold.PLP.part.metal>
0.0000

> <Gold.PLP.part.buried>
-6.5636

> <Gold.PLP.part.nonpolar>
-32.9475

> <Gold.PLP.part.repulsive>
1.4851

> <Gold.PLP.ligand.clash>
0.0072

> <Gold.PLP.ligand.torsion>
0.6947

> <Gold.PLP.Chemscore.Hbond>
0.0000

> <Gold.PLP.Chemscore.CHOScore>
0.9138

> <Gold.PLP.Chemscore.Metal>
0.0000

> <Gold.Chemscore.Hbonds>
donor molecule, donor type, donor heavy atom, donor atom, acceptor molecule, acceptor atom, score
      L1  C    16    39       P1  8029  0.87

> <Gold.PLP.Chemscore.Internal.Correction>
0.3294

> <Gold.Rescore>
     Score         DG    S(hbond)    S(metal)    S(lipo)     H(rot)  DE(clash)    DE(int)     intcor
      9.59     -12.29       0.00        0.00     106.21       2.19       0.04       2.67       ----

> <Gold.Chemscore.Fitness>
9.5866

> <Gold.Chemscore.DG>
-12.2906

> <Gold.Chemscore.ZeroCoef>
-5.4800

> <Gold.Chemscore.Hbond>
0.0000

> <Gold.Chemscore.Metal>
0.0000

> <Gold.Chemscore.Lipo>
106.2131

> <Gold.Chemscore.Internal_Hbond>
0.0000

> <Gold.Chemscore.DEClash>
0.0361

> <Gold.Chemscore.DEInternal>
2.6679

> <Gold.Chemscore.Rot>
2.1939

> <Gold.Chemscore.Internal.Correction>
   9.000000E+99

> <Gold.Chemscore.Hbond.Weighted>
-0.0000

> <Gold.Chemscore.Metal.Weighted>
-0.0000

> <Gold.Chemscore.Lipo.Weighted>
-12.4269

> <Gold.Chemscore.Internal_Hbond.Weighted>
0.0000

> <Gold.Chemscore.DEClash.Weighted>
0.0361

> <Gold.Chemscore.DEInternal.Weighted>
2.6679

> <Gold.Chemscore.Rot.Weighted>
5.6163

> <Gold.Chemscore.Internal.Correction.Weighted>
   9.000000E+99

> <Gold.Protein.RotatedTorsions>
[ 6907 6896 6895 6894 ] final   14.58 input  -60.11 | X-H torsion
[ 7974 7965 7964 7962 ] final -117.21 input  175.53 | X-H torsion
[ 8008 7997 7996 7995 ] final   82.18 input   59.86 | X-H torsion
[ 10167 10162 10161 10158 ] final -129.04 input  -65.29 | X-H torsion
[ 10718 10713 10712 10709 ] final -105.12 input   66.30 | X-H torsion
[ 10763 10752 10751 10750 ] final   72.12 input  -60.55 | X-H torsion
[ 11005 11000 10999 10996 ] final -159.33 input  -57.11 | X-H torsion

> <Gold.Protein.ActiveResidues>
 VAL166  LYS551  ARG553  GLY616  TRP617  ASP618  TYR619  PRO620  LYS621  CYS622 
 ASP623  PHE694  ASN695  SER759  ASP760  ASP761  ALA762  ILE779  LEU786  VAL792 
 PHE793  MET794  SER795  GLU796  ALA797  LYS798  CYS799  TRP800  GLU811  SER814 

> <Gold.Protein.RotatedAtoms>
  151.8045  135.0699  160.0404 H   0  0  0  0  0  0  0  0  0  0  0  0  # atno 6907 bound_to 6896
  152.3065  133.5704  159.5661 H   0  0  0  0  0  0  0  0  0  0  0  0  # atno 6908 bound_to 6896
  150.7298  134.0131  159.3718 H   0  0  0  0  0  0  0  0  0  0  0  0  # atno 6909 bound_to 6896
  145.0879  140.8470  143.4000 H   0  0  0  0  0  0  0  0  0  0  0  0  # atno 7974 bound_to 7965
  155.9072  140.3429  155.6071 H   0  0  0  0  0  0  0  0  0  0  0  0  # atno 8008 bound_to 7997
  155.7430  140.0810  157.2255 H   0  0  0  0  0  0  0  0  0  0  0  0  # atno 8009 bound_to 7997
  154.4051  140.1567  156.2625 H   0  0  0  0  0  0  0  0  0  0  0  0  # atno 8010 bound_to 7997
  139.9440  143.6131  152.2495 H   0  0  0  0  0  0  0  0  0  0  0  0  # atno 10167 bound_to 10162
  156.0332  130.5548  150.7493 H   0  0  0  0  0  0  0  0  0  0  0  0  # atno 10718 bound_to 10713
  153.0440  135.5111  154.7697 H   0  0  0  0  0  0  0  0  0  0  0  0  # atno 10763 bound_to 10752
  154.6612  135.2939  154.9867 H   0  0  0  0  0  0  0  0  0  0  0  0  # atno 10764 bound_to 10752
  154.0717  135.6676  153.4878 H   0  0  0  0  0  0  0  0  0  0  0  0  # atno 10765 bound_to 10752
  140.6438  134.4523  157.5234 H   0  0  0  0  0  0  0  0  0  0  0  0  # atno 11005 bound_to 11000
  145.1101  139.2763  143.5642 LP  0  0  0  0  0  0  0  0  0  0  0  0  # atno 17320 bound_to 7965
  146.3531  140.0694  142.8624 LP  0  0  0  0  0  0  0  0  0  0  0  0  # atno 17321 bound_to 7965
  139.6682  144.7661  151.1833 LP  0  0  0  0  0  0  0  0  0  0  0  0  # atno 17342 bound_to 10162
  140.7603  143.5906  150.8801 LP  0  0  0  0  0  0  0  0  0  0  0  0  # atno 17343 bound_to 10162
  157.5042  131.0921  151.0278 LP  0  0  0  0  0  0  0  0  0  0  0  0  # atno 17370 bound_to 10713
  157.0651  130.5841  149.5392 LP  0  0  0  0  0  0  0  0  0  0  0  0  # atno 17371 bound_to 10713
  139.9070  134.8427  156.1668 LP  0  0  0  0  0  0  0  0  0  0  0  0  # atno 17394 bound_to 11000
  141.0587  133.6852  156.1910 LP  0  0  0  0  0  0  0  0  0  0  0  0  # atno 17395 bound_to 11000

$$$$
