AV-unprocessed.smi:514|AV-procd|sdf|2777|dock10
  -GOLD-   2262023243D 1   1.00000     0.00000
 Structure written by MMmdl.
 45 47  0  0  0  0  0  0  0  0  1 V2000
  146.8943  142.0030  154.4718 C   0  0  0  0  0  0  0  0  0  0  0  0
  148.0137  140.9841  154.2480 C   0  0  0  0  0  0  0  0  0  0  0  0
  149.2534  141.5824  154.5854 O   0  0  0  0  0  0  0  0  0  0  0  0
  149.4403  141.7002  155.9851 C   0  0  0  0  0  0  0  0  0  0  0  0
  150.8571  142.2198  156.2527 C   0  0  0  0  0  0  0  0  0  0  0  0
  151.5696  141.3589  157.1927 N   0  0  0  0  0  0  0  0  0  0  0  0
  152.0377  141.6603  158.4355 C   0  0  0  0  0  0  0  0  0  0  0  0
  151.8532  142.9144  159.0181 N   0  0  0  0  0  0  0  0  0  0  0  0
  150.6698  143.7476  158.8287 C   0  0  0  0  0  0  0  0  0  0  0  0
  150.1317  144.2485  160.1843 C   0  0  0  0  0  0  0  0  0  0  0  0
  151.1496  145.0492  160.8570 N   0  0  0  0  0  0  0  0  0  0  0  0
  152.3363  144.2246  161.0589 C   0  0  0  0  0  0  0  0  0  0  0  0
  152.8566  143.7343  159.6934 C   0  0  0  0  0  0  0  0  0  0  0  0
  152.7301  140.6799  159.0217 N   0  0  0  0  0  0  0  0  0  0  0  0
  152.6808  139.6574  158.0874 C   0  0  0  0  0  0  0  0  0  0  0  0
  151.9997  140.0474  156.9797 C   0  0  0  0  0  0  0  0  0  0  0  0
  151.8346  139.1726  155.8102 C   0  0  0  0  0  0  0  0  0  0  0  0
  151.2519  139.5129  154.7832 O   0  0  0  0  0  0  0  0  0  0  0  0
  152.3970  137.9507  155.9761 N   0  0  0  0  0  0  0  0  0  0  0  0
  153.0818  137.4918  157.0675 C   0  0  0  0  0  0  0  0  0  0  0  0
  153.5328  136.3465  157.0739 O   0  0  0  0  0  0  0  0  0  0  0  0
  153.2391  138.3478  158.1272 N   0  0  0  0  0  0  0  0  0  0  0  0
  153.9720  137.9130  159.3178 C   0  0  0  0  0  0  0  0  0  0  0  0
  152.3034  137.3065  155.2045 H   0  0  0  0  0  0  0  0  0  0  0  0
  145.9228  141.5759  154.2220 H   0  0  0  0  0  0  0  0  0  0  0  0
  147.0406  142.8870  153.8508 H   0  0  0  0  0  0  0  0  0  0  0  0
  146.8609  142.3255  155.5127 H   0  0  0  0  0  0  0  0  0  0  0  0
  147.8415  140.1013  154.8653 H   0  0  0  0  0  0  0  0  0  0  0  0
  148.0212  140.6633  153.2054 H   0  0  0  0  0  0  0  0  0  0  0  0
  148.7023  142.3839  156.4078 H   0  0  0  0  0  0  0  0  0  0  0  0
  149.3020  140.7279  156.4611 H   0  0  0  0  0  0  0  0  0  0  0  0
  151.4059  142.2924  155.3193 H   0  0  0  0  0  0  0  0  0  0  0  0
  150.8263  143.2377  156.6365 H   0  0  0  0  0  0  0  0  0  0  0  0
  150.9096  144.5869  158.1742 H   0  0  0  0  0  0  0  0  0  0  0  0
  149.8965  143.1685  158.3225 H   0  0  0  0  0  0  0  0  0  0  0  0
  149.2432  144.8616  160.0327 H   0  0  0  0  0  0  0  0  0  0  0  0
  149.8397  143.4097  160.8179 H   0  0  0  0  0  0  0  0  0  0  0  0
  150.7992  145.3652  161.7500 H   0  0  0  0  0  0  0  0  0  0  0  0
  153.0990  144.8205  161.5601 H   0  0  0  0  0  0  0  0  0  0  0  0
  152.1007  143.3848  161.7141 H   0  0  0  0  0  0  0  0  0  0  0  0
  153.7876  143.1809  159.8079 H   0  0  0  0  0  0  0  0  0  0  0  0
  153.1022  144.5885  159.0605 H   0  0  0  0  0  0  0  0  0  0  0  0
  153.4262  137.1190  159.8288 H   0  0  0  0  0  0  0  0  0  0  0  0
  154.1254  138.7205  160.0336 H   0  0  0  0  0  0  0  0  0  0  0  0
  154.9579  137.5311  159.0490 H   0  0  0  0  0  0  0  0  0  0  0  0
  1  2  1  0  0  0  0
  1 25  1  0  0  0  0
  1 26  1  0  0  0  0
  1 27  1  0  0  0  0
  2  3  1  0  0  0  0
  2 28  1  0  0  0  0
  2 29  1  0  0  0  0
  3  4  1  0  0  0  0
  4  5  1  0  0  0  0
  4 30  1  0  0  0  0
  4 31  1  0  0  0  0
  5  6  1  0  0  0  0
  5 32  1  0  0  0  0
  5 33  1  0  0  0  0
  6 16  1  0  0  0  0
  6  7  1  0  0  0  0
  7  8  1  0  0  0  0
  7 14  2  0  0  0  0
  8 13  1  0  0  0  0
  8  9  1  0  0  0  0
  9 10  1  0  0  0  0
  9 34  1  0  0  0  0
  9 35  1  0  0  0  0
 10 11  1  0  0  0  0
 10 36  1  0  0  0  0
 10 37  1  0  0  0  0
 11 12  1  0  0  0  0
 11 38  1  0  0  0  0
 12 13  1  0  0  0  0
 12 39  1  0  0  0  0
 12 40  1  0  0  0  0
 13 41  1  0  0  0  0
 13 42  1  0  0  0  0
 14 15  1  0  0  0  0
 15 22  1  0  0  0  0
 15 16  2  0  0  0  0
 16 17  1  0  0  0  0
 17 18  2  0  0  0  0
 17 19  1  0  0  0  0
 19 24  1  0  0  0  0
 19 20  1  0  0  0  0
 20 21  2  0  0  0  0
 20 22  1  0  0  0  0
 22 23  1  0  0  0  0
 23 43  1  0  0  0  0
 23 44  1  0  0  0  0
 23 45  1  0  0  0  0
M  END
> <s_m_source_file>
AV-unprocessed.smi

> <i_m_source_file_index>
514

> <i_lp_mmshare_version>
43012

> <i_f3d_flags>
0

> <s_epik_input>
W0NIM11uMWMoPU8pW25IXWMoPU8pYyhjMTIpbihbQ0gyXVtDSDJdT1tDSDJdW0NIM10pYyhuMilOM1tDSDJdW0NIMl1bTkhdW0NIMl1bQ0gyXTM=

> <s_epik_cmdline>
J2VwaWtfcHl0aG9uJywgJy1waCcsICc3LjAnLCAnLXRuJywgJzgnLCAnLW1hJywgJzIwMCcsICctbWV0YWxfYmluZGluZycsICctaW1hZScsICc8aW5maWxlLm1hZT4nLCAnLW9tYWUnLCAnPG91dGZpbGUubWFlPic=

> <r_epik_Ionization_Penalty>
2.51413

> <r_epik_Ionization_Penalty_Charging>
1.58739e-05

> <r_epik_Ionization_Penalty_Neutral>
2.51411

> <r_epik_State_Penalty>
2.67993

> <r_epik_Charging_Adjusted_Penalty>
2.67995

> <i_epik_Tot_Q>
0

> <i_epik_Tot_abs_Q>
0

> <r_epik_Metal_State_Penalty>
2.70758

> <b_epik_Metal_Only>
0

> <s_lp_Force_Field>
OPLS_2005

> <r_lp_Energy>
49.2261

> <b_lp_Chiralities_Consistent>
1

> <s_lp_Variant>
AV-unprocessed.smi:514-2

> <Gold.Version>
5.8.1

> <Gold.Id.Protein>
6NUR|6NUR_protein|mol2

> <Gold.PLP.Fitness>
45.5547

> <Gold.PLP.PLP>
-40.8258

> <Gold.PLP.part.hbond>
-5.0000

> <Gold.PLP.part.metal>
0.0000

> <Gold.PLP.part.buried>
-5.3901

> <Gold.PLP.part.nonpolar>
-30.5268

> <Gold.PLP.part.repulsive>
0.4061

> <Gold.PLP.ligand.clash>
0.0000

> <Gold.PLP.ligand.torsion>
1.0667

> <Gold.PLP.Chemscore.Hbond>
2.1531

> <Gold.PLP.Chemscore.CHOScore>
0.0000

> <Gold.PLP.Chemscore.Metal>
0.0000

> <Gold.Chemscore.Hbonds>
donor molecule, donor type, donor heavy atom, donor atom, acceptor molecule, acceptor atom, score
      P1  H  7989  7998       L1    18  1.00
      P1  H 10752 10765       L1    21  1.00

> <Gold.PLP.Chemscore.Internal.Correction>
0.4029

> <Gold.Rescore>
     Score         DG    S(hbond)    S(metal)    S(lipo)     H(rot)  DE(clash)    DE(int)     intcor
     13.53     -17.24       2.06        0.00      79.41       1.72       0.19       3.52       ----

> <Gold.Chemscore.Fitness>
13.5320

> <Gold.Chemscore.DG>
-17.2402

> <Gold.Chemscore.ZeroCoef>
-5.4800

> <Gold.Chemscore.Hbond>
2.0587

> <Gold.Chemscore.Metal>
0.0000

> <Gold.Chemscore.Lipo>
79.4111

> <Gold.Chemscore.Internal_Hbond>
0.0000

> <Gold.Chemscore.DEClash>
0.1912

> <Gold.Chemscore.DEInternal>
3.5170

> <Gold.Chemscore.Rot>
1.7214

> <Gold.Chemscore.Internal.Correction>
   9.000000E+99

> <Gold.Chemscore.Hbonds>
donor molecule, donor type, donor heavy atom, donor atom, acceptor molecule, acceptor atom, score
      P1  H  7989  7998       L1    18  1.00
      P1  H 10752 10765       L1    21  0.96

> <Gold.Chemscore.Hbond.Weighted>
-6.8760

> <Gold.Chemscore.Metal.Weighted>
-0.0000

> <Gold.Chemscore.Lipo.Weighted>
-9.2911

> <Gold.Chemscore.Internal_Hbond.Weighted>
0.0000

> <Gold.Chemscore.DEClash.Weighted>
0.1912

> <Gold.Chemscore.DEInternal.Weighted>
3.5170

> <Gold.Chemscore.Rot.Weighted>
4.4069

> <Gold.Chemscore.Internal.Correction.Weighted>
   9.000000E+99

> <Gold.Protein.RotatedTorsions>
[ 6907 6896 6895 6894 ] final   89.18 input  -60.11 | X-H torsion
[ 7974 7965 7964 7962 ] final  -77.70 input  175.53 | X-H torsion
[ 8008 7997 7996 7995 ] final  121.11 input   59.86 | X-H torsion
[ 10167 10162 10161 10158 ] final -156.55 input  -65.29 | X-H torsion
[ 10718 10713 10712 10709 ] final  105.43 input   66.30 | X-H torsion
[ 10763 10752 10751 10750 ] final -103.63 input  -60.55 | X-H torsion
[ 11005 11000 10999 10996 ] final  177.25 input  -57.11 | X-H torsion

> <Gold.Protein.ActiveResidues>
 VAL166  LYS551  ARG553  GLY616  TRP617  ASP618  TYR619  PRO620  LYS621  CYS622 
 ASP623  PHE694  ASN695  SER759  ASP760  ASP761  ALA762  ILE779  LEU786  VAL792 
 PHE793  MET794  SER795  GLU796  ALA797  LYS798  CYS799  TRP800  GLU811  SER814 

> <Gold.Protein.RotatedAtoms>
  152.5433  134.2006  159.8710 H   0  0  0  0  0  0  0  0  0  0  0  0  # atno 6907 bound_to 6896
  151.1995  133.4612  159.2603 H   0  0  0  0  0  0  0  0  0  0  0  0  # atno 6908 bound_to 6896
  151.1004  134.9981  159.8501 H   0  0  0  0  0  0  0  0  0  0  0  0  # atno 6909 bound_to 6896
  145.5962  140.9419  143.1265 H   0  0  0  0  0  0  0  0  0  0  0  0  # atno 7974 bound_to 7965
  156.2672  140.2816  156.1256 H   0  0  0  0  0  0  0  0  0  0  0  0  # atno 8008 bound_to 7997
  155.1109  140.0391  157.2741 H   0  0  0  0  0  0  0  0  0  0  0  0  # atno 8009 bound_to 7997
  154.6743  140.2595  155.6980 H   0  0  0  0  0  0  0  0  0  0  0  0  # atno 8010 bound_to 7997
  139.6841  143.9531  152.2352 H   0  0  0  0  0  0  0  0  0  0  0  0  # atno 10167 bound_to 10162
  157.6705  131.0827  150.5856 H   0  0  0  0  0  0  0  0  0  0  0  0  # atno 10718 bound_to 10713
  154.7821  135.4816  153.9866 H   0  0  0  0  0  0  0  0  0  0  0  0  # atno 10763 bound_to 10752
  153.1508  135.6791  153.8892 H   0  0  0  0  0  0  0  0  0  0  0  0  # atno 10764 bound_to 10752
  153.8537  135.3164  155.3412 H   0  0  0  0  0  0  0  0  0  0  0  0  # atno 10765 bound_to 10752
  140.3821  134.6937  157.4457 H   0  0  0  0  0  0  0  0  0  0  0  0  # atno 11005 bound_to 11000
  144.7330  139.7670  143.7340 LP  0  0  0  0  0  0  0  0  0  0  0  0  # atno 17320 bound_to 7965
  146.1610  139.4724  142.9988 LP  0  0  0  0  0  0  0  0  0  0  0  0  # atno 17321 bound_to 7965
  139.9329  144.6730  150.8344 LP  0  0  0  0  0  0  0  0  0  0  0  0  # atno 17342 bound_to 10162
  140.7662  143.3296  151.2439 LP  0  0  0  0  0  0  0  0  0  0  0  0  # atno 17343 bound_to 10162
  156.6156  130.4392  149.5842 LP  0  0  0  0  0  0  0  0  0  0  0  0  # atno 17370 bound_to 10713
  156.2396  130.6843  151.1542 LP  0  0  0  0  0  0  0  0  0  0  0  0  # atno 17371 bound_to 10713
  140.0471  134.6184  155.8908 LP  0  0  0  0  0  0  0  0  0  0  0  0  # atno 17394 bound_to 11000
  141.1920  133.6573  156.5482 LP  0  0  0  0  0  0  0  0  0  0  0  0  # atno 17395 bound_to 11000

$$$$
