#       Name:                AV-unprocessed.smi:1898
#       Creating user name   scv26
#       Creation time:       Fri Mar 27 09:44:07 2020


#       File generated by GOLD software.
#

@<TRIPOS>MOLECULE
AV-unprocessed.smi:1898
    54    55     1
SMALL
NO_CHARGES


@<TRIPOS>ATOM
      1 ****        -3.2680  -5.5726   2.8731 C.3            1 S1                 0.0000
      2 ****        -2.4924  -4.8910   1.8478 N.am           1 S1                 0.0000
      3 ****        -2.9150  -3.8095   1.1781 C.2            1 S1                 0.0000
      4 ****        -4.0148  -3.2877   1.3644 O.2            1 S1                 0.0000
      5 ****        -1.9539  -3.2453   0.1265 C.3            1 S1                 0.0000
      6 ****        -2.2530  -1.8365  -0.2383 N.4            1 S1                 1.0000
      7 ****        -1.7580  -1.4846  -1.5934 C.3            1 S1                 0.0000
      8 ****        -2.2123  -0.0717  -2.0034 C.3            1 S1                 0.0000
      9 ****        -1.7926   0.9932  -0.9755 C.3            1 S1                 0.0000
     10 ****        -0.3485   1.2186  -1.0332 N.am           1 S1                 0.0000
     11 ****         0.2821   2.3166  -0.5922 C.2            1 S1                 0.0000
     12 ****        -0.2968   3.2617  -0.0575 O.2            1 S1                 0.0000
     13 ****         1.6076   2.2283  -0.7934 N.am           1 S1                 0.0000
     14 ****         2.6169   3.1821  -0.4856 C.ar           1 S1                 0.0000
     15 ****         2.3701   4.5703  -0.3527 C.ar           1 S1                 0.0000
     16 ****         3.4464   5.4311  -0.0692 C.ar           1 S1                 0.0000
     17 ****         4.7320   4.8756   0.0636 C.ar           1 S1                 0.0000
     18 ****         4.9847   3.5578  -0.0737 N.ar           1 S1                 0.0000
     19 ****         3.9487   2.7256  -0.3478 C.ar           1 S1                 0.0000
     20 ****         4.2105   1.3765  -0.4944 O.3            1 S1                 0.0000
     21 ****         5.5532   0.9257  -0.3517 C.3            1 S1                 0.0000
     22 ****        -2.2527   0.5672   0.4329 C.3            1 S1                 0.0000
     23 ****        -1.7919  -0.8583   0.7831 C.3            1 S1                 0.0000
     24 ****        -2.7021  -6.4163   3.2687 H              1 S1                 0.0000
     25 ****        -4.2044  -5.9533   2.4630 H              1 S1                 0.0000
     26 ****        -3.4982  -4.8990   3.6996 H              1 S1                 0.0000
     27 ****        -1.5799  -5.2676   1.6340 H              1 S1                 0.0000
     28 ****        -0.9198  -3.3337   0.4640 H              1 S1                 0.0000
     29 ****        -2.0510  -3.8814  -0.7543 H              1 S1                 0.0000
     30 ****        -0.6696  -1.5574  -1.6155 H              1 S1                 0.0000
     31 ****        -2.1368  -2.2030  -2.3213 H              1 S1                 0.0000
     32 ****        -1.8190   0.1779  -2.9898 H              1 S1                 0.0000
     33 ****        -3.2989  -0.0637  -2.1009 H              1 S1                 0.0000
     34 ****        -2.2883   1.9295  -1.2390 H              1 S1                 0.0000
     35 ****         0.2103   0.4944  -1.4601 H              1 S1                 0.0000
     36 ****         1.9460   1.3508  -1.1603 H              1 S1                 0.0000
     37 ****         1.3854   4.9930  -0.4777 H              1 S1                 0.0000
     38 ****         3.2901   6.4945   0.0375 H              1 S1                 0.0000
     39 ****         5.5813   5.5068   0.2786 H              1 S1                 0.0000
     40 ****         5.5875  -0.1542  -0.4943 H              1 S1                 0.0000
     41 ****         5.9424   1.1394   0.6448 H              1 S1                 0.0000
     42 ****         6.2082   1.3786  -1.0974 H              1 S1                 0.0000
     43 ****        -1.8953   1.2714   1.1850 H              1 S1                 0.0000
     44 ****        -3.3418   0.6086   0.4790 H              1 S1                 0.0000
     45 ****        -2.1840  -1.1267   1.7644 H              1 S1                 0.0000
     46 ****        -0.7042  -0.8947   0.8610 H              1 S1                 0.0000
     47 ****        -3.2604  -1.7677  -0.2774 H              1 S1                 0.0000
     48 ****        -4.6415  -3.6708   2.0431 LP             1 S1                 0.0000
     49 ****        -4.2812  -2.4809   0.8371 LP             1 S1                 0.0000
     50 ****        -1.2887   3.2349   0.0668 LP             1 S1                 0.0000
     51 ****         0.2247   4.0566   0.2528 LP             1 S1                 0.0000
     52 ****         5.9142   3.2023   0.0243 LP             1 S1                 0.0000
     53 ****         3.9070   1.1148  -1.4106 LP             1 S1                 0.0000
     54 ****         3.6628   0.8936   0.1888 LP             1 S1                 0.0000
@<TRIPOS>BOND
    1    1    2 1     
    2    1   24 1     
    3    1   25 1     
    4    1   26 1     
    5    2    3 am    
    6    2   27 1     
    7    3    4 2     
    8    3    5 1     
    9    5    6 1     
   10    5   28 1     
   11    5   29 1     
   12    6   23 1     
   13    6    7 1     
   14    6   47 1     
   15    7    8 1     
   16    7   30 1     
   17    7   31 1     
   18    8    9 1     
   19    8   32 1     
   20    8   33 1     
   21    9   10 1     
   22    9   22 1     
   23    9   34 1     
   24   10   11 am    
   25   10   35 1     
   26   11   12 2     
   27   11   13 am    
   28   13   14 1     
   29   13   36 1     
   30   14   19 ar    
   31   14   15 ar    
   32   15   16 ar    
   33   15   37 1     
   34   16   17 ar    
   35   16   38 1     
   36   17   18 ar    
   37   17   39 1     
   38   18   19 ar    
   39   19   20 1     
   40   20   21 1     
   41   21   40 1     
   42   21   41 1     
   43   21   42 1     
   44   22   23 1     
   45   22   43 1     
   46   22   44 1     
   47   23   45 1     
   48   23   46 1     
   49    4   48 1     
   50    4   49 1     
   51   12   50 1     
   52   12   51 1     
   53   18   52 1     
   54   20   53 1     
   55   20   54 1     
@<TRIPOS>SUBSTRUCTURE
      1 S1             1
@<TRIPOS>SET
LONE_PAIRS      STATIC     ATOMS    <user>   **** ""
7 48 49 50 51 52 53 54
DONOR_HYDROGENS      STATIC     ATOMS    <user>   **** ""
4 27 47 35 36
ATOM$BLUE        STATIC     ATOMS    COLORGROUP SYSTEM
7 48 49 50 51 52 53 54
ATOM$RED        STATIC     ATOMS    COLORGROUP SYSTEM
4 27 47 35 36
