#       Name:                AV-unprocessed.smi:1554
#       Creating user name   scv26
#       Creation time:       Fri Mar 27 06:44:50 2020


#       File generated by GOLD software.
#

@<TRIPOS>MOLECULE
AV-unprocessed.smi:1554
    53    55     1
SMALL
NO_CHARGES


@<TRIPOS>ATOM
      1 ****        -2.0226   5.3409  -1.8101 C.3            1 S1                 0.0000
      2 ****        -2.0144   4.0515  -1.0069 C.ar           1 S1                 0.0000
      3 ****        -2.5727   4.0622   0.2914 C.ar           1 S1                 0.0000
      4 ****        -2.5491   2.8680   1.0019 C.ar           1 S1                 0.0000
      5 ****        -3.0109   2.5538   2.2820 N.pl3          1 S1                 1.0000
      6 ****        -2.7632   1.2407   2.5457 C.2            1 S1                 0.0000
      7 ****        -2.1439   0.7137   1.4542 N.pl3          1 S1                 0.0000
      8 ****        -1.6593  -0.6508   1.2065 C.3            1 S1                 0.0000
      9 ****        -0.1360  -0.7894   1.3979 C.3            1 S1                 0.0000
     10 ****         0.1964  -0.4371   2.7267 O.3            1 S1                 0.0000
     11 ****         0.3438  -2.2292   1.1268 C.3            1 S1                 0.0000
     12 ****         1.8237  -2.3664   1.2052 N.4            1 S1                 1.0000
     13 ****         2.2766  -3.7454   1.5107 C.3            1 S1                 0.0000
     14 ****         2.2094  -4.6419   0.2615 C.3            1 S1                 0.0000
     15 ****         2.9925  -4.0646  -0.7760 O.3            1 S1                 0.0000
     16 ****         2.5167  -2.7826  -1.1709 C.3            1 S1                 0.0000
     17 ****         3.3894  -2.2875  -2.3294 C.3            1 S1                 0.0000
     18 ****         2.5673  -1.8233   0.0387 C.3            1 S1                 0.0000
     19 ****        -1.9954   1.6904   0.4638 C.ar           1 S1                 0.0000
     20 ****        -1.4441   1.6608  -0.8146 C.ar           1 S1                 0.0000
     21 ****        -1.4585   2.8655  -1.5534 C.ar           1 S1                 0.0000
     22 ****        -0.8637   2.8652  -2.9513 C.3            1 S1                 0.0000
     23 ****        -2.4539   6.1639  -1.2395 H              1 S1                 0.0000
     24 ****        -2.6118   5.2206  -2.7196 H              1 S1                 0.0000
     25 ****        -1.0080   5.6265  -2.0890 H              1 S1                 0.0000
     26 ****        -2.9992   4.9609   0.7129 H              1 S1                 0.0000
     27 ****        -3.0109   0.7149   3.4569 H              1 S1                 0.0000
     28 ****        -2.1911  -1.3166   1.8878 H              1 S1                 0.0000
     29 ****        -1.9549  -0.9411   0.1975 H              1 S1                 0.0000
     30 ****         0.3648  -0.0908   0.7292 H              1 S1                 0.0000
     31 ****        -0.0770   0.4549   2.8787 H              1 S1                 0.0000
     32 ****        -0.1230  -2.8887   1.8602 H              1 S1                 0.0000
     33 ****        -0.0109  -2.5672   0.1533 H              1 S1                 0.0000
     34 ****         3.3075  -3.6977   1.8638 H              1 S1                 0.0000
     35 ****         1.6946  -4.1721   2.3283 H              1 S1                 0.0000
     36 ****         2.6051  -5.6316   0.4898 H              1 S1                 0.0000
     37 ****         1.1802  -4.7816  -0.0725 H              1 S1                 0.0000
     38 ****         1.4931  -2.8790  -1.5351 H              1 S1                 0.0000
     39 ****         3.0574  -1.3104  -2.6813 H              1 S1                 0.0000
     40 ****         3.3455  -2.9767  -3.1731 H              1 S1                 0.0000
     41 ****         4.4333  -2.1973  -2.0274 H              1 S1                 0.0000
     42 ****         2.2003  -0.8364  -0.2392 H              1 S1                 0.0000
     43 ****         3.6057  -1.6831   0.3427 H              1 S1                 0.0000
     44 ****        -1.0214   0.7581  -1.2301 H              1 S1                 0.0000
     45 ****        -0.5126   1.8729  -3.2359 H              1 S1                 0.0000
     46 ****        -0.0149   3.5472  -3.0058 H              1 S1                 0.0000
     47 ****        -1.6075   3.1771  -3.6847 H              1 S1                 0.0000
     48 ****         2.0904  -1.8077   2.0040 H              1 S1                 0.0000
     49 ****        -3.4639   3.1864   2.9294 H              1 S1                 0.0000
     50 ****         1.1847  -0.5139   2.8586 LP             1 S1                 0.0000
     51 ****        -0.2735  -1.0471   3.3647 LP             1 S1                 0.0000
     52 ****         2.9714  -4.6727  -1.5696 LP             1 S1                 0.0000
     53 ****         3.9342  -3.9713  -0.4526 LP             1 S1                 0.0000
@<TRIPOS>BOND
    1    1    2 1     
    2    1   23 1     
    3    1   24 1     
    4    1   25 1     
    5    2   21 ar    
    6    2    3 ar    
    7    3    4 ar    
    8    3   26 1     
    9    4   19 ar    
   10    4    5 1     
   11    5    6 2     
   12    5   49 1     
   13    6    7 1     
   14    6   27 1     
   15    7    8 1     
   16    7   19 1     
   17    8    9 1     
   18    8   28 1     
   19    8   29 1     
   20    9   10 1     
   21    9   11 1     
   22    9   30 1     
   23   10   31 1     
   24   11   12 1     
   25   11   32 1     
   26   11   33 1     
   27   12   18 1     
   28   12   13 1     
   29   12   48 1     
   30   13   14 1     
   31   13   34 1     
   32   13   35 1     
   33   14   15 1     
   34   14   36 1     
   35   14   37 1     
   36   15   16 1     
   37   16   17 1     
   38   16   18 1     
   39   16   38 1     
   40   17   39 1     
   41   17   40 1     
   42   17   41 1     
   43   18   42 1     
   44   18   43 1     
   45   19   20 ar    
   46   20   21 ar    
   47   20   44 1     
   48   21   22 1     
   49   22   45 1     
   50   22   46 1     
   51   22   47 1     
   52   10   50 1     
   53   10   51 1     
   54   15   52 1     
   55   15   53 1     
@<TRIPOS>SUBSTRUCTURE
      1 S1             1
@<TRIPOS>SET
LONE_PAIRS      STATIC     ATOMS    <user>   **** ""
4 50 51 52 53
DONOR_HYDROGENS      STATIC     ATOMS    <user>   **** ""
3 49 31 48
ATOM$BLUE        STATIC     ATOMS    COLORGROUP SYSTEM
4 50 51 52 53
ATOM$RED        STATIC     ATOMS    COLORGROUP SYSTEM
3 49 31 48
