AV-unprocessed.smi:54|AV-procd|sdf|531|dock10
  -GOLD-   2262016413D 1   1.00000     0.00000
 Structure written by MMmdl.
 44 46  0  0  0  0  0  0  0  0  1 V2000
  153.0991  143.1764  159.4850 C   0  0  0  0  0  0  0  0  0  0  0  0
  151.9653  143.5954  158.5352 C   0  0  0  0  0  0  0  0  0  0  0  0
  150.8246  144.2872  159.2989 C   0  0  0  0  0  0  0  0  0  0  0  0
  151.4362  142.3847  157.7583 C   0  0  0  0  0  0  0  0  0  0  0  0
  151.9313  141.2635  157.8813 O   0  0  0  0  0  0  0  0  0  0  0  0
  150.3229  142.6550  156.8656 N   0  0  0  0  0  0  0  0  0  0  0  0
  149.6598  141.7626  156.0945 C   0  0  0  0  0  0  0  0  0  0  0  0
  150.0735  140.5168  155.9192 N   0  0  0  0  0  0  0  0  0  0  0  0
  149.2718  139.7475  155.1240 C   0  0  0  0  0  0  0  0  0  0  0  0
  148.1026  140.1535  154.5133 C   0  0  0  0  0  0  0  0  0  0  0  0
  147.5529  139.1060  153.7847 N   0  0  0  0  0  0  0  0  0  0  0  0
  148.3831  138.1199  153.9756 C   0  0  0  0  0  0  0  0  0  0  0  0
  149.4633  138.4245  154.7690 N   0  0  0  0  0  0  0  0  0  0  0  0
  150.5676  137.4981  155.1821 C   0  0  2  0  0  0  0  0  0  0  0  0
  150.6082  137.4575  156.5788 O   0  0  0  0  0  0  0  0  0  0  0  0
  151.8319  138.0047  157.0671 C   0  0  1  0  0  0  0  0  0  0  0  0
  152.2168  137.3893  158.4244 C   0  0  0  0  0  0  0  0  0  0  0  0
  151.0635  136.9176  159.0885 O   0  0  0  0  0  0  0  0  0  0  0  0
  152.8172  137.7536  155.9183 C   0  0  1  0  0  0  0  0  0  0  0  0
  153.3377  136.4348  155.9909 O   0  0  0  0  0  0  0  0  0  0  0  0
  151.9426  137.9743  154.6862 C   0  0  1  0  0  0  0  0  0  0  0  0
  152.4141  137.2515  153.5647 O   0  0  0  0  0  0  0  0  0  0  0  0
  147.6358  141.4982  154.6953 C   0  0  0  0  0  0  0  0  0  0  0  0
  146.6263  142.0232  154.2306 O   0  0  0  0  0  0  0  0  0  0  0  0
  148.4871  142.2474  155.5174 N   0  0  0  0  0  0  0  0  0  0  0  0
  150.2784  136.5187  154.7986 H   0  0  0  0  0  0  0  0  0  0  0  0
  151.7215  139.0814  157.1837 H   0  0  0  0  0  0  0  0  0  0  0  0
  153.6547  138.4515  155.9473 H   0  0  0  0  0  0  0  0  0  0  0  0
  151.9121  139.0368  154.4454 H   0  0  0  0  0  0  0  0  0  0  0  0
  153.9075  142.6832  158.9444 H   0  0  0  0  0  0  0  0  0  0  0  0
  152.7447  142.4901  160.2554 H   0  0  0  0  0  0  0  0  0  0  0  0
  153.5258  144.0446  159.9883 H   0  0  0  0  0  0  0  0  0  0  0  0
  152.3720  144.3096  157.8176 H   0  0  0  0  0  0  0  0  0  0  0  0
  150.0174  144.5801  158.6263 H   0  0  0  0  0  0  0  0  0  0  0  0
  151.1803  145.1906  159.7946 H   0  0  0  0  0  0  0  0  0  0  0  0
  150.4008  143.6361  160.0647 H   0  0  0  0  0  0  0  0  0  0  0  0
  150.0313  143.6190  156.7991 H   0  0  0  0  0  0  0  0  0  0  0  0
  148.2289  137.1430  153.5406 H   0  0  0  0  0  0  0  0  0  0  0  0
  152.9416  136.5831  158.3070 H   0  0  0  0  0  0  0  0  0  0  0  0
  152.6712  138.1469  159.0637 H   0  0  0  0  0  0  0  0  0  0  0  0
  150.6469  137.6472  159.5213 H   0  0  0  0  0  0  0  0  0  0  0  0
  152.7780  135.9235  156.5551 H   0  0  0  0  0  0  0  0  0  0  0  0
  151.6792  137.0601  153.0022 H   0  0  0  0  0  0  0  0  0  0  0  0
  148.2189  143.2046  155.6919 H   0  0  0  0  0  0  0  0  0  0  0  0
  1  2  1  0  0  0  0
  1 30  1  0  0  0  0
  1 31  1  0  0  0  0
  1 32  1  0  0  0  0
  2  3  1  0  0  0  0
  2  4  1  0  0  0  0
  2 33  1  0  0  0  0
  3 34  1  0  0  0  0
  3 35  1  0  0  0  0
  3 36  1  0  0  0  0
  4  5  2  0  0  0  0
  4  6  1  0  0  0  0
  6 37  1  0  0  0  0
  6  7  1  0  0  0  0
  7 25  1  0  0  0  0
  7  8  2  0  0  0  0
  8  9  1  0  0  0  0
  9 13  1  0  0  0  0
  9 10  2  0  0  0  0
 10 11  1  0  0  0  0
 10 23  1  0  0  0  0
 11 12  2  0  0  0  0
 12 13  1  0  0  0  0
 12 38  1  0  0  0  0
 13 14  1  0  0  0  0
 14 26  1  0  0  0  0
 14 21  1  0  0  0  0
 14 15  1  0  0  0  0
 15 16  1  0  0  0  0
 16 27  1  0  0  0  0
 16 17  1  0  0  0  0
 16 19  1  0  0  0  0
 17 18  1  0  0  0  0
 17 39  1  0  0  0  0
 17 40  1  0  0  0  0
 18 41  1  0  0  0  0
 19 28  1  0  0  0  0
 19 20  1  0  0  0  0
 19 21  1  0  0  0  0
 20 42  1  0  0  0  0
 21 29  1  0  0  0  0
 21 22  1  0  0  0  0
 22 43  1  0  0  0  0
 23 24  2  0  0  0  0
 23 25  1  0  0  0  0
 25 44  1  0  0  0  0
M  END
> <s_m_source_file>
AV-unprocessed.smi

> <i_m_source_file_index>
54

> <i_lp_mmshare_version>
43012

> <i_f3d_flags>
0

> <s_epik_input>
W0NIM11bQ0hdKFtDSDNdKUMoPU8pW05IXWMobjEpW25IXWMoPU8pYyhjMTIpbltjSF1uMltDQEBIXTNPW0NASF0oW0NIMl1bT0hdKVtDQEBIXShbT0hdKVtDQEhdM1tPSF0=

> <s_epik_cmdline>
J2VwaWtfcHl0aG9uJywgJy1waCcsICc3LjAnLCAnLXRuJywgJzgnLCAnLW1hJywgJzIwMCcsICctbWV0YWxfYmluZGluZycsICctaW1hZScsICc8aW5maWxlLm1hZT4nLCAnLW9tYWUnLCAnPG91dGZpbGUubWFlPic=

> <r_lp_tautomer_probability>
0.85571

> <r_epik_Ionization_Penalty>
0.0316551

> <r_epik_Ionization_Penalty_Charging>
0.0316043

> <r_epik_Ionization_Penalty_Neutral>
5.07097e-05

> <r_epik_State_Penalty>
3.15494e-07

> <r_epik_Charging_Adjusted_Penalty>
0.0316047

> <i_epik_Tot_Q>
0

> <i_epik_Tot_abs_Q>
0

> <r_epik_Metal_State_Penalty>
0.421206

> <b_epik_Metal_Only>
0

> <s_epik_Chemistry_Notes>
This compound contains an acetal/aminal-like group ( X-CH(R)-Y where X, Y are N, S, or O) that may be acid/base labile, releasing an aldehyde.

> <s_lp_Force_Field>
OPLS_2005

> <r_lp_Energy>
45.4171

> <b_lp_Chiralities_Consistent>
1

> <s_lp_Variant>
AV-unprocessed.smi:54-3

> <Gold.Version>
5.8.1

> <Gold.Id.Protein>
6NUR|6NUR_protein|mol2

> <Gold.PLP.Fitness>
49.9940

> <Gold.PLP.PLP>
-32.7134

> <Gold.PLP.part.hbond>
-4.8204

> <Gold.PLP.part.metal>
0.0000

> <Gold.PLP.part.buried>
-5.5232

> <Gold.PLP.part.nonpolar>
-26.0236

> <Gold.PLP.part.repulsive>
0.5815

> <Gold.PLP.ligand.clash>
0.0000

> <Gold.PLP.ligand.torsion>
0.5782

> <Gold.PLP.Chemscore.Hbond>
5.1360

> <Gold.PLP.Chemscore.CHOScore>
1.0000

> <Gold.PLP.Chemscore.Metal>
0.0000

> <Gold.Chemscore.Hbonds>
donor molecule, donor type, donor heavy atom, donor atom, acceptor molecule, acceptor atom, score
      L1  H     6    37       P1  8028  0.78
      L1  H    22    43       P1  7949  0.83
      L1  H    25    44       P1  8028  0.82
      P1  H  6896  6909       L1    18  1.00
      P1  H 10752 10764       L1    22  0.94
      P1  H 10752 10765       L1    20  0.18
      L1  C    12    38       P1  7948  1.00

> <Gold.PLP.Chemscore.Internal.Correction>
0.0290

> <Gold.Rescore>
     Score         DG    S(hbond)    S(metal)    S(lipo)     H(rot)  DE(clash)    DE(int)     intcor
     14.23     -16.69       4.28        0.00      62.32       4.05       0.32       2.14       ----

> <Gold.Chemscore.Fitness>
14.2267

> <Gold.Chemscore.DG>
-16.6872

> <Gold.Chemscore.ZeroCoef>
-5.4800

> <Gold.Chemscore.Hbond>
4.2761

> <Gold.Chemscore.Metal>
0.0000

> <Gold.Chemscore.Lipo>
62.3188

> <Gold.Chemscore.Internal_Hbond>
0.0000

> <Gold.Chemscore.DEClash>
0.3181

> <Gold.Chemscore.DEInternal>
2.1424

> <Gold.Chemscore.Rot>
4.0493

> <Gold.Chemscore.Internal.Correction>
   9.000000E+99

> <Gold.Chemscore.Hbonds>
donor molecule, donor type, donor heavy atom, donor atom, acceptor molecule, acceptor atom, score
      L1  H     6    37       P1  8028  0.77
      L1  H    22    43       P1  7949  0.81
      L1  H    25    44       P1  8028  0.69
      P1  H  6896  6909       L1    18  0.89
      P1  H 10752 10764       L1    22  0.42
      P1  H 10752 10765       L1    20  0.02

> <Gold.Chemscore.Hbond.Weighted>
-14.2821

> <Gold.Chemscore.Metal.Weighted>
-0.0000

> <Gold.Chemscore.Lipo.Weighted>
-7.2913

> <Gold.Chemscore.Internal_Hbond.Weighted>
0.0000

> <Gold.Chemscore.DEClash.Weighted>
0.3181

> <Gold.Chemscore.DEInternal.Weighted>
2.1424

> <Gold.Chemscore.Rot.Weighted>
10.3662

> <Gold.Chemscore.Internal.Correction.Weighted>
   9.000000E+99

> <Gold.Protein.RotatedTorsions>
[ 6907 6896 6895 6894 ] final   92.25 input  -60.11 | X-H torsion
[ 7974 7965 7964 7962 ] final  -40.56 input  175.53 | X-H torsion
[ 8008 7997 7996 7995 ] final  -60.01 input   59.86 | X-H torsion
[ 10167 10162 10161 10158 ] final -115.98 input  -65.29 | X-H torsion
[ 10718 10713 10712 10709 ] final  150.76 input   66.30 | X-H torsion
[ 10763 10752 10751 10750 ] final -101.38 input  -60.55 | X-H torsion
[ 11005 11000 10999 10996 ] final   92.77 input  -57.11 | X-H torsion

> <Gold.Protein.ActiveResidues>
 VAL166  LYS551  ARG553  GLY616  TRP617  ASP618  TYR619  PRO620  LYS621  CYS622 
 ASP623  PHE694  ASN695  SER759  ASP760  ASP761  ALA762  ILE779  LEU786  VAL792 
 PHE793  MET794  SER795  GLU796  ALA797  LYS798  CYS799  TRP800  GLU811  SER814 

> <Gold.Protein.RotatedAtoms>
  152.5452  134.1532  159.8526 H   0  0  0  0  0  0  0  0  0  0  0  0  # atno 6907 bound_to 6896
  151.1557  133.4871  159.2602 H   0  0  0  0  0  0  0  0  0  0  0  0  # atno 6908 bound_to 6896
  151.1426  135.0198  159.8687 H   0  0  0  0  0  0  0  0  0  0  0  0  # atno 6909 bound_to 6896
  146.0293  140.6751  142.9140 H   0  0  0  0  0  0  0  0  0  0  0  0  # atno 7974 bound_to 7965
  154.4378  140.1049  156.6205 H   0  0  0  0  0  0  0  0  0  0  0  0  # atno 8008 bound_to 7997
  155.5712  140.3489  155.4497 H   0  0  0  0  0  0  0  0  0  0  0  0  # atno 8009 bound_to 7997
  156.0388  140.1277  157.0168 H   0  0  0  0  0  0  0  0  0  0  0  0  # atno 8010 bound_to 7997
  140.0842  143.4759  152.1908 H   0  0  0  0  0  0  0  0  0  0  0  0  # atno 10167 bound_to 10162
  157.2794  131.0832  151.1543 H   0  0  0  0  0  0  0  0  0  0  0  0  # atno 10718 bound_to 10713
  154.7653  135.4900  153.9542 H   0  0  0  0  0  0  0  0  0  0  0  0  # atno 10763 bound_to 10752
  153.1300  135.6751  153.9201 H   0  0  0  0  0  0  0  0  0  0  0  0  # atno 10764 bound_to 10752
  153.8907  135.3121  155.3426 H   0  0  0  0  0  0  0  0  0  0  0  0  # atno 10765 bound_to 10752
  139.8819  134.8752  156.3621 H   0  0  0  0  0  0  0  0  0  0  0  0  # atno 11005 bound_to 11000
  144.7023  140.3707  143.7146 LP  0  0  0  0  0  0  0  0  0  0  0  0  # atno 17320 bound_to 7965
  145.7066  139.1674  143.2562 LP  0  0  0  0  0  0  0  0  0  0  0  0  # atno 17321 bound_to 7965
  139.5762  144.7488  151.3759 LP  0  0  0  0  0  0  0  0  0  0  0  0  # atno 17342 bound_to 10162
  140.7062  143.7508  150.7486 LP  0  0  0  0  0  0  0  0  0  0  0  0  # atno 17343 bound_to 10162
  157.2983  130.6830  149.6150 LP  0  0  0  0  0  0  0  0  0  0  0  0  # atno 17370 bound_to 10713
  155.9664  130.4400  150.5281 LP  0  0  0  0  0  0  0  0  0  0  0  0  # atno 17371 bound_to 10713
  140.9522  133.7443  156.0287 LP  0  0  0  0  0  0  0  0  0  0  0  0  # atno 17394 bound_to 11000
  140.8091  134.3420  157.5417 LP  0  0  0  0  0  0  0  0  0  0  0  0  # atno 17395 bound_to 11000

$$$$
