AV-unprocessed.smi:704|AV-procd|sdf|3442|dock2
  -GOLD-   22720 0433D 1   1.00000     0.00000
 Structure written by MMmdl.
 38 39  0  0  0  0  0  0  0  0  1 V2000
  151.9413  138.3307  154.6888 C   0  0  0  0  0  0  0  0  0  0  0  0
  150.5766  138.2670  154.2891 O   0  0  0  0  0  0  0  0  0  0  0  0
  149.8020  139.4059  154.4019 C   0  0  0  0  0  0  0  0  0  0  0  0
  150.3695  140.5232  154.9220 N   0  0  0  0  0  0  0  0  0  0  0  0
  149.6141  141.6347  155.0365 C   0  0  0  0  0  0  0  0  0  0  0  0
  148.2629  141.6910  154.6487 C   0  0  0  0  0  0  0  0  0  0  0  0
  147.6719  140.5338  154.1082 C   0  0  0  0  0  0  0  0  0  0  0  0
  148.4564  139.3634  153.9679 C   0  0  0  0  0  0  0  0  0  0  0  0
  147.9544  138.1373  153.4516 N   0  0  0  0  0  0  0  0  0  0  0  0
  146.7388  137.5925  153.6269 C   0  0  0  0  0  0  0  0  0  0  0  0
  145.8287  138.0817  154.2957 O   0  0  0  0  0  0  0  0  0  0  0  0
  146.6237  136.4401  152.9519 N   0  0  0  0  0  0  0  0  0  0  0  0
  145.4229  135.6089  152.9058 C   0  0  2  0  0  0  0  0  0  0  0  0
  145.6826  134.3017  152.1419 C   0  0  0  0  0  0  0  0  0  0  0  0
  144.3708  133.9921  151.4274 C   0  0  0  0  0  0  0  0  0  0  0  0
  143.8319  135.3655  151.0354 C   0  0  0  0  0  0  0  0  0  0  0  0
  144.2515  136.3190  152.1713 C   0  0  1  0  0  0  0  0  0  0  0  0
  143.0858  136.6421  153.1209 C   0  0  0  0  0  0  0  0  0  0  0  0
  142.7440  137.9267  153.2488 N   0  0  0  0  0  0  0  0  0  0  0  0
  142.5008  135.7469  153.7282 O   0  0  0  0  0  0  0  0  0  0  0  0
  152.4079  137.3579  154.5338 H   0  0  0  0  0  0  0  0  0  0  0  0
  152.0366  138.5780  155.7470 H   0  0  0  0  0  0  0  0  0  0  0  0
  152.4961  139.0613  154.0984 H   0  0  0  0  0  0  0  0  0  0  0  0
  150.0995  142.5036  155.4556 H   0  0  0  0  0  0  0  0  0  0  0  0
  147.6912  142.5995  154.7678 H   0  0  0  0  0  0  0  0  0  0  0  0
  146.6306  140.5632  153.8276 H   0  0  0  0  0  0  0  0  0  0  0  0
  148.5669  137.6591  152.8068 H   0  0  0  0  0  0  0  0  0  0  0  0
  147.4209  136.1158  152.4241 H   0  0  0  0  0  0  0  0  0  0  0  0
  145.1393  135.3451  153.9274 H   0  0  0  0  0  0  0  0  0  0  0  0
  146.4656  134.4453  151.3954 H   0  0  0  0  0  0  0  0  0  0  0  0
  146.0001  133.4910  152.7985 H   0  0  0  0  0  0  0  0  0  0  0  0
  144.5040  133.3319  150.5700 H   0  0  0  0  0  0  0  0  0  0  0  0
  143.6801  133.5077  152.1189 H   0  0  0  0  0  0  0  0  0  0  0  0
  144.2993  135.6868  150.1036 H   0  0  0  0  0  0  0  0  0  0  0  0
  142.7553  135.3422  150.8593 H   0  0  0  0  0  0  0  0  0  0  0  0
  144.5906  137.2524  151.7172 H   0  0  0  0  0  0  0  0  0  0  0  0
  141.9754  138.1868  153.8497 H   0  0  0  0  0  0  0  0  0  0  0  0
  143.2473  138.6327  152.7317 H   0  0  0  0  0  0  0  0  0  0  0  0
  1  2  1  0  0  0  0
  1 21  1  0  0  0  0
  1 22  1  0  0  0  0
  1 23  1  0  0  0  0
  2  3  1  0  0  0  0
  3  8  1  0  0  0  0
  3  4  2  0  0  0  0
  4  5  1  0  0  0  0
  5  6  2  0  0  0  0
  5 24  1  0  0  0  0
  6  7  1  0  0  0  0
  6 25  1  0  0  0  0
  7  8  2  0  0  0  0
  7 26  1  0  0  0  0
  8  9  1  0  0  0  0
  9 10  1  0  0  0  0
  9 27  1  0  0  0  0
 10 11  2  0  0  0  0
 10 12  1  0  0  0  0
 12 13  1  0  0  0  0
 12 28  1  0  0  0  0
 13 17  1  0  0  0  0
 13 14  1  0  0  0  0
 13 29  1  0  0  0  0
 14 15  1  0  0  0  0
 14 30  1  0  0  0  0
 14 31  1  0  0  0  0
 15 16  1  0  0  0  0
 15 32  1  0  0  0  0
 15 33  1  0  0  0  0
 16 17  1  0  0  0  0
 16 34  1  0  0  0  0
 16 35  1  0  0  0  0
 17 18  1  0  0  0  0
 17 36  1  0  0  0  0
 18 19  1  0  0  0  0
 18 20  2  0  0  0  0
 19 37  1  0  0  0  0
 19 38  1  0  0  0  0
M  END
> <s_m_source_file>
AV-unprocessed.smi

> <i_m_source_file_index>
704

> <i_lp_mmshare_version>
43012

> <i_f3d_flags>
0

> <s_epik_input>
W0NIM11PYzFuW2NIXVtjSF1bY0hdYzFbTkhdQyg9TylbTkhdW0NAQEhdMltDSDJdW0NIMl1bQ0gyXVtDQEhdMkMoPU8pW05IMl0=

> <s_epik_cmdline>
J2VwaWtfcHl0aG9uJywgJy1waCcsICc3LjAnLCAnLXRuJywgJzgnLCAnLW1hJywgJzIwMCcsICctbWV0YWxfYmluZGluZycsICctaW1hZScsICc8aW5maWxlLm1hZT4nLCAnLW9tYWUnLCAnPG91dGZpbGUubWFlPic=

> <r_lp_tautomer_probability>
1

> <r_epik_Ionization_Penalty>
9.09123e-05

> <r_epik_Ionization_Penalty_Charging>
0

> <r_epik_Ionization_Penalty_Neutral>
9.09123e-05

> <r_epik_State_Penalty>
-0

> <r_epik_Charging_Adjusted_Penalty>
0

> <i_epik_Tot_Q>
0

> <i_epik_Tot_abs_Q>
0

> <r_epik_Metal_State_Penalty>
-0

> <b_epik_Metal_Only>
0

> <s_lp_Force_Field>
OPLS_2005

> <r_lp_Energy>
16.6187

> <b_lp_Chiralities_Consistent>
1

> <s_lp_Variant>
AV-unprocessed.smi:704-1

> <Gold.Version>
5.8.1

> <Gold.Id.Protein>
6NUR|6NUR_protein|mol2

> <Gold.PLP.Fitness>
43.8980

> <Gold.PLP.PLP>
-30.2361

> <Gold.PLP.part.hbond>
-4.0000

> <Gold.PLP.part.metal>
0.0000

> <Gold.PLP.part.buried>
-4.0536

> <Gold.PLP.part.nonpolar>
-23.3950

> <Gold.PLP.part.repulsive>
0.5419

> <Gold.PLP.ligand.clash>
0.0000

> <Gold.PLP.ligand.torsion>
0.3156

> <Gold.PLP.Chemscore.Hbond>
3.9272

> <Gold.PLP.Chemscore.CHOScore>
0.8298

> <Gold.PLP.Chemscore.Metal>
0.0000

> <Gold.Chemscore.Hbonds>
donor molecule, donor type, donor heavy atom, donor atom, acceptor molecule, acceptor atom, score
      L1  H     9    27       P1  7948  1.00
      L1  H    12    28       P1  7948  1.00
      L1  H    19    38       P1 10175  0.98
      P1  H  7989  7998       L1     4  0.88
      L1  C     5    24       P1  8028  0.82

> <Gold.PLP.Chemscore.Internal.Correction>
0.0222

> <Gold.Rescore>
     Score         DG    S(hbond)    S(metal)    S(lipo)     H(rot)  DE(clash)    DE(int)     intcor
     16.64     -17.73       3.08        0.00      57.72       1.86       0.07       1.02       ----

> <Gold.Chemscore.Fitness>
16.6430

> <Gold.Chemscore.DG>
-17.7346

> <Gold.Chemscore.ZeroCoef>
-5.4800

> <Gold.Chemscore.Hbond>
3.0766

> <Gold.Chemscore.Metal>
0.0000

> <Gold.Chemscore.Lipo>
57.7152

> <Gold.Chemscore.Internal_Hbond>
0.0000

> <Gold.Chemscore.DEClash>
0.0716

> <Gold.Chemscore.DEInternal>
1.0200

> <Gold.Chemscore.Rot>
1.8648

> <Gold.Chemscore.Internal.Correction>
   9.000000E+99

> <Gold.Chemscore.Hbonds>
donor molecule, donor type, donor heavy atom, donor atom, acceptor molecule, acceptor atom, score
      L1  H     9    27       P1  7948  0.95
      L1  H    12    28       P1  7948  0.97
      L1  H    19    38       P1 10175  0.92
      P1  H  7989  7998       L1     4  0.09

> <Gold.Chemscore.Hbond.Weighted>
-10.2758

> <Gold.Chemscore.Metal.Weighted>
-0.0000

> <Gold.Chemscore.Lipo.Weighted>
-6.7527

> <Gold.Chemscore.Internal_Hbond.Weighted>
0.0000

> <Gold.Chemscore.DEClash.Weighted>
0.0716

> <Gold.Chemscore.DEInternal.Weighted>
1.0200

> <Gold.Chemscore.Rot.Weighted>
4.7739

> <Gold.Chemscore.Internal.Correction.Weighted>
   9.000000E+99

> <Gold.Protein.RotatedTorsions>
[ 6907 6896 6895 6894 ] final -127.02 input  -60.11 | X-H torsion
[ 7974 7965 7964 7962 ] final  155.80 input  175.53 | X-H torsion
[ 8008 7997 7996 7995 ] final  117.77 input   59.86 | X-H torsion
[ 10167 10162 10161 10158 ] final   49.44 input  -65.29 | X-H torsion
[ 10718 10713 10712 10709 ] final  -97.50 input   66.30 | X-H torsion
[ 10763 10752 10751 10750 ] final -143.65 input  -60.55 | X-H torsion
[ 11005 11000 10999 10996 ] final  107.50 input  -57.11 | X-H torsion

> <Gold.Protein.ActiveResidues>
 VAL166  LYS551  ARG553  GLY616  TRP617  ASP618  TYR619  PRO620  LYS621  CYS622 
 ASP623  PHE694  ASN695  SER759  ASP760  ASP761  ALA762  ILE779  LEU786  VAL792 
 PHE793  MET794  SER795  GLU796  ALA797  LYS798  CYS799  TRP800  GLU811  SER814 

> <Gold.Protein.RotatedAtoms>
  150.9029  133.7095  159.2874 H   0  0  0  0  0  0  0  0  0  0  0  0  # atno 6907 bound_to 6896
  151.4607  135.1037  159.9733 H   0  0  0  0  0  0  0  0  0  0  0  0  # atno 6908 bound_to 6896
  152.4887  133.8393  159.7199 H   0  0  0  0  0  0  0  0  0  0  0  0  # atno 6909 bound_to 6896
  144.8002  139.7117  143.6185 H   0  0  0  0  0  0  0  0  0  0  0  0  # atno 7974 bound_to 7965
  156.2512  140.2889  156.0730 H   0  0  0  0  0  0  0  0  0  0  0  0  # atno 8008 bound_to 7997
  155.1649  140.0400  157.2868 H   0  0  0  0  0  0  0  0  0  0  0  0  # atno 8009 bound_to 7997
  154.6366  140.2512  155.7377 H   0  0  0  0  0  0  0  0  0  0  0  0  # atno 8010 bound_to 7997
  140.2829  144.3136  150.6260 H   0  0  0  0  0  0  0  0  0  0  0  0  # atno 10167 bound_to 10162
  156.0085  130.5197  150.6384 H   0  0  0  0  0  0  0  0  0  0  0  0  # atno 10718 bound_to 10713
  154.8461  135.3462  154.6221 H   0  0  0  0  0  0  0  0  0  0  0  0  # atno 10763 bound_to 10752
  153.6829  135.6979  153.5117 H   0  0  0  0  0  0  0  0  0  0  0  0  # atno 10764 bound_to 10752
  153.2654  135.4309  155.0891 H   0  0  0  0  0  0  0  0  0  0  0  0  # atno 10765 bound_to 10752
  139.8829  134.9402  156.5829 H   0  0  0  0  0  0  0  0  0  0  0  0  # atno 11005 bound_to 11000
  146.2282  139.5763  142.9573 LP  0  0  0  0  0  0  0  0  0  0  0  0  # atno 17320 bound_to 7965
  145.5571  141.0408  143.2246 LP  0  0  0  0  0  0  0  0  0  0  0  0  # atno 17321 bound_to 7965
  140.5797  143.2173  151.7451 LP  0  0  0  0  0  0  0  0  0  0  0  0  # atno 17342 bound_to 10162
  139.4958  144.4098  152.0093 LP  0  0  0  0  0  0  0  0  0  0  0  0  # atno 17343 bound_to 10162
  157.4169  131.0831  151.1168 LP  0  0  0  0  0  0  0  0  0  0  0  0  # atno 17370 bound_to 10713
  157.1782  130.6297  149.5663 LP  0  0  0  0  0  0  0  0  0  0  0  0  # atno 17371 bound_to 10713
  140.8014  133.8502  155.8730 LP  0  0  0  0  0  0  0  0  0  0  0  0  # atno 17394 bound_to 11000
  140.9589  134.1681  157.4669 LP  0  0  0  0  0  0  0  0  0  0  0  0  # atno 17395 bound_to 11000

$$$$
