AV-unprocessed.smi:1952|AV-procd|sdf|7892|dock3
  -GOLD-   2272010 43D 1   1.00000     0.00000
 Structure written by MMmdl.
 39 40  0  0  0  0  0  0  0  0  3 V2000
  153.2449  143.0643  163.4727 C   0  0  0  0  0  0  0  0  0  0  0  0
  153.1982  142.5854  162.0624 C   0  0  0  0  0  0  0  0  0  0  0  0
  152.4058  142.9084  160.9970 C   0  0  0  0  0  0  0  0  0  0  0  0
  152.8995  142.0686  159.9635 C   0  0  0  0  0  0  0  0  0  0  0  0
  152.3268  142.1057  158.6651 N   0  0  0  0  0  0  0  0  0  0  0  0
  151.1329  142.5952  158.2859 C   0  0  0  0  0  0  0  0  0  0  0  0
  150.3781  143.1176  159.1149 O   0  0  0  0  0  0  0  0  0  0  0  0
  150.9032  142.4243  156.9543 N   0  5  0  0  0  0  0  0  0  0  0  0
  150.0116  141.4153  156.3678 C   0  0  1  0  0  0  0  0  0  0  0  0
  150.6024  140.0236  156.6326 C   0  0  0  0  0  0  0  0  0  0  0  0
  148.5889  141.5450  156.9652 C   0  0  0  0  0  0  0  0  0  0  0  0
  147.6942  142.3787  156.1180 N   0  3  0  0  0  0  0  0  0  0  0  0
  147.5430  141.8974  154.7217 C   0  0  0  0  0  0  0  0  0  0  0  0
  146.7073  142.8999  153.9097 C   0  0  0  0  0  0  0  0  0  0  0  0
  145.4413  143.0804  154.5341 O   0  0  0  0  0  0  0  0  0  0  0  0
  145.5659  143.6084  155.8496 C   0  0  0  0  0  0  0  0  0  0  0  0
  146.3674  142.6317  156.7261 C   0  0  0  0  0  0  0  0  0  0  0  0
  153.9087  141.3076  160.3612 N   0  0  0  0  0  0  0  0  0  0  0  0
  154.1034  141.6333  161.7087 O   0  0  0  0  0  0  0  0  0  0  0  0
  152.6590  143.9756  163.5936 H   0  0  0  0  0  0  0  0  0  0  0  0
  154.2697  143.2788  163.7761 H   0  0  0  0  0  0  0  0  0  0  0  0
  152.8414  142.3105  164.1489 H   0  0  0  0  0  0  0  0  0  0  0  0
  151.6003  143.6271  160.9651 H   0  0  0  0  0  0  0  0  0  0  0  0
  152.8935  141.7136  157.9276 H   0  0  0  0  0  0  0  0  0  0  0  0
  149.9349  141.5285  155.2854 H   0  0  0  0  0  0  0  0  0  0  0  0
  149.9738  139.2439  156.2017 H   0  0  0  0  0  0  0  0  0  0  0  0
  150.6934  139.8234  157.7009 H   0  0  0  0  0  0  0  0  0  0  0  0
  151.5938  139.9255  156.1888 H   0  0  0  0  0  0  0  0  0  0  0  0
  148.1411  140.5608  157.1105 H   0  0  0  0  0  0  0  0  0  0  0  0
  148.6717  141.9816  157.9622 H   0  0  0  0  0  0  0  0  0  0  0  0
  148.5208  141.7759  154.2546 H   0  0  0  0  0  0  0  0  0  0  0  0
  147.0623  140.9179  154.7195 H   0  0  0  0  0  0  0  0  0  0  0  0
  147.2246  143.8569  153.8222 H   0  0  0  0  0  0  0  0  0  0  0  0
  146.5525  142.5271  152.8970 H   0  0  0  0  0  0  0  0  0  0  0  0
  146.0487  144.5867  155.8173 H   0  0  0  0  0  0  0  0  0  0  0  0
  144.5700  143.7577  156.2670 H   0  0  0  0  0  0  0  0  0  0  0  0
  145.8280  141.6900  156.8395 H   0  0  0  0  0  0  0  0  0  0  0  0
  146.4929  143.0568  157.7226 H   0  0  0  0  0  0  0  0  0  0  0  0
  148.1508  143.2797  156.0677 H   0  0  0  0  0  0  0  0  0  0  0  0
  1  2  1  0  0  0  0
  1 20  1  0  0  0  0
  1 21  1  0  0  0  0
  1 22  1  0  0  0  0
  2 19  1  0  0  0  0
  2  3  2  0  0  0  0
  3  4  1  0  0  0  0
  3 23  1  0  0  0  0
  4  5  1  0  0  0  0
  4 18  2  0  0  0  0
  5  6  1  0  0  0  0
  5 24  1  0  0  0  0
  6  7  2  0  0  0  0
  6  8  1  0  0  0  0
  8  9  1  0  0  0  0
  9 10  1  0  0  0  0
  9 11  1  0  0  0  0
  9 25  1  0  0  0  0
 10 26  1  0  0  0  0
 10 27  1  0  0  0  0
 10 28  1  0  0  0  0
 11 12  1  0  0  0  0
 11 29  1  0  0  0  0
 11 30  1  0  0  0  0
 12 17  1  0  0  0  0
 12 13  1  0  0  0  0
 12 39  1  0  0  0  0
 13 14  1  0  0  0  0
 13 31  1  0  0  0  0
 13 32  1  0  0  0  0
 14 15  1  0  0  0  0
 14 33  1  0  0  0  0
 14 34  1  0  0  0  0
 15 16  1  0  0  0  0
 16 17  1  0  0  0  0
 16 35  1  0  0  0  0
 16 36  1  0  0  0  0
 17 37  1  0  0  0  0
 17 38  1  0  0  0  0
 18 19  1  0  0  0  0
M  CHG  1   8  -1
M  CHG  1  12   1
M  END
> <s_m_source_file>
AV-unprocessed.smi

> <i_m_source_file_index>
1952

> <i_lp_mmshare_version>
43012

> <i_f3d_flags>
0

> <s_epik_input>
W0NIM11jMVtjSF1jKG5vMSlbTkhdQyg9TylbTkhdW0NASF0oW0NIM10pW0NIMl1OMltDSDJdW0NIMl1PW0NIMl1bQ0gyXTI=

> <s_epik_cmdline>
J2VwaWtfcHl0aG9uJywgJy1waCcsICc3LjAnLCAnLXRuJywgJzgnLCAnLW1hJywgJzIwMCcsICctbWV0YWxfYmluZGluZycsICctaW1hZScsICc8aW5maWxlLm1hZT4nLCAnLW9tYWUnLCAnPG91dGZpbGUubWFlPic=

> <r_epik_Ionization_Penalty>
6.76648

> <r_epik_Ionization_Penalty_Charging>
6.76648

> <r_epik_Ionization_Penalty_Neutral>
5.6208e-06

> <r_epik_State_Penalty>
7.45901

> <r_epik_Charging_Adjusted_Penalty>
14.2255

> <i_epik_Tot_Q>
0

> <i_epik_Tot_abs_Q>
2

> <r_epik_Metal_State_Penalty>
3.38802

> <b_epik_Metal_Only>
1

> <s_lp_Force_Field>
OPLS_2005

> <r_lp_Energy>
9.12096

> <b_lp_Chiralities_Consistent>
1

> <s_lp_Variant>
AV-unprocessed.smi:1952-10

> <Gold.Version>
5.8.1

> <Gold.Id.Protein>
6NUR|6NUR_protein|mol2

> <Gold.PLP.Fitness>
40.1158

> <Gold.PLP.PLP>
-36.5173

> <Gold.PLP.part.hbond>
-2.3751

> <Gold.PLP.part.metal>
0.0000

> <Gold.PLP.part.buried>
-6.9511

> <Gold.PLP.part.nonpolar>
-26.3949

> <Gold.PLP.part.repulsive>
0.4919

> <Gold.PLP.ligand.clash>
0.0000

> <Gold.PLP.ligand.torsion>
1.2933

> <Gold.PLP.Chemscore.Hbond>
2.0000

> <Gold.PLP.Chemscore.CHOScore>
0.0000

> <Gold.PLP.Chemscore.Metal>
0.0000

> <Gold.Chemscore.Hbonds>
donor molecule, donor type, donor heavy atom, donor atom, acceptor molecule, acceptor atom, score
      L1  H    12    39       P1  8028  2.00

> <Gold.PLP.Chemscore.Internal.Correction>
0.1850

> <Gold.Rescore>
     Score         DG    S(hbond)    S(metal)    S(lipo)     H(rot)  DE(clash)    DE(int)     intcor
      9.74     -12.57       0.91        0.00      69.27       1.58       0.17       2.65       ----

> <Gold.Chemscore.Fitness>
9.7417

> <Gold.Chemscore.DG>
-12.5675

> <Gold.Chemscore.ZeroCoef>
-5.4800

> <Gold.Chemscore.Hbond>
0.9061

> <Gold.Chemscore.Metal>
0.0000

> <Gold.Chemscore.Lipo>
69.2745

> <Gold.Chemscore.Internal_Hbond>
0.0000

> <Gold.Chemscore.DEClash>
0.1725

> <Gold.Chemscore.DEInternal>
2.6533

> <Gold.Chemscore.Rot>
1.5798

> <Gold.Chemscore.Internal.Correction>
   9.000000E+99

> <Gold.Chemscore.Hbonds>
donor molecule, donor type, donor heavy atom, donor atom, acceptor molecule, acceptor atom, score
      L1  H    12    39       P1  8028  0.55

> <Gold.Chemscore.Hbond.Weighted>
-3.0265

> <Gold.Chemscore.Metal.Weighted>
-0.0000

> <Gold.Chemscore.Lipo.Weighted>
-8.1051

> <Gold.Chemscore.Internal_Hbond.Weighted>
0.0000

> <Gold.Chemscore.DEClash.Weighted>
0.1725

> <Gold.Chemscore.DEInternal.Weighted>
2.6533

> <Gold.Chemscore.Rot.Weighted>
4.0442

> <Gold.Chemscore.Internal.Correction.Weighted>
   9.000000E+99

> <Gold.Protein.RotatedTorsions>
[ 6907 6896 6895 6894 ] final   79.44 input  -60.11 | X-H torsion
[ 7974 7965 7964 7962 ] final   72.98 input  175.53 | X-H torsion
[ 8008 7997 7996 7995 ] final -119.28 input   59.86 | X-H torsion
[ 10167 10162 10161 10158 ] final -101.31 input  -65.29 | X-H torsion
[ 10718 10713 10712 10709 ] final -114.47 input   66.30 | X-H torsion
[ 10763 10752 10751 10750 ] final   71.34 input  -60.55 | X-H torsion
[ 11005 11000 10999 10996 ] final   54.30 input  -57.11 | X-H torsion

> <Gold.Protein.ActiveResidues>
 VAL166  LYS551  ARG553  GLY616  TRP617  ASP618  TYR619  PRO620  LYS621  CYS622 
 ASP623  PHE694  ASN695  SER759  ASP760  ASP761  ALA762  ILE779  LEU786  VAL792 
 PHE793  MET794  SER795  GLU796  ALA797  LYS798  CYS799  TRP800  GLU811  SER814 

> <Gold.Protein.RotatedAtoms>
  152.5198  134.3511  159.9251 H   0  0  0  0  0  0  0  0  0  0  0  0  # atno 6907 bound_to 6896
  151.3462  133.3937  159.2683 H   0  0  0  0  0  0  0  0  0  0  0  0  # atno 6908 bound_to 6896
  150.9764  134.9146  159.7876 H   0  0  0  0  0  0  0  0  0  0  0  0  # atno 6909 bound_to 6896
  145.7466  139.2743  143.1455 H   0  0  0  0  0  0  0  0  0  0  0  0  # atno 7974 bound_to 7965
  155.1131  140.0397  157.2729 H   0  0  0  0  0  0  0  0  0  0  0  0  # atno 8008 bound_to 7997
  154.6670  140.2604  155.7022 H   0  0  0  0  0  0  0  0  0  0  0  0  # atno 8009 bound_to 7997
  156.2643  140.2805  156.1164 H   0  0  0  0  0  0  0  0  0  0  0  0  # atno 8010 bound_to 7997
  140.2427  143.3528  152.0787 H   0  0  0  0  0  0  0  0  0  0  0  0  # atno 10167 bound_to 10162
  156.0832  130.6029  150.8779 H   0  0  0  0  0  0  0  0  0  0  0  0  # atno 10718 bound_to 10713
  153.0393  135.5140  154.7578 H   0  0  0  0  0  0  0  0  0  0  0  0  # atno 10763 bound_to 10752
  154.6529  135.2927  154.9967 H   0  0  0  0  0  0  0  0  0  0  0  0  # atno 10764 bound_to 10752
  154.0845  135.6659  153.4895 H   0  0  0  0  0  0  0  0  0  0  0  0  # atno 10765 bound_to 10752
  140.0698  134.5486  155.9059 H   0  0  0  0  0  0  0  0  0  0  0  0  # atno 11005 bound_to 11000
  146.0396  140.8178  142.9835 LP  0  0  0  0  0  0  0  0  0  0  0  0  # atno 17320 bound_to 7965
  144.6859  140.2891  143.7281 LP  0  0  0  0  0  0  0  0  0  0  0  0  # atno 17321 bound_to 7965
  139.5072  144.6828  151.5966 LP  0  0  0  0  0  0  0  0  0  0  0  0  # atno 17342 bound_to 10162
  140.6101  143.9451  150.6447 LP  0  0  0  0  0  0  0  0  0  0  0  0  # atno 17343 bound_to 10162
  157.5957  131.0943  150.9044 LP  0  0  0  0  0  0  0  0  0  0  0  0  # atno 17370 bound_to 10713
  156.9211  130.5315  149.5279 LP  0  0  0  0  0  0  0  0  0  0  0  0  # atno 17371 bound_to 10713
  141.2007  133.6614  156.5911 LP  0  0  0  0  0  0  0  0  0  0  0  0  # atno 17394 bound_to 11000
  140.3644  134.7659  157.4556 LP  0  0  0  0  0  0  0  0  0  0  0  0  # atno 17395 bound_to 11000

$$$$
