AV-unprocessed.smi:3056|AV-procd|sdf|11646|dock6
  -GOLD-   2272017 43D 1   1.00000     0.00000
 Structure written by MMmdl.
 48 49  0  0  0  0  0  0  0  0  2 V2000
  145.7257  131.9539  149.6656 C   0  0  0  0  0  0  0  0  0  0  0  0
  145.4876  132.9609  150.7530 C   0  0  0  0  0  0  0  0  0  0  0  0
  144.2453  133.5068  151.1826 C   0  0  0  0  0  0  0  0  0  0  0  0
  144.3826  134.3910  152.1569 N   0  0  0  0  0  0  0  0  0  0  0  0
  145.7113  134.4319  152.3970 N   0  0  0  0  0  0  0  0  0  0  0  0
  146.2336  135.3557  153.3982 C   0  0  1  0  0  0  0  0  0  0  0  0
  145.0888  136.2207  153.9602 C   0  0  0  0  0  0  0  0  0  0  0  0
  147.0277  134.5895  154.4895 C   0  0  2  0  0  0  0  0  0  0  0  0
  146.5651  134.9458  155.9155 C   0  0  0  0  0  0  0  0  0  0  0  0
  148.4785  134.8728  154.3499 N   0  3  0  0  0  0  0  0  0  0  0  0
  149.0062  135.9857  155.1743 C   0  0  0  0  0  0  0  0  0  0  0  0
  150.4521  136.3775  154.8226 C   0  0  0  0  0  0  0  0  0  0  0  0
  151.3433  135.5372  154.9515 O   0  0  0  0  0  0  0  0  0  0  0  0
  150.7042  137.6314  154.3770 N   0  0  0  0  0  0  0  0  0  0  0  0
  152.0250  138.1920  154.0732 C   0  0  0  0  0  0  0  0  0  0  0  0
  152.2871  139.3673  155.0313 C   0  0  0  0  0  0  0  0  0  0  0  0
  151.2506  140.3365  154.8987 O   0  0  0  0  0  0  0  0  0  0  0  0
  149.9524  139.8158  155.1777 C   0  0  1  0  0  0  0  0  0  0  0  0
  148.9372  140.9544  155.0318 C   0  0  0  0  0  0  0  0  0  0  0  0
  149.6612  138.6487  154.2133 C   0  0  0  0  0  0  0  0  0  0  0  0
  146.4018  133.5820  151.5554 C   0  0  0  0  0  0  0  0  0  0  0  0
  144.8350  131.3591  149.4625 H   0  0  0  0  0  0  0  0  0  0  0  0
  146.5234  131.2583  149.9265 H   0  0  0  0  0  0  0  0  0  0  0  0
  146.0111  132.4354  148.7301 H   0  0  0  0  0  0  0  0  0  0  0  0
  143.2539  133.2943  150.8102 H   0  0  0  0  0  0  0  0  0  0  0  0
  146.9218  136.0336  152.8890 H   0  0  0  0  0  0  0  0  0  0  0  0
  145.4668  137.0465  154.5623 H   0  0  0  0  0  0  0  0  0  0  0  0
  144.4113  135.6365  154.5835 H   0  0  0  0  0  0  0  0  0  0  0  0
  144.5015  136.6621  153.1541 H   0  0  0  0  0  0  0  0  0  0  0  0
  146.8660  133.5218  154.3325 H   0  0  0  0  0  0  0  0  0  0  0  0
  145.5298  134.6530  156.0874 H   0  0  0  0  0  0  0  0  0  0  0  0
  146.6442  136.0174  156.1010 H   0  0  0  0  0  0  0  0  0  0  0  0
  147.1593  134.4364  156.6737 H   0  0  0  0  0  0  0  0  0  0  0  0
  148.9871  134.0395  154.6124 H   0  0  0  0  0  0  0  0  0  0  0  0
  148.3708  136.8537  154.9962 H   0  0  0  0  0  0  0  0  0  0  0  0
  148.9259  135.7362  156.2319 H   0  0  0  0  0  0  0  0  0  0  0  0
  152.8404  137.4760  154.1557 H   0  0  0  0  0  0  0  0  0  0  0  0
  152.0364  138.5419  153.0400 H   0  0  0  0  0  0  0  0  0  0  0  0
  152.3446  139.0221  156.0649 H   0  0  0  0  0  0  0  0  0  0  0  0
  153.2419  139.8389  154.7983 H   0  0  0  0  0  0  0  0  0  0  0  0
  149.9279  139.4563  156.2081 H   0  0  0  0  0  0  0  0  0  0  0  0
  147.9267  140.6097  155.2529 H   0  0  0  0  0  0  0  0  0  0  0  0
  148.9397  141.3588  154.0192 H   0  0  0  0  0  0  0  0  0  0  0  0
  149.1662  141.7708  155.7170 H   0  0  0  0  0  0  0  0  0  0  0  0
  149.6633  138.9998  153.1802 H   0  0  0  0  0  0  0  0  0  0  0  0
  148.6584  138.2605  154.3968 H   0  0  0  0  0  0  0  0  0  0  0  0
  147.4779  133.4959  151.5872 H   0  0  0  0  0  0  0  0  0  0  0  0
  148.6660  135.0652  153.3765 H   0  0  0  0  0  0  0  0  0  0  0  0
  1  2  1  0  0  0  0
  1 22  1  0  0  0  0
  1 23  1  0  0  0  0
  1 24  1  0  0  0  0
  2 21  2  0  0  0  0
  2  3  1  0  0  0  0
  3  4  2  0  0  0  0
  3 25  1  0  0  0  0
  4  5  1  0  0  0  0
  5  6  1  0  0  0  0
  5 21  1  0  0  0  0
  6  7  1  0  0  0  0
  6  8  1  0  0  0  0
  6 26  1  0  0  0  0
  7 27  1  0  0  0  0
  7 28  1  0  0  0  0
  7 29  1  0  0  0  0
  8  9  1  0  0  0  0
  8 10  1  0  0  0  0
  8 30  1  0  0  0  0
  9 31  1  0  0  0  0
  9 32  1  0  0  0  0
  9 33  1  0  0  0  0
 10 11  1  0  0  0  0
 10 34  1  0  0  0  0
 10 48  1  0  0  0  0
 11 12  1  0  0  0  0
 11 35  1  0  0  0  0
 11 36  1  0  0  0  0
 12 13  2  0  0  0  0
 12 14  1  0  0  0  0
 14 20  1  0  0  0  0
 14 15  1  0  0  0  0
 15 16  1  0  0  0  0
 15 37  1  0  0  0  0
 15 38  1  0  0  0  0
 16 17  1  0  0  0  0
 16 39  1  0  0  0  0
 16 40  1  0  0  0  0
 17 18  1  0  0  0  0
 18 19  1  0  0  0  0
 18 20  1  0  0  0  0
 18 41  1  0  0  0  0
 19 42  1  0  0  0  0
 19 43  1  0  0  0  0
 19 44  1  0  0  0  0
 20 45  1  0  0  0  0
 20 46  1  0  0  0  0
 21 47  1  0  0  0  0
M  CHG  1  10   1
M  END
> <s_m_source_file>
AV-unprocessed.smi

> <i_m_source_file_index>
3056

> <i_lp_mmshare_version>
43012

> <i_f3d_flags>
0

> <s_epik_input>
W0NIM11jMVtjSF1ubihbY0hdMSlbQ0BIXShbQ0gzXSlbQ0BIXShbQ0gzXSlbTkhdW0NIMl1DKD1PKU4yW0NIMl1bQ0gyXU9bQ0BASF0oW0NIM10pW0NIMl0y

> <s_epik_cmdline>
J2VwaWtfcHl0aG9uJywgJy1waCcsICc3LjAnLCAnLXRuJywgJzgnLCAnLW1hJywgJzIwMCcsICctbWV0YWxfYmluZGluZycsICctaW1hZScsICc8aW5maWxlLm1hZT4nLCAnLW9tYWUnLCAnPG91dGZpbGUubWFlPic=

> <r_lp_tautomer_probability>
1

> <r_epik_Ionization_Penalty>
0.233715

> <r_epik_Ionization_Penalty_Charging>
0.233698

> <r_epik_Ionization_Penalty_Neutral>
1.68157e-05

> <r_epik_State_Penalty>
0.225221

> <r_epik_Charging_Adjusted_Penalty>
0.458919

> <i_epik_Tot_Q>
1

> <i_epik_Tot_abs_Q>
1

> <r_epik_Metal_State_Penalty>
0.225535

> <b_epik_Metal_Only>
0

> <s_lp_Force_Field>
OPLS_2005

> <r_lp_Energy>
27.0437

> <b_lp_Chiralities_Consistent>
1

> <s_lp_Variant>
AV-unprocessed.smi:3056-2

> <Gold.Version>
5.8.1

> <Gold.Id.Protein>
6NUR|6NUR_protein|mol2

> <Gold.PLP.Fitness>
47.1787

> <Gold.PLP.PLP>
-35.7942

> <Gold.PLP.part.hbond>
-2.7997

> <Gold.PLP.part.metal>
0.0000

> <Gold.PLP.part.buried>
-3.4390

> <Gold.PLP.part.nonpolar>
-30.0517

> <Gold.PLP.part.repulsive>
0.3088

> <Gold.PLP.ligand.clash>
0.0000

> <Gold.PLP.ligand.torsion>
1.9040

> <Gold.PLP.Chemscore.Hbond>
3.9920

> <Gold.PLP.Chemscore.CHOScore>
1.0194

> <Gold.PLP.Chemscore.Metal>
0.0000

> <Gold.Chemscore.Hbonds>
donor molecule, donor type, donor heavy atom, donor atom, acceptor molecule, acceptor atom, score
      L1  H    10    48       P1  7948  2.00
      P1  H  7989  7998       L1    17  0.90
      P1  H 10752 10765       L1    13  1.00
      L1  C     3    25       P1 10186  0.30

> <Gold.PLP.Chemscore.Internal.Correction>
0.1584

> <Gold.Rescore>
     Score         DG    S(hbond)    S(metal)    S(lipo)     H(rot)  DE(clash)    DE(int)     intcor
     15.61     -18.22       2.37        0.00      79.36       1.74       0.22       2.39       ----

> <Gold.Chemscore.Fitness>
15.6104

> <Gold.Chemscore.DG>
-18.2234

> <Gold.Chemscore.ZeroCoef>
-5.4800

> <Gold.Chemscore.Hbond>
2.3655

> <Gold.Chemscore.Metal>
0.0000

> <Gold.Chemscore.Lipo>
79.3622

> <Gold.Chemscore.Internal_Hbond>
0.0000

> <Gold.Chemscore.DEClash>
0.2232

> <Gold.Chemscore.DEInternal>
2.3899

> <Gold.Chemscore.Rot>
1.7354

> <Gold.Chemscore.Internal.Correction>
   9.000000E+99

> <Gold.Chemscore.Hbonds>
donor molecule, donor type, donor heavy atom, donor atom, acceptor molecule, acceptor atom, score
      L1  H    10    48       P1  7948  0.69
      P1  H  7989  7998       L1    17  0.16
      P1  H 10752 10765       L1    13  0.97

> <Gold.Chemscore.Hbond.Weighted>
-7.9007

> <Gold.Chemscore.Metal.Weighted>
-0.0000

> <Gold.Chemscore.Lipo.Weighted>
-9.2854

> <Gold.Chemscore.Internal_Hbond.Weighted>
0.0000

> <Gold.Chemscore.DEClash.Weighted>
0.2232

> <Gold.Chemscore.DEInternal.Weighted>
2.3899

> <Gold.Chemscore.Rot.Weighted>
4.4426

> <Gold.Chemscore.Internal.Correction.Weighted>
   9.000000E+99

> <Gold.Protein.RotatedTorsions>
[ 6907 6896 6895 6894 ] final -140.11 input  -60.11 | X-H torsion
[ 7974 7965 7964 7962 ] final  -49.57 input  175.53 | X-H torsion
[ 8008 7997 7996 7995 ] final  -60.18 input   59.86 | X-H torsion
[ 10167 10162 10161 10158 ] final -123.22 input  -65.29 | X-H torsion
[ 10718 10713 10712 10709 ] final  -25.38 input   66.30 | X-H torsion
[ 10763 10752 10751 10750 ] final -171.89 input  -60.55 | X-H torsion
[ 11005 11000 10999 10996 ] final   37.88 input  -57.11 | X-H torsion

> <Gold.Protein.ActiveResidues>
 VAL166  LYS551  ARG553  GLY616  TRP617  ASP618  TYR619  PRO620  LYS621  CYS622 
 ASP623  PHE694  ASN695  SER759  ASP760  ASP761  ALA762  ILE779  LEU786  VAL792 
 PHE793  MET794  SER795  GLU796  ALA797  LYS798  CYS799  TRP800  GLU811  SER814 

> <Gold.Protein.RotatedAtoms>
  151.0565  133.5580  159.2637 H   0  0  0  0  0  0  0  0  0  0  0  0  # atno 6907 bound_to 6896
  151.2572  135.0641  159.9094 H   0  0  0  0  0  0  0  0  0  0  0  0  # atno 6908 bound_to 6896
  152.5390  134.0316  159.8081 H   0  0  0  0  0  0  0  0  0  0  0  0  # atno 6909 bound_to 6896
  145.9391  140.7679  142.9561 H   0  0  0  0  0  0  0  0  0  0  0  0  # atno 7974 bound_to 7965
  154.4386  140.1045  156.6233 H   0  0  0  0  0  0  0  0  0  0  0  0  # atno 8008 bound_to 7997
  155.5684  140.3489  155.4490 H   0  0  0  0  0  0  0  0  0  0  0  0  # atno 8009 bound_to 7997
  156.0408  140.1281  157.0147 H   0  0  0  0  0  0  0  0  0  0  0  0  # atno 8010 bound_to 7997
  140.0058  143.5493  152.2284 H   0  0  0  0  0  0  0  0  0  0  0  0  # atno 10167 bound_to 10162
  156.4651  130.4512  149.6904 H   0  0  0  0  0  0  0  0  0  0  0  0  # atno 10718 bound_to 10713
  154.6254  135.2880  155.0278 H   0  0  0  0  0  0  0  0  0  0  0  0  # atno 10763 bound_to 10752
  154.1457  135.6511  153.4956 H   0  0  0  0  0  0  0  0  0  0  0  0  # atno 10764 bound_to 10752
  153.0255  135.5343  154.7061 H   0  0  0  0  0  0  0  0  0  0  0  0  # atno 10765 bound_to 10752
  140.2182  134.3673  155.8017 H   0  0  0  0  0  0  0  0  0  0  0  0  # atno 11005 bound_to 11000
  144.6776  140.2251  143.7362 LP  0  0  0  0  0  0  0  0  0  0  0  0  # atno 17320 bound_to 7965
  145.8324  139.2092  143.1875 LP  0  0  0  0  0  0  0  0  0  0  0  0  # atno 17321 bound_to 7965
  139.6239  144.7634  151.2680 LP  0  0  0  0  0  0  0  0  0  0  0  0  # atno 17342 bound_to 10162
  140.7401  143.6598  150.8174 LP  0  0  0  0  0  0  0  0  0  0  0  0  # atno 17343 bound_to 10162
  156.3676  130.7514  151.2493 LP  0  0  0  0  0  0  0  0  0  0  0  0  # atno 17370 bound_to 10713
  157.7495  131.0332  150.4262 LP  0  0  0  0  0  0  0  0  0  0  0  0  # atno 17371 bound_to 10713
  141.2224  133.7179  156.8531 LP  0  0  0  0  0  0  0  0  0  0  0  0  # atno 17394 bound_to 11000
  140.1878  134.8987  157.3025 LP  0  0  0  0  0  0  0  0  0  0  0  0  # atno 17395 bound_to 11000

$$$$
