#       Name:                AV-unprocessed.smi:2510
#       Creating user name   scv26
#       Creation time:       Fri Mar 27 13:50:31 2020


#       File generated by GOLD software.
#

@<TRIPOS>MOLECULE
AV-unprocessed.smi:2510
    53    54     1
SMALL
NO_CHARGES


@<TRIPOS>ATOM
      1 ****        -3.3789   1.8603  -0.6963 C.3            1 S1                 0.0000
      2 ****        -3.0545   0.4205  -0.2643 C.3            1 S1                 0.0000
      3 ****        -1.5561   0.1401   0.0097 C.3            1 S1                 0.0000
      4 ****        -0.7484   0.3797  -1.2901 C.3            1 S1                 0.0000
      5 ****        -1.1429  -0.5147  -2.4757 C.3            1 S1                 0.0000
      6 ****        -1.0401   0.7970   1.3267 C.3            1 S1                 0.0000
      7 ****         0.3844   1.1272   1.3042 N.am           1 S1                 0.0000
      8 ****         0.8868   2.3345   1.0039 C.2            1 S1                 0.0000
      9 ****         0.1887   3.3270   0.7983 O.2            1 S1                 0.0000
     10 ****         2.4100   2.4289   0.8974 C.3            1 S1                 0.0000
     11 ****         2.8996   1.5751  -0.2433 C.2            1 S1                 0.0000
     12 ****         3.2928   0.2041  -0.2060 C.2            1 S1                 0.0000
     13 ****         3.6124  -0.0917  -1.5010 C.2            1 S1                 0.0000
     14 ****         4.0829  -1.3551  -2.1367 C.3            1 S1                 0.0000
     15 ****         3.4158   1.0650  -2.2192 N.pl3          1 S1                 0.0000
     16 ****         2.9834   2.0903  -1.4623 N.2            1 S1                 0.0000
     17 ****        -1.3113  -0.5200   2.0765 C.3            1 S1                 0.0000
     18 ****        -0.3868  -0.9779   3.2021 C.3            1 S1                 0.0000
     19 ****        -1.2525  -1.2099   0.7061 C.3            1 S1                 0.0000
     20 ****        -2.2581  -2.1861   0.4774 O.3            1 S1                 0.0000
     21 ****        -1.9794  -3.4289   1.0971 C.3            1 S1                 0.0000
     22 ****         3.5693   1.1678  -3.2124 H              1 S1                 0.0000
     23 ****        -4.4574   2.0066  -0.7542 H              1 S1                 0.0000
     24 ****        -2.9719   2.0901  -1.6806 H              1 S1                 0.0000
     25 ****        -2.9862   2.5919   0.0095 H              1 S1                 0.0000
     26 ****        -3.6368   0.2158   0.6344 H              1 S1                 0.0000
     27 ****        -3.4518  -0.2726  -1.0053 H              1 S1                 0.0000
     28 ****        -0.7911   1.4266  -1.5899 H              1 S1                 0.0000
     29 ****         0.3088   0.1873  -1.1095 H              1 S1                 0.0000
     30 ****        -0.4478  -0.3769  -3.3039 H              1 S1                 0.0000
     31 ****        -2.1382  -0.2799  -2.8510 H              1 S1                 0.0000
     32 ****        -1.1229  -1.5696  -2.2013 H              1 S1                 0.0000
     33 ****        -1.6678   1.6094   1.6960 H              1 S1                 0.0000
     34 ****         1.0319   0.3687   1.4626 H              1 S1                 0.0000
     35 ****         2.7049   3.4700   0.7581 H              1 S1                 0.0000
     36 ****         2.8543   2.1014   1.8379 H              1 S1                 0.0000
     37 ****         3.3215  -0.4633   0.6428 H              1 S1                 0.0000
     38 ****         3.9986  -2.1933  -1.4448 H              1 S1                 0.0000
     39 ****         5.1269  -1.2709  -2.4389 H              1 S1                 0.0000
     40 ****         3.4904  -1.5888  -3.0215 H              1 S1                 0.0000
     41 ****        -2.3448  -0.5061   2.4269 H              1 S1                 0.0000
     42 ****         0.6227  -1.1758   2.8412 H              1 S1                 0.0000
     43 ****        -0.7516  -1.8937   3.6664 H              1 S1                 0.0000
     44 ****        -0.3163  -0.2221   3.9844 H              1 S1                 0.0000
     45 ****        -0.2505  -1.5724   0.4651 H              1 S1                 0.0000
     46 ****        -2.7642  -4.1432   0.8491 H              1 S1                 0.0000
     47 ****        -1.9470  -3.3340   2.1823 H              1 S1                 0.0000
     48 ****        -1.0299  -3.8390   0.7512 H              1 S1                 0.0000
     49 ****        -0.8075   3.2574   0.8516 LP             1 S1                 0.0000
     50 ****         0.6176   4.2031   0.5780 LP             1 S1                 0.0000
     51 ****         2.7738   3.0242  -1.7520 LP             1 S1                 0.0000
     52 ****        -2.3398  -2.3335  -0.5083 LP             1 S1                 0.0000
     53 ****        -3.1251  -1.8395   0.8356 LP             1 S1                 0.0000
@<TRIPOS>BOND
    1    1    2 1     
    2    1   23 1     
    3    1   24 1     
    4    1   25 1     
    5    2    3 1     
    6    2   26 1     
    7    2   27 1     
    8    3   19 1     
    9    3    4 1     
   10    3    6 1     
   11    4    5 1     
   12    4   28 1     
   13    4   29 1     
   14    5   30 1     
   15    5   31 1     
   16    5   32 1     
   17    6    7 1     
   18    6   17 1     
   19    6   33 1     
   20    7    8 am    
   21    7   34 1     
   22    8    9 2     
   23    8   10 1     
   24   10   11 1     
   25   10   35 1     
   26   10   36 1     
   27   11   16 2     
   28   11   12 1     
   29   12   13 2     
   30   12   37 1     
   31   13   14 1     
   32   13   15 1     
   33   14   38 1     
   34   14   39 1     
   35   14   40 1     
   36   15   22 1     
   37   15   16 1     
   38   17   18 1     
   39   17   19 1     
   40   17   41 1     
   41   18   42 1     
   42   18   43 1     
   43   18   44 1     
   44   19   20 1     
   45   19   45 1     
   46   20   21 1     
   47   21   46 1     
   48   21   47 1     
   49   21   48 1     
   50    9   49 1     
   51    9   50 1     
   52   16   51 1     
   53   20   52 1     
   54   20   53 1     
@<TRIPOS>SUBSTRUCTURE
      1 S1             1
@<TRIPOS>SET
LONE_PAIRS      STATIC     ATOMS    <user>   **** ""
5 49 50 51 52 53
DONOR_HYDROGENS      STATIC     ATOMS    <user>   **** ""
2 34 22
ATOM$BLUE        STATIC     ATOMS    COLORGROUP SYSTEM
5 49 50 51 52 53
ATOM$RED        STATIC     ATOMS    COLORGROUP SYSTEM
2 34 22
