AV-unprocessed.smi:1952|AV-procd|sdf|7884|dock3
  -GOLD-   2272010 33D 1   1.00000     0.00000
 Structure written by MMmdl.
 39 40  0  0  0  0  0  0  0  0  1 V2000
  153.7728  141.7918  160.6426 C   0  0  0  0  0  0  0  0  0  0  0  0
  152.9438  142.3849  159.5554 C   0  0  0  0  0  0  0  0  0  0  0  0
  151.9599  141.8780  158.7538 C   0  0  0  0  0  0  0  0  0  0  0  0
  151.6058  142.9879  157.9414 C   0  0  0  0  0  0  0  0  0  0  0  0
  150.5965  142.8720  156.9521 N   0  0  0  0  0  0  0  0  0  0  0  0
  149.9229  141.7655  156.5947 C   0  0  0  0  0  0  0  0  0  0  0  0
  150.0861  140.6482  157.0860 O   0  0  0  0  0  0  0  0  0  0  0  0
  149.0414  142.0295  155.6182 N   0  0  0  0  0  0  0  0  0  0  0  0
  148.1673  141.0543  154.9677 C   0  0  1  0  0  0  0  0  0  0  0  0
  147.2171  141.7922  154.0152 C   0  0  0  0  0  0  0  0  0  0  0  0
  149.0087  140.0042  154.2103 C   0  0  0  0  0  0  0  0  0  0  0  0
  149.8063  139.1071  155.0477 N   0  0  0  0  0  0  0  0  0  0  0  0
  149.4501  137.7011  154.8671 C   0  0  0  0  0  0  0  0  0  0  0  0
  150.3091  136.7763  155.7465 C   0  0  0  0  0  0  0  0  0  0  0  0
  151.6881  136.9921  155.4640 O   0  0  0  0  0  0  0  0  0  0  0  0
  152.0855  138.3438  155.6697 C   0  0  0  0  0  0  0  0  0  0  0  0
  151.2319  139.2706  154.7871 C   0  0  0  0  0  0  0  0  0  0  0  0
  152.3095  144.0740  158.2220 N   0  0  0  0  0  0  0  0  0  0  0  0
  153.1709  143.6930  159.2575 O   0  0  0  0  0  0  0  0  0  0  0  0
  153.4543  140.7729  160.8639 H   0  0  0  0  0  0  0  0  0  0  0  0
  153.6881  142.3784  161.5575 H   0  0  0  0  0  0  0  0  0  0  0  0
  154.8237  141.7623  160.3544 H   0  0  0  0  0  0  0  0  0  0  0  0
  151.5606  140.8748  158.7515 H   0  0  0  0  0  0  0  0  0  0  0  0
  150.3651  143.7224  156.4609 H   0  0  0  0  0  0  0  0  0  0  0  0
  148.9831  142.9790  155.2809 H   0  0  0  0  0  0  0  0  0  0  0  0
  147.5402  140.5573  155.7084 H   0  0  0  0  0  0  0  0  0  0  0  0
  146.5310  141.0965  153.5312 H   0  0  0  0  0  0  0  0  0  0  0  0
  147.7651  142.3174  153.2321 H   0  0  0  0  0  0  0  0  0  0  0  0
  146.6151  142.5267  154.5513 H   0  0  0  0  0  0  0  0  0  0  0  0
  148.3546  139.4113  153.5690 H   0  0  0  0  0  0  0  0  0  0  0  0
  149.6763  140.5405  153.5339 H   0  0  0  0  0  0  0  0  0  0  0  0
  148.4020  137.5370  155.1133 H   0  0  0  0  0  0  0  0  0  0  0  0
  149.5725  137.4192  153.8202 H   0  0  0  0  0  0  0  0  0  0  0  0
  150.1134  136.9598  156.8044 H   0  0  0  0  0  0  0  0  0  0  0  0
  150.0637  135.7321  155.5517 H   0  0  0  0  0  0  0  0  0  0  0  0
  151.9769  138.6060  156.7234 H   0  0  0  0  0  0  0  0  0  0  0  0
  153.1415  138.4481  155.4200 H   0  0  0  0  0  0  0  0  0  0  0  0
  151.4425  139.0633  153.7367 H   0  0  0  0  0  0  0  0  0  0  0  0
  151.5251  140.3057  154.9659 H   0  0  0  0  0  0  0  0  0  0  0  0
  1  2  1  0  0  0  0
  1 20  1  0  0  0  0
  1 21  1  0  0  0  0
  1 22  1  0  0  0  0
  2 19  1  0  0  0  0
  2  3  2  0  0  0  0
  3  4  1  0  0  0  0
  3 23  1  0  0  0  0
  4  5  1  0  0  0  0
  4 18  2  0  0  0  0
  5  6  1  0  0  0  0
  5 24  1  0  0  0  0
  6  7  2  0  0  0  0
  6  8  1  0  0  0  0
  8  9  1  0  0  0  0
  8 25  1  0  0  0  0
  9 10  1  0  0  0  0
  9 11  1  0  0  0  0
  9 26  1  0  0  0  0
 10 27  1  0  0  0  0
 10 28  1  0  0  0  0
 10 29  1  0  0  0  0
 11 12  1  0  0  0  0
 11 30  1  0  0  0  0
 11 31  1  0  0  0  0
 12 17  1  0  0  0  0
 12 13  1  0  0  0  0
 13 14  1  0  0  0  0
 13 32  1  0  0  0  0
 13 33  1  0  0  0  0
 14 15  1  0  0  0  0
 14 34  1  0  0  0  0
 14 35  1  0  0  0  0
 15 16  1  0  0  0  0
 16 17  1  0  0  0  0
 16 36  1  0  0  0  0
 16 37  1  0  0  0  0
 17 38  1  0  0  0  0
 17 39  1  0  0  0  0
 18 19  1  0  0  0  0
M  END
> <s_m_source_file>
AV-unprocessed.smi

> <i_m_source_file_index>
1952

> <i_lp_mmshare_version>
43012

> <i_f3d_flags>
0

> <s_epik_input>
W0NIM11jMVtjSF1jKG5vMSlbTkhdQyg9TylbTkhdW0NASF0oW0NIM10pW0NIMl1OMltDSDJdW0NIMl1PW0NIMl1bQ0gyXTI=

> <s_epik_cmdline>
J2VwaWtfcHl0aG9uJywgJy1waCcsICc3LjAnLCAnLXRuJywgJzgnLCAnLW1hJywgJzIwMCcsICctbWV0YWxfYmluZGluZycsICctaW1hZScsICc8aW5maWxlLm1hZT4nLCAnLW9tYWUnLCAnPG91dGZpbGUubWFlPic=

> <r_epik_Ionization_Penalty>
0.214075

> <r_epik_Ionization_Penalty_Charging>
0

> <r_epik_Ionization_Penalty_Neutral>
0.214075

> <r_epik_State_Penalty>
0.204211

> <r_epik_Charging_Adjusted_Penalty>
0.204211

> <i_epik_Tot_Q>
0

> <i_epik_Tot_abs_Q>
0

> <r_epik_Metal_State_Penalty>
0.218782

> <b_epik_Metal_Only>
0

> <s_lp_Force_Field>
OPLS_2005

> <r_lp_Energy>
23.1471

> <b_lp_Chiralities_Consistent>
1

> <s_lp_Variant>
AV-unprocessed.smi:1952-2

> <Gold.Version>
5.8.1

> <Gold.Id.Protein>
6NUR|6NUR_protein|mol2

> <Gold.PLP.Fitness>
41.5858

> <Gold.PLP.PLP>
-34.3246

> <Gold.PLP.part.hbond>
-3.0000

> <Gold.PLP.part.metal>
0.0000

> <Gold.PLP.part.buried>
-3.8118

> <Gold.PLP.part.nonpolar>
-28.5577

> <Gold.PLP.part.repulsive>
0.3684

> <Gold.PLP.ligand.clash>
0.0000

> <Gold.PLP.ligand.torsion>
0.8092

> <Gold.PLP.Chemscore.Hbond>
2.9520

> <Gold.PLP.Chemscore.CHOScore>
0.0000

> <Gold.PLP.Chemscore.Metal>
0.0000

> <Gold.Chemscore.Hbonds>
donor molecule, donor type, donor heavy atom, donor atom, acceptor molecule, acceptor atom, score
      L1  H     5    24       P1  8028  0.90
      L1  H     8    25       P1  8028  0.98
      P1  H 10752 10763       L1    15  0.93

> <Gold.PLP.Chemscore.Internal.Correction>
0.0236

> <Gold.Rescore>
     Score         DG    S(hbond)    S(metal)    S(lipo)     H(rot)  DE(clash)    DE(int)     intcor
     15.52     -19.34       2.83        0.00      71.71       1.56       0.05       3.78       ----

> <Gold.Chemscore.Fitness>
15.5177

> <Gold.Chemscore.DG>
-19.3439

> <Gold.Chemscore.ZeroCoef>
-5.4800

> <Gold.Chemscore.Hbond>
2.8342

> <Gold.Chemscore.Metal>
0.0000

> <Gold.Chemscore.Lipo>
71.7141

> <Gold.Chemscore.Internal_Hbond>
0.0000

> <Gold.Chemscore.DEClash>
0.0456

> <Gold.Chemscore.DEInternal>
3.7806

> <Gold.Chemscore.Rot>
1.5597

> <Gold.Chemscore.Internal.Correction>
   9.000000E+99

> <Gold.Chemscore.Hbonds>
donor molecule, donor type, donor heavy atom, donor atom, acceptor molecule, acceptor atom, score
      L1  H     5    24       P1  8028  0.86
      L1  H     8    25       P1  8028  0.93
      P1  H 10752 10763       L1    15  0.86

> <Gold.Chemscore.Hbond.Weighted>
-9.4661

> <Gold.Chemscore.Metal.Weighted>
-0.0000

> <Gold.Chemscore.Lipo.Weighted>
-8.3906

> <Gold.Chemscore.Internal_Hbond.Weighted>
0.0000

> <Gold.Chemscore.DEClash.Weighted>
0.0456

> <Gold.Chemscore.DEInternal.Weighted>
3.7806

> <Gold.Chemscore.Rot.Weighted>
3.9928

> <Gold.Chemscore.Internal.Correction.Weighted>
   9.000000E+99

> <Gold.Protein.RotatedTorsions>
[ 6907 6896 6895 6894 ] final -110.19 input  -60.11 | X-H torsion
[ 7974 7965 7964 7962 ] final   -0.87 input  175.53 | X-H torsion
[ 8008 7997 7996 7995 ] final -130.82 input   59.86 | X-H torsion
[ 10167 10162 10161 10158 ] final  -91.39 input  -65.29 | X-H torsion
[ 10718 10713 10712 10709 ] final  -49.02 input   66.30 | X-H torsion
[ 10763 10752 10751 10750 ] final   62.20 input  -60.55 | X-H torsion
[ 11005 11000 10999 10996 ] final  -99.54 input  -57.11 | X-H torsion

> <Gold.Protein.ActiveResidues>
 VAL166  LYS551  ARG553  GLY616  TRP617  ASP618  TYR619  PRO620  LYS621  CYS622 
 ASP623  PHE694  ASN695  SER759  ASP760  ASP761  ALA762  ILE779  LEU786  VAL792 
 PHE793  MET794  SER795  GLU796  ALA797  LYS798  CYS799  TRP800  GLU811  SER814 

> <Gold.Protein.RotatedAtoms>
  150.7609  133.9418  159.3458 H   0  0  0  0  0  0  0  0  0  0  0  0  # atno 6907 bound_to 6896
  151.7326  135.0869  160.0312 H   0  0  0  0  0  0  0  0  0  0  0  0  # atno 6908 bound_to 6896
  152.3580  133.6223  159.6029 H   0  0  0  0  0  0  0  0  0  0  0  0  # atno 6909 bound_to 6896
  146.2423  140.1335  142.8337 H   0  0  0  0  0  0  0  0  0  0  0  0  # atno 7974 bound_to 7965
  155.3022  140.0453  157.3030 H   0  0  0  0  0  0  0  0  0  0  0  0  # atno 8008 bound_to 7997
  154.5480  140.2308  155.8498 H   0  0  0  0  0  0  0  0  0  0  0  0  # atno 8009 bound_to 7997
  156.1942  140.3043  155.9399 H   0  0  0  0  0  0  0  0  0  0  0  0  # atno 8010 bound_to 7997
  140.3453  143.2920  151.9788 H   0  0  0  0  0  0  0  0  0  0  0  0  # atno 10167 bound_to 10162
  156.1932  130.4153  149.9342 H   0  0  0  0  0  0  0  0  0  0  0  0  # atno 10718 bound_to 10713
  152.9975  135.5473  154.6155 H   0  0  0  0  0  0  0  0  0  0  0  0  # atno 10763 bound_to 10752
  154.5466  135.2823  155.1049 H   0  0  0  0  0  0  0  0  0  0  0  0  # atno 10764 bound_to 10752
  154.2306  135.6434  153.5226 H   0  0  0  0  0  0  0  0  0  0  0  0  # atno 10765 bound_to 10752
  141.1305  133.8329  157.0985 H   0  0  0  0  0  0  0  0  0  0  0  0  # atno 11005 bound_to 11000
  145.0306  140.8868  143.5111 LP  0  0  0  0  0  0  0  0  0  0  0  0  # atno 17320 bound_to 7965
  145.1398  139.2579  143.5496 LP  0  0  0  0  0  0  0  0  0  0  0  0  # atno 17321 bound_to 7965
  139.4834  144.6122  151.7412 LP  0  0  0  0  0  0  0  0  0  0  0  0  # atno 17342 bound_to 10162
  140.5270  144.0790  150.6041 LP  0  0  0  0  0  0  0  0  0  0  0  0  # atno 17343 bound_to 10162
  156.7076  130.8957  151.3606 LP  0  0  0  0  0  0  0  0  0  0  0  0  # atno 17370 bound_to 10713
  157.6942  130.9264  150.0597 LP  0  0  0  0  0  0  0  0  0  0  0  0  # atno 17371 bound_to 10713
  140.0348  134.9883  157.0850 LP  0  0  0  0  0  0  0  0  0  0  0  0  # atno 17394 bound_to 11000
  140.4228  134.1863  155.7165 LP  0  0  0  0  0  0  0  0  0  0  0  0  # atno 17395 bound_to 11000

$$$$
