AV-unprocessed.smi:54|AV-procd|sdf|540|dock4
  -GOLD-   2262016423D 1   1.00000     0.00000
 Structure written by MMmdl.
 44 46  0  0  0  0  0  0  0  0  1 V2000
  152.8305  142.9349  162.2185 C   0  0  0  0  0  0  0  0  0  0  0  0
  152.8019  143.2457  160.7132 C   0  0  0  0  0  0  0  0  0  0  0  0
  151.6191  144.1595  160.3542 C   0  0  0  0  0  0  0  0  0  0  0  0
  152.7512  141.9498  159.8962 C   0  0  0  0  0  0  0  0  0  0  0  0
  153.3260  140.9244  160.2636 O   0  0  0  0  0  0  0  0  0  0  0  0
  151.9823  142.0198  158.6659 N   0  0  0  0  0  0  0  0  0  0  0  0
  151.7839  141.0342  157.7596 C   0  0  0  0  0  0  0  0  0  0  0  0
  150.9022  141.1194  156.7736 N   0  0  0  0  0  0  0  0  0  0  0  0
  150.8413  140.0163  155.9685 C   0  0  0  0  0  0  0  0  0  0  0  0
  151.5942  138.8673  156.0875 C   0  0  0  0  0  0  0  0  0  0  0  0
  151.2486  137.9626  155.0899 N   0  0  0  0  0  0  0  0  0  0  0  0
  150.3134  138.5746  154.4179 C   0  0  0  0  0  0  0  0  0  0  0  0
  150.0069  139.8302  154.8884 N   0  0  0  0  0  0  0  0  0  0  0  0
  148.9979  140.8130  154.3888 C   0  0  1  0  0  0  0  0  0  0  0  0
  148.4272  140.2850  153.2275 O   0  0  0  0  0  0  0  0  0  0  0  0
  147.0252  140.0938  153.3908 C   0  0  1  0  0  0  0  0  0  0  0  0
  146.5362  138.8810  152.5801 C   0  0  0  0  0  0  0  0  0  0  0  0
  147.3336  138.7090  151.4280 O   0  0  0  0  0  0  0  0  0  0  0  0
  146.7864  140.0636  154.9073 C   0  0  1  0  0  0  0  0  0  0  0  0
  146.9294  138.7585  155.4370 O   0  0  0  0  0  0  0  0  0  0  0  0
  147.8826  140.9772  155.4331 C   0  0  2  0  0  0  0  0  0  0  0  0
  147.4406  142.3182  155.4998 O   0  0  0  0  0  0  0  0  0  0  0  0
  152.5584  138.7624  157.1443 C   0  0  0  0  0  0  0  0  0  0  0  0
  153.3111  137.8246  157.3985 O   0  0  0  0  0  0  0  0  0  0  0  0
  152.5875  139.9095  157.9486 N   0  0  0  0  0  0  0  0  0  0  0  0
  149.5734  141.7184  154.1902 H   0  0  0  0  0  0  0  0  0  0  0  0
  146.5538  140.9947  152.9943 H   0  0  0  0  0  0  0  0  0  0  0  0
  145.7883  140.4184  155.1677 H   0  0  0  0  0  0  0  0  0  0  0  0
  148.2254  140.6928  156.4296 H   0  0  0  0  0  0  0  0  0  0  0  0
  153.6658  142.2817  162.4731 H   0  0  0  0  0  0  0  0  0  0  0  0
  151.9124  142.4443  162.5447 H   0  0  0  0  0  0  0  0  0  0  0  0
  152.9410  143.8488  162.8027 H   0  0  0  0  0  0  0  0  0  0  0  0
  153.7230  143.7727  160.4598 H   0  0  0  0  0  0  0  0  0  0  0  0
  151.5914  144.3720  159.2847 H   0  0  0  0  0  0  0  0  0  0  0  0
  151.6935  145.1145  160.8748 H   0  0  0  0  0  0  0  0  0  0  0  0
  150.6650  143.7077  160.6290 H   0  0  0  0  0  0  0  0  0  0  0  0
  151.5535  142.9111  158.4653 H   0  0  0  0  0  0  0  0  0  0  0  0
  149.8226  138.1226  153.5683 H   0  0  0  0  0  0  0  0  0  0  0  0
  146.6108  137.9770  153.1848 H   0  0  0  0  0  0  0  0  0  0  0  0
  145.4893  138.9839  152.2938 H   0  0  0  0  0  0  0  0  0  0  0  0
  147.9845  139.3942  151.4075 H   0  0  0  0  0  0  0  0  0  0  0  0
  147.4540  138.2497  154.8375 H   0  0  0  0  0  0  0  0  0  0  0  0
  148.1960  142.8791  155.5886 H   0  0  0  0  0  0  0  0  0  0  0  0
  153.2418  139.9032  158.7172 H   0  0  0  0  0  0  0  0  0  0  0  0
  1  2  1  0  0  0  0
  1 30  1  0  0  0  0
  1 31  1  0  0  0  0
  1 32  1  0  0  0  0
  2  3  1  0  0  0  0
  2  4  1  0  0  0  0
  2 33  1  0  0  0  0
  3 34  1  0  0  0  0
  3 35  1  0  0  0  0
  3 36  1  0  0  0  0
  4  5  2  0  0  0  0
  4  6  1  0  0  0  0
  6 37  1  0  0  0  0
  6  7  1  0  0  0  0
  7 25  1  0  0  0  0
  7  8  2  0  0  0  0
  8  9  1  0  0  0  0
  9 13  1  0  0  0  0
  9 10  2  0  0  0  0
 10 11  1  0  0  0  0
 10 23  1  0  0  0  0
 11 12  2  0  0  0  0
 12 13  1  0  0  0  0
 12 38  1  0  0  0  0
 13 14  1  0  0  0  0
 14 26  1  0  0  0  0
 14 21  1  0  0  0  0
 14 15  1  0  0  0  0
 15 16  1  0  0  0  0
 16 27  1  0  0  0  0
 16 17  1  0  0  0  0
 16 19  1  0  0  0  0
 17 18  1  0  0  0  0
 17 39  1  0  0  0  0
 17 40  1  0  0  0  0
 18 41  1  0  0  0  0
 19 28  1  0  0  0  0
 19 20  1  0  0  0  0
 19 21  1  0  0  0  0
 20 42  1  0  0  0  0
 21 29  1  0  0  0  0
 21 22  1  0  0  0  0
 22 43  1  0  0  0  0
 23 24  2  0  0  0  0
 23 25  1  0  0  0  0
 25 44  1  0  0  0  0
M  END
> <s_m_source_file>
AV-unprocessed.smi

> <i_m_source_file_index>
54

> <i_lp_mmshare_version>
43012

> <i_f3d_flags>
0

> <s_epik_input>
W0NIM11bQ0hdKFtDSDNdKUMoPU8pW05IXWMobjEpW25IXWMoPU8pYyhjMTIpbltjSF1uMltDQEBIXTNPW0NASF0oW0NIMl1bT0hdKVtDQEBIXShbT0hdKVtDQEhdM1tPSF0=

> <s_epik_cmdline>
J2VwaWtfcHl0aG9uJywgJy1waCcsICc3LjAnLCAnLXRuJywgJzgnLCAnLW1hJywgJzIwMCcsICctbWV0YWxfYmluZGluZycsICctaW1hZScsICc8aW5maWxlLm1hZT4nLCAnLW9tYWUnLCAnPG91dGZpbGUubWFlPic=

> <r_lp_tautomer_probability>
0.85571

> <r_epik_Ionization_Penalty>
0.0316551

> <r_epik_Ionization_Penalty_Charging>
0.0316043

> <r_epik_Ionization_Penalty_Neutral>
5.07097e-05

> <r_epik_State_Penalty>
3.15494e-07

> <r_epik_Charging_Adjusted_Penalty>
0.0316047

> <i_epik_Tot_Q>
0

> <i_epik_Tot_abs_Q>
0

> <r_epik_Metal_State_Penalty>
0.421206

> <b_epik_Metal_Only>
0

> <s_epik_Chemistry_Notes>
This compound contains an acetal/aminal-like group ( X-CH(R)-Y where X, Y are N, S, or O) that may be acid/base labile, releasing an aldehyde.

> <s_lp_Force_Field>
OPLS_2005

> <r_lp_Energy>
34.69

> <b_lp_Chiralities_Consistent>
1

> <s_lp_Variant>
AV-unprocessed.smi:54-12

> <Gold.Version>
5.8.1

> <Gold.Id.Protein>
6NUR|6NUR_protein|mol2

> <Gold.PLP.Fitness>
47.6308

> <Gold.PLP.PLP>
-40.2965

> <Gold.PLP.part.hbond>
-4.0000

> <Gold.PLP.part.metal>
0.0000

> <Gold.PLP.part.buried>
-7.9801

> <Gold.PLP.part.nonpolar>
-34.2681

> <Gold.PLP.part.repulsive>
5.6863

> <Gold.PLP.ligand.clash>
0.0136

> <Gold.PLP.ligand.torsion>
1.1211

> <Gold.PLP.Chemscore.Hbond>
2.4648

> <Gold.PLP.Chemscore.CHOScore>
0.7232

> <Gold.PLP.Chemscore.Metal>
0.0000

> <Gold.Chemscore.Hbonds>
donor molecule, donor type, donor heavy atom, donor atom, acceptor molecule, acceptor atom, score
      L1  H    18    41       P1  7957  1.00
      L1  H    22    43       P1  8028  0.91
      P1  H  7954  7966       L1    18  0.44
      L1  C    12    38       P1  7948  0.69

> <Gold.PLP.Chemscore.Internal.Correction>
0.0261

> <Gold.Rescore>
     Score         DG    S(hbond)    S(metal)    S(lipo)     H(rot)  DE(clash)    DE(int)     intcor
      5.95      -8.30       1.78        0.00      61.87       4.05       1.65       0.71       ----

> <Gold.Chemscore.Fitness>
5.9481

> <Gold.Chemscore.DG>
-8.2998

> <Gold.Chemscore.ZeroCoef>
-5.4800

> <Gold.Chemscore.Hbond>
1.7806

> <Gold.Chemscore.Metal>
0.0000

> <Gold.Chemscore.Lipo>
61.8708

> <Gold.Chemscore.Internal_Hbond>
0.0000

> <Gold.Chemscore.DEClash>
1.6466

> <Gold.Chemscore.DEInternal>
0.7052

> <Gold.Chemscore.Rot>
4.0493

> <Gold.Chemscore.Internal.Correction>
   9.000000E+99

> <Gold.Chemscore.Hbonds>
donor molecule, donor type, donor heavy atom, donor atom, acceptor molecule, acceptor atom, score
      L1  H    18    41       P1  7957  0.92
      L1  H    22    43       P1  8028  0.84
      P1  H  7954  7966       L1    18  0.01

> <Gold.Chemscore.Hbond.Weighted>
-5.9472

> <Gold.Chemscore.Metal.Weighted>
-0.0000

> <Gold.Chemscore.Lipo.Weighted>
-7.2389

> <Gold.Chemscore.Internal_Hbond.Weighted>
0.0000

> <Gold.Chemscore.DEClash.Weighted>
1.6466

> <Gold.Chemscore.DEInternal.Weighted>
0.7052

> <Gold.Chemscore.Rot.Weighted>
10.3662

> <Gold.Chemscore.Internal.Correction.Weighted>
   9.000000E+99

> <Gold.Protein.RotatedTorsions>
[ 6907 6896 6895 6894 ] final  -63.64 input  -60.11 | X-H torsion
[ 7974 7965 7964 7962 ] final -105.71 input  175.53 | X-H torsion
[ 8008 7997 7996 7995 ] final  155.76 input   59.86 | X-H torsion
[ 10167 10162 10161 10158 ] final -133.55 input  -65.29 | X-H torsion
[ 10718 10713 10712 10709 ] final   86.23 input   66.30 | X-H torsion
[ 10763 10752 10751 10750 ] final  164.95 input  -60.55 | X-H torsion
[ 11005 11000 10999 10996 ] final  118.66 input  -57.11 | X-H torsion

> <Gold.Protein.ActiveResidues>
 VAL166  LYS551  ARG553  GLY616  TRP617  ASP618  TYR619  PRO620  LYS621  CYS622 
 ASP623  PHE694  ASN695  SER759  ASP760  ASP761  ALA762  ILE779  LEU786  VAL792 
 PHE793  MET794  SER795  GLU796  ALA797  LYS798  CYS799  TRP800  GLU811  SER814 

> <Gold.Protein.RotatedAtoms>
  150.7636  134.6407  159.6234 H   0  0  0  0  0  0  0  0  0  0  0  0  # atno 6907 bound_to 6896
  152.3656  134.6806  160.0202 H   0  0  0  0  0  0  0  0  0  0  0  0  # atno 6908 bound_to 6896
  151.7182  133.3277  159.3345 H   0  0  0  0  0  0  0  0  0  0  0  0  # atno 6909 bound_to 6896
  145.2270  140.9156  143.3226 H   0  0  0  0  0  0  0  0  0  0  0  0  # atno 7974 bound_to 7965
  156.2460  140.1931  156.6850 H   0  0  0  0  0  0  0  0  0  0  0  0  # atno 8008 bound_to 7997
  154.6293  140.0598  156.9739 H   0  0  0  0  0  0  0  0  0  0  0  0  # atno 8009 bound_to 7997
  155.1736  140.3270  155.4391 H   0  0  0  0  0  0  0  0  0  0  0  0  # atno 8010 bound_to 7997
  139.8971  143.6652  152.2602 H   0  0  0  0  0  0  0  0  0  0  0  0  # atno 10167 bound_to 10162
  157.6926  131.0207  150.2942 H   0  0  0  0  0  0  0  0  0  0  0  0  # atno 10718 bound_to 10713
  154.3166  135.2756  155.2540 H   0  0  0  0  0  0  0  0  0  0  0  0  # atno 10763 bound_to 10752
  154.4912  135.5833  153.6464 H   0  0  0  0  0  0  0  0  0  0  0  0  # atno 10764 bound_to 10752
  152.9881  135.6135  154.3347 H   0  0  0  0  0  0  0  0  0  0  0  0  # atno 10765 bound_to 10752
  139.9118  134.9622  156.7537 H   0  0  0  0  0  0  0  0  0  0  0  0  # atno 11005 bound_to 11000
  144.9712  139.3879  143.6308 LP  0  0  0  0  0  0  0  0  0  0  0  0  # atno 17320 bound_to 7965
  146.3362  139.8810  142.8824 LP  0  0  0  0  0  0  0  0  0  0  0  0  # atno 17321 bound_to 7965
  139.7058  144.7628  151.1196 LP  0  0  0  0  0  0  0  0  0  0  0  0  # atno 17342 bound_to 10162
  140.7714  143.5397  150.9327 LP  0  0  0  0  0  0  0  0  0  0  0  0  # atno 17343 bound_to 10162
  156.3468  130.3824  149.7362 LP  0  0  0  0  0  0  0  0  0  0  0  0  # atno 17370 bound_to 10713
  156.4853  130.8060  151.3072 LP  0  0  0  0  0  0  0  0  0  0  0  0  # atno 17371 bound_to 10713
  140.6753  133.9523  155.7879 LP  0  0  0  0  0  0  0  0  0  0  0  0  # atno 17394 bound_to 11000
  141.0549  134.0431  157.3736 LP  0  0  0  0  0  0  0  0  0  0  0  0  # atno 17395 bound_to 11000

$$$$
