#       Name:                AV-unprocessed.smi:1798
#       Creating user name   scv26
#       Creation time:       Fri Mar 27 08:51:13 2020


#       File generated by GOLD software.
#

@<TRIPOS>MOLECULE
AV-unprocessed.smi:1798
    46    47     1
SMALL
NO_CHARGES


@<TRIPOS>ATOM
      1 ****        -5.3238  -1.9562  -1.7081 C.3            1 S1                 0.0000
      2 ****        -3.8029  -1.7479  -1.6841 C.3            1 S1                 0.0000
      3 ****        -3.2413  -1.8603  -0.2539 C.3            1 S1                 0.0000
      4 ****        -1.7189  -1.6490  -0.2242 C.3            1 S1                 0.0000
      5 ****        -1.3247  -0.2984  -0.8554 C.3            1 S1                 0.0000
      6 ****         0.1270  -0.1475  -0.8860 N.am           1 S1                 0.0000
      7 ****         0.8849   0.2764   0.1367 C.2            1 S1                 0.0000
      8 ****         0.4248   0.5743   1.2400 O.2            1 S1                 0.0000
      9 ****         2.3947   0.3512  -0.1332 C.3            1 S1                 0.0000
     10 ****         3.1125   1.2244   0.8108 N.am           1 S1                 0.0000
     11 ****         3.7430   0.6024   1.9067 C.2            1 S1                 0.0000
     12 ****         4.4221   1.3042   2.8351 C.2            1 S1                 0.0000
     13 ****         5.0585   0.6492   3.9569 N.pl3          1 S1                 1.0000
     14 ****         5.6330   1.3397   4.7925 O.2            1 S1                 0.0000
     15 ****         5.0070  -0.5743   4.0398 O.2            1 S1                -1.0000
     16 ****         4.4909   2.7439   2.6748 C.2            1 S1                 0.0000
     17 ****         3.8872   3.3451   1.6308 C.2            1 S1                 0.0000
     18 ****         3.1456   2.5794   0.6236 C.2            1 S1                 0.0000
     19 ****         2.5882   3.1230  -0.3300 O.2            1 S1                 0.0000
     20 ****        -1.8862  -0.1833  -2.2841 C.3            1 S1                 0.0000
     21 ****        -3.4087  -0.3962  -2.3096 C.3            1 S1                 0.0000
     22 ****        -5.8383  -1.1905  -1.1266 H              1 S1                 0.0000
     23 ****        -5.5937  -2.9274  -1.2926 H              1 S1                 0.0000
     24 ****        -5.7095  -1.9161  -2.7270 H              1 S1                 0.0000
     25 ****        -3.3538  -2.5400  -2.2851 H              1 S1                 0.0000
     26 ****        -3.7217  -1.1224   0.3901 H              1 S1                 0.0000
     27 ****        -3.4814  -2.8378   0.1657 H              1 S1                 0.0000
     28 ****        -1.3648  -1.7025   0.8059 H              1 S1                 0.0000
     29 ****        -1.2306  -2.4640  -0.7605 H              1 S1                 0.0000
     30 ****        -1.7534   0.5091  -0.2583 H              1 S1                 0.0000
     31 ****         0.5892  -0.3781  -1.7537 H              1 S1                 0.0000
     32 ****         2.7959  -0.6625  -0.0973 H              1 S1                 0.0000
     33 ****         2.5635   0.6870  -1.1582 H              1 S1                 0.0000
     34 ****         3.6270  -0.4713   1.9405 H              1 S1                 0.0000
     35 ****         5.0262   3.3502   3.3904 H              1 S1                 0.0000
     36 ****         3.9499   4.4187   1.5312 H              1 S1                 0.0000
     37 ****        -1.6467   0.7953  -2.7018 H              1 S1                 0.0000
     38 ****        -1.4085  -0.9208  -2.9309 H              1 S1                 0.0000
     39 ****        -3.7664  -0.3422  -3.3383 H              1 S1                 0.0000
     40 ****        -3.8975   0.4168  -1.7708 H              1 S1                 0.0000
     41 ****        -0.5587   0.5053   1.4067 LP             1 S1                 0.0000
     42 ****         1.0349   0.8851   1.9688 LP             1 S1                 0.0000
     43 ****         5.6546   2.3342   4.6899 LP             1 S1                 0.0000
     44 ****         6.0798   0.9080   5.5761 LP             1 S1                 0.0000
     45 ****         2.0905   2.5711  -0.9992 LP             1 S1                 0.0000
     46 ****         2.6332   4.1164  -0.4355 LP             1 S1                 0.0000
@<TRIPOS>BOND
    1    1    2 1     
    2    1   22 1     
    3    1   23 1     
    4    1   24 1     
    5    2   21 1     
    6    2    3 1     
    7    2   25 1     
    8    3    4 1     
    9    3   26 1     
   10    3   27 1     
   11    4    5 1     
   12    4   28 1     
   13    4   29 1     
   14    5    6 1     
   15    5   20 1     
   16    5   30 1     
   17    6    7 am    
   18    6   31 1     
   19    7    8 2     
   20    7    9 1     
   21    9   10 1     
   22    9   32 1     
   23    9   33 1     
   24   10   18 am    
   25   10   11 1     
   26   11   12 2     
   27   11   34 1     
   28   12   13 1     
   29   12   16 1     
   30   13   14 2     
   31   13   15 1     
   32   16   17 2     
   33   16   35 1     
   34   17   18 1     
   35   17   36 1     
   36   18   19 2     
   37   20   21 1     
   38   20   37 1     
   39   20   38 1     
   40   21   39 1     
   41   21   40 1     
   42    8   41 1     
   43    8   42 1     
   44   14   43 1     
   45   14   44 1     
   46   19   45 1     
   47   19   46 1     
@<TRIPOS>SUBSTRUCTURE
      1 S1             1
@<TRIPOS>SET
LONE_PAIRS      STATIC     ATOMS    <user>   **** ""
7 41 42 43 44 15 45 46
DONOR_HYDROGENS      STATIC     ATOMS    <user>   **** ""
1 31
ATOM$BLUE        STATIC     ATOMS    COLORGROUP SYSTEM
7 41 42 43 44 15 45 46
ATOM$RED        STATIC     ATOMS    COLORGROUP SYSTEM
1 31
