AV-unprocessed.smi:1240|AV-procd|sdf|5213|dock10
  -GOLD-   22720 4303D 1   1.00000     0.00000
 Structure written by MMmdl.
 48 50  0  0  0  0  0  0  0  0  4 V2000
  144.0728  136.6339  152.2758 O   0  0  0  0  0  0  0  0  0  0  0  0
  145.3087  136.5999  152.2727 C   0  0  0  0  0  0  0  0  0  0  0  0
  146.1674  137.5724  152.6796 N   0  5  0  0  0  0  0  0  0  0  0  0
  146.0425  138.3261  153.9270 C   0  0  0  0  0  0  0  0  0  0  0  0
  146.8626  139.6636  153.8652 C   0  0  2  0  0  0  0  0  0  0  0  0
  148.1658  139.6339  154.7261 C   0  0  1  0  0  0  0  0  0  0  0  0
  149.0369  138.3865  154.5994 C   0  0  0  0  0  0  0  0  0  0  0  0
  150.3854  138.8655  155.1261 C   0  0  0  0  0  0  0  0  0  0  0  0
  150.4513  140.2528  154.8185 O   0  0  0  0  0  0  0  0  0  0  0  0
  149.1951  140.6979  154.3213 C   0  0  0  0  0  0  0  0  0  0  0  0
  146.0921  140.9203  154.1830 N   0  3  0  0  0  0  0  0  0  0  0  0
  145.4845  141.0016  155.5368 C   0  0  0  0  0  0  0  0  0  0  0  0
  144.4542  142.1415  155.5757 C   0  0  0  0  0  0  0  0  0  0  0  0
  145.0782  143.3661  155.2053 O   0  0  0  0  0  0  0  0  0  0  0  0
  145.5995  143.3269  153.8814 C   0  0  0  0  0  0  0  0  0  0  0  0
  146.6725  142.2309  153.7775 C   0  0  0  0  0  0  0  0  0  0  0  0
  145.9554  135.5201  151.7987 N   0  0  0  0  0  0  0  0  0  0  0  0
  145.4158  134.2892  151.3379 C   0  0  0  0  0  0  0  0  0  0  0  0
  146.3145  133.3256  150.8295 C   0  0  0  0  0  0  0  0  0  0  0  0
  145.8208  132.0822  150.3858 C   0  0  0  0  0  0  0  0  0  0  0  0
  144.4988  131.8169  150.4629 N   0  3  0  0  0  0  0  0  0  0  0  0
  143.6046  132.6996  150.9582 C   0  0  0  0  0  0  0  0  0  0  0  0
  144.0391  133.9599  151.4159 C   0  0  0  0  0  0  0  0  0  0  0  0
  145.0063  138.5603  154.1741 H   0  0  0  0  0  0  0  0  0  0  0  0
  146.4062  137.7283  154.7622 H   0  0  0  0  0  0  0  0  0  0  0  0
  147.2048  139.7726  152.8347 H   0  0  0  0  0  0  0  0  0  0  0  0
  147.9309  139.7808  155.7824 H   0  0  0  0  0  0  0  0  0  0  0  0
  148.6601  137.5311  155.1610 H   0  0  0  0  0  0  0  0  0  0  0  0
  149.1295  138.0913  153.5530 H   0  0  0  0  0  0  0  0  0  0  0  0
  150.4340  138.7491  156.2094 H   0  0  0  0  0  0  0  0  0  0  0  0
  151.2206  138.3185  154.6882 H   0  0  0  0  0  0  0  0  0  0  0  0
  149.2648  140.7738  153.2351 H   0  0  0  0  0  0  0  0  0  0  0  0
  148.9521  141.6866  154.7116 H   0  0  0  0  0  0  0  0  0  0  0  0
  144.9988  140.0590  155.7902 H   0  0  0  0  0  0  0  0  0  0  0  0
  146.2498  141.1855  156.2908 H   0  0  0  0  0  0  0  0  0  0  0  0
  143.6153  141.9312  154.9099 H   0  0  0  0  0  0  0  0  0  0  0  0
  144.0450  142.2434  156.5808 H   0  0  0  0  0  0  0  0  0  0  0  0
  144.7944  143.1517  153.1659 H   0  0  0  0  0  0  0  0  0  0  0  0
  146.0309  144.2991  153.6427 H   0  0  0  0  0  0  0  0  0  0  0  0
  147.5140  142.4919  154.4211 H   0  0  0  0  0  0  0  0  0  0  0  0
  147.0477  142.1834  152.7555 H   0  0  0  0  0  0  0  0  0  0  0  0
  146.9570  135.6155  151.7186 H   0  0  0  0  0  0  0  0  0  0  0  0
  147.3723  133.5385  150.7729 H   0  0  0  0  0  0  0  0  0  0  0  0
  146.4398  131.2968  149.9777 H   0  0  0  0  0  0  0  0  0  0  0  0
  142.5758  132.3717  150.9810 H   0  0  0  0  0  0  0  0  0  0  0  0
  143.3160  134.6461  151.8305 H   0  0  0  0  0  0  0  0  0  0  0  0
  145.2846  140.8255  153.5852 H   0  0  0  0  0  0  0  0  0  0  0  0
  144.1622  130.9099  150.1390 H   0  0  0  0  0  0  0  0  0  0  0  0
  1  2  2  0  0  0  0
  2  3  1  0  0  0  0
  2 17  1  0  0  0  0
  3  4  1  0  0  0  0
  4  5  1  0  0  0  0
  4 24  1  0  0  0  0
  4 25  1  0  0  0  0
  5  6  1  0  0  0  0
  5 11  1  0  0  0  0
  5 26  1  0  0  0  0
  6 10  1  0  0  0  0
  6  7  1  0  0  0  0
  6 27  1  0  0  0  0
  7  8  1  0  0  0  0
  7 28  1  0  0  0  0
  7 29  1  0  0  0  0
  8  9  1  0  0  0  0
  8 30  1  0  0  0  0
  8 31  1  0  0  0  0
  9 10  1  0  0  0  0
 10 32  1  0  0  0  0
 10 33  1  0  0  0  0
 11 16  1  0  0  0  0
 11 12  1  0  0  0  0
 11 47  1  0  0  0  0
 12 13  1  0  0  0  0
 12 34  1  0  0  0  0
 12 35  1  0  0  0  0
 13 14  1  0  0  0  0
 13 36  1  0  0  0  0
 13 37  1  0  0  0  0
 14 15  1  0  0  0  0
 15 16  1  0  0  0  0
 15 38  1  0  0  0  0
 15 39  1  0  0  0  0
 16 40  1  0  0  0  0
 16 41  1  0  0  0  0
 17 18  1  0  0  0  0
 17 42  1  0  0  0  0
 18 23  1  0  0  0  0
 18 19  2  0  0  0  0
 19 20  1  0  0  0  0
 19 43  1  0  0  0  0
 20 21  2  0  0  0  0
 20 44  1  0  0  0  0
 21 22  1  0  0  0  0
 21 48  1  0  0  0  0
 22 23  2  0  0  0  0
 22 45  1  0  0  0  0
 23 46  1  0  0  0  0
M  CHG  1   3  -1
M  CHG  1  11   1
M  CHG  1  21   1
M  END
> <s_m_source_file>
AV-unprocessed.smi

> <i_m_source_file_index>
1240

> <i_lp_mmshare_version>
43012

> <i_f3d_flags>
0

> <s_epik_input>
W2NIXTFbY0hdbltjSF1bY0hdYzFbTkhdQyg9TylbTkhdW0NIMl1bQ0BIXShbQ0BASF0yW0NIMl1bQ0gyXU9bQ0gyXTIpTjNbQ0gyXVtDSDJdT1tDSDJdW0NIMl0z

> <s_epik_cmdline>
J2VwaWtfcHl0aG9uJywgJy1waCcsICc3LjAnLCAnLXRuJywgJzgnLCAnLW1hJywgJzIwMCcsICctbWV0YWxfYmluZGluZycsICctaW1hZScsICc8aW5maWxlLm1hZT4nLCAnLW9tYWUnLCAnPG91dGZpbGUubWFlPic=

> <r_epik_Ionization_Penalty>
8.41087

> <r_epik_Ionization_Penalty_Charging>
8.41087

> <r_epik_Ionization_Penalty_Neutral>
3.12936e-06

> <r_epik_State_Penalty>
8.81894

> <r_epik_Charging_Adjusted_Penalty>
17.2298

> <i_epik_Tot_Q>
1

> <i_epik_Tot_abs_Q>
3

> <r_epik_Metal_State_Penalty>
4.82983

> <b_epik_Metal_Only>
1

> <s_lp_Force_Field>
OPLS_2005

> <r_lp_Energy>
48.3521

> <b_lp_Chiralities_Consistent>
1

> <s_lp_Variant>
AV-unprocessed.smi:1240-19

> <Gold.Version>
5.8.1

> <Gold.Id.Protein>
6NUR|6NUR_protein|mol2

> <Gold.PLP.Fitness>
47.3724

> <Gold.PLP.PLP>
-37.8588

> <Gold.PLP.part.hbond>
-3.0000

> <Gold.PLP.part.metal>
0.0000

> <Gold.PLP.part.buried>
-7.8142

> <Gold.PLP.part.nonpolar>
-29.3458

> <Gold.PLP.part.repulsive>
1.1272

> <Gold.PLP.ligand.clash>
0.0000

> <Gold.PLP.ligand.torsion>
1.4894

> <Gold.PLP.Chemscore.Hbond>
4.0000

> <Gold.PLP.Chemscore.CHOScore>
0.0000

> <Gold.PLP.Chemscore.Metal>
0.0000

> <Gold.Chemscore.Hbonds>
donor molecule, donor type, donor heavy atom, donor atom, acceptor molecule, acceptor atom, score
      L1  H    11    47       P1 10175  2.00
      L1  H    17    42       P1  7948  0.93
      P1  H  7989  7998       L1     9  1.00

> <Gold.PLP.Chemscore.Internal.Correction>
0.4923

> <Gold.Rescore>
     Score         DG    S(hbond)    S(metal)    S(lipo)     H(rot)  DE(clash)    DE(int)     intcor
     17.22     -20.32       2.70        0.00      86.89       1.70       0.08       3.02       ----

> <Gold.Chemscore.Fitness>
17.2234

> <Gold.Chemscore.DG>
-20.3227

> <Gold.Chemscore.ZeroCoef>
-5.4800

> <Gold.Chemscore.Hbond>
2.7049

> <Gold.Chemscore.Metal>
0.0000

> <Gold.Chemscore.Lipo>
86.8885

> <Gold.Chemscore.Internal_Hbond>
0.0000

> <Gold.Chemscore.DEClash>
0.0756

> <Gold.Chemscore.DEInternal>
3.0237

> <Gold.Chemscore.Rot>
1.7021

> <Gold.Chemscore.Internal.Correction>
   9.000000E+99

> <Gold.Chemscore.Hbonds>
donor molecule, donor type, donor heavy atom, donor atom, acceptor molecule, acceptor atom, score
      L1  H    11    47       P1 10175  0.84
      L1  H    17    42       P1  7948  0.89
      P1  H  7989  7998       L1     9  0.34

> <Gold.Chemscore.Hbond.Weighted>
-9.0342

> <Gold.Chemscore.Metal.Weighted>
-0.0000

> <Gold.Chemscore.Lipo.Weighted>
-10.1660

> <Gold.Chemscore.Internal_Hbond.Weighted>
0.0000

> <Gold.Chemscore.DEClash.Weighted>
0.0756

> <Gold.Chemscore.DEInternal.Weighted>
3.0237

> <Gold.Chemscore.Rot.Weighted>
4.3575

> <Gold.Chemscore.Internal.Correction.Weighted>
   9.000000E+99

> <Gold.Protein.RotatedTorsions>
[ 6907 6896 6895 6894 ] final  -54.06 input  -60.11 | X-H torsion
[ 7974 7965 7964 7962 ] final  -58.56 input  175.53 | X-H torsion
[ 8008 7997 7996 7995 ] final  117.73 input   59.86 | X-H torsion
[ 10167 10162 10161 10158 ] final -179.41 input  -65.29 | X-H torsion
[ 10718 10713 10712 10709 ] final -103.43 input   66.30 | X-H torsion
[ 10763 10752 10751 10750 ] final  -53.30 input  -60.55 | X-H torsion
[ 11005 11000 10999 10996 ] final  112.56 input  -57.11 | X-H torsion

> <Gold.Protein.ActiveResidues>
 VAL166  LYS551  ARG553  GLY616  TRP617  ASP618  TYR619  PRO620  LYS621  CYS622 
 ASP623  PHE694  ASN695  SER759  ASP760  ASP761  ALA762  ILE779  LEU786  VAL792 
 PHE793  MET794  SER795  GLU796  ALA797  LYS798  CYS799  TRP800  GLU811  SER814 

> <Gold.Protein.RotatedAtoms>
  150.8371  134.7648  159.6901 H   0  0  0  0  0  0  0  0  0  0  0  0  # atno 6907 bound_to 6896
  152.4466  134.5479  159.9868 H   0  0  0  0  0  0  0  0  0  0  0  0  # atno 6908 bound_to 6896
  151.5627  133.3363  159.3010 H   0  0  0  0  0  0  0  0  0  0  0  0  # atno 6909 bound_to 6896
  145.8378  140.8437  143.0050 H   0  0  0  0  0  0  0  0  0  0  0  0  # atno 7974 bound_to 7965
  156.2510  140.2890  156.0724 H   0  0  0  0  0  0  0  0  0  0  0  0  # atno 8008 bound_to 7997
  155.1656  140.0400  157.2869 H   0  0  0  0  0  0  0  0  0  0  0  0  # atno 8009 bound_to 7997
  154.6362  140.2511  155.7382 H   0  0  0  0  0  0  0  0  0  0  0  0  # atno 8010 bound_to 7997
  139.5387  144.2423  152.0851 H   0  0  0  0  0  0  0  0  0  0  0  0  # atno 10167 bound_to 10162
  156.0265  130.5467  150.7252 H   0  0  0  0  0  0  0  0  0  0  0  0  # atno 10718 bound_to 10713
  154.1566  135.6481  153.4976 H   0  0  0  0  0  0  0  0  0  0  0  0  # atno 10763 bound_to 10752
  153.0122  135.5351  154.6753 H   0  0  0  0  0  0  0  0  0  0  0  0  # atno 10764 bound_to 10752
  154.6055  135.2948  155.0460 H   0  0  0  0  0  0  0  0  0  0  0  0  # atno 10765 bound_to 10752
  139.8930  134.9532  156.6605 H   0  0  0  0  0  0  0  0  0  0  0  0  # atno 11005 bound_to 11000
  144.6735  140.0767  143.7471 LP  0  0  0  0  0  0  0  0  0  0  0  0  # atno 17320 bound_to 7965
  145.9499  139.2726  143.1218 LP  0  0  0  0  0  0  0  0  0  0  0  0  # atno 17321 bound_to 7965
  140.1897  144.4763  150.6485 LP  0  0  0  0  0  0  0  0  0  0  0  0  # atno 17342 bound_to 10162
  140.6607  143.2251  151.5862 LP  0  0  0  0  0  0  0  0  0  0  0  0  # atno 17343 bound_to 10162
  157.4858  131.0906  151.0484 LP  0  0  0  0  0  0  0  0  0  0  0  0  # atno 17370 bound_to 10713
  157.0905  130.5940  149.5438 LP  0  0  0  0  0  0  0  0  0  0  0  0  # atno 17371 bound_to 10713
  140.7451  133.8945  155.8306 LP  0  0  0  0  0  0  0  0  0  0  0  0  # atno 17394 bound_to 11000
  141.0046  134.1103  157.4283 LP  0  0  0  0  0  0  0  0  0  0  0  0  # atno 17395 bound_to 11000

$$$$
