AV-unprocessed.smi:2229|AV-procd|sdf|9033|dock5
  -GOLD-   2272012243D 1   1.00000     0.00000
 Structure written by MMmdl.
 43 44  0  0  0  0  0  0  0  0  2 V2000
  152.1434  144.0445  157.6120 C   0  0  0  0  0  0  0  0  0  0  0  0
  151.9439  144.1181  159.1354 C   0  0  0  0  0  0  0  0  0  0  0  0
  152.2156  145.5434  159.6410 C   0  0  0  0  0  0  0  0  0  0  0  0
  152.8124  143.0953  159.8966 C   0  0  0  0  0  0  0  0  0  0  0  0
  152.3556  141.6348  159.7281 C   0  0  0  0  0  0  0  0  0  0  0  0
  152.9721  140.6775  160.7712 C   0  0  2  0  0  0  0  0  0  0  0  0
  154.4983  140.5708  160.7131 C   0  0  0  0  0  0  0  0  0  0  0  0
  154.8135  139.3251  161.5377 C   0  0  0  0  0  0  0  0  0  0  0  0
  153.6468  138.3635  161.2835 C   0  0  0  0  0  0  0  0  0  0  0  0
  152.4871  139.2112  160.7173 C   0  0  2  0  0  0  0  0  0  0  0  0
  152.1539  138.7930  159.3561 N   0  0  0  0  0  0  0  0  0  0  0  0
  151.1782  137.9359  159.0223 C   0  0  0  0  0  0  0  0  0  0  0  0
  150.4308  137.4095  159.8474 O   0  0  0  0  0  0  0  0  0  0  0  0
  151.0167  137.6607  157.5216 C   0  0  0  0  0  0  0  0  0  0  0  0
  150.7633  138.8696  156.7343 N   0  0  0  0  0  0  0  0  0  0  0  0
  149.7188  139.7225  156.9882 C   0  0  0  0  0  0  0  0  0  0  0  0
  149.7301  140.7127  156.1698 N   0  0  0  0  0  0  0  0  0  0  0  0
  150.8565  140.5140  155.3089 N   0  5  0  0  0  0  0  0  0  0  0  0
  151.4511  139.3666  155.7049 C   0  0  0  0  0  0  0  0  0  0  0  0
  152.4552  138.8266  155.2418 O   0  0  0  0  0  0  0  0  0  0  0  0
  153.1839  144.2246  157.3398 H   0  0  0  0  0  0  0  0  0  0  0  0
  151.5342  144.7909  157.1016 H   0  0  0  0  0  0  0  0  0  0  0  0
  151.8561  143.0721  157.2129 H   0  0  0  0  0  0  0  0  0  0  0  0
  150.8971  143.8958  159.3464 H   0  0  0  0  0  0  0  0  0  0  0  0
  153.2500  145.8378  159.4602 H   0  0  0  0  0  0  0  0  0  0  0  0
  152.0290  145.6248  160.7120 H   0  0  0  0  0  0  0  0  0  0  0  0
  151.5719  146.2681  159.1415 H   0  0  0  0  0  0  0  0  0  0  0  0
  153.8527  143.1973  159.5851 H   0  0  0  0  0  0  0  0  0  0  0  0
  152.7907  143.3401  160.9592 H   0  0  0  0  0  0  0  0  0  0  0  0
  151.2690  141.5942  159.8141 H   0  0  0  0  0  0  0  0  0  0  0  0
  152.5993  141.2885  158.7239 H   0  0  0  0  0  0  0  0  0  0  0  0
  152.7140  141.0540  161.7627 H   0  0  0  0  0  0  0  0  0  0  0  0
  154.8259  140.4242  159.6829 H   0  0  0  0  0  0  0  0  0  0  0  0
  154.9988  141.4584  161.1009 H   0  0  0  0  0  0  0  0  0  0  0  0
  155.7785  138.8882  161.2791 H   0  0  0  0  0  0  0  0  0  0  0  0
  154.8447  139.5886  162.5958 H   0  0  0  0  0  0  0  0  0  0  0  0
  153.9509  137.5857  160.5809 H   0  0  0  0  0  0  0  0  0  0  0  0
  153.3549  137.8585  162.2048 H   0  0  0  0  0  0  0  0  0  0  0  0
  151.5996  139.1096  161.3449 H   0  0  0  0  0  0  0  0  0  0  0  0
  152.7163  139.1795  158.6123 H   0  0  0  0  0  0  0  0  0  0  0  0
  151.9125  137.1498  157.1652 H   0  0  0  0  0  0  0  0  0  0  0  0
  150.1884  136.9672  157.3670 H   0  0  0  0  0  0  0  0  0  0  0  0
  149.0191  139.5102  157.7983 H   0  0  0  0  0  0  0  0  0  0  0  0
  1  2  1  0  0  0  0
  1 21  1  0  0  0  0
  1 22  1  0  0  0  0
  1 23  1  0  0  0  0
  2  3  1  0  0  0  0
  2  4  1  0  0  0  0
  2 24  1  0  0  0  0
  3 25  1  0  0  0  0
  3 26  1  0  0  0  0
  3 27  1  0  0  0  0
  4  5  1  0  0  0  0
  4 28  1  0  0  0  0
  4 29  1  0  0  0  0
  5  6  1  0  0  0  0
  5 30  1  0  0  0  0
  5 31  1  0  0  0  0
  6 10  1  0  0  0  0
  6  7  1  0  0  0  0
  6 32  1  0  0  0  0
  7  8  1  0  0  0  0
  7 33  1  0  0  0  0
  7 34  1  0  0  0  0
  8  9  1  0  0  0  0
  8 35  1  0  0  0  0
  8 36  1  0  0  0  0
  9 10  1  0  0  0  0
  9 37  1  0  0  0  0
  9 38  1  0  0  0  0
 10 11  1  0  0  0  0
 10 39  1  0  0  0  0
 11 12  1  0  0  0  0
 11 40  1  0  0  0  0
 12 13  2  0  0  0  0
 12 14  1  0  0  0  0
 14 15  1  0  0  0  0
 14 41  1  0  0  0  0
 14 42  1  0  0  0  0
 15 19  1  0  0  0  0
 15 16  1  0  0  0  0
 16 17  2  0  0  0  0
 16 43  1  0  0  0  0
 17 18  1  0  0  0  0
 18 19  1  0  0  0  0
 19 20  2  0  0  0  0
M  CHG  1  18  -1
M  END
> <s_m_source_file>
AV-unprocessed.smi

> <i_m_source_file_index>
2229

> <i_lp_mmshare_version>
43012

> <i_f3d_flags>
0

> <s_epik_input>
W0NIM11bQ0hdKFtDSDNdKVtDSDJdW0NIMl1bQ0BASF0xW0NIMl1bQ0gyXVtDSDJdW0NASF0xW05IXUMoPU8pW0NIMl1uMltjSF1uW25IXWMyPU8=

> <s_epik_cmdline>
J2VwaWtfcHl0aG9uJywgJy1waCcsICc3LjAnLCAnLXRuJywgJzgnLCAnLW1hJywgJzIwMCcsICctbWV0YWxfYmluZGluZycsICctaW1hZScsICc8aW5maWxlLm1hZT4nLCAnLW9tYWUnLCAnPG91dGZpbGUubWFlPic=

> <r_lp_tautomer_probability>
1

> <r_epik_Ionization_Penalty>
13.6733

> <r_epik_Ionization_Penalty_Charging>
13.6725

> <r_epik_Ionization_Penalty_Neutral>
0.000837689

> <r_epik_State_Penalty>
5.67062

> <r_epik_Charging_Adjusted_Penalty>
19.3431

> <i_epik_Tot_Q>
-1

> <i_epik_Tot_abs_Q>
1

> <r_epik_Metal_State_Penalty>
1.61781

> <b_epik_Metal_Only>
1

> <s_lp_Force_Field>
OPLS_2005

> <r_lp_Energy>
26.4382

> <b_lp_Chiralities_Consistent>
1

> <s_lp_Variant>
AV-unprocessed.smi:2229-7

> <Gold.Version>
5.8.1

> <Gold.Id.Protein>
6NUR|6NUR_protein|mol2

> <Gold.PLP.Fitness>
47.2456

> <Gold.PLP.PLP>
-39.4350

> <Gold.PLP.part.hbond>
-3.3929

> <Gold.PLP.part.metal>
0.0000

> <Gold.PLP.part.buried>
-4.4121

> <Gold.PLP.part.nonpolar>
-32.3811

> <Gold.PLP.part.repulsive>
0.1558

> <Gold.PLP.ligand.clash>
0.0000

> <Gold.PLP.ligand.torsion>
0.5122

> <Gold.PLP.Chemscore.Hbond>
2.9280

> <Gold.PLP.Chemscore.CHOScore>
0.0000

> <Gold.PLP.Chemscore.Metal>
0.0000

> <Gold.Chemscore.Hbonds>
donor molecule, donor type, donor heavy atom, donor atom, acceptor molecule, acceptor atom, score
      P1  H  7989  7998       L1    18  0.98

> <Gold.PLP.Chemscore.Internal.Correction>
0.0511

> <Gold.Rescore>
     Score         DG    S(hbond)    S(metal)    S(lipo)     H(rot)  DE(clash)    DE(int)     intcor
     19.01     -19.72       2.76        0.00      99.58       2.59       0.05       0.66       ----

> <Gold.Chemscore.Fitness>
19.0140

> <Gold.Chemscore.DG>
-19.7150

> <Gold.Chemscore.ZeroCoef>
-5.4800

> <Gold.Chemscore.Hbond>
2.7617

> <Gold.Chemscore.Metal>
0.0000

> <Gold.Chemscore.Lipo>
99.5845

> <Gold.Chemscore.Internal_Hbond>
0.0000

> <Gold.Chemscore.DEClash>
0.0454

> <Gold.Chemscore.DEInternal>
0.6557

> <Gold.Chemscore.Rot>
2.5939

> <Gold.Chemscore.Internal.Correction>
   9.000000E+99

> <Gold.Chemscore.Hbonds>
donor molecule, donor type, donor heavy atom, donor atom, acceptor molecule, acceptor atom, score
      P1  H  7989  7998       L1    18  0.45
      P1  H  7997  8010       L1    20  0.01

> <Gold.Chemscore.Hbond.Weighted>
-9.2241

> <Gold.Chemscore.Metal.Weighted>
-0.0000

> <Gold.Chemscore.Lipo.Weighted>
-11.6514

> <Gold.Chemscore.Internal_Hbond.Weighted>
0.0000

> <Gold.Chemscore.DEClash.Weighted>
0.0454

> <Gold.Chemscore.DEInternal.Weighted>
0.6557

> <Gold.Chemscore.Rot.Weighted>
6.6405

> <Gold.Chemscore.Internal.Correction.Weighted>
   9.000000E+99

> <Gold.Protein.RotatedTorsions>
[ 6907 6896 6895 6894 ] final  118.02 input  -60.11 | X-H torsion
[ 7974 7965 7964 7962 ] final -128.35 input  175.53 | X-H torsion
[ 8008 7997 7996 7995 ] final  107.67 input   59.86 | X-H torsion
[ 10167 10162 10161 10158 ] final  -64.55 input  -65.29 | X-H torsion
[ 10718 10713 10712 10709 ] final  -86.21 input   66.30 | X-H torsion
[ 10763 10752 10751 10750 ] final  -81.93 input  -60.55 | X-H torsion
[ 11005 11000 10999 10996 ] final  -85.71 input  -57.11 | X-H torsion

> <Gold.Protein.ActiveResidues>
 VAL166  LYS551  ARG553  GLY616  TRP617  ASP618  TYR619  PRO620  LYS621  CYS622 
 ASP623  PHE694  ASN695  SER759  ASP760  ASP761  ALA762  ILE779  LEU786  VAL792 
 PHE793  MET794  SER795  GLU796  ALA797  LYS798  CYS799  TRP800  GLU811  SER814 

> <Gold.Protein.RotatedAtoms>
  152.4572  133.7747  159.6817 H   0  0  0  0  0  0  0  0  0  0  0  0  # atno 6907 bound_to 6896
  150.8502  133.7788  159.3034 H   0  0  0  0  0  0  0  0  0  0  0  0  # atno 6908 bound_to 6896
  151.5386  135.1071  159.9972 H   0  0  0  0  0  0  0  0  0  0  0  0  # atno 6909 bound_to 6896
  144.9679  140.7515  143.4689 H   0  0  0  0  0  0  0  0  0  0  0  0  # atno 7974 bound_to 7965
  156.1843  140.3090  155.9208 H   0  0  0  0  0  0  0  0  0  0  0  0  # atno 8008 bound_to 7997
  155.3316  140.0461  157.3060 H   0  0  0  0  0  0  0  0  0  0  0  0  # atno 8009 bound_to 7997
  154.5378  140.2251  155.8703 H   0  0  0  0  0  0  0  0  0  0  0  0  # atno 8010 bound_to 7997
  140.5793  143.2325  151.6376 H   0  0  0  0  0  0  0  0  0  0  0  0  # atno 10167 bound_to 10162
  155.9991  130.4757  150.4680 H   0  0  0  0  0  0  0  0  0  0  0  0  # atno 10718 bound_to 10713
  154.5695  135.5609  153.7082 H   0  0  0  0  0  0  0  0  0  0  0  0  # atno 10763 bound_to 10752
  153.0044  135.6293  154.2134 H   0  0  0  0  0  0  0  0  0  0  0  0  # atno 10764 bound_to 10752
  154.2073  135.2875  155.2950 H   0  0  0  0  0  0  0  0  0  0  0  0  # atno 10765 bound_to 10752
  141.1638  133.7414  156.9054 H   0  0  0  0  0  0  0  0  0  0  0  0  # atno 11005 bound_to 11000
  145.2603  139.1995  143.4896 LP  0  0  0  0  0  0  0  0  0  0  0  0  # atno 17320 bound_to 7965
  146.3373  140.2531  142.8599 LP  0  0  0  0  0  0  0  0  0  0  0  0  # atno 17321 bound_to 7965
  139.5160  144.3359  152.0784 LP  0  0  0  0  0  0  0  0  0  0  0  0  # atno 17342 bound_to 10162
  140.2507  144.4172  150.6223 LP  0  0  0  0  0  0  0  0  0  0  0  0  # atno 17343 bound_to 10162
  157.2698  131.0584  151.2267 LP  0  0  0  0  0  0  0  0  0  0  0  0  # atno 17370 bound_to 10713
  157.3351  130.7005  149.6348 LP  0  0  0  0  0  0  0  0  0  0  0  0  # atno 17371 bound_to 10713
  140.1553  134.9202  157.2646 LP  0  0  0  0  0  0  0  0  0  0  0  0  # atno 17394 bound_to 11000
  140.2674  134.3500  155.7385 LP  0  0  0  0  0  0  0  0  0  0  0  0  # atno 17395 bound_to 11000

$$$$
