#       Name:                AV-unprocessed.smi:1235
#       Creating user name   scv26
#       Creation time:       Fri Mar 27 04:25:35 2020


#       File generated by GOLD software.
#

@<TRIPOS>MOLECULE
AV-unprocessed.smi:1235
    57    58     1
SMALL
NO_CHARGES


@<TRIPOS>ATOM
      1 ****        -6.0919  -2.4754   3.8712 C.3            1 S1                 0.0000
      2 ****        -5.8103  -2.0619   2.5455 O.3            1 S1                 0.0000
      3 ****        -5.1870  -0.7901   2.4936 C.3            1 S1                 0.0000
      4 ****        -4.9461  -0.4156   1.0233 C.3            1 S1                 0.0000
      5 ****        -4.2599   0.8746   0.9025 N.am           1 S1                 0.0000
      6 ****        -2.8855   0.7715   0.7663 N.2            1 S1                 0.0000
      7 ****        -2.1605   1.8385   0.6663 C.2            1 S1                 0.0000
      8 ****        -0.6793   1.7707   0.5232 C.2            1 S1                 0.0000
      9 ****         0.0167   2.7856   0.4639 O.2            1 S1                 0.0000
     10 ****        -0.1607   0.5306   0.4650 N.am           1 S1                 0.0000
     11 ****         1.2585   0.2175   0.3486 C.3            1 S1                 0.0000
     12 ****         1.7765   0.4399  -1.0868 C.3            1 S1                 0.0000
     13 ****         3.2373   0.1954  -1.2309 N.4            1 S1                 1.0000
     14 ****         3.7677   0.7297  -2.5148 C.3            1 S1                 0.0000
     15 ****         5.3030   0.6713  -2.5567 C.3            1 S1                 0.0000
     16 ****         5.8080  -0.7540  -2.3085 C.3            1 S1                 0.0000
     17 ****         5.2328  -1.2877  -0.9897 C.3            1 S1                 0.0000
     18 ****         3.6920  -1.2028  -0.9471 C.3            1 S1                 0.0000
     19 ****         3.0252  -2.2657  -1.8468 C.3            1 S1                 0.0000
     20 ****        -2.7696   3.1575   0.6910 C.2            1 S1                 0.0000
     21 ****        -4.1113   3.2419   0.8255 C.2            1 S1                 0.0000
     22 ****        -4.9544   2.0514   0.9468 C.2            1 S1                 0.0000
     23 ****        -6.1765   2.1027   1.0813 O.2            1 S1                 0.0000
     24 ****        -6.5629  -3.4582   3.8555 H              1 S1                 0.0000
     25 ****        -6.7757  -1.7826   4.3633 H              1 S1                 0.0000
     26 ****        -5.1797  -2.5485   4.4648 H              1 S1                 0.0000
     27 ****        -5.8205  -0.0447   2.9768 H              1 S1                 0.0000
     28 ****        -4.2396  -0.8187   3.0344 H              1 S1                 0.0000
     29 ****        -4.3536  -1.1967   0.5433 H              1 S1                 0.0000
     30 ****        -5.8934  -0.3974   0.4815 H              1 S1                 0.0000
     31 ****        -0.7995  -0.2501   0.5216 H              1 S1                 0.0000
     32 ****         1.8302   0.8133   1.0622 H              1 S1                 0.0000
     33 ****         1.3725  -0.8246   0.6449 H              1 S1                 0.0000
     34 ****         1.2153  -0.1654  -1.7988 H              1 S1                 0.0000
     35 ****         1.5823   1.4770  -1.3634 H              1 S1                 0.0000
     36 ****         3.3422   0.1794  -3.3546 H              1 S1                 0.0000
     37 ****         3.4556   1.7677  -2.6362 H              1 S1                 0.0000
     38 ****         5.6636   1.0319  -3.5205 H              1 S1                 0.0000
     39 ****         5.7151   1.3424  -1.8019 H              1 S1                 0.0000
     40 ****         5.5182  -1.4017  -3.1363 H              1 S1                 0.0000
     41 ****         6.8979  -0.7651  -2.2739 H              1 S1                 0.0000
     42 ****         5.5613  -2.3151  -0.8279 H              1 S1                 0.0000
     43 ****         5.6458  -0.7069  -0.1635 H              1 S1                 0.0000
     44 ****         3.4162  -1.4408   0.0795 H              1 S1                 0.0000
     45 ****         3.4121  -3.2592  -1.6186 H              1 S1                 0.0000
     46 ****         3.2036  -2.0854  -2.9065 H              1 S1                 0.0000
     47 ****         1.9474  -2.3087  -1.6927 H              1 S1                 0.0000
     48 ****        -2.1720   4.0533   0.6042 H              1 S1                 0.0000
     49 ****        -4.5773   4.2162   0.8451 H              1 S1                 0.0000
     50 ****         3.6699   0.7643  -0.5170 H              1 S1                 0.0000
     51 ****        -6.6684  -2.0194   2.0339 LP             1 S1                 0.0000
     52 ****        -5.2028  -2.7341   2.1223 LP             1 S1                 0.0000
     53 ****        -2.4525  -0.1297   0.7452 LP             1 S1                 0.0000
     54 ****        -0.4106   3.6884   0.5119 LP             1 S1                 0.0000
     55 ****         1.0089   2.7065   0.3678 LP             1 S1                 0.0000
     56 ****        -6.7063   1.2586   1.1639 LP             1 S1                 0.0000
     57 ****        -6.6398   2.9885   1.1081 LP             1 S1                 0.0000
@<TRIPOS>BOND
    1    1    2 1     
    2    1   24 1     
    3    1   25 1     
    4    1   26 1     
    5    2    3 1     
    6    3    4 1     
    7    3   27 1     
    8    3   28 1     
    9    4    5 1     
   10    4   29 1     
   11    4   30 1     
   12    5   22 am    
   13    5    6 1     
   14    6    7 2     
   15    7    8 1     
   16    7   20 1     
   17    8    9 2     
   18    8   10 am    
   19   10   11 1     
   20   10   31 1     
   21   11   12 1     
   22   11   32 1     
   23   11   33 1     
   24   12   13 1     
   25   12   34 1     
   26   12   35 1     
   27   13   18 1     
   28   13   14 1     
   29   13   50 1     
   30   14   15 1     
   31   14   36 1     
   32   14   37 1     
   33   15   16 1     
   34   15   38 1     
   35   15   39 1     
   36   16   17 1     
   37   16   40 1     
   38   16   41 1     
   39   17   18 1     
   40   17   42 1     
   41   17   43 1     
   42   18   19 1     
   43   18   44 1     
   44   19   45 1     
   45   19   46 1     
   46   19   47 1     
   47   20   21 2     
   48   20   48 1     
   49   21   22 1     
   50   21   49 1     
   51   22   23 2     
   52    2   51 1     
   53    2   52 1     
   54    6   53 1     
   55    9   54 1     
   56    9   55 1     
   57   23   56 1     
   58   23   57 1     
@<TRIPOS>SUBSTRUCTURE
      1 S1             1
@<TRIPOS>SET
LONE_PAIRS      STATIC     ATOMS    <user>   **** ""
7 51 52 53 54 55 56 57
DONOR_HYDROGENS      STATIC     ATOMS    <user>   **** ""
2 31 50
ATOM$BLUE        STATIC     ATOMS    COLORGROUP SYSTEM
7 51 52 53 54 55 56 57
ATOM$RED        STATIC     ATOMS    COLORGROUP SYSTEM
2 31 50
