#       Name:                AV-unprocessed.smi:196
#       Creating user name   scv26
#       Creation time:       Thu Mar 26 19:39:50 2020


#       File generated by GOLD software.
#

@<TRIPOS>MOLECULE
AV-unprocessed.smi:196
    57    60     1
SMALL
NO_CHARGES


@<TRIPOS>ATOM
      1 ****        -1.5098  -1.9021   5.1558 C.3            1 S1                 0.0000
      2 ****        -2.5245  -1.5184   4.0675 C.3            1 S1                 0.0000
      3 ****        -3.1077  -2.7258   3.5833 O.3            1 S1                 0.0000
      4 ****        -3.4357  -2.5634   2.2148 C.3            1 S1                 0.0000
      5 ****        -2.2503  -1.7711   1.6856 C.3            1 S1                 0.0000
      6 ****        -1.9646  -0.7855   2.8151 C.3            1 S1                 0.0000
      7 ****        -2.7649   0.3655   2.5992 O.3            1 S1                 0.0000
      8 ****        -0.4824  -0.3310   2.8847 C.3            1 S1                 0.0000
      9 ****        -0.0119   0.2968   1.6586 N.pl3          1 S1                 0.0000
     10 ****        -0.1319   1.6252   1.3139 C.2            1 S1                 0.0000
     11 ****         0.3679   1.9487   0.1521 N.2            1 S1                 0.0000
     12 ****         0.8755   0.7526  -0.3371 C.ar           1 S1                 0.0000
     13 ****         1.5371   0.3814  -1.5358 C.ar           1 S1                 0.0000
     14 ****         1.8146   1.2854  -2.5029 N.3            1 S1                 0.0000
     15 ****         3.1904   1.7736  -2.5034 C.3            1 S1                 0.0000
     16 ****         3.6667   1.7106  -3.9555 C.3            1 S1                 0.0000
     17 ****         4.2734   0.5425  -4.1731 F              1 S1                 0.0000
     18 ****         2.3670   1.7668  -4.7505 C.3            1 S1                 0.0000
     19 ****         1.3847   0.9784  -3.8728 C.3            1 S1                 0.0000
     20 ****        -0.0782   1.3520  -4.1776 C.2            1 S1                 0.0000
     21 ****        -0.8053   1.9462  -3.2253 N.am           1 S1                 0.0000
     22 ****        -0.5539   1.0944  -5.2811 O.2            1 S1                 0.0000
     23 ****         1.9105  -0.9165  -1.6822 N.ar           1 S1                 0.0000
     24 ****         1.6425  -1.7997  -0.7155 C.ar           1 S1                 0.0000
     25 ****         1.0264  -1.5991   0.4520 N.ar           1 S1                 0.0000
     26 ****         0.6538  -0.2950   0.5992 C.ar           1 S1                 0.0000
     27 ****         4.3711   2.5013  -4.2144 H              1 S1                 0.0000
     28 ****         1.5112  -0.0848  -4.0836 H              1 S1                 0.0000
     29 ****        -1.0322  -1.0214   5.5853 H              1 S1                 0.0000
     30 ****        -0.7319  -2.5580   4.7642 H              1 S1                 0.0000
     31 ****        -2.0039  -2.4333   5.9695 H              1 S1                 0.0000
     32 ****        -3.3186  -0.9294   4.5306 H              1 S1                 0.0000
     33 ****        -3.5608  -3.5234   1.7139 H              1 S1                 0.0000
     34 ****        -4.3636  -1.9973   2.1203 H              1 S1                 0.0000
     35 ****        -1.4073  -2.4512   1.5594 H              1 S1                 0.0000
     36 ****        -2.4430  -1.2974   0.7220 H              1 S1                 0.0000
     37 ****        -2.6875   0.9301   3.3529 H              1 S1                 0.0000
     38 ****        -0.3383   0.3751   3.7034 H              1 S1                 0.0000
     39 ****         0.1693  -1.1802   3.0916 H              1 S1                 0.0000
     40 ****        -0.6117   2.3509   1.9542 H              1 S1                 0.0000
     41 ****         3.1743   2.8079  -2.1586 H              1 S1                 0.0000
     42 ****         3.8538   1.2188  -1.8367 H              1 S1                 0.0000
     43 ****         2.0479   2.8058  -4.8525 H              1 S1                 0.0000
     44 ****         2.4687   1.3488  -5.7528 H              1 S1                 0.0000
     45 ****        -1.7659   2.1980  -3.4099 H              1 S1                 0.0000
     46 ****        -0.3910   2.1414  -2.3255 H              1 S1                 0.0000
     47 ****         1.9686  -2.8118  -0.9041 H              1 S1                 0.0000
     48 ****        -3.9361  -2.9305   4.1046 LP             1 S1                 0.0000
     49 ****        -2.4557  -3.4773   3.6849 LP             1 S1                 0.0000
     50 ****        -3.7197   0.0944   2.4774 LP             1 S1                 0.0000
     51 ****        -2.4485   0.8479   1.7824 LP             1 S1                 0.0000
     52 ****         0.3819   2.8485  -0.2840 LP             1 S1                 0.0000
     53 ****         1.2099   2.0243  -2.2057 LP             1 S1                 0.0000
     54 ****         0.0082   0.6446  -5.9752 LP             1 S1                 0.0000
     55 ****        -1.5030   1.3345  -5.4848 LP             1 S1                 0.0000
     56 ****         2.3851  -1.2106  -2.5118 LP             1 S1                 0.0000
     57 ****         0.8595  -2.3135   1.1316 LP             1 S1                 0.0000
@<TRIPOS>BOND
    1    1    2 1     
    2    1   29 1     
    3    1   30 1     
    4    1   31 1     
    5    2    6 1     
    6    2    3 1     
    7    2   32 1     
    8    3    4 1     
    9    4    5 1     
   10    4   33 1     
   11    4   34 1     
   12    5    6 1     
   13    5   35 1     
   14    5   36 1     
   15    6    7 1     
   16    6    8 1     
   17    7   37 1     
   18    8    9 1     
   19    8   38 1     
   20    8   39 1     
   21    9   26 1     
   22    9   10 1     
   23   10   11 2     
   24   10   40 1     
   25   11   12 1     
   26   12   26 ar    
   27   12   13 ar    
   28   13   14 1     
   29   13   23 ar    
   30   14   19 1     
   31   14   15 1     
   32   15   16 1     
   33   15   41 1     
   34   15   42 1     
   35   16   27 1     
   36   16   17 1     
   37   16   18 1     
   38   18   19 1     
   39   18   43 1     
   40   18   44 1     
   41   19   28 1     
   42   19   20 1     
   43   20   21 am    
   44   20   22 2     
   45   21   45 1     
   46   21   46 1     
   47   23   24 ar    
   48   24   25 ar    
   49   24   47 1     
   50   25   26 ar    
   51    3   48 1     
   52    3   49 1     
   53    7   50 1     
   54    7   51 1     
   55   11   52 1     
   56   14   53 1     
   57   22   54 1     
   58   22   55 1     
   59   23   56 1     
   60   25   57 1     
@<TRIPOS>SUBSTRUCTURE
      1 S1             1
@<TRIPOS>SET
LONE_PAIRS      STATIC     ATOMS    <user>   **** ""
10 48 49 50 51 52 53 54 55 56 57
DONOR_HYDROGENS      STATIC     ATOMS    <user>   **** ""
3 37 45 46
ATOM$BLUE        STATIC     ATOMS    COLORGROUP SYSTEM
10 48 49 50 51 52 53 54 55 56 57
ATOM$RED        STATIC     ATOMS    COLORGROUP SYSTEM
3 37 45 46
