#       Name:                AV-unprocessed.smi:3118
#       Creating user name   scv26
#       Creation time:       Fri Mar 27 17:27:46 2020


#       File generated by GOLD software.
#

@<TRIPOS>MOLECULE
AV-unprocessed.smi:3118
    35    36     1
SMALL
NO_CHARGES


@<TRIPOS>ATOM
      1 ****        -0.2458  -1.4283  -1.3368 C.3            1 S1                 0.0000
      2 ****         0.2858  -0.7470  -0.0614 C.3            1 S1                 0.0000
      3 ****         1.8170  -0.8487   0.0869 C.3            1 S1                 0.0000
      4 ****         2.3014  -2.2329   0.0787 N.pl3          1 S1                 0.0000
      5 ****         2.1983  -3.1526   1.0905 C.2            1 S1                 0.0000
      6 ****         2.7866  -4.3039   0.6338 C.2            1 S1                 0.0000
      7 ****         3.2284  -4.0368  -0.6344 N.pl3          1 S1                 1.0000
      8 ****         2.9353  -2.7760  -0.9693 C.2            1 S1                 0.0000
      9 ****        -0.1042   0.6603  -0.0417 N.am           1 S1                 0.0000
     10 ****        -1.3007   1.1302   0.3446 C.2            1 S1                 0.0000
     11 ****        -2.2111   0.4048   0.7470 O.2            1 S1                 0.0000
     12 ****        -1.4859   2.6511   0.2584 C.3            1 S1                 0.0000
     13 ****        -2.2200   3.2878   1.4527 C.3            1 S1                 0.0000
     14 ****        -3.0402   4.1118   0.4558 C.3            1 S1                 0.0000
     15 ****        -2.6666   3.0918  -0.6236 C.3            1 S1                 0.0000
     16 ****        -0.0325  -2.4973  -1.3384 H              1 S1                 0.0000
     17 ****         0.2026  -0.9964  -2.2321 H              1 S1                 0.0000
     18 ****        -1.3274  -1.3198  -1.4227 H              1 S1                 0.0000
     19 ****        -0.1635  -1.2435   0.8010 H              1 S1                 0.0000
     20 ****         2.3183  -0.3053  -0.7159 H              1 S1                 0.0000
     21 ****         2.1406  -0.3963   1.0256 H              1 S1                 0.0000
     22 ****         1.7235  -2.9258   2.0343 H              1 S1                 0.0000
     23 ****         2.9207  -5.2672   1.1040 H              1 S1                 0.0000
     24 ****         3.1608  -2.2948  -1.9045 H              1 S1                 0.0000
     25 ****         0.5843   1.3294  -0.3549 H              1 S1                 0.0000
     26 ****        -0.5682   3.1886   0.0113 H              1 S1                 0.0000
     27 ****        -2.8349   2.5949   2.0297 H              1 S1                 0.0000
     28 ****        -1.5836   3.8882   2.1034 H              1 S1                 0.0000
     29 ****        -4.1060   4.1676   0.6792 H              1 S1                 0.0000
     30 ****        -2.6124   5.0983   0.2710 H              1 S1                 0.0000
     31 ****        -2.3757   3.5392  -1.5746 H              1 S1                 0.0000
     32 ****        -3.4320   2.3258  -0.7625 H              1 S1                 0.0000
     33 ****         3.7077  -4.6966  -1.2344 H              1 S1                 0.0000
     34 ****        -2.0767  -0.5849   0.7974 LP             1 S1                 0.0000
     35 ****        -3.0847   0.8055   1.0233 LP             1 S1                 0.0000
@<TRIPOS>BOND
    1    1    2 1     
    2    1   16 1     
    3    1   17 1     
    4    1   18 1     
    5    2    3 1     
    6    2    9 1     
    7    2   19 1     
    8    3    4 1     
    9    3   20 1     
   10    3   21 1     
   11    4    8 1     
   12    4    5 1     
   13    5    6 2     
   14    5   22 1     
   15    6    7 1     
   16    6   23 1     
   17    7    8 2     
   18    7   33 1     
   19    8   24 1     
   20    9   10 am    
   21    9   25 1     
   22   10   11 2     
   23   10   12 1     
   24   12   15 1     
   25   12   13 1     
   26   12   26 1     
   27   13   14 1     
   28   13   27 1     
   29   13   28 1     
   30   14   15 1     
   31   14   29 1     
   32   14   30 1     
   33   15   31 1     
   34   15   32 1     
   35   11   34 1     
   36   11   35 1     
@<TRIPOS>SUBSTRUCTURE
      1 S1             1
@<TRIPOS>SET
LONE_PAIRS      STATIC     ATOMS    <user>   **** ""
2 34 35
DONOR_HYDROGENS      STATIC     ATOMS    <user>   **** ""
2 33 25
ATOM$BLUE        STATIC     ATOMS    COLORGROUP SYSTEM
2 34 35
ATOM$RED        STATIC     ATOMS    COLORGROUP SYSTEM
2 33 25
