AV-unprocessed.smi:3058|AV-procd|sdf|11675|dock8
  -GOLD-   2272017 83D 1   1.00000     0.00000
 Structure written by MMmdl.
 39 41  0  0  0  0  0  0  0  0  2 V2000
  151.3551  141.2074  157.4590 O   0  0  0  0  0  0  0  0  0  0  0  0
  150.7218  142.2192  157.1555 C   0  0  0  0  0  0  0  0  0  0  0  0
  149.8728  142.2624  156.1170 N   0  0  0  0  0  0  0  0  0  0  0  0
  149.5774  141.1424  155.2316 C   0  0  0  0  0  0  0  0  0  0  0  0
  148.2208  141.3188  154.5295 C   0  0  0  0  0  0  0  0  0  0  0  0
  147.4082  140.0389  154.5270 C   0  0  0  0  0  0  0  0  0  0  0  0
  146.1031  140.0167  155.0668 C   0  0  0  0  0  0  0  0  0  0  0  0
  145.3682  138.8128  155.0487 C   0  0  0  0  0  0  0  0  0  0  0  0
  145.9547  137.6587  154.4899 C   0  0  0  0  0  0  0  0  0  0  0  0
  147.2054  137.7187  153.9819 N   0  3  0  0  0  0  0  0  0  0  0  0
  147.9420  138.8516  153.9808 C   0  0  0  0  0  0  0  0  0  0  0  0
  150.8927  143.5297  157.9443 C   0  0  2  0  0  0  0  0  0  0  0  0
  152.1801  144.3235  157.6100 C   0  0  0  0  0  0  0  0  0  0  0  0
  152.8172  144.5491  158.9943 C   0  0  2  0  0  0  0  0  0  0  0  0
  153.4097  143.2244  159.5103 C   0  0  0  0  0  0  0  0  0  0  0  0
  152.1555  142.4224  159.9033 C   0  0  0  0  0  0  0  0  0  0  0  0
  151.0044  143.3633  159.4833 C   0  0  1  0  0  0  0  0  0  0  0  0
  151.5889  144.7154  159.8817 C   0  0  0  0  0  0  0  0  0  0  0  0
  149.3961  143.1329  155.9300 H   0  0  0  0  0  0  0  0  0  0  0  0
  150.3777  141.0280  154.4981 H   0  0  0  0  0  0  0  0  0  0  0  0
  149.5717  140.2308  155.8297 H   0  0  0  0  0  0  0  0  0  0  0  0
  147.6446  142.1046  155.0198 H   0  0  0  0  0  0  0  0  0  0  0  0
  148.3660  141.6439  153.4982 H   0  0  0  0  0  0  0  0  0  0  0  0
  145.6682  140.9114  155.4889 H   0  0  0  0  0  0  0  0  0  0  0  0
  144.3687  138.7762  155.4572 H   0  0  0  0  0  0  0  0  0  0  0  0
  145.4651  136.6973  154.4336 H   0  0  0  0  0  0  0  0  0  0  0  0
  148.9275  138.7740  153.5449 H   0  0  0  0  0  0  0  0  0  0  0  0
  150.0347  144.1695  157.7281 H   0  0  0  0  0  0  0  0  0  0  0  0
  152.8618  143.8122  156.9288 H   0  0  0  0  0  0  0  0  0  0  0  0
  151.9226  145.2784  157.1497 H   0  0  0  0  0  0  0  0  0  0  0  0
  153.5214  145.3812  159.0199 H   0  0  0  0  0  0  0  0  0  0  0  0
  154.0054  142.7172  158.7505 H   0  0  0  0  0  0  0  0  0  0  0  0
  154.0461  143.3914  160.3800 H   0  0  0  0  0  0  0  0  0  0  0  0
  152.1168  141.4378  159.4394 H   0  0  0  0  0  0  0  0  0  0  0  0
  152.1361  142.2645  160.9824 H   0  0  0  0  0  0  0  0  0  0  0  0
  150.0539  143.1298  159.9640 H   0  0  0  0  0  0  0  0  0  0  0  0
  151.8290  144.7905  160.9441 H   0  0  0  0  0  0  0  0  0  0  0  0
  150.9611  145.5621  159.5979 H   0  0  0  0  0  0  0  0  0  0  0  0
  147.6109  136.8722  153.5813 H   0  0  0  0  0  0  0  0  0  0  0  0
  1  2  2  0  0  0  0
  2  3  1  0  0  0  0
  2 12  1  0  0  0  0
  3  4  1  0  0  0  0
  3 19  1  0  0  0  0
  4  5  1  0  0  0  0
  4 20  1  0  0  0  0
  4 21  1  0  0  0  0
  5  6  1  0  0  0  0
  5 22  1  0  0  0  0
  5 23  1  0  0  0  0
  6 11  1  0  0  0  0
  6  7  2  0  0  0  0
  7  8  1  0  0  0  0
  7 24  1  0  0  0  0
  8  9  2  0  0  0  0
  8 25  1  0  0  0  0
  9 10  1  0  0  0  0
  9 26  1  0  0  0  0
 10 11  2  0  0  0  0
 10 39  1  0  0  0  0
 11 27  1  0  0  0  0
 12 17  1  0  0  0  0
 12 13  1  0  0  0  0
 12 28  1  0  0  0  0
 13 14  1  0  0  0  0
 13 29  1  0  0  0  0
 13 30  1  0  0  0  0
 14 18  1  0  0  0  0
 14 15  1  0  0  0  0
 14 31  1  0  0  0  0
 15 16  1  0  0  0  0
 15 32  1  0  0  0  0
 15 33  1  0  0  0  0
 16 17  1  0  0  0  0
 16 34  1  0  0  0  0
 16 35  1  0  0  0  0
 17 18  1  0  0  0  0
 17 36  1  0  0  0  0
 18 37  1  0  0  0  0
 18 38  1  0  0  0  0
M  CHG  1  10   1
M  END
> <s_m_source_file>
AV-unprocessed.smi

> <i_m_source_file_index>
3058

> <i_lp_mmshare_version>
43012

> <i_f3d_flags>
0

> <s_epik_input>
W0NIMl0xW0NIMl1bQ0BIXShbQ0gyXTIpW0NAQEhdKFtDSDJdW0NAQEhdMTIpQyg9TylbTkhdW0NIMl1bQ0gyXWMzW2NIXVtjSF1bY0hdbltjSF0z

> <s_epik_cmdline>
J2VwaWtfcHl0aG9uJywgJy1waCcsICc3LjAnLCAnLXRuJywgJzgnLCAnLW1hJywgJzIwMCcsICctbWV0YWxfYmluZGluZycsICctaW1hZScsICc8aW5maWxlLm1hZT4nLCAnLW9tYWUnLCAnPG91dGZpbGUubWFlPic=

> <r_epik_Ionization_Penalty>
2.24375

> <r_epik_Ionization_Penalty_Charging>
2.24375

> <r_epik_Ionization_Penalty_Neutral>
1.89995e-08

> <r_epik_State_Penalty>
2.39035

> <r_epik_Charging_Adjusted_Penalty>
4.63411

> <i_epik_Tot_Q>
1

> <i_epik_Tot_abs_Q>
1

> <r_epik_Metal_State_Penalty>
2.40369

> <b_epik_Metal_Only>
0

> <s_lp_Force_Field>
OPLS_2005

> <r_lp_Energy>
54.0755

> <b_lp_Chiralities_Consistent>
1

> <s_lp_Variant>
AV-unprocessed.smi:3058-7

> <Gold.Version>
5.8.1

> <Gold.Id.Protein>
6NUR|6NUR_protein|mol2

> <Gold.PLP.Fitness>
43.5944

> <Gold.PLP.PLP>
-36.6134

> <Gold.PLP.part.hbond>
-2.0000

> <Gold.PLP.part.metal>
0.0000

> <Gold.PLP.part.buried>
-3.6519

> <Gold.PLP.part.nonpolar>
-31.4008

> <Gold.PLP.part.repulsive>
0.1558

> <Gold.PLP.ligand.clash>
0.0000

> <Gold.PLP.ligand.torsion>
1.0151

> <Gold.PLP.Chemscore.Hbond>
3.0000

> <Gold.PLP.Chemscore.CHOScore>
0.0000

> <Gold.PLP.Chemscore.Metal>
0.0000

> <Gold.Chemscore.Hbonds>
donor molecule, donor type, donor heavy atom, donor atom, acceptor molecule, acceptor atom, score
      L1  H     3    19       P1  8028  1.00
      L1  H    10    39       P1  7948  0.62

> <Gold.PLP.Chemscore.Internal.Correction>
0.0113

> <Gold.Rescore>
     Score         DG    S(hbond)    S(metal)    S(lipo)     H(rot)  DE(clash)    DE(int)     intcor
     18.99     -21.22       1.98        0.00     109.81       1.45       0.07       2.16       ----

> <Gold.Chemscore.Fitness>
18.9886

> <Gold.Chemscore.DG>
-21.2197

> <Gold.Chemscore.ZeroCoef>
-5.4800

> <Gold.Chemscore.Hbond>
1.9808

> <Gold.Chemscore.Metal>
0.0000

> <Gold.Chemscore.Lipo>
109.8120

> <Gold.Chemscore.Internal_Hbond>
0.0000

> <Gold.Chemscore.DEClash>
0.0726

> <Gold.Chemscore.DEInternal>
2.1585

> <Gold.Chemscore.Rot>
1.4548

> <Gold.Chemscore.Internal.Correction>
   9.000000E+99

> <Gold.Chemscore.Hbonds>
donor molecule, donor type, donor heavy atom, donor atom, acceptor molecule, acceptor atom, score
      L1  H     3    19       P1  8028  1.00
      L1  H    10    39       P1  7948  0.31

> <Gold.Chemscore.Hbond.Weighted>
-6.6159

> <Gold.Chemscore.Metal.Weighted>
-0.0000

> <Gold.Chemscore.Lipo.Weighted>
-12.8480

> <Gold.Chemscore.Internal_Hbond.Weighted>
0.0000

> <Gold.Chemscore.DEClash.Weighted>
0.0726

> <Gold.Chemscore.DEInternal.Weighted>
2.1585

> <Gold.Chemscore.Rot.Weighted>
3.7242

> <Gold.Chemscore.Internal.Correction.Weighted>
   9.000000E+99

> <Gold.Protein.RotatedTorsions>
[ 6907 6896 6895 6894 ] final  -92.86 input  -60.11 | X-H torsion
[ 7974 7965 7964 7962 ] final  -50.25 input  175.53 | X-H torsion
[ 8008 7997 7996 7995 ] final -102.98 input   59.86 | X-H torsion
[ 10167 10162 10161 10158 ] final   15.41 input  -65.29 | X-H torsion
[ 10718 10713 10712 10709 ] final -127.46 input   66.30 | X-H torsion
[ 10763 10752 10751 10750 ] final  110.01 input  -60.55 | X-H torsion
[ 11005 11000 10999 10996 ] final -175.27 input  -57.11 | X-H torsion

> <Gold.Protein.ActiveResidues>
 VAL166  LYS551  ARG553  GLY616  TRP617  ASP618  TYR619  PRO620  LYS621  CYS622 
 ASP623  PHE694  ASN695  SER759  ASP760  ASP761  ALA762  ILE779  LEU786  VAL792 
 PHE793  MET794  SER795  GLU796  ALA797  LYS798  CYS799  TRP800  GLU811  SER814 

> <Gold.Protein.RotatedAtoms>
  150.6913  134.2057  159.4339 H   0  0  0  0  0  0  0  0  0  0  0  0  # atno 6907 bound_to 6896
  152.0022  134.9920  160.0574 H   0  0  0  0  0  0  0  0  0  0  0  0  # atno 6908 bound_to 6896
  152.1568  133.4521  159.4878 H   0  0  0  0  0  0  0  0  0  0  0  0  # atno 6909 bound_to 6896
  145.9318  140.7742  142.9596 H   0  0  0  0  0  0  0  0  0  0  0  0  # atno 7974 bound_to 7965
  154.8643  140.0425  157.1685 H   0  0  0  0  0  0  0  0  0  0  0  0  # atno 8008 bound_to 7997
  154.8806  140.2972  155.5406 H   0  0  0  0  0  0  0  0  0  0  0  0  # atno 8009 bound_to 7997
  156.2999  140.2412  156.3808 H   0  0  0  0  0  0  0  0  0  0  0  0  # atno 8010 bound_to 7997
  140.5869  143.8872  150.6838 H   0  0  0  0  0  0  0  0  0  0  0  0  # atno 10167 bound_to 10162
  156.1859  130.6763  151.0364 H   0  0  0  0  0  0  0  0  0  0  0  0  # atno 10718 bound_to 10713
  153.4429  135.3762  155.2238 H   0  0  0  0  0  0  0  0  0  0  0  0  # atno 10763 bound_to 10752
  154.8754  135.3867  154.4131 H   0  0  0  0  0  0  0  0  0  0  0  0  # atno 10764 bound_to 10752
  153.4679  135.7087  153.6074 H   0  0  0  0  0  0  0  0  0  0  0  0  # atno 10765 bound_to 10752
  140.4651  134.6218  157.4859 H   0  0  0  0  0  0  0  0  0  0  0  0  # atno 11005 bound_to 11000
  144.6766  140.2139  143.7374 LP  0  0  0  0  0  0  0  0  0  0  0  0  # atno 17320 bound_to 7965
  145.8416  139.2132  143.1824 LP  0  0  0  0  0  0  0  0  0  0  0  0  # atno 17321 bound_to 7965
  140.2385  143.3682  152.1506 LP  0  0  0  0  0  0  0  0  0  0  0  0  # atno 17342 bound_to 10162
  139.5203  144.7031  151.5434 LP  0  0  0  0  0  0  0  0  0  0  0  0  # atno 17343 bound_to 10162
  157.6898  131.0813  150.7139 LP  0  0  0  0  0  0  0  0  0  0  0  0  # atno 17370 bound_to 10713
  156.7195  130.4676  149.5526 LP  0  0  0  0  0  0  0  0  0  0  0  0  # atno 17371 bound_to 10713
  139.9920  134.6970  155.9673 LP  0  0  0  0  0  0  0  0  0  0  0  0  # atno 17394 bound_to 11000
  141.1603  133.6539  156.4296 LP  0  0  0  0  0  0  0  0  0  0  0  0  # atno 17395 bound_to 11000

$$$$
