AV-unprocessed.smi:1412|AV-procd|sdf|5747|dock8
  -GOLD-   22720 5383D 1   1.00000     0.00000
 Structure written by MMmdl.
 41 42  0  0  0  0  0  0  0  0  3 V2000
  147.0086  133.7216  153.7653 C   0  0  0  0  0  0  0  0  0  0  0  0
  147.4566  135.0163  154.4662 C   0  0  0  0  0  0  0  0  0  0  0  0
  148.9709  135.1209  154.8229 C   0  0  2  0  0  0  0  0  0  0  0  0
  149.7564  134.0218  154.0579 C   0  0  0  0  0  0  0  0  0  0  0  0
  149.1883  134.8587  156.3438 C   0  0  0  0  0  0  0  0  0  0  0  0
  148.1715  135.5135  157.1696 N   0  0  0  0  0  0  0  0  0  0  0  0
  148.2030  135.6784  158.4997 C   0  0  0  0  0  0  0  0  0  0  0  0
  149.2086  135.3649  159.1396 O   0  0  0  0  0  0  0  0  0  0  0  0
  147.0525  136.1675  159.0107 N   0  5  0  0  0  0  0  0  0  0  0  0
  146.8765  136.2046  160.3417 C   0  0  0  0  0  0  0  0  0  0  0  0
  146.0237  137.0608  160.9275 N   0  0  0  0  0  0  0  0  0  0  0  0
  145.9859  136.9331  162.3091 N   0  0  0  0  0  0  0  0  0  0  0  0
  146.8238  135.9868  162.7327 C   0  0  0  0  0  0  0  0  0  0  0  0
  147.7329  135.1644  161.4822 S   0  0  0  0  0  0  0  0  0  0  0  0
  149.5083  136.4905  154.4837 N   0  3  0  0  0  0  0  0  0  0  0  0
  148.7222  137.6675  154.9473 C   0  0  0  0  0  0  0  0  0  0  0  0
  149.2870  138.9587  154.3265 C   0  0  0  0  0  0  0  0  0  0  0  0
  150.6665  139.0963  154.6410 O   0  0  0  0  0  0  0  0  0  0  0  0
  151.4339  138.0112  154.1366 C   0  0  0  0  0  0  0  0  0  0  0  0
  150.9477  136.7115  154.7944 C   0  0  0  0  0  0  0  0  0  0  0  0
  145.9311  133.7349  153.6002 H   0  0  0  0  0  0  0  0  0  0  0  0
  147.2313  132.8373  154.3614 H   0  0  0  0  0  0  0  0  0  0  0  0
  147.4783  133.6021  152.7894 H   0  0  0  0  0  0  0  0  0  0  0  0
  147.1738  135.8563  153.8311 H   0  0  0  0  0  0  0  0  0  0  0  0
  146.8550  135.1098  155.3704 H   0  0  0  0  0  0  0  0  0  0  0  0
  149.5333  133.0256  154.4403 H   0  0  0  0  0  0  0  0  0  0  0  0
  150.8349  134.1547  154.1519 H   0  0  0  0  0  0  0  0  0  0  0  0
  149.5116  134.0093  152.9954 H   0  0  0  0  0  0  0  0  0  0  0  0
  149.2360  133.7910  156.5596 H   0  0  0  0  0  0  0  0  0  0  0  0
  150.1531  135.2519  156.6635 H   0  0  0  0  0  0  0  0  0  0  0  0
  147.3319  135.8119  156.6944 H   0  0  0  0  0  0  0  0  0  0  0  0
  146.9074  135.7722  163.7876 H   0  0  0  0  0  0  0  0  0  0  0  0
  147.6769  137.6039  154.6504 H   0  0  0  0  0  0  0  0  0  0  0  0
  148.7471  137.7268  156.0360 H   0  0  0  0  0  0  0  0  0  0  0  0
  149.1516  138.9576  153.2435 H   0  0  0  0  0  0  0  0  0  0  0  0
  148.7500  139.8257  154.7117 H   0  0  0  0  0  0  0  0  0  0  0  0
  151.3537  137.9565  153.0495 H   0  0  0  0  0  0  0  0  0  0  0  0
  152.4842  138.1825  154.3725 H   0  0  0  0  0  0  0  0  0  0  0  0
  151.0944  136.7841  155.8728 H   0  0  0  0  0  0  0  0  0  0  0  0
  151.5627  135.8835  154.4481 H   0  0  0  0  0  0  0  0  0  0  0  0
  149.4474  136.5270  153.4751 H   0  0  0  0  0  0  0  0  0  0  0  0
  1  2  1  0  0  0  0
  1 21  1  0  0  0  0
  1 22  1  0  0  0  0
  1 23  1  0  0  0  0
  2  3  1  0  0  0  0
  2 24  1  0  0  0  0
  2 25  1  0  0  0  0
  3  4  1  0  0  0  0
  3  5  1  0  0  0  0
  3 15  1  0  0  0  0
  4 26  1  0  0  0  0
  4 27  1  0  0  0  0
  4 28  1  0  0  0  0
  5  6  1  0  0  0  0
  5 29  1  0  0  0  0
  5 30  1  0  0  0  0
  6  7  1  0  0  0  0
  6 31  1  0  0  0  0
  7  8  2  0  0  0  0
  7  9  1  0  0  0  0
  9 10  1  0  0  0  0
 10 14  1  0  0  0  0
 10 11  2  0  0  0  0
 11 12  1  0  0  0  0
 12 13  2  0  0  0  0
 13 14  1  0  0  0  0
 13 32  1  0  0  0  0
 15 20  1  0  0  0  0
 15 16  1  0  0  0  0
 15 41  1  0  0  0  0
 16 17  1  0  0  0  0
 16 33  1  0  0  0  0
 16 34  1  0  0  0  0
 17 18  1  0  0  0  0
 17 35  1  0  0  0  0
 17 36  1  0  0  0  0
 18 19  1  0  0  0  0
 19 20  1  0  0  0  0
 19 37  1  0  0  0  0
 19 38  1  0  0  0  0
 20 39  1  0  0  0  0
 20 40  1  0  0  0  0
M  CHG  1   9  -1
M  CHG  1  15   1
M  END
> <s_m_source_file>
AV-unprocessed.smi

> <i_m_source_file_index>
1412

> <i_lp_mmshare_version>
43012

> <i_f3d_flags>
0

> <s_epik_input>
W0NIMl0xW0NIMl1PW0NIMl1bQ0gyXU4xW0NAQF0oW0NIM10pKFtDSDJdW0NIM10pW0NIMl1bTkhdQyg9TylbTkhdYzJubltjSF1zMg==

> <s_epik_cmdline>
J2VwaWtfcHl0aG9uJywgJy1waCcsICc3LjAnLCAnLXRuJywgJzgnLCAnLW1hJywgJzIwMCcsICctbWV0YWxfYmluZGluZycsICctaW1hZScsICc8aW5maWxlLm1hZT4nLCAnLW9tYWUnLCAnPG91dGZpbGUubWFlPic=

> <r_lp_tautomer_probability>
1

> <r_epik_Ionization_Penalty>
4.35651

> <r_epik_Ionization_Penalty_Charging>
4.3235

> <r_epik_Ionization_Penalty_Neutral>
0.0330098

> <r_epik_State_Penalty>
4.4846

> <r_epik_Charging_Adjusted_Penalty>
8.8081

> <i_epik_Tot_Q>
0

> <i_epik_Tot_abs_Q>
2

> <r_epik_Metal_State_Penalty>
1.11611

> <b_epik_Metal_Only>
1

> <s_lp_Force_Field>
OPLS_2005

> <r_lp_Energy>
23.2358

> <b_lp_Chiralities_Consistent>
1

> <s_lp_Variant>
AV-unprocessed.smi:1412-8

> <Gold.Version>
5.8.1

> <Gold.Id.Protein>
6NUR|6NUR_protein|mol2

> <Gold.PLP.Fitness>
38.0582

> <Gold.PLP.PLP>
-26.8896

> <Gold.PLP.part.hbond>
-4.6209

> <Gold.PLP.part.metal>
0.0000

> <Gold.PLP.part.buried>
-4.6140

> <Gold.PLP.part.nonpolar>
-18.2738

> <Gold.PLP.part.repulsive>
0.1789

> <Gold.PLP.ligand.clash>
0.0000

> <Gold.PLP.ligand.torsion>
1.5059

> <Gold.PLP.Chemscore.Hbond>
4.6471

> <Gold.PLP.Chemscore.CHOScore>
0.0000

> <Gold.PLP.Chemscore.Metal>
0.0000

> <Gold.Chemscore.Hbonds>
donor molecule, donor type, donor heavy atom, donor atom, acceptor molecule, acceptor atom, score
      L1  H    15    41       P1  7948  2.00
      P1  H  6896  6908       L1     8  1.00
      P1  H  6934  6947       L1    11  0.30
      P1  H  7989  7998       L1    18  0.29

> <Gold.PLP.Chemscore.Internal.Correction>
0.2393

> <Gold.Rescore>
     Score         DG    S(hbond)    S(metal)    S(lipo)     H(rot)  DE(clash)    DE(int)     intcor
     13.03     -16.04       2.43        0.00      62.01       1.88       0.14       2.88       ----

> <Gold.Chemscore.Fitness>
13.0279

> <Gold.Chemscore.DG>
-16.0444

> <Gold.Chemscore.ZeroCoef>
-5.4800

> <Gold.Chemscore.Hbond>
2.4302

> <Gold.Chemscore.Metal>
0.0000

> <Gold.Chemscore.Lipo>
62.0091

> <Gold.Chemscore.Internal_Hbond>
0.0000

> <Gold.Chemscore.DEClash>
0.1386

> <Gold.Chemscore.DEInternal>
2.8779

> <Gold.Chemscore.Rot>
1.8779

> <Gold.Chemscore.Internal.Correction>
   9.000000E+99

> <Gold.Chemscore.Hbonds>
donor molecule, donor type, donor heavy atom, donor atom, acceptor molecule, acceptor atom, score
      L1  H    15    41       P1  7948  0.78
      P1  H  6896  6908       L1     8  1.00
      P1  H  6934  6947       L1    11  0.02
      P1  H  7989  7998       L1    18  0.06

> <Gold.Chemscore.Hbond.Weighted>
-8.1167

> <Gold.Chemscore.Metal.Weighted>
-0.0000

> <Gold.Chemscore.Lipo.Weighted>
-7.2551

> <Gold.Chemscore.Internal_Hbond.Weighted>
0.0000

> <Gold.Chemscore.DEClash.Weighted>
0.1386

> <Gold.Chemscore.DEInternal.Weighted>
2.8779

> <Gold.Chemscore.Rot.Weighted>
4.8074

> <Gold.Chemscore.Internal.Correction.Weighted>
   9.000000E+99

> <Gold.Protein.RotatedTorsions>
[ 6907 6896 6895 6894 ] final  164.31 input  -60.11 | X-H torsion
[ 7974 7965 7964 7962 ] final  -96.87 input  175.53 | X-H torsion
[ 8008 7997 7996 7995 ] final   78.53 input   59.86 | X-H torsion
[ 10167 10162 10161 10158 ] final -139.49 input  -65.29 | X-H torsion
[ 10718 10713 10712 10709 ] final   73.58 input   66.30 | X-H torsion
[ 10763 10752 10751 10750 ] final   19.71 input  -60.55 | X-H torsion
[ 11005 11000 10999 10996 ] final -116.18 input  -57.11 | X-H torsion

> <Gold.Protein.ActiveResidues>
 VAL166  LYS551  ARG553  GLY616  TRP617  ASP618  TYR619  PRO620  LYS621  CYS622 
 ASP623  PHE694  ASN695  SER759  ASP760  ASP761  ALA762  ILE779  LEU786  VAL792 
 PHE793  MET794  SER795  GLU796  ALA797  LYS798  CYS799  TRP800  GLU811  SER814 

> <Gold.Protein.RotatedAtoms>
  151.9119  133.3563  159.3866 H   0  0  0  0  0  0  0  0  0  0  0  0  # atno 6907 bound_to 6896
  150.7056  134.4724  159.5441 H   0  0  0  0  0  0  0  0  0  0  0  0  # atno 6908 bound_to 6896
  152.2331  134.8302  160.0521 H   0  0  0  0  0  0  0  0  0  0  0  0  # atno 6909 bound_to 6896
  145.3412  140.9460  143.2607 H   0  0  0  0  0  0  0  0  0  0  0  0  # atno 7974 bound_to 7965
  155.8569  140.3455  155.5730 H   0  0  0  0  0  0  0  0  0  0  0  0  # atno 8008 bound_to 7997
  155.7976  140.0880  157.1994 H   0  0  0  0  0  0  0  0  0  0  0  0  # atno 8009 bound_to 7997
  154.4010  140.1471  156.3223 H   0  0  0  0  0  0  0  0  0  0  0  0  # atno 8010 bound_to 7997
  139.8374  143.7366  152.2664 H   0  0  0  0  0  0  0  0  0  0  0  0  # atno 10167 bound_to 10162
  157.6554  130.9636  150.1090 H   0  0  0  0  0  0  0  0  0  0  0  0  # atno 10718 bound_to 10713
  153.1139  135.6703  153.9452 H   0  0  0  0  0  0  0  0  0  0  0  0  # atno 10763 bound_to 10752
  153.8988  135.3038  155.3449 H   0  0  0  0  0  0  0  0  0  0  0  0  # atno 10764 bound_to 10752
  154.7556  135.5013  153.9447 H   0  0  0  0  0  0  0  0  0  0  0  0  # atno 10765 bound_to 10752
  141.0439  133.9793  157.2949 H   0  0  0  0  0  0  0  0  0  0  0  0  # atno 11005 bound_to 11000
  144.8789  139.4932  143.6732 LP  0  0  0  0  0  0  0  0  0  0  0  0  # atno 17320 bound_to 7965
  146.3007  139.7416  142.9094 LP  0  0  0  0  0  0  0  0  0  0  0  0  # atno 17321 bound_to 7965
  139.7593  144.7511  151.0388 LP  0  0  0  0  0  0  0  0  0  0  0  0  # atno 17342 bound_to 10162
  140.7801  143.4770  151.0070 LP  0  0  0  0  0  0  0  0  0  0  0  0  # atno 17343 bound_to 10162
  156.1992  130.3659  149.8810 LP  0  0  0  0  0  0  0  0  0  0  0  0  # atno 17370 bound_to 10713
  156.6718  130.8823  151.3563 LP  0  0  0  0  0  0  0  0  0  0  0  0  # atno 17371 bound_to 10713
  139.9297  135.0200  156.8357 LP  0  0  0  0  0  0  0  0  0  0  0  0  # atno 17394 bound_to 11000
  140.6183  134.0018  155.7607 LP  0  0  0  0  0  0  0  0  0  0  0  0  # atno 17395 bound_to 11000

$$$$
