AV-unprocessed.smi:877|AV-procd|sdf|4029|dock7
  -GOLD-   22720 1523D 1   1.00000     0.00000
 Structure written by MMmdl.
 44 46  0  0  0  0  0  0  0  0  2 V2000
  143.5287  143.4107  156.2862 C   0  0  0  0  0  0  0  0  0  0  0  0
  144.2260  143.2603  155.0582 O   0  0  0  0  0  0  0  0  0  0  0  0
  145.5033  142.7438  155.0965 C   0  0  0  0  0  0  0  0  0  0  0  0
  146.1748  142.6041  153.8646 C   0  0  0  0  0  0  0  0  0  0  0  0
  147.4797  142.0788  153.8090 C   0  0  0  0  0  0  0  0  0  0  0  0
  148.1344  141.6857  154.9931 C   0  0  0  0  0  0  0  0  0  0  0  0
  149.5355  141.1047  154.9396 C   0  0  0  0  0  0  0  0  0  0  0  0
  150.3775  141.5096  156.1104 C   0  0  0  0  0  0  0  0  0  0  0  0
  150.5301  142.7794  156.5859 N   0  3  0  0  0  0  0  0  0  0  0  0
  151.3979  142.7767  157.6777 C   0  0  0  0  0  0  0  0  0  0  0  0
  151.8602  143.8173  158.4773 C   0  0  0  0  0  0  0  0  0  0  0  0
  152.7470  143.4697  159.5174 C   0  0  0  0  0  0  0  0  0  0  0  0
  153.1399  142.1324  159.7312 C   0  0  0  0  0  0  0  0  0  0  0  0
  152.6638  141.0860  158.9134 C   0  0  0  0  0  0  0  0  0  0  0  0
  151.7885  141.4388  157.8868 C   0  0  0  0  0  0  0  0  0  0  0  0
  151.1334  140.6924  156.9007 N   0  0  0  0  0  0  0  0  0  0  0  0
  151.3425  139.2362  156.8519 C   0  0  0  0  0  0  0  0  0  0  0  0
  152.0557  138.7761  155.5645 C   0  0  2  0  0  0  0  0  0  0  0  0
  152.7509  139.8738  155.0041 O   0  0  0  0  0  0  0  0  0  0  0  0
  151.0610  138.2323  154.5245 C   0  0  0  0  0  0  0  0  0  0  0  0
  151.5289  137.0129  153.9883 O   0  0  0  0  0  0  0  0  0  0  0  0
  147.4752  141.8270  156.2310 C   0  0  0  0  0  0  0  0  0  0  0  0
  146.1687  142.3505  156.2851 C   0  0  0  0  0  0  0  0  0  0  0  0
  142.5359  143.8145  156.0887 H   0  0  0  0  0  0  0  0  0  0  0  0
  144.0406  144.1055  156.9534 H   0  0  0  0  0  0  0  0  0  0  0  0
  143.4000  142.4525  156.7914 H   0  0  0  0  0  0  0  0  0  0  0  0
  145.6817  142.9009  152.9505 H   0  0  0  0  0  0  0  0  0  0  0  0
  147.9731  141.9768  152.8534 H   0  0  0  0  0  0  0  0  0  0  0  0
  149.4905  140.0160  154.8985 H   0  0  0  0  0  0  0  0  0  0  0  0
  150.0079  141.4323  154.0136 H   0  0  0  0  0  0  0  0  0  0  0  0
  151.5613  144.8425  158.3145 H   0  0  0  0  0  0  0  0  0  0  0  0
  153.1342  144.2441  160.1638 H   0  0  0  0  0  0  0  0  0  0  0  0
  153.8212  141.9041  160.5380 H   0  0  0  0  0  0  0  0  0  0  0  0
  152.9737  140.0656  159.0834 H   0  0  0  0  0  0  0  0  0  0  0  0
  151.9091  138.9418  157.7360 H   0  0  0  0  0  0  0  0  0  0  0  0
  150.3692  138.7535  156.9441 H   0  0  0  0  0  0  0  0  0  0  0  0
  152.7803  138.0012  155.8185 H   0  0  0  0  0  0  0  0  0  0  0  0
  152.1191  140.5158  154.7185 H   0  0  0  0  0  0  0  0  0  0  0  0
  150.0978  138.0310  154.9948 H   0  0  0  0  0  0  0  0  0  0  0  0
  150.8836  138.9524  153.7248 H   0  0  0  0  0  0  0  0  0  0  0  0
  151.2211  136.9375  153.0979 H   0  0  0  0  0  0  0  0  0  0  0  0
  147.9687  141.5273  157.1443 H   0  0  0  0  0  0  0  0  0  0  0  0
  145.6977  142.4392  157.2522 H   0  0  0  0  0  0  0  0  0  0  0  0
  150.0781  143.5892  156.1808 H   0  0  0  0  0  0  0  0  0  0  0  0
  1  2  1  0  0  0  0
  1 24  1  0  0  0  0
  1 25  1  0  0  0  0
  1 26  1  0  0  0  0
  2  3  1  0  0  0  0
  3 23  1  0  0  0  0
  3  4  2  0  0  0  0
  4  5  1  0  0  0  0
  4 27  1  0  0  0  0
  5  6  2  0  0  0  0
  5 28  1  0  0  0  0
  6  7  1  0  0  0  0
  6 22  1  0  0  0  0
  7  8  1  0  0  0  0
  7 29  1  0  0  0  0
  7 30  1  0  0  0  0
  8 16  1  0  0  0  0
  8  9  2  0  0  0  0
  9 10  1  0  0  0  0
  9 44  1  0  0  0  0
 10 15  2  0  0  0  0
 10 11  1  0  0  0  0
 11 12  2  0  0  0  0
 11 31  1  0  0  0  0
 12 13  1  0  0  0  0
 12 32  1  0  0  0  0
 13 14  2  0  0  0  0
 13 33  1  0  0  0  0
 14 15  1  0  0  0  0
 14 34  1  0  0  0  0
 15 16  1  0  0  0  0
 16 17  1  0  0  0  0
 17 18  1  0  0  0  0
 17 35  1  0  0  0  0
 17 36  1  0  0  0  0
 18 19  1  0  0  0  0
 18 20  1  0  0  0  0
 18 37  1  0  0  0  0
 19 38  1  0  0  0  0
 20 21  1  0  0  0  0
 20 39  1  0  0  0  0
 20 40  1  0  0  0  0
 21 41  1  0  0  0  0
 22 23  2  0  0  0  0
 22 42  1  0  0  0  0
 23 43  1  0  0  0  0
M  CHG  1   9   1
M  END
> <s_m_source_file>
AV-unprocessed.smi

> <i_m_source_file_index>
877

> <i_lp_mmshare_version>
43012

> <i_f3d_flags>
0

> <s_epik_input>
W0NIM11PYzFbY0hdW2NIXWMoW2NIXVtjSF0xKVtDSDJdYyhuMiluKFtDSDJdW0NASF0oW09IXSlbQ0gyXVtPSF0pYyhjMjMpW2NIXVtjSF1bY0hdW2NIXTM=

> <s_epik_cmdline>
J2VwaWtfcHl0aG9uJywgJy1waCcsICc3LjAnLCAnLXRuJywgJzgnLCAnLW1hJywgJzIwMCcsICctbWV0YWxfYmluZGluZycsICctaW1hZScsICc8aW5maWxlLm1hZT4nLCAnLW9tYWUnLCAnPG91dGZpbGUubWFlPic=

> <r_lp_tautomer_probability>
1

> <r_epik_Ionization_Penalty>
1.37112

> <r_epik_Ionization_Penalty_Charging>
1.37111

> <r_epik_Ionization_Penalty_Neutral>
4.48252e-07

> <r_epik_State_Penalty>
1.45083

> <r_epik_Charging_Adjusted_Penalty>
2.82194

> <i_epik_Tot_Q>
1

> <i_epik_Tot_abs_Q>
1

> <r_epik_Metal_State_Penalty>
5.49009

> <b_epik_Metal_Only>
0

> <s_lp_Force_Field>
OPLS_2005

> <r_lp_Energy>
22.2712

> <b_lp_Chiralities_Consistent>
1

> <s_lp_Variant>
AV-unprocessed.smi:877-3

> <Gold.Version>
5.8.1

> <Gold.Id.Protein>
6NUR|6NUR_protein|mol2

> <Gold.PLP.Fitness>
63.4465

> <Gold.PLP.PLP>
-51.7659

> <Gold.PLP.part.hbond>
-5.0000

> <Gold.PLP.part.metal>
0.0000

> <Gold.PLP.part.buried>
-5.5679

> <Gold.PLP.part.nonpolar>
-41.0950

> <Gold.PLP.part.repulsive>
0.2255

> <Gold.PLP.ligand.clash>
0.0000

> <Gold.PLP.ligand.torsion>
1.6807

> <Gold.PLP.Chemscore.Hbond>
5.0000

> <Gold.PLP.Chemscore.CHOScore>
0.0000

> <Gold.PLP.Chemscore.Metal>
0.0000

> <Gold.Chemscore.Hbonds>
donor molecule, donor type, donor heavy atom, donor atom, acceptor molecule, acceptor atom, score
      L1  H     9    44       P1  8028  2.00
      L1  H    21    41       P1  7949  0.99
      P1  H  7997  8009       L1    19  1.00
      P1  H 10752 10764       L1    21  1.00

> <Gold.PLP.Chemscore.Internal.Correction>
0.0420

> <Gold.Rescore>
     Score         DG    S(hbond)    S(metal)    S(lipo)     H(rot)  DE(clash)    DE(int)     intcor
     21.39     -23.04       3.54        0.00     119.87       3.23       0.18       1.48       ----

> <Gold.Chemscore.Fitness>
21.3857

> <Gold.Chemscore.DG>
-23.0446

> <Gold.Chemscore.ZeroCoef>
-5.4800

> <Gold.Chemscore.Hbond>
3.5368

> <Gold.Chemscore.Metal>
0.0000

> <Gold.Chemscore.Lipo>
119.8671

> <Gold.Chemscore.Internal_Hbond>
0.0000

> <Gold.Chemscore.DEClash>
0.1754

> <Gold.Chemscore.DEInternal>
1.4836

> <Gold.Chemscore.Rot>
3.2315

> <Gold.Chemscore.Internal.Correction>
   9.000000E+99

> <Gold.Chemscore.Hbonds>
donor molecule, donor type, donor heavy atom, donor atom, acceptor molecule, acceptor atom, score
      L1  H     9    44       P1  8028  1.00
      L1  H    21    41       P1  7949  0.56
      P1  H  7997  8009       L1    19  0.87
      P1  H 10752 10764       L1    21  0.34

> <Gold.Chemscore.Hbond.Weighted>
-11.8129

> <Gold.Chemscore.Metal.Weighted>
-0.0000

> <Gold.Chemscore.Lipo.Weighted>
-14.0245

> <Gold.Chemscore.Internal_Hbond.Weighted>
0.0000

> <Gold.Chemscore.DEClash.Weighted>
0.1754

> <Gold.Chemscore.DEInternal.Weighted>
1.4836

> <Gold.Chemscore.Rot.Weighted>
8.2727

> <Gold.Chemscore.Internal.Correction.Weighted>
   9.000000E+99

> <Gold.Protein.RotatedTorsions>
[ 6907 6896 6895 6894 ] final  112.80 input  -60.11 | X-H torsion
[ 7974 7965 7964 7962 ] final  121.11 input  175.53 | X-H torsion
[ 8008 7997 7996 7995 ] final -132.65 input   59.86 | X-H torsion
[ 10167 10162 10161 10158 ] final   55.65 input  -65.29 | X-H torsion
[ 10718 10713 10712 10709 ] final   88.21 input   66.30 | X-H torsion
[ 10763 10752 10751 10750 ] final  -94.55 input  -60.55 | X-H torsion
[ 11005 11000 10999 10996 ] final  -29.66 input  -57.11 | X-H torsion

> <Gold.Protein.ActiveResidues>
 VAL166  LYS551  ARG553  GLY616  TRP617  ASP618  TYR619  PRO620  LYS621  CYS622 
 ASP623  PHE694  ASN695  SER759  ASP760  ASP761  ALA762  ILE779  LEU786  VAL792 
 PHE793  MET794  SER795  GLU796  ALA797  LYS798  CYS799  TRP800  GLU811  SER814 

> <Gold.Protein.RotatedAtoms>
  152.4896  133.8464  159.7178 H   0  0  0  0  0  0  0  0  0  0  0  0  # atno 6907 bound_to 6896
  150.9013  133.7105  159.2885 H   0  0  0  0  0  0  0  0  0  0  0  0  # atno 6908 bound_to 6896
  151.4545  135.1037  159.9759 H   0  0  0  0  0  0  0  0  0  0  0  0  # atno 6909 bound_to 6896
  145.1232  139.3375  143.4703 H   0  0  0  0  0  0  0  0  0  0  0  0  # atno 7974 bound_to 7965
  155.3325  140.0468  157.3043 H   0  0  0  0  0  0  0  0  0  0  0  0  # atno 8008 bound_to 7997
  154.5321  140.2260  155.8752 H   0  0  0  0  0  0  0  0  0  0  0  0  # atno 8009 bound_to 7997
  156.1798  140.3076  155.9134 H   0  0  0  0  0  0  0  0  0  0  0  0  # atno 8010 bound_to 7997
  140.2172  144.3827  150.6465 H   0  0  0  0  0  0  0  0  0  0  0  0  # atno 10167 bound_to 10162
  157.6947  131.0286  150.3240 H   0  0  0  0  0  0  0  0  0  0  0  0  # atno 10718 bound_to 10713
  154.7065  135.5153  153.8603 H   0  0  0  0  0  0  0  0  0  0  0  0  # atno 10763 bound_to 10752
  153.0746  135.6612  154.0183 H   0  0  0  0  0  0  0  0  0  0  0  0  # atno 10764 bound_to 10752
  154.0033  135.3009  155.3380 H   0  0  0  0  0  0  0  0  0  0  0  0  # atno 10765 bound_to 10752
  140.9315  133.7335  156.0943 H   0  0  0  0  0  0  0  0  0  0  0  0  # atno 11005 bound_to 11000
  146.3519  140.1199  142.8600 LP  0  0  0  0  0  0  0  0  0  0  0  0  # atno 17320 bound_to 7965
  145.0717  140.9160  143.4878 LP  0  0  0  0  0  0  0  0  0  0  0  0  # atno 17321 bound_to 7965
  140.6281  143.2184  151.6553 LP  0  0  0  0  0  0  0  0  0  0  0  0  # atno 17342 bound_to 10162
  139.5158  144.3368  152.0776 LP  0  0  0  0  0  0  0  0  0  0  0  0  # atno 17343 bound_to 10162
  156.3723  130.3865  149.7166 LP  0  0  0  0  0  0  0  0  0  0  0  0  # atno 17370 bound_to 10713
  156.4576  130.7936  151.2957 LP  0  0  0  0  0  0  0  0  0  0  0  0  # atno 17371 bound_to 10713
  140.7856  134.3676  157.5477 LP  0  0  0  0  0  0  0  0  0  0  0  0  # atno 17394 bound_to 11000
  139.8797  134.9109  156.3023 LP  0  0  0  0  0  0  0  0  0  0  0  0  # atno 17395 bound_to 11000

$$$$
