AV-unprocessed.smi:171|AV-procd|sdf|1414|dock1
  -GOLD-   2262019173D 1   1.00000     0.00000
 Structure written by MMmdl.
 56 59  0  0  0  0  0  0  0  0  1 V2000
  150.9986  139.7697  155.6736 C   0  0  0  0  0  0  0  0  0  0  0  0
  150.2003  138.5334  155.2277 C   0  0  0  0  0  0  0  0  0  0  0  0
  151.1567  137.4296  154.7481 C   0  0  0  0  0  0  0  0  0  0  0  0
  149.1464  138.8631  154.1367 C   0  0  0  0  0  0  0  0  0  0  0  0
  148.0185  139.8578  154.5397 C   0  0  2  0  0  0  0  0  0  0  0  0
  148.5468  141.2806  154.8338 C   0  0  0  0  0  0  0  0  0  0  0  0
  149.3491  141.8065  154.0645 O   0  0  0  0  0  0  0  0  0  0  0  0
  148.0934  141.9363  155.9160 N   0  0  0  0  0  0  0  0  0  0  0  0
  147.1452  141.4068  156.8920 C   0  0  0  0  0  0  0  0  0  0  0  0
  146.3151  140.2449  156.3286 C   0  0  0  0  0  0  0  0  0  0  0  0
  147.1847  139.3123  155.6241 N   0  0  0  0  0  0  0  0  0  0  0  0
  146.5896  138.1211  155.3918 C   0  0  0  0  0  0  0  0  0  0  0  0
  146.4181  137.2350  156.4070 N   0  0  0  0  0  0  0  0  0  0  0  0
  145.8064  136.0693  156.1747 C   0  0  0  0  0  0  0  0  0  0  0  0
  145.2975  135.6065  155.0302 N   0  0  0  0  0  0  0  0  0  0  0  0
  145.4748  136.4966  154.0114 C   0  0  0  0  0  0  0  0  0  0  0  0
  146.1178  137.7611  154.1034 C   0  0  0  0  0  0  0  0  0  0  0  0
  146.1236  138.3887  152.8649 N   0  0  0  0  0  0  0  0  0  0  0  0
  145.5046  137.5464  152.0839 C   0  0  0  0  0  0  0  0  0  0  0  0
  145.0677  136.3908  152.6930 N   0  0  0  0  0  0  0  0  0  0  0  0
  144.3358  135.2993  152.0701 C   0  0  0  0  0  0  0  0  0  0  0  0
  145.1460  134.5701  150.9657 C   0  0  1  0  0  0  0  0  0  0  0  0
  145.3728  135.4855  149.9071 O   0  0  0  0  0  0  0  0  0  0  0  0
  146.5068  134.0663  151.4419 C   0  0  0  0  0  0  0  0  0  0  0  0
  146.7475  132.8434  150.5706 C   0  0  0  0  0  0  0  0  0  0  0  0
  145.4589  132.2598  150.5054 O   0  0  0  0  0  0  0  0  0  0  0  0
  144.4925  133.2966  150.3573 C   0  0  1  0  0  0  0  0  0  0  0  0
  143.1826  132.8134  150.9991 C   0  0  0  0  0  0  0  0  0  0  0  0
  151.5256  140.2261  154.8351 H   0  0  0  0  0  0  0  0  0  0  0  0
  151.7418  139.5041  156.4257 H   0  0  0  0  0  0  0  0  0  0  0  0
  150.3551  140.5281  156.1165 H   0  0  0  0  0  0  0  0  0  0  0  0
  149.6964  138.1392  156.1095 H   0  0  0  0  0  0  0  0  0  0  0  0
  151.7088  137.7408  153.8608 H   0  0  0  0  0  0  0  0  0  0  0  0
  150.6128  136.5171  154.5007 H   0  0  0  0  0  0  0  0  0  0  0  0
  151.8823  137.1740  155.5207 H   0  0  0  0  0  0  0  0  0  0  0  0
  149.6515  139.2121  153.2352 H   0  0  0  0  0  0  0  0  0  0  0  0
  148.6666  137.9364  153.8195 H   0  0  0  0  0  0  0  0  0  0  0  0
  147.3753  139.9878  153.6678 H   0  0  0  0  0  0  0  0  0  0  0  0
  148.4428  142.8694  156.0802 H   0  0  0  0  0  0  0  0  0  0  0  0
  147.7147  141.0657  157.7572 H   0  0  0  0  0  0  0  0  0  0  0  0
  146.4926  142.2084  157.2382 H   0  0  0  0  0  0  0  0  0  0  0  0
  145.7798  139.7463  157.1387 H   0  0  0  0  0  0  0  0  0  0  0  0
  145.5634  140.6248  155.6345 H   0  0  0  0  0  0  0  0  0  0  0  0
  145.7049  135.4164  157.0291 H   0  0  0  0  0  0  0  0  0  0  0  0
  145.3391  137.7520  151.0364 H   0  0  0  0  0  0  0  0  0  0  0  0
  144.0512  134.6025  152.8590 H   0  0  0  0  0  0  0  0  0  0  0  0
  143.4080  135.7009  151.6610 H   0  0  0  0  0  0  0  0  0  0  0  0
  145.8754  135.0496  149.2360 H   0  0  0  0  0  0  0  0  0  0  0  0
  147.3034  134.8087  151.3721 H   0  0  0  0  0  0  0  0  0  0  0  0
  146.4438  133.7444  152.4821 H   0  0  0  0  0  0  0  0  0  0  0  0
  147.0778  133.1282  149.5705 H   0  0  0  0  0  0  0  0  0  0  0  0
  147.4792  132.1576  150.9976 H   0  0  0  0  0  0  0  0  0  0  0  0
  144.3205  133.4325  149.2878 H   0  0  0  0  0  0  0  0  0  0  0  0
  142.3949  133.5618  150.9101 H   0  0  0  0  0  0  0  0  0  0  0  0
  143.3156  132.5798  152.0556 H   0  0  0  0  0  0  0  0  0  0  0  0
  142.8270  131.9074  150.5080 H   0  0  0  0  0  0  0  0  0  0  0  0
  1  2  1  0  0  0  0
  1 29  1  0  0  0  0
  1 30  1  0  0  0  0
  1 31  1  0  0  0  0
  2  3  1  0  0  0  0
  2  4  1  0  0  0  0
  2 32  1  0  0  0  0
  3 33  1  0  0  0  0
  3 34  1  0  0  0  0
  3 35  1  0  0  0  0
  4  5  1  0  0  0  0
  4 36  1  0  0  0  0
  4 37  1  0  0  0  0
  5 11  1  0  0  0  0
  5  6  1  0  0  0  0
  5 38  1  0  0  0  0
  6  7  2  0  0  0  0
  6  8  1  0  0  0  0
  8  9  1  0  0  0  0
  8 39  1  0  0  0  0
  9 10  1  0  0  0  0
  9 40  1  0  0  0  0
  9 41  1  0  0  0  0
 10 11  1  0  0  0  0
 10 42  1  0  0  0  0
 10 43  1  0  0  0  0
 11 12  1  0  0  0  0
 12 17  1  0  0  0  0
 12 13  2  0  0  0  0
 13 14  1  0  0  0  0
 14 15  2  0  0  0  0
 14 44  1  0  0  0  0
 15 16  1  0  0  0  0
 16 20  1  0  0  0  0
 16 17  2  0  0  0  0
 17 18  1  0  0  0  0
 18 19  2  0  0  0  0
 19 20  1  0  0  0  0
 19 45  1  0  0  0  0
 20 21  1  0  0  0  0
 21 22  1  0  0  0  0
 21 46  1  0  0  0  0
 21 47  1  0  0  0  0
 22 27  1  0  0  0  0
 22 23  1  0  0  0  0
 22 24  1  0  0  0  0
 23 48  1  0  0  0  0
 24 25  1  0  0  0  0
 24 49  1  0  0  0  0
 24 50  1  0  0  0  0
 25 26  1  0  0  0  0
 25 51  1  0  0  0  0
 25 52  1  0  0  0  0
 26 27  1  0  0  0  0
 27 28  1  0  0  0  0
 27 53  1  0  0  0  0
 28 54  1  0  0  0  0
 28 55  1  0  0  0  0
 28 56  1  0  0  0  0
M  END
> <s_m_source_file>
AV-unprocessed.smi

> <i_m_source_file_index>
171

> <i_lp_mmshare_version>
43012

> <i_f3d_flags>
0

> <s_epik_input>
W0NIM11bQ0hdKFtDSDNdKVtDSDJdW0NAQEhdMUMoPU8pW05IXVtDSDJdW0NIMl1OMWMobltjSF1uMiljKGMyMyluW2NIXW4zW0NIMl1bQ0BAXTQoW09IXSlbQ0gyXVtDSDJdT1tDQEhdNFtDSDNd

> <s_epik_cmdline>
J2VwaWtfcHl0aG9uJywgJy1waCcsICc3LjAnLCAnLXRuJywgJzgnLCAnLW1hJywgJzIwMCcsICctbWV0YWxfYmluZGluZycsICctaW1hZScsICc8aW5maWxlLm1hZT4nLCAnLW9tYWUnLCAnPG91dGZpbGUubWFlPic=

> <r_lp_tautomer_probability>
1

> <r_epik_Ionization_Penalty>
0.000670584

> <r_epik_Ionization_Penalty_Charging>
0

> <r_epik_Ionization_Penalty_Neutral>
0.000670584

> <r_epik_State_Penalty>
0.000304767

> <r_epik_Charging_Adjusted_Penalty>
0.000304767

> <i_epik_Tot_Q>
0

> <i_epik_Tot_abs_Q>
0

> <r_epik_Metal_State_Penalty>
-0

> <b_epik_Metal_Only>
0

> <s_lp_Force_Field>
OPLS_2005

> <r_lp_Energy>
42.1077

> <b_lp_Chiralities_Consistent>
1

> <s_lp_Variant>
AV-unprocessed.smi:171-1

> <Gold.Version>
5.8.1

> <Gold.Id.Protein>
6NUR|6NUR_protein|mol2

> <Gold.PLP.Fitness>
43.7495

> <Gold.PLP.PLP>
-34.0565

> <Gold.PLP.part.hbond>
-3.9117

> <Gold.PLP.part.metal>
0.0000

> <Gold.PLP.part.buried>
-0.6190

> <Gold.PLP.part.nonpolar>
-29.4083

> <Gold.PLP.part.repulsive>
0.6548

> <Gold.PLP.ligand.clash>
0.0012

> <Gold.PLP.ligand.torsion>
0.5998

> <Gold.PLP.Chemscore.Hbond>
2.4800

> <Gold.PLP.Chemscore.CHOScore>
1.0000

> <Gold.PLP.Chemscore.Metal>
0.0000

> <Gold.Chemscore.Hbonds>
donor molecule, donor type, donor heavy atom, donor atom, acceptor molecule, acceptor atom, score
      L1  H     8    39       P1  8028  1.00
      L1  H    23    48       P1  7921  0.96
      P1  H  8011  8017       L1     7  0.51
      L1  C    19    45       P1 10171  1.00

> <Gold.PLP.Chemscore.Internal.Correction>
0.4539

> <Gold.Rescore>
     Score         DG    S(hbond)    S(metal)    S(lipo)     H(rot)  DE(clash)    DE(int)     intcor
     12.91     -16.22       2.71        0.00      71.57       2.61       1.99       1.32       ----

> <Gold.Chemscore.Fitness>
12.9146

> <Gold.Chemscore.DG>
-16.2218

> <Gold.Chemscore.ZeroCoef>
-5.4800

> <Gold.Chemscore.Hbond>
2.7076

> <Gold.Chemscore.Metal>
0.0000

> <Gold.Chemscore.Lipo>
71.5655

> <Gold.Chemscore.Internal_Hbond>
0.0000

> <Gold.Chemscore.DEClash>
1.9921

> <Gold.Chemscore.DEInternal>
1.3151

> <Gold.Chemscore.Rot>
2.6074

> <Gold.Chemscore.Internal.Correction>
   9.000000E+99

> <Gold.Chemscore.Hbonds>
donor molecule, donor type, donor heavy atom, donor atom, acceptor molecule, acceptor atom, score
      L1  H     8    39       P1  8028  0.94
      L1  H    23    48       P1  7921  0.87
      P1  H  8011  8017       L1     7  0.50

> <Gold.Chemscore.Hbond.Weighted>
-9.0434

> <Gold.Chemscore.Metal.Weighted>
-0.0000

> <Gold.Chemscore.Lipo.Weighted>
-8.3732

> <Gold.Chemscore.Internal_Hbond.Weighted>
0.0000

> <Gold.Chemscore.DEClash.Weighted>
1.9921

> <Gold.Chemscore.DEInternal.Weighted>
1.3151

> <Gold.Chemscore.Rot.Weighted>
6.6748

> <Gold.Chemscore.Internal.Correction.Weighted>
   9.000000E+99

> <Gold.Protein.RotatedTorsions>
[ 6907 6896 6895 6894 ] final  -80.30 input  -60.11 | X-H torsion
[ 7974 7965 7964 7962 ] final -176.95 input  175.53 | X-H torsion
[ 8008 7997 7996 7995 ] final   61.31 input   59.86 | X-H torsion
[ 10167 10162 10161 10158 ] final  158.04 input  -65.29 | X-H torsion
[ 10718 10713 10712 10709 ] final   20.66 input   66.30 | X-H torsion
[ 10763 10752 10751 10750 ] final   79.36 input  -60.55 | X-H torsion
[ 11005 11000 10999 10996 ] final   66.21 input  -57.11 | X-H torsion

> <Gold.Protein.ActiveResidues>
 VAL166  LYS551  ARG553  GLY616  TRP617  ASP618  TYR619  PRO620  LYS621  CYS622 
 ASP623  PHE694  ASN695  SER759  ASP760  ASP761  ALA762  ILE779  LEU786  VAL792 
 PHE793  MET794  SER795  GLU796  ALA797  LYS798  CYS799  TRP800  GLU811  SER814 

> <Gold.Protein.RotatedAtoms>
  150.6932  134.3991  159.5110 H   0  0  0  0  0  0  0  0  0  0  0  0  # atno 6907 bound_to 6896
  152.1767  134.8785  160.0539 H   0  0  0  0  0  0  0  0  0  0  0  0  # atno 6908 bound_to 6896
  151.9791  133.3717  159.4137 H   0  0  0  0  0  0  0  0  0  0  0  0  # atno 6909 bound_to 6896
  144.7127  140.1093  143.6412 H   0  0  0  0  0  0  0  0  0  0  0  0  # atno 7974 bound_to 7965
  155.5963  140.3493  155.4581 H   0  0  0  0  0  0  0  0  0  0  0  0  # atno 8008 bound_to 7997
  156.0262  140.1264  157.0330 H   0  0  0  0  0  0  0  0  0  0  0  0  # atno 8009 bound_to 7997
  154.4334  140.1052  156.6020 H   0  0  0  0  0  0  0  0  0  0  0  0  # atno 8010 bound_to 7997
  139.4825  144.4861  151.8375 H   0  0  0  0  0  0  0  0  0  0  0  0  # atno 10167 bound_to 10162
  157.1276  130.6577  149.5942 H   0  0  0  0  0  0  0  0  0  0  0  0  # atno 10718 bound_to 10713
  153.0946  135.4843  154.8755 H   0  0  0  0  0  0  0  0  0  0  0  0  # atno 10763 bound_to 10752
  154.7310  135.3060  154.8894 H   0  0  0  0  0  0  0  0  0  0  0  0  # atno 10764 bound_to 10752
  153.9530  135.6821  153.4797 H   0  0  0  0  0  0  0  0  0  0  0  0  # atno 10765 bound_to 10752
  139.9846  134.6688  156.0199 H   0  0  0  0  0  0  0  0  0  0  0  0  # atno 11005 bound_to 11000
  145.9469  139.2707  143.1235 LP  0  0  0  0  0  0  0  0  0  0  0  0  # atno 17320 bound_to 7965
  145.9364  140.9011  143.0330 LP  0  0  0  0  0  0  0  0  0  0  0  0  # atno 17321 bound_to 7965
  140.4341  144.2075  150.5889 LP  0  0  0  0  0  0  0  0  0  0  0  0  # atno 17342 bound_to 10162
  140.4749  143.2399  151.9037 LP  0  0  0  0  0  0  0  0  0  0  0  0  # atno 17343 bound_to 10162
  155.9815  130.4822  150.6829 LP  0  0  0  0  0  0  0  0  0  0  0  0  # atno 17370 bound_to 10713
  157.4421  131.0862  151.0933 LP  0  0  0  0  0  0  0  0  0  0  0  0  # atno 17371 bound_to 10713
  141.1513  133.6548  156.4022 LP  0  0  0  0  0  0  0  0  0  0  0  0  # atno 17394 bound_to 11000
  140.5028  134.6470  157.5255 LP  0  0  0  0  0  0  0  0  0  0  0  0  # atno 17395 bound_to 11000

$$$$
