#       Name:                AV-unprocessed.smi:1484
#       Creating user name   scv26
#       Creation time:       Fri Mar 27 06:09:02 2020


#       File generated by GOLD software.
#

@<TRIPOS>MOLECULE
AV-unprocessed.smi:1484
    44    45     1
SMALL
NO_CHARGES


@<TRIPOS>ATOM
      1 ****        -3.7818  -1.8040   1.6576 C.3            1 S1                 0.0000
      2 ****        -3.2309  -1.1108   0.4032 C.3            1 S1                 0.0000
      3 ****        -3.7224  -1.8004  -0.8836 C.3            1 S1                 0.0000
      4 ****        -3.1730  -1.1042  -2.1382 C.3            1 S1                 0.0000
      5 ****        -1.6383  -1.0391  -2.1110 C.3            1 S1                 0.0000
      6 ****        -1.1283  -0.3494  -0.8325 C.3            1 S1                 0.0000
      7 ****         0.3313  -0.3636  -0.8210 N.am           1 S1                 0.0000
      8 ****         1.1129   0.4909  -0.1430 C.2            1 S1                 0.0000
      9 ****         0.6645   1.3970   0.5616 O.2            1 S1                 0.0000
     10 ****         2.6261   0.2646  -0.2916 C.3            1 S1                 0.0000
     11 ****         3.4576   1.2705   0.3855 N.am           1 S1                 0.0000
     12 ****         4.0275   0.8107   1.6492 N.pl3          1 S1                -1.0000
     13 ****         4.7997   1.6611   2.3762 C.2            1 S1                 0.0000
     14 ****         5.2981   1.3508   3.4557 O.2            1 S1                 0.0000
     15 ****         5.0431   2.9907   1.8419 C.2            1 S1                 0.0000
     16 ****         4.5230   3.3805   0.6614 C.2            1 S1                 0.0000
     17 ****         3.6852   2.5045  -0.1488 C.2            1 S1                 0.0000
     18 ****         3.2149   2.8510  -1.2326 O.2            1 S1                 0.0000
     19 ****        -1.6912  -1.0443   0.4253 C.3            1 S1                 0.0000
     20 ****        -3.4381  -2.8368   1.7236 H              1 S1                 0.0000
     21 ****        -4.8720  -1.8151   1.6532 H              1 S1                 0.0000
     22 ****        -3.4619  -1.2881   2.5633 H              1 S1                 0.0000
     23 ****        -3.6097  -0.0877   0.4018 H              1 S1                 0.0000
     24 ****        -3.4123  -2.8464  -0.8833 H              1 S1                 0.0000
     25 ****        -4.8125  -1.8017  -0.9145 H              1 S1                 0.0000
     26 ****        -3.5066  -1.6318  -3.0322 H              1 S1                 0.0000
     27 ****        -3.5808  -0.0947  -2.2048 H              1 S1                 0.0000
     28 ****        -1.2337  -2.0506  -2.1722 H              1 S1                 0.0000
     29 ****        -1.2777  -0.5077  -2.9925 H              1 S1                 0.0000
     30 ****        -1.4714   0.6871  -0.8466 H              1 S1                 0.0000
     31 ****         0.7839  -1.0790  -1.3708 H              1 S1                 0.0000
     32 ****         2.8583  -0.7329   0.0864 H              1 S1                 0.0000
     33 ****         2.8761   0.2383  -1.3537 H              1 S1                 0.0000
     34 ****         5.6563   3.6803   2.4031 H              1 S1                 0.0000
     35 ****         4.7304   4.3775   0.3025 H              1 S1                 0.0000
     36 ****        -1.3621  -0.5139   1.3199 H              1 S1                 0.0000
     37 ****        -1.2835  -2.0537   0.4997 H              1 S1                 0.0000
     38 ****        -0.3241   1.5210   0.6476 LP             1 S1                 0.0000
     39 ****         1.2892   2.0084   1.0475 LP             1 S1                 0.0000
     40 ****         3.8518  -0.1181   1.9756 LP             1 S1                 0.0000
     41 ****         5.1421   0.4387   3.8347 LP             1 S1                 0.0000
     42 ****         5.8597   2.0104   3.9552 LP             1 S1                 0.0000
     43 ****         2.6428   2.2184  -1.7546 LP             1 S1                 0.0000
     44 ****         3.4049   3.7651  -1.5908 LP             1 S1                 0.0000
@<TRIPOS>BOND
    1    1    2 1     
    2    1   20 1     
    3    1   21 1     
    4    1   22 1     
    5    2   19 1     
    6    2    3 1     
    7    2   23 1     
    8    3    4 1     
    9    3   24 1     
   10    3   25 1     
   11    4    5 1     
   12    4   26 1     
   13    4   27 1     
   14    5    6 1     
   15    5   28 1     
   16    5   29 1     
   17    6    7 1     
   18    6   19 1     
   19    6   30 1     
   20    7    8 am    
   21    7   31 1     
   22    8    9 2     
   23    8   10 1     
   24   10   32 1     
   25   10   33 1     
   26   10   11 1     
   27   11   12 1     
   28   11   17 am    
   29   12   13 1     
   30   13   14 2     
   31   13   15 1     
   32   15   34 1     
   33   15   16 2     
   34   16   35 1     
   35   16   17 1     
   36   17   18 2     
   37   19   36 1     
   38   19   37 1     
   39    9   38 1     
   40    9   39 1     
   41   12   40 1     
   42   14   41 1     
   43   14   42 1     
   44   18   43 1     
   45   18   44 1     
@<TRIPOS>SUBSTRUCTURE
      1 S1             1
@<TRIPOS>SET
LONE_PAIRS      STATIC     ATOMS    <user>   **** ""
7 38 39 40 41 42 43 44
DONOR_HYDROGENS      STATIC     ATOMS    <user>   **** ""
1 31
ATOM$BLUE        STATIC     ATOMS    COLORGROUP SYSTEM
7 38 39 40 41 42 43 44
ATOM$RED        STATIC     ATOMS    COLORGROUP SYSTEM
1 31
