AV-unprocessed.smi:3112|AV-procd|sdf|11836|dock8
  -GOLD-   2272017213D 1   1.00000     0.00000
 Structure written by MMmdl.
 37 37  0  0  0  0  0  0  0  0  2 V2000
  147.0875  139.8381  153.2485 C   0  0  0  0  0  0  0  0  0  0  0  0
  147.6350  141.1923  153.7198 C   0  0  0  0  0  0  0  0  0  0  0  0
  147.8829  141.2589  155.2379 C   0  0  2  0  0  0  0  0  0  0  0  0
  147.1832  142.3684  155.7673 O   0  0  0  0  0  0  0  0  0  0  0  0
  149.3746  141.4279  155.5694 C   0  0  0  0  0  0  0  0  0  0  0  0
  149.5585  142.2555  156.7811 N   0  3  0  0  0  0  0  0  0  0  0  0
  150.7394  141.9279  157.6132 C   0  0  2  0  0  0  0  0  0  0  0  0
  150.4887  140.5770  158.3079 C   0  0  0  0  0  0  0  0  0  0  0  0
  151.0945  143.0892  158.5872 C   0  0  2  0  0  0  0  0  0  0  0  0
  151.5632  144.3618  157.8543 C   0  0  0  0  0  0  0  0  0  0  0  0
  152.0307  142.6852  159.6337 N   0  0  0  0  0  0  0  0  0  0  0  0
  153.3275  142.2371  159.4791 C   0  0  0  0  0  0  0  0  0  0  0  0
  153.8350  142.0056  160.7251 C   0  0  0  0  0  0  0  0  0  0  0  0
  152.7647  142.3519  161.5950 C   0  0  0  0  0  0  0  0  0  0  0  0
  151.6916  142.7649  160.9412 N   0  0  0  0  0  0  0  0  0  0  0  0
  146.9563  139.8304  152.1664 H   0  0  0  0  0  0  0  0  0  0  0  0
  146.1190  139.6194  153.6988 H   0  0  0  0  0  0  0  0  0  0  0  0
  147.7684  139.0262  153.5049 H   0  0  0  0  0  0  0  0  0  0  0  0
  148.5722  141.3820  153.1954 H   0  0  0  0  0  0  0  0  0  0  0  0
  146.9531  141.9883  153.4167 H   0  0  0  0  0  0  0  0  0  0  0  0
  147.5053  140.3486  155.7056 H   0  0  0  0  0  0  0  0  0  0  0  0
  147.6233  143.1597  155.4943 H   0  0  0  0  0  0  0  0  0  0  0  0
  149.8258  140.4515  155.7501 H   0  0  0  0  0  0  0  0  0  0  0  0
  149.8941  141.8653  154.7170 H   0  0  0  0  0  0  0  0  0  0  0  0
  149.6147  143.2269  156.5092 H   0  0  0  0  0  0  0  0  0  0  0  0
  151.5824  141.7828  156.9358 H   0  0  0  0  0  0  0  0  0  0  0  0
  151.3413  140.2676  158.9117 H   0  0  0  0  0  0  0  0  0  0  0  0
  150.3180  139.7906  157.5719 H   0  0  0  0  0  0  0  0  0  0  0  0
  149.6125  140.6079  158.9554 H   0  0  0  0  0  0  0  0  0  0  0  0
  150.1814  143.3873  159.1017 H   0  0  0  0  0  0  0  0  0  0  0  0
  150.8139  144.6965  157.1366 H   0  0  0  0  0  0  0  0  0  0  0  0
  152.4952  144.2102  157.3101 H   0  0  0  0  0  0  0  0  0  0  0  0
  151.7258  145.1779  158.5592 H   0  0  0  0  0  0  0  0  0  0  0  0
  153.7783  142.1207  158.5043 H   0  0  0  0  0  0  0  0  0  0  0  0
  154.8214  141.6448  160.9768 H   0  0  0  0  0  0  0  0  0  0  0  0
  152.7371  142.3200  162.6743 H   0  0  0  0  0  0  0  0  0  0  0  0
  148.7351  142.1344  157.3531 H   0  0  0  0  0  0  0  0  0  0  0  0
  1  2  1  0  0  0  0
  1 16  1  0  0  0  0
  1 17  1  0  0  0  0
  1 18  1  0  0  0  0
  2  3  1  0  0  0  0
  2 19  1  0  0  0  0
  2 20  1  0  0  0  0
  3  4  1  0  0  0  0
  3  5  1  0  0  0  0
  3 21  1  0  0  0  0
  4 22  1  0  0  0  0
  5  6  1  0  0  0  0
  5 23  1  0  0  0  0
  5 24  1  0  0  0  0
  6  7  1  0  0  0  0
  6 25  1  0  0  0  0
  6 37  1  0  0  0  0
  7  8  1  0  0  0  0
  7  9  1  0  0  0  0
  7 26  1  0  0  0  0
  8 27  1  0  0  0  0
  8 28  1  0  0  0  0
  8 29  1  0  0  0  0
  9 10  1  0  0  0  0
  9 11  1  0  0  0  0
  9 30  1  0  0  0  0
 10 31  1  0  0  0  0
 10 32  1  0  0  0  0
 10 33  1  0  0  0  0
 11 15  1  0  0  0  0
 11 12  1  0  0  0  0
 12 13  2  0  0  0  0
 12 34  1  0  0  0  0
 13 14  1  0  0  0  0
 13 35  1  0  0  0  0
 14 15  2  0  0  0  0
 14 36  1  0  0  0  0
M  CHG  1   6   1
M  END
> <s_m_source_file>
AV-unprocessed.smi

> <i_m_source_file_index>
3112

> <i_lp_mmshare_version>
43012

> <i_f3d_flags>
0

> <s_epik_input>
W0NIM11bQ0gyXVtDQEhdKFtPSF0pW0NIMl1bTkhdW0NASF0oW0NIM10pW0NASF0oW0NIM10pbjFbY0hdW2NIXVtjSF1uMQ==

> <s_epik_cmdline>
J2VwaWtfcHl0aG9uJywgJy1waCcsICc3LjAnLCAnLXRuJywgJzgnLCAnLW1hJywgJzIwMCcsICctbWV0YWxfYmluZGluZycsICctaW1hZScsICc8aW5maWxlLm1hZT4nLCAnLW9tYWUnLCAnPG91dGZpbGUubWFlPic=

> <r_lp_tautomer_probability>
1

> <r_epik_Ionization_Penalty>
0.0154842

> <r_epik_Ionization_Penalty_Charging>
0.0154724

> <r_epik_Ionization_Penalty_Neutral>
1.17979e-05

> <r_epik_State_Penalty>
0.0121607

> <r_epik_Charging_Adjusted_Penalty>
0.0276331

> <i_epik_Tot_Q>
1

> <i_epik_Tot_abs_Q>
1

> <r_epik_Metal_State_Penalty>
0.0121863

> <b_epik_Metal_Only>
0

> <s_lp_Force_Field>
OPLS_2005

> <r_lp_Energy>
12.3071

> <b_lp_Chiralities_Consistent>
1

> <s_lp_Variant>
AV-unprocessed.smi:3112-1

> <Gold.Version>
5.8.1

> <Gold.Id.Protein>
6NUR|6NUR_protein|mol2

> <Gold.PLP.Fitness>
42.8147

> <Gold.PLP.PLP>
-37.0204

> <Gold.PLP.part.hbond>
-3.0000

> <Gold.PLP.part.metal>
0.0000

> <Gold.PLP.part.buried>
-4.5732

> <Gold.PLP.part.nonpolar>
-30.7723

> <Gold.PLP.part.repulsive>
0.1083

> <Gold.PLP.ligand.clash>
0.0000

> <Gold.PLP.ligand.torsion>
1.7031

> <Gold.PLP.Chemscore.Hbond>
3.0035

> <Gold.PLP.Chemscore.CHOScore>
0.0000

> <Gold.PLP.Chemscore.Metal>
0.0000

> <Gold.Chemscore.Hbonds>
donor molecule, donor type, donor heavy atom, donor atom, acceptor molecule, acceptor atom, score
      L1  H     4    22       P1  8028  1.00
      L1  H     6    25       P1  8028  2.00
      P1  H  6933  6945       L1    15  0.10

> <Gold.PLP.Chemscore.Internal.Correction>
0.1899

> <Gold.Rescore>
     Score         DG    S(hbond)    S(metal)    S(lipo)     H(rot)  DE(clash)    DE(int)     intcor
     14.41     -15.85       1.71        0.00      92.46       2.41       0.04       1.39       ----

> <Gold.Chemscore.Fitness>
14.4135

> <Gold.Chemscore.DG>
-15.8486

> <Gold.Chemscore.ZeroCoef>
-5.4800

> <Gold.Chemscore.Hbond>
1.7119

> <Gold.Chemscore.Metal>
0.0000

> <Gold.Chemscore.Lipo>
92.4561

> <Gold.Chemscore.Internal_Hbond>
0.0000

> <Gold.Chemscore.DEClash>
0.0408

> <Gold.Chemscore.DEInternal>
1.3943

> <Gold.Chemscore.Rot>
2.4089

> <Gold.Chemscore.Internal.Correction>
   9.000000E+99

> <Gold.Chemscore.Hbonds>
donor molecule, donor type, donor heavy atom, donor atom, acceptor molecule, acceptor atom, score
      L1  H     4    22       P1  8028  0.29
      L1  H     6    25       P1  8028  0.95
      P1  H  6933  6945       L1    15  0.03

> <Gold.Chemscore.Hbond.Weighted>
-5.7179

> <Gold.Chemscore.Metal.Weighted>
-0.0000

> <Gold.Chemscore.Lipo.Weighted>
-10.8174

> <Gold.Chemscore.Internal_Hbond.Weighted>
0.0000

> <Gold.Chemscore.DEClash.Weighted>
0.0408

> <Gold.Chemscore.DEInternal.Weighted>
1.3943

> <Gold.Chemscore.Rot.Weighted>
6.1667

> <Gold.Chemscore.Internal.Correction.Weighted>
   9.000000E+99

> <Gold.Protein.RotatedTorsions>
[ 6907 6896 6895 6894 ] final  103.17 input  -60.11 | X-H torsion
[ 7974 7965 7964 7962 ] final  -44.02 input  175.53 | X-H torsion
[ 8008 7997 7996 7995 ] final  -26.28 input   59.86 | X-H torsion
[ 10167 10162 10161 10158 ] final  -44.47 input  -65.29 | X-H torsion
[ 10718 10713 10712 10709 ] final   82.28 input   66.30 | X-H torsion
[ 10763 10752 10751 10750 ] final  153.10 input  -60.55 | X-H torsion
[ 11005 11000 10999 10996 ] final  -80.69 input  -57.11 | X-H torsion

> <Gold.Protein.ActiveResidues>
 VAL166  LYS551  ARG553  GLY616  TRP617  ASP618  TYR619  PRO620  LYS621  CYS622 
 ASP623  PHE694  ASN695  SER759  ASP760  ASP761  ALA762  ILE779  LEU786  VAL792 
 PHE793  MET794  SER795  GLU796  ALA797  LYS798  CYS799  TRP800  GLU811  SER814 

> <Gold.Protein.RotatedAtoms>
  152.5303  133.9866  159.7830 H   0  0  0  0  0  0  0  0  0  0  0  0  # atno 6907 bound_to 6896
  151.0109  133.5958  159.2690 H   0  0  0  0  0  0  0  0  0  0  0  0  # atno 6908 bound_to 6896
  151.3032  135.0781  159.9299 H   0  0  0  0  0  0  0  0  0  0  0  0  # atno 6909 bound_to 6896
  145.9962  140.7126  142.9293 H   0  0  0  0  0  0  0  0  0  0  0  0  # atno 7974 bound_to 7965
  154.4433  140.1904  156.0750 H   0  0  0  0  0  0  0  0  0  0  0  0  # atno 8008 bound_to 7997
  156.0482  140.3312  155.7294 H   0  0  0  0  0  0  0  0  0  0  0  0  # atno 8009 bound_to 7997
  155.5597  140.0602  157.2822 H   0  0  0  0  0  0  0  0  0  0  0  0  # atno 8010 bound_to 7997
  140.6895  143.2929  151.3500 H   0  0  0  0  0  0  0  0  0  0  0  0  # atno 10167 bound_to 10162
  157.6853  131.0041  150.2352 H   0  0  0  0  0  0  0  0  0  0  0  0  # atno 10718 bound_to 10713
  154.1307  135.2827  155.3186 H   0  0  0  0  0  0  0  0  0  0  0  0  # atno 10763 bound_to 10752
  154.6358  135.5419  153.7735 H   0  0  0  0  0  0  0  0  0  0  0  0  # atno 10764 bound_to 10752
  153.0282  135.6474  154.1457 H   0  0  0  0  0  0  0  0  0  0  0  0  # atno 10765 bound_to 10752
  141.1667  133.7162  156.8310 H   0  0  0  0  0  0  0  0  0  0  0  0  # atno 11005 bound_to 11000
  144.6904  140.3154  143.7241 LP  0  0  0  0  0  0  0  0  0  0  0  0  # atno 17320 bound_to 7965
  145.7556  139.1808  143.2296 LP  0  0  0  0  0  0  0  0  0  0  0  0  # atno 17321 bound_to 7965
  139.6285  144.0767  152.2455 LP  0  0  0  0  0  0  0  0  0  0  0  0  # atno 17342 bound_to 10162
  140.0234  144.6136  150.7547 LP  0  0  0  0  0  0  0  0  0  0  0  0  # atno 17343 bound_to 10162
  156.2977  130.3754  149.7780 LP  0  0  0  0  0  0  0  0  0  0  0  0  # atno 17370 bound_to 10713
  156.5420  130.8304  151.3272 LP  0  0  0  0  0  0  0  0  0  0  0  0  # atno 17371 bound_to 10713
  140.2051  134.8869  157.3212 LP  0  0  0  0  0  0  0  0  0  0  0  0  # atno 17394 bound_to 11000
  140.2146  134.4097  155.7595 LP  0  0  0  0  0  0  0  0  0  0  0  0  # atno 17395 bound_to 11000

$$$$
