#       Name:                AV-unprocessed.smi:2475
#       Creating user name   scv26
#       Creation time:       Fri Mar 27 13:39:52 2020


#       File generated by GOLD software.
#

@<TRIPOS>MOLECULE
AV-unprocessed.smi:2475
    43    44     1
SMALL
NO_CHARGES


@<TRIPOS>ATOM
      1 ****        -1.4853  -4.2879  -0.5923 C.3            1 S1                 0.0000
      2 ****        -0.6733  -3.0501  -0.2761 C.ar           1 S1                 0.0000
      3 ****        -1.2894  -1.8029  -0.0414 C.ar           1 S1                 0.0000
      4 ****        -0.4423  -0.7098   0.2472 C.ar           1 S1                 0.0000
      5 ****        -1.0907   0.5312   0.4757 N.am           1 S1                 0.0000
      6 ****        -0.5337   1.7267   0.7498 C.2            1 S1                 0.0000
      7 ****         0.6764   1.9128   0.8828 O.2            1 S1                 0.0000
      8 ****        -1.5054   2.9070   0.9366 C.3            1 S1                 0.0000
      9 ****        -1.0482   4.2046   0.2369 C.3            1 S1                 0.0000
     10 ****        -2.1697   4.5242  -0.7374 C.3            1 S1                 0.0000
     11 ****        -2.8370   3.1725  -0.9406 C.3            1 S1                 0.0000
     12 ****        -2.7762   2.6020   0.3571 O.3            1 S1                 0.0000
     13 ****         0.9009  -0.8879   0.2899 N.ar           1 S1                 0.0000
     14 ****         1.3854  -2.1111   0.0514 C.ar           1 S1                 0.0000
     15 ****         2.8980  -2.2793   0.1127 C.3            1 S1                 0.0000
     16 ****         3.4452  -2.0359   1.5277 C.3            1 S1                 0.0000
     17 ****         3.6145  -1.4445  -0.9602 C.3            1 S1                 0.0000
     18 ****         0.6669  -3.2019  -0.2287 N.ar           1 S1                 0.0000
     19 ****        -2.5458  -4.0512  -0.6822 H              1 S1                 0.0000
     20 ****        -1.3670  -5.0299   0.1977 H              1 S1                 0.0000
     21 ****        -1.1546  -4.7298  -1.5326 H              1 S1                 0.0000
     22 ****        -2.3632  -1.6909  -0.0819 H              1 S1                 0.0000
     23 ****        -2.0980   0.5173   0.4088 H              1 S1                 0.0000
     24 ****        -1.6429   3.0720   2.0057 H              1 S1                 0.0000
     25 ****        -0.8962   5.0175   0.9475 H              1 S1                 0.0000
     26 ****        -0.1136   4.0731  -0.3106 H              1 S1                 0.0000
     27 ****        -2.8747   5.2175  -0.2768 H              1 S1                 0.0000
     28 ****        -1.8151   4.9683  -1.6680 H              1 S1                 0.0000
     29 ****        -3.8638   3.2565  -1.2969 H              1 S1                 0.0000
     30 ****        -2.2738   2.5577  -1.6444 H              1 S1                 0.0000
     31 ****         3.1146  -3.3231  -0.1215 H              1 S1                 0.0000
     32 ****         2.9690  -2.6989   2.2505 H              1 S1                 0.0000
     33 ****         3.2707  -1.0092   1.8512 H              1 S1                 0.0000
     34 ****         4.5191  -2.2184   1.5691 H              1 S1                 0.0000
     35 ****         3.2527  -1.6959  -1.9576 H              1 S1                 0.0000
     36 ****         4.6897  -1.6241  -0.9438 H              1 S1                 0.0000
     37 ****         3.4553  -0.3766  -0.8068 H              1 S1                 0.0000
     38 ****         1.3134   1.1478   0.7873 LP             1 S1                 0.0000
     39 ****         1.0221   2.8288   1.0863 LP             1 S1                 0.0000
     40 ****        -3.5049   2.9830   0.9261 LP             1 S1                 0.0000
     41 ****        -2.8870   1.6102   0.2936 LP             1 S1                 0.0000
     42 ****         1.5135  -0.1244   0.4945 LP             1 S1                 0.0000
     43 ****         1.1008  -4.0874  -0.3950 LP             1 S1                 0.0000
@<TRIPOS>BOND
    1    1    2 1     
    2    1   19 1     
    3    1   20 1     
    4    1   21 1     
    5    2   18 ar    
    6    2    3 ar    
    7    3    4 ar    
    8    3   22 1     
    9    4    5 1     
   10    4   13 ar    
   11    5    6 am    
   12    5   23 1     
   13    6    7 2     
   14    6    8 1     
   15    8   12 1     
   16    8    9 1     
   17    8   24 1     
   18    9   10 1     
   19    9   25 1     
   20    9   26 1     
   21   10   11 1     
   22   10   27 1     
   23   10   28 1     
   24   11   12 1     
   25   11   29 1     
   26   11   30 1     
   27   13   14 ar    
   28   14   15 1     
   29   14   18 ar    
   30   15   16 1     
   31   15   17 1     
   32   15   31 1     
   33   16   32 1     
   34   16   33 1     
   35   16   34 1     
   36   17   35 1     
   37   17   36 1     
   38   17   37 1     
   39    7   38 1     
   40    7   39 1     
   41   12   40 1     
   42   12   41 1     
   43   13   42 1     
   44   18   43 1     
@<TRIPOS>SUBSTRUCTURE
      1 S1             1
@<TRIPOS>SET
LONE_PAIRS      STATIC     ATOMS    <user>   **** ""
6 38 39 40 41 42 43
DONOR_HYDROGENS      STATIC     ATOMS    <user>   **** ""
1 23
ATOM$BLUE        STATIC     ATOMS    COLORGROUP SYSTEM
6 38 39 40 41 42 43
ATOM$RED        STATIC     ATOMS    COLORGROUP SYSTEM
1 23
