AV-unprocessed.smi:846|AV-procd|sdf|3936|dock6
  -GOLD-   22720 1403D 1   1.00000     0.00000
 Structure written by MMmdl.
 37 38  0  0  0  0  0  0  0  0  1 V2000
  145.5213  133.7832  151.2470 C   0  0  0  0  0  0  0  0  0  0  0  0
  146.4153  132.6875  151.8334 C   0  0  0  0  0  0  0  0  0  0  0  0
  147.4559  133.3112  152.5763 O   0  0  0  0  0  0  0  0  0  0  0  0
  148.4046  132.5196  153.1946 C   0  0  0  0  0  0  0  0  0  0  0  0
  148.3375  131.1749  153.0306 N   0  0  0  0  0  0  0  0  0  0  0  0
  149.2684  130.4096  153.6379 C   0  0  0  0  0  0  0  0  0  0  0  0
  150.3004  130.9376  154.4365 C   0  0  0  0  0  0  0  0  0  0  0  0
  150.3706  132.3327  154.6079 C   0  0  0  0  0  0  0  0  0  0  0  0
  149.4085  133.1476  153.9658 C   0  0  0  0  0  0  0  0  0  0  0  0
  149.3647  134.5619  154.0780 N   0  0  0  0  0  0  0  0  0  0  0  0
  150.2848  135.4017  154.5876 C   0  0  0  0  0  0  0  0  0  0  0  0
  151.3072  135.0518  155.1728 O   0  0  0  0  0  0  0  0  0  0  0  0
  149.9985  136.7025  154.3934 N   0  0  0  0  0  0  0  0  0  0  0  0
  150.7791  137.8685  154.8154 C   0  0  1  0  0  0  0  0  0  0  0  0
  149.9868  139.1727  154.6087 C   0  0  0  0  0  0  0  0  0  0  0  0
  150.6909  140.3052  155.3688 C   0  0  0  0  0  0  0  0  0  0  0  0
  151.5306  139.5202  156.7980 S   0  0  0  0  0  0  0  0  0  0  0  0
  152.9772  139.7646  156.6923 O   0  0  0  0  0  0  0  0  0  0  0  0
  150.7984  139.8282  158.0356 O   0  0  0  0  0  0  0  0  0  0  0  0
  151.1722  137.7959  156.3007 C   0  0  0  0  0  0  0  0  0  0  0  0
  144.7057  133.3522  150.6662 H   0  0  0  0  0  0  0  0  0  0  0  0
  146.0893  134.4424  150.5897 H   0  0  0  0  0  0  0  0  0  0  0  0
  145.0838  134.3956  152.0361 H   0  0  0  0  0  0  0  0  0  0  0  0
  145.8244  132.0355  152.4786 H   0  0  0  0  0  0  0  0  0  0  0  0
  146.8310  132.0819  151.0267 H   0  0  0  0  0  0  0  0  0  0  0  0
  149.1847  129.3434  153.4873 H   0  0  0  0  0  0  0  0  0  0  0  0
  151.0191  130.2861  154.9115 H   0  0  0  0  0  0  0  0  0  0  0  0
  151.1453  132.7464  155.2348 H   0  0  0  0  0  0  0  0  0  0  0  0
  148.6001  135.0024  153.5877 H   0  0  0  0  0  0  0  0  0  0  0  0
  149.1432  136.9038  153.8955 H   0  0  0  0  0  0  0  0  0  0  0  0
  151.6868  137.9411  154.2137 H   0  0  0  0  0  0  0  0  0  0  0  0
  149.8705  139.4137  153.5516 H   0  0  0  0  0  0  0  0  0  0  0  0
  148.9830  139.0512  155.0186 H   0  0  0  0  0  0  0  0  0  0  0  0
  151.4543  140.7736  154.7472 H   0  0  0  0  0  0  0  0  0  0  0  0
  150.0019  141.0761  155.7137 H   0  0  0  0  0  0  0  0  0  0  0  0
  150.3419  137.4386  156.9107 H   0  0  0  0  0  0  0  0  0  0  0  0
  152.0413  137.1661  156.4917 H   0  0  0  0  0  0  0  0  0  0  0  0
  1  2  1  0  0  0  0
  1 21  1  0  0  0  0
  1 22  1  0  0  0  0
  1 23  1  0  0  0  0
  2  3  1  0  0  0  0
  2 24  1  0  0  0  0
  2 25  1  0  0  0  0
  3  4  1  0  0  0  0
  4  9  1  0  0  0  0
  4  5  2  0  0  0  0
  5  6  1  0  0  0  0
  6  7  2  0  0  0  0
  6 26  1  0  0  0  0
  7  8  1  0  0  0  0
  7 27  1  0  0  0  0
  8  9  2  0  0  0  0
  8 28  1  0  0  0  0
  9 10  1  0  0  0  0
 10 11  1  0  0  0  0
 10 29  1  0  0  0  0
 11 12  2  0  0  0  0
 11 13  1  0  0  0  0
 13 14  1  0  0  0  0
 13 30  1  0  0  0  0
 14 20  1  0  0  0  0
 14 15  1  0  0  0  0
 14 31  1  0  0  0  0
 15 16  1  0  0  0  0
 15 32  1  0  0  0  0
 15 33  1  0  0  0  0
 16 17  1  0  0  0  0
 16 34  1  0  0  0  0
 16 35  1  0  0  0  0
 17 18  2  0  0  0  0
 17 19  2  0  0  0  0
 17 20  1  0  0  0  0
 20 36  1  0  0  0  0
 20 37  1  0  0  0  0
M  END
> <s_m_source_file>
AV-unprocessed.smi

> <i_m_source_file_index>
846

> <i_lp_mmshare_version>
43012

> <i_f3d_flags>
0

> <s_epik_input>
W0NIM11bQ0gyXU9jMW5bY0hdW2NIXVtjSF1jMVtOSF1DKD1PKVtOSF1bQ0BASF0oW0NIMl0yKVtDSDJdW0NIMl1TMig9Tyk9Tw==

> <s_epik_cmdline>
J2VwaWtfcHl0aG9uJywgJy1waCcsICc3LjAnLCAnLXRuJywgJzgnLCAnLW1hJywgJzIwMCcsICctbWV0YWxfYmluZGluZycsICctaW1hZScsICc8aW5maWxlLm1hZT4nLCAnLW9tYWUnLCAnPG91dGZpbGUubWFlPic=

> <r_lp_tautomer_probability>
1

> <r_epik_Ionization_Penalty>
9.45557e-05

> <r_epik_Ionization_Penalty_Charging>
0

> <r_epik_Ionization_Penalty_Neutral>
9.45557e-05

> <r_epik_State_Penalty>
-0

> <r_epik_Charging_Adjusted_Penalty>
0

> <i_epik_Tot_Q>
0

> <i_epik_Tot_abs_Q>
0

> <r_epik_Metal_State_Penalty>
-0

> <b_epik_Metal_Only>
0

> <s_lp_Force_Field>
OPLS_2005

> <r_lp_Energy>
17.3952

> <b_lp_Chiralities_Consistent>
1

> <s_lp_Variant>
AV-unprocessed.smi:846-2

> <Gold.Version>
5.8.1

> <Gold.Id.Protein>
6NUR|6NUR_protein|mol2

> <Gold.PLP.Fitness>
40.5896

> <Gold.PLP.PLP>
-31.8545

> <Gold.PLP.part.hbond>
-4.4498

> <Gold.PLP.part.metal>
0.0000

> <Gold.PLP.part.buried>
0.0276

> <Gold.PLP.part.nonpolar>
-26.9860

> <Gold.PLP.part.repulsive>
1.1277

> <Gold.PLP.ligand.clash>
0.0000

> <Gold.PLP.ligand.torsion>
0.1227

> <Gold.PLP.Chemscore.Hbond>
2.9929

> <Gold.PLP.Chemscore.CHOScore>
0.0000

> <Gold.PLP.Chemscore.Metal>
0.0000

> <Gold.Chemscore.Hbonds>
donor molecule, donor type, donor heavy atom, donor atom, acceptor molecule, acceptor atom, score
      L1  H    10    29       P1  7948  0.31
      L1  H    13    30       P1  7948  0.26
      P1  H  7997  8009       L1    18  0.80
      P1  H 10752 10765       L1    12  0.85

> <Gold.PLP.Chemscore.Internal.Correction>
0.0020

> <Gold.Rescore>
     Score         DG    S(hbond)    S(metal)    S(lipo)     H(rot)  DE(clash)    DE(int)     intcor
     14.38     -16.82       2.51        0.00      58.06       1.50       0.10       2.33       ----

> <Gold.Chemscore.Fitness>
14.3849

> <Gold.Chemscore.DG>
-16.8166

> <Gold.Chemscore.ZeroCoef>
-5.4800

> <Gold.Chemscore.Hbond>
2.5126

> <Gold.Chemscore.Metal>
0.0000

> <Gold.Chemscore.Lipo>
58.0606

> <Gold.Chemscore.Internal_Hbond>
0.0000

> <Gold.Chemscore.DEClash>
0.1048

> <Gold.Chemscore.DEInternal>
2.3269

> <Gold.Chemscore.Rot>
1.5033

> <Gold.Chemscore.Internal.Correction>
   9.000000E+99

> <Gold.Chemscore.Hbonds>
donor molecule, donor type, donor heavy atom, donor atom, acceptor molecule, acceptor atom, score
      L1  H    10    29       P1  7948  0.24
      L1  H    13    30       P1  7948  0.25
      P1  H  7997  8009       L1    18  0.78
      P1  H 10752 10765       L1    12  0.85

> <Gold.Chemscore.Hbond.Weighted>
-8.3920

> <Gold.Chemscore.Metal.Weighted>
-0.0000

> <Gold.Chemscore.Lipo.Weighted>
-6.7931

> <Gold.Chemscore.Internal_Hbond.Weighted>
0.0000

> <Gold.Chemscore.DEClash.Weighted>
0.1048

> <Gold.Chemscore.DEInternal.Weighted>
2.3269

> <Gold.Chemscore.Rot.Weighted>
3.8484

> <Gold.Chemscore.Internal.Correction.Weighted>
   9.000000E+99

> <Gold.Protein.RotatedTorsions>
[ 6907 6896 6895 6894 ] final  -32.09 input  -60.11 | X-H torsion
[ 7974 7965 7964 7962 ] final   87.96 input  175.53 | X-H torsion
[ 8008 7997 7996 7995 ] final  175.77 input   59.86 | X-H torsion
[ 10167 10162 10161 10158 ] final -179.91 input  -65.29 | X-H torsion
[ 10718 10713 10712 10709 ] final  146.12 input   66.30 | X-H torsion
[ 10763 10752 10751 10750 ] final -169.98 input  -60.55 | X-H torsion
[ 11005 11000 10999 10996 ] final  -65.59 input  -57.11 | X-H torsion

> <Gold.Protein.ActiveResidues>
 VAL166  LYS551  ARG553  GLY616  TRP617  ASP618  TYR619  PRO620  LYS621  CYS622 
 ASP623  PHE694  ASN695  SER759  ASP760  ASP761  ALA762  ILE779  LEU786  VAL792 
 PHE793  MET794  SER795  GLU796  ALA797  LYS798  CYS799  TRP800  GLU811  SER814 

> <Gold.Protein.RotatedAtoms>
  151.0834  134.9872  159.8367 H   0  0  0  0  0  0  0  0  0  0  0  0  # atno 6907 bound_to 6896
  152.5422  134.2153  159.8776 H   0  0  0  0  0  0  0  0  0  0  0  0  # atno 6908 bound_to 6896
  151.2185  133.4472  159.2633 H   0  0  0  0  0  0  0  0  0  0  0  0  # atno 6909 bound_to 6896
  145.5520  139.2296  143.2507 H   0  0  0  0  0  0  0  0  0  0  0  0  # atno 7974 bound_to 7965
  156.0836  140.1400  156.9681 H   0  0  0  0  0  0  0  0  0  0  0  0  # atno 8008 bound_to 7997
  154.4599  140.0947  156.6913 H   0  0  0  0  0  0  0  0  0  0  0  0  # atno 8009 bound_to 7997
  155.5035  140.3451  155.4377 H   0  0  0  0  0  0  0  0  0  0  0  0  # atno 8010 bound_to 7997
  139.5365  144.2482  152.0805 H   0  0  0  0  0  0  0  0  0  0  0  0  # atno 10167 bound_to 10162
  157.3370  131.0929  151.1114 H   0  0  0  0  0  0  0  0  0  0  0  0  # atno 10718 bound_to 10713
  154.6464  135.2905  155.0040 H   0  0  0  0  0  0  0  0  0  0  0  0  # atno 10763 bound_to 10752
  154.1149  135.6557  153.4896 H   0  0  0  0  0  0  0  0  0  0  0  0  # atno 10764 bound_to 10752
  153.0353  135.5274  154.7353 H   0  0  0  0  0  0  0  0  0  0  0  0  # atno 10765 bound_to 10752
  141.1459  133.6684  156.6010 H   0  0  0  0  0  0  0  0  0  0  0  0  # atno 11005 bound_to 11000
  146.1910  140.6343  142.9145 LP  0  0  0  0  0  0  0  0  0  0  0  0  # atno 17320 bound_to 7965
  144.7525  140.5226  143.6792 LP  0  0  0  0  0  0  0  0  0  0  0  0  # atno 17321 bound_to 7965
  140.1954  144.4711  150.6458 LP  0  0  0  0  0  0  0  0  0  0  0  0  # atno 17342 bound_to 10162
  140.6574  143.2242  151.5936 LP  0  0  0  0  0  0  0  0  0  0  0  0  # atno 17343 bound_to 10162
  157.2341  130.6539  149.5862 LP  0  0  0  0  0  0  0  0  0  0  0  0  # atno 17370 bound_to 10713
  155.9703  130.4589  150.6017 LP  0  0  0  0  0  0  0  0  0  0  0  0  # atno 17371 bound_to 10713
  140.3689  134.7623  157.4585 LP  0  0  0  0  0  0  0  0  0  0  0  0  # atno 17394 bound_to 11000
  140.0726  134.5841  155.8625 LP  0  0  0  0  0  0  0  0  0  0  0  0  # atno 17395 bound_to 11000

$$$$
