AV-unprocessed.smi:1586|AV-procd|sdf|6385|dock3
  -GOLD-   22720 7 23D 1   1.00000     0.00000
 Structure written by MMmdl.
 45 46  0  0  0  0  0  0  0  0  2 V2000
  152.3856  143.1959  161.0797 C   0  0  0  0  0  0  0  0  0  0  0  0
  153.0996  143.0218  159.7317 C   0  0  0  0  0  0  0  0  0  0  0  0
  152.3878  142.1949  158.7588 N   0  0  0  0  0  0  0  0  0  0  0  0
  152.1817  140.8443  159.2767 C   0  0  0  0  0  0  0  0  0  0  0  0
  151.4453  139.9493  158.2635 C   0  0  0  0  0  0  0  0  0  0  0  0
  150.1290  140.4913  157.8996 N   0  0  0  0  0  0  0  0  0  0  0  0
  149.4075  139.6313  156.9365 C   0  0  2  0  0  0  0  0  0  0  0  0
  147.9838  140.1352  156.6079 C   0  0  0  0  0  0  0  0  0  0  0  0
  149.3034  138.1480  157.3722 C   0  0  0  0  0  0  0  0  0  0  0  0
  148.6716  138.0135  158.6807 N   0  0  0  0  0  0  0  0  0  0  0  0
  148.5928  136.8803  159.3898 C   0  0  0  0  0  0  0  0  0  0  0  0
  149.0821  135.8410  158.9408 O   0  0  0  0  0  0  0  0  0  0  0  0
  147.9509  137.0209  160.5726 N   0  5  0  0  0  0  0  0  0  0  0  0
  147.5449  135.9390  161.2546 C   0  0  0  0  0  0  0  0  0  0  0  0
  147.1834  134.6833  160.6940 C   0  0  0  0  0  0  0  0  0  0  0  0
  146.8385  133.9409  161.7874 C   0  0  0  0  0  0  0  0  0  0  0  0
  146.3678  132.5357  161.9494 C   0  0  0  0  0  0  0  0  0  0  0  0
  146.9660  134.6824  162.9206 O   0  0  0  0  0  0  0  0  0  0  0  0
  147.4134  135.9618  162.5705 N   0  0  0  0  0  0  0  0  0  0  0  0
  150.3379  141.8546  157.3940 C   0  0  0  0  0  0  0  0  0  0  0  0
  151.0783  142.7457  158.4087 C   0  0  0  0  0  0  0  0  0  0  0  0
  152.9239  143.9058  161.7079 H   0  0  0  0  0  0  0  0  0  0  0  0
  152.3234  142.2590  161.6327 H   0  0  0  0  0  0  0  0  0  0  0  0
  151.3730  143.5768  160.9423 H   0  0  0  0  0  0  0  0  0  0  0  0
  153.2432  144.0166  159.3078 H   0  0  0  0  0  0  0  0  0  0  0  0
  154.1001  142.6203  159.8989 H   0  0  0  0  0  0  0  0  0  0  0  0
  153.1443  140.3914  159.5166 H   0  0  0  0  0  0  0  0  0  0  0  0
  151.6149  140.8819  160.2086 H   0  0  0  0  0  0  0  0  0  0  0  0
  152.0582  139.8202  157.3701 H   0  0  0  0  0  0  0  0  0  0  0  0
  151.3408  138.9659  158.7186 H   0  0  0  0  0  0  0  0  0  0  0  0
  149.9643  139.6385  155.9983 H   0  0  0  0  0  0  0  0  0  0  0  0
  147.4463  139.4209  155.9835 H   0  0  0  0  0  0  0  0  0  0  0  0
  147.9974  141.0722  156.0523 H   0  0  0  0  0  0  0  0  0  0  0  0
  147.3950  140.2875  157.5130 H   0  0  0  0  0  0  0  0  0  0  0  0
  148.7167  137.5876  156.6429 H   0  0  0  0  0  0  0  0  0  0  0  0
  150.2821  137.6681  157.3814 H   0  0  0  0  0  0  0  0  0  0  0  0
  148.2678  138.8475  159.0814 H   0  0  0  0  0  0  0  0  0  0  0  0
  147.1831  134.3774  159.6587 H   0  0  0  0  0  0  0  0  0  0  0  0
  147.0795  131.8377  161.5083 H   0  0  0  0  0  0  0  0  0  0  0  0
  145.4049  132.3933  161.4587 H   0  0  0  0  0  0  0  0  0  0  0  0
  146.2514  132.2779  163.0024 H   0  0  0  0  0  0  0  0  0  0  0  0
  150.8920  141.8252  156.4546 H   0  0  0  0  0  0  0  0  0  0  0  0
  149.3826  142.3320  157.1818 H   0  0  0  0  0  0  0  0  0  0  0  0
  150.4685  142.8628  159.3061 H   0  0  0  0  0  0  0  0  0  0  0  0
  151.1918  143.7391  157.9756 H   0  0  0  0  0  0  0  0  0  0  0  0
  1  2  1  0  0  0  0
  1 22  1  0  0  0  0
  1 23  1  0  0  0  0
  1 24  1  0  0  0  0
  2  3  1  0  0  0  0
  2 25  1  0  0  0  0
  2 26  1  0  0  0  0
  3 21  1  0  0  0  0
  3  4  1  0  0  0  0
  4  5  1  0  0  0  0
  4 27  1  0  0  0  0
  4 28  1  0  0  0  0
  5  6  1  0  0  0  0
  5 29  1  0  0  0  0
  5 30  1  0  0  0  0
  6  7  1  0  0  0  0
  6 20  1  0  0  0  0
  7  8  1  0  0  0  0
  7  9  1  0  0  0  0
  7 31  1  0  0  0  0
  8 32  1  0  0  0  0
  8 33  1  0  0  0  0
  8 34  1  0  0  0  0
  9 10  1  0  0  0  0
  9 35  1  0  0  0  0
  9 36  1  0  0  0  0
 10 11  1  0  0  0  0
 10 37  1  0  0  0  0
 11 12  2  0  0  0  0
 11 13  1  0  0  0  0
 13 14  1  0  0  0  0
 14 19  2  0  0  0  0
 14 15  1  0  0  0  0
 15 16  2  0  0  0  0
 15 38  1  0  0  0  0
 16 17  1  0  0  0  0
 16 18  1  0  0  0  0
 17 39  1  0  0  0  0
 17 40  1  0  0  0  0
 17 41  1  0  0  0  0
 18 19  1  0  0  0  0
 20 21  1  0  0  0  0
 20 42  1  0  0  0  0
 20 43  1  0  0  0  0
 21 44  1  0  0  0  0
 21 45  1  0  0  0  0
M  CHG  1  13  -1
M  END
> <s_m_source_file>
AV-unprocessed.smi

> <i_m_source_file_index>
1586

> <i_lp_mmshare_version>
43012

> <i_f3d_flags>
0

> <s_epik_input>
W0NIM11bQ0gyXU4xW0NIMl1bQ0gyXU4oW0NIMl1bQ0gyXTEpW0NASF0oW0NIM10pW0NIMl1bTkhdQyg9TylbTkhdYzJbY0hdYyhbQ0gzXSlvbjI=

> <s_epik_cmdline>
J2VwaWtfcHl0aG9uJywgJy1waCcsICc3LjAnLCAnLXRuJywgJzgnLCAnLW1hJywgJzIwMCcsICctbWV0YWxfYmluZGluZycsICctaW1hZScsICc8aW5maWxlLm1hZT4nLCAnLW9tYWUnLCAnPG91dGZpbGUubWFlPic=

> <r_epik_Ionization_Penalty>
9.09031

> <r_epik_Ionization_Penalty_Charging>
6.65437

> <r_epik_Ionization_Penalty_Neutral>
2.43594

> <r_epik_State_Penalty>
8.41762

> <r_epik_Charging_Adjusted_Penalty>
15.072

> <i_epik_Tot_Q>
-1

> <i_epik_Tot_abs_Q>
1

> <r_epik_Metal_State_Penalty>
4.3436

> <b_epik_Metal_Only>
1

> <s_lp_Force_Field>
OPLS_2005

> <r_lp_Energy>
37.6489

> <b_lp_Chiralities_Consistent>
1

> <s_lp_Variant>
AV-unprocessed.smi:1586-13

> <Gold.Version>
5.8.1

> <Gold.Id.Protein>
6NUR|6NUR_protein|mol2

> <Gold.PLP.Fitness>
46.6740

> <Gold.PLP.PLP>
-34.5924

> <Gold.PLP.part.hbond>
-3.2525

> <Gold.PLP.part.metal>
0.0000

> <Gold.PLP.part.buried>
-7.1588

> <Gold.PLP.part.nonpolar>
-24.8840

> <Gold.PLP.part.repulsive>
0.2021

> <Gold.PLP.ligand.clash>
0.0000

> <Gold.PLP.ligand.torsion>
0.3073

> <Gold.PLP.Chemscore.Hbond>
4.2000

> <Gold.PLP.Chemscore.CHOScore>
0.0000

> <Gold.PLP.Chemscore.Metal>
0.0000

> <Gold.Chemscore.Hbonds>
donor molecule, donor type, donor heavy atom, donor atom, acceptor molecule, acceptor atom, score
      P1  H  6896  6908       L1    12  0.81
      P1  H  6931  6943       L1    13  1.38
      P1  H  6934  6947       L1    13  1.06

> <Gold.PLP.Chemscore.Internal.Correction>
0.0961

> <Gold.Rescore>
     Score         DG    S(hbond)    S(metal)    S(lipo)     H(rot)  DE(clash)    DE(int)     intcor
     15.49     -17.11       2.02        0.00      78.53       1.68       0.00       1.62       ----

> <Gold.Chemscore.Fitness>
15.4852

> <Gold.Chemscore.DG>
-17.1107

> <Gold.Chemscore.ZeroCoef>
-5.4800

> <Gold.Chemscore.Hbond>
2.0181

> <Gold.Chemscore.Metal>
0.0000

> <Gold.Chemscore.Lipo>
78.5312

> <Gold.Chemscore.Internal_Hbond>
0.0000

> <Gold.Chemscore.DEClash>
0.0029

> <Gold.Chemscore.DEInternal>
1.6227

> <Gold.Chemscore.Rot>
1.6788

> <Gold.Chemscore.Internal.Correction>
   9.000000E+99

> <Gold.Chemscore.Hbonds>
donor molecule, donor type, donor heavy atom, donor atom, acceptor molecule, acceptor atom, score
      P1  H  6896  6908       L1    12  0.80
      P1  H  6931  6943       L1    13  0.35
      P1  H  6934  6947       L1    13  0.46

> <Gold.Chemscore.Hbond.Weighted>
-6.7404

> <Gold.Chemscore.Metal.Weighted>
-0.0000

> <Gold.Chemscore.Lipo.Weighted>
-9.1881

> <Gold.Chemscore.Internal_Hbond.Weighted>
0.0000

> <Gold.Chemscore.DEClash.Weighted>
0.0029

> <Gold.Chemscore.DEInternal.Weighted>
1.6227

> <Gold.Chemscore.Rot.Weighted>
4.2978

> <Gold.Chemscore.Internal.Correction.Weighted>
   9.000000E+99

> <Gold.Protein.RotatedTorsions>
[ 6907 6896 6895 6894 ] final  176.48 input  -60.11 | X-H torsion
[ 7974 7965 7964 7962 ] final -138.54 input  175.53 | X-H torsion
[ 8008 7997 7996 7995 ] final  -23.47 input   59.86 | X-H torsion
[ 10167 10162 10161 10158 ] final   51.90 input  -65.29 | X-H torsion
[ 10718 10713 10712 10709 ] final -125.97 input   66.30 | X-H torsion
[ 10763 10752 10751 10750 ] final    1.05 input  -60.55 | X-H torsion
[ 11005 11000 10999 10996 ] final  -98.96 input  -57.11 | X-H torsion

> <Gold.Protein.ActiveResidues>
 VAL166  LYS551  ARG553  GLY616  TRP617  ASP618  TYR619  PRO620  LYS621  CYS622 
 ASP623  PHE694  ASN695  SER759  ASP760  ASP761  ALA762  ILE779  LEU786  VAL792 
 PHE793  MET794  SER795  GLU796  ALA797  LYS798  CYS799  TRP800  GLU811  SER814 

> <Gold.Protein.RotatedAtoms>
  151.7195  133.3314  159.3311 H   0  0  0  0  0  0  0  0  0  0  0  0  # atno 6907 bound_to 6896
  150.7659  134.6461  159.6272 H   0  0  0  0  0  0  0  0  0  0  0  0  # atno 6908 bound_to 6896
  152.3661  134.6805  160.0243 H   0  0  0  0  0  0  0  0  0  0  0  0  # atno 6909 bound_to 6896
  144.8750  140.6424  143.5242 H   0  0  0  0  0  0  0  0  0  0  0  0  # atno 7974 bound_to 7965
  154.4583  140.1980  156.0315 H   0  0  0  0  0  0  0  0  0  0  0  0  # atno 8008 bound_to 7997
  156.0791  140.3274  155.7643 H   0  0  0  0  0  0  0  0  0  0  0  0  # atno 8009 bound_to 7997
  155.5141  140.0564  157.2909 H   0  0  0  0  0  0  0  0  0  0  0  0  # atno 8010 bound_to 7997
  140.2570  144.3415  150.6330 H   0  0  0  0  0  0  0  0  0  0  0  0  # atno 10167 bound_to 10162
  156.1723  130.6676  151.0196 H   0  0  0  0  0  0  0  0  0  0  0  0  # atno 10718 bound_to 10713
  153.3129  135.6964  153.7099 H   0  0  0  0  0  0  0  0  0  0  0  0  # atno 10763 bound_to 10752
  153.5969  135.3469  155.2932 H   0  0  0  0  0  0  0  0  0  0  0  0  # atno 10764 bound_to 10752
  154.8579  135.4331  154.2273 H   0  0  0  0  0  0  0  0  0  0  0  0  # atno 10765 bound_to 10752
  141.1326  133.8285  157.0909 H   0  0  0  0  0  0  0  0  0  0  0  0  # atno 11005 bound_to 11000
  145.4059  139.1589  143.4152 LP  0  0  0  0  0  0  0  0  0  0  0  0  # atno 17320 bound_to 7965
  146.2957  140.4159  142.8723 LP  0  0  0  0  0  0  0  0  0  0  0  0  # atno 17321 bound_to 7965
  140.5995  143.2167  151.7099 LP  0  0  0  0  0  0  0  0  0  0  0  0  # atno 17342 bound_to 10162
  139.5028  144.3814  152.0372 LP  0  0  0  0  0  0  0  0  0  0  0  0  # atno 17343 bound_to 10162
  157.6811  131.0837  150.7367 LP  0  0  0  0  0  0  0  0  0  0  0  0  # atno 17370 bound_to 10713
  156.7425  130.4743  149.5474 LP  0  0  0  0  0  0  0  0  0  0  0  0  # atno 17371 bound_to 10713
  140.0393  134.9862  157.0931 LP  0  0  0  0  0  0  0  0  0  0  0  0  # atno 17394 bound_to 11000
  140.4161  134.1930  155.7163 LP  0  0  0  0  0  0  0  0  0  0  0  0  # atno 17395 bound_to 11000

$$$$
