AV-unprocessed.smi:1995|AV-procd|sdf|8081|dock3
  -GOLD-   2272010293D 1   1.00000     0.00000
 Structure written by MMmdl.
 41 42  0  0  0  0  0  0  0  0  2 V2000
  150.2320  142.0870  157.3541 C   0  0  0  0  0  0  0  0  0  0  0  0
  149.7848  140.7009  157.8533 C   0  0  0  0  0  0  0  0  0  0  0  0
  150.7383  139.5145  157.5007 C   0  0  2  0  0  0  0  0  0  0  0  0
  151.2082  139.7517  156.0402 C   0  0  0  0  0  0  0  0  0  0  0  0
  149.9096  138.1889  157.5516 C   0  0  0  0  0  0  0  0  0  0  0  0
  148.9842  138.1090  158.6830 N   0  0  0  0  0  0  0  0  0  0  0  0
  148.6603  137.0084  159.3776 C   0  0  0  0  0  0  0  0  0  0  0  0
  149.1672  135.9223  159.0873 O   0  0  0  0  0  0  0  0  0  0  0  0
  147.7596  137.2337  160.3611 N   0  5  0  0  0  0  0  0  0  0  0  0
  147.2388  136.2006  161.0431 C   0  0  0  0  0  0  0  0  0  0  0  0
  147.6322  134.9343  160.8643 N   0  0  0  0  0  0  0  0  0  0  0  0
  146.9602  134.0236  161.6820 C   0  0  0  0  0  0  0  0  0  0  0  0
  146.0396  134.6115  162.5083 C   0  0  0  0  0  0  0  0  0  0  0  0
  145.9895  136.3368  162.2841 S   0  0  0  0  0  0  0  0  0  0  0  0
  151.9110  139.4763  158.4209 N   0  0  0  0  0  0  0  0  0  0  0  0
  152.6272  140.7488  158.5732 C   0  0  0  0  0  0  0  0  0  0  0  0
  153.7285  140.6660  159.6440 C   0  0  0  0  0  0  0  0  0  0  0  0
  154.6341  139.6165  159.3231 O   0  0  0  0  0  0  0  0  0  0  0  0
  153.9871  138.3540  159.2190 C   0  0  0  0  0  0  0  0  0  0  0  0
  152.8914  138.4202  158.1415 C   0  0  0  0  0  0  0  0  0  0  0  0
  149.5140  142.8492  157.6565 H   0  0  0  0  0  0  0  0  0  0  0  0
  150.3016  142.1221  156.2674 H   0  0  0  0  0  0  0  0  0  0  0  0
  151.2008  142.3738  157.7629 H   0  0  0  0  0  0  0  0  0  0  0  0
  149.6255  140.7502  158.9303 H   0  0  0  0  0  0  0  0  0  0  0  0
  148.7922  140.5149  157.4416 H   0  0  0  0  0  0  0  0  0  0  0  0
  150.3823  140.0254  155.3831 H   0  0  0  0  0  0  0  0  0  0  0  0
  151.6609  138.8596  155.6073 H   0  0  0  0  0  0  0  0  0  0  0  0
  151.9450  140.5527  155.9781 H   0  0  0  0  0  0  0  0  0  0  0  0
  149.3648  138.0288  156.6213 H   0  0  0  0  0  0  0  0  0  0  0  0
  150.5737  137.3312  157.6514 H   0  0  0  0  0  0  0  0  0  0  0  0
  148.5389  138.9711  158.9612 H   0  0  0  0  0  0  0  0  0  0  0  0
  147.2020  132.9736  161.6096 H   0  0  0  0  0  0  0  0  0  0  0  0
  145.3925  134.1392  163.2318 H   0  0  0  0  0  0  0  0  0  0  0  0
  153.0832  141.0432  157.6281 H   0  0  0  0  0  0  0  0  0  0  0  0
  151.9464  141.5487  158.8585 H   0  0  0  0  0  0  0  0  0  0  0  0
  154.2777  141.6063  159.6951 H   0  0  0  0  0  0  0  0  0  0  0  0
  153.2950  140.4939  160.6304 H   0  0  0  0  0  0  0  0  0  0  0  0
  154.7263  137.5956  158.9610 H   0  0  0  0  0  0  0  0  0  0  0  0
  153.5627  138.0737  160.1844 H   0  0  0  0  0  0  0  0  0  0  0  0
  152.4125  137.4440  158.0938 H   0  0  0  0  0  0  0  0  0  0  0  0
  153.3640  138.5888  157.1741 H   0  0  0  0  0  0  0  0  0  0  0  0
  1  2  1  0  0  0  0
  1 21  1  0  0  0  0
  1 22  1  0  0  0  0
  1 23  1  0  0  0  0
  2  3  1  0  0  0  0
  2 24  1  0  0  0  0
  2 25  1  0  0  0  0
  3  4  1  0  0  0  0
  3  5  1  0  0  0  0
  3 15  1  0  0  0  0
  4 26  1  0  0  0  0
  4 27  1  0  0  0  0
  4 28  1  0  0  0  0
  5  6  1  0  0  0  0
  5 29  1  0  0  0  0
  5 30  1  0  0  0  0
  6  7  1  0  0  0  0
  6 31  1  0  0  0  0
  7  8  2  0  0  0  0
  7  9  1  0  0  0  0
  9 10  1  0  0  0  0
 10 14  1  0  0  0  0
 10 11  2  0  0  0  0
 11 12  1  0  0  0  0
 12 13  2  0  0  0  0
 12 32  1  0  0  0  0
 13 14  1  0  0  0  0
 13 33  1  0  0  0  0
 15 20  1  0  0  0  0
 15 16  1  0  0  0  0
 16 17  1  0  0  0  0
 16 34  1  0  0  0  0
 16 35  1  0  0  0  0
 17 18  1  0  0  0  0
 17 36  1  0  0  0  0
 17 37  1  0  0  0  0
 18 19  1  0  0  0  0
 19 20  1  0  0  0  0
 19 38  1  0  0  0  0
 19 39  1  0  0  0  0
 20 40  1  0  0  0  0
 20 41  1  0  0  0  0
M  CHG  1   9  -1
M  END
> <s_m_source_file>
AV-unprocessed.smi

> <i_m_source_file_index>
1995

> <i_lp_mmshare_version>
43012

> <i_f3d_flags>
0

> <s_epik_input>
W0NIMl0xW0NIMl1PW0NIMl1bQ0gyXU4xW0NAQF0oW0NIM10pKFtDSDJdW0NIM10pW0NIMl1bTkhdQyg9TylbTkhdYzJuW2NIXVtjSF1zMg==

> <s_epik_cmdline>
J2VwaWtfcHl0aG9uJywgJy1waCcsICc3LjAnLCAnLXRuJywgJzgnLCAnLW1hJywgJzIwMCcsICctbWV0YWxfYmluZGluZycsICctaW1hZScsICc8aW5maWxlLm1hZT4nLCAnLW9tYWUnLCAnPG91dGZpbGUubWFlPic=

> <r_lp_tautomer_probability>
0.999

> <r_epik_Ionization_Penalty>
8.86479

> <r_epik_Ionization_Penalty_Charging>
6.76546

> <r_epik_Ionization_Penalty_Neutral>
2.09933

> <r_epik_State_Penalty>
7.05418

> <r_epik_Charging_Adjusted_Penalty>
13.8196

> <i_epik_Tot_Q>
-1

> <i_epik_Tot_abs_Q>
1

> <r_epik_Metal_State_Penalty>
2.97744

> <b_epik_Metal_Only>
1

> <s_lp_Force_Field>
OPLS_2005

> <r_lp_Energy>
37.8837

> <b_lp_Chiralities_Consistent>
1

> <s_lp_Variant>
AV-unprocessed.smi:1995-6

> <Gold.Version>
5.8.1

> <Gold.Id.Protein>
6NUR|6NUR_protein|mol2

> <Gold.PLP.Fitness>
44.4552

> <Gold.PLP.PLP>
-30.9583

> <Gold.PLP.part.hbond>
-4.0000

> <Gold.PLP.part.metal>
0.0000

> <Gold.PLP.part.buried>
-4.4509

> <Gold.PLP.part.nonpolar>
-23.5840

> <Gold.PLP.part.repulsive>
0.2056

> <Gold.PLP.ligand.clash>
0.0000

> <Gold.PLP.ligand.torsion>
0.8250

> <Gold.PLP.Chemscore.Hbond>
5.0080

> <Gold.PLP.Chemscore.CHOScore>
0.0000

> <Gold.PLP.Chemscore.Metal>
0.0000

> <Gold.Chemscore.Hbonds>
donor molecule, donor type, donor heavy atom, donor atom, acceptor molecule, acceptor atom, score
      P1  H  6896  6908       L1     8  0.86
      P1  H  6931  6943       L1     9  0.69
      P1  H  6934  6947       L1     9  1.73
      P1  H  7997  8010       L1    18  0.86

> <Gold.PLP.Chemscore.Internal.Correction>
0.1229

> <Gold.Rescore>
     Score         DG    S(hbond)    S(metal)    S(lipo)     H(rot)  DE(clash)    DE(int)     intcor
     14.95     -17.83       2.58        0.00      69.19       1.70       0.10       2.78       ----

> <Gold.Chemscore.Fitness>
14.9489

> <Gold.Chemscore.DG>
-17.8313

> <Gold.Chemscore.ZeroCoef>
-5.4800

> <Gold.Chemscore.Hbond>
2.5761

> <Gold.Chemscore.Metal>
0.0000

> <Gold.Chemscore.Lipo>
69.1901

> <Gold.Chemscore.Internal_Hbond>
0.0000

> <Gold.Chemscore.DEClash>
0.1021

> <Gold.Chemscore.DEInternal>
2.7803

> <Gold.Chemscore.Rot>
1.6985

> <Gold.Chemscore.Internal.Correction>
   9.000000E+99

> <Gold.Chemscore.Hbonds>
donor molecule, donor type, donor heavy atom, donor atom, acceptor molecule, acceptor atom, score
      P1  H  6896  6908       L1     8  0.83
      P1  H  6931  6943       L1     9  0.04
      P1  H  6934  6947       L1     9  0.80
      P1  H  7997  8010       L1    18  0.15

> <Gold.Chemscore.Hbond.Weighted>
-8.6043

> <Gold.Chemscore.Metal.Weighted>
-0.0000

> <Gold.Chemscore.Lipo.Weighted>
-8.0952

> <Gold.Chemscore.Internal_Hbond.Weighted>
0.0000

> <Gold.Chemscore.DEClash.Weighted>
0.1021

> <Gold.Chemscore.DEInternal.Weighted>
2.7803

> <Gold.Chemscore.Rot.Weighted>
4.3482

> <Gold.Chemscore.Internal.Correction.Weighted>
   9.000000E+99

> <Gold.Protein.RotatedTorsions>
[ 6907 6896 6895 6894 ] final -165.22 input  -60.11 | X-H torsion
[ 7974 7965 7964 7962 ] final   -9.79 input  175.53 | X-H torsion
[ 8008 7997 7996 7995 ] final   -5.63 input   59.86 | X-H torsion
[ 10167 10162 10161 10158 ] final -172.27 input  -65.29 | X-H torsion
[ 10718 10713 10712 10709 ] final  115.57 input   66.30 | X-H torsion
[ 10763 10752 10751 10750 ] final -166.60 input  -60.55 | X-H torsion
[ 11005 11000 10999 10996 ] final  -32.85 input  -57.11 | X-H torsion

> <Gold.Protein.ActiveResidues>
 VAL166  LYS551  ARG553  GLY616  TRP617  ASP618  TYR619  PRO620  LYS621  CYS622 
 ASP623  PHE694  ASN695  SER759  ASP760  ASP761  ALA762  ILE779  LEU786  VAL792 
 PHE793  MET794  SER795  GLU796  ALA797  LYS798  CYS799  TRP800  GLU811  SER814 

> <Gold.Protein.RotatedAtoms>
  151.4243  133.3689  159.2759 H   0  0  0  0  0  0  0  0  0  0  0  0  # atno 6907 bound_to 6896
  150.9271  134.8689  159.7538 H   0  0  0  0  0  0  0  0  0  0  0  0  # atno 6908 bound_to 6896
  152.5010  134.4185  159.9524 H   0  0  0  0  0  0  0  0  0  0  0  0  # atno 6909 bound_to 6896
  146.2241  140.2668  142.8354 H   0  0  0  0  0  0  0  0  0  0  0  0  # atno 7974 bound_to 7965
  154.6020  140.2453  155.7780 H   0  0  0  0  0  0  0  0  0  0  0  0  # atno 8008 bound_to 7997
  156.2317  140.2964  156.0157 H   0  0  0  0  0  0  0  0  0  0  0  0  # atno 8009 bound_to 7997
  155.2196  140.0400  157.2936 H   0  0  0  0  0  0  0  0  0  0  0  0  # atno 8010 bound_to 7997
  139.5754  144.1545  152.1443 H   0  0  0  0  0  0  0  0  0  0  0  0  # atno 10167 bound_to 10162
  157.6214  131.1014  150.7348 H   0  0  0  0  0  0  0  0  0  0  0  0  # atno 10718 bound_to 10713
  154.6816  135.2955  154.9605 H   0  0  0  0  0  0  0  0  0  0  0  0  # atno 10763 bound_to 10752
  154.0598  135.6633  153.4814 H   0  0  0  0  0  0  0  0  0  0  0  0  # atno 10764 bound_to 10752
  153.0551  135.5149  154.7862 H   0  0  0  0  0  0  0  0  0  0  0  0  # atno 10765 bound_to 10752
  140.9586  133.7177  156.1334 H   0  0  0  0  0  0  0  0  0  0  0  0  # atno 11005 bound_to 11000
  144.9298  140.7962  143.5696 LP  0  0  0  0  0  0  0  0  0  0  0  0  # atno 17320 bound_to 7965
  145.2611  139.1992  143.4891 LP  0  0  0  0  0  0  0  0  0  0  0  0  # atno 17321 bound_to 7965
  140.1086  144.5476  150.6940 LP  0  0  0  0  0  0  0  0  0  0  0  0  # atno 17342 bound_to 10162
  140.7037  143.2452  151.4790 LP  0  0  0  0  0  0  0  0  0  0  0  0  # atno 17343 bound_to 10162
  156.7705  130.4827  149.5419 LP  0  0  0  0  0  0  0  0  0  0  0  0  # atno 17370 bound_to 10713
  156.1361  130.6212  151.0403 LP  0  0  0  0  0  0  0  0  0  0  0  0  # atno 17371 bound_to 10713
  140.7500  134.4056  157.5543 LP  0  0  0  0  0  0  0  0  0  0  0  0  # atno 17394 bound_to 11000
  139.8870  134.8893  156.2550 LP  0  0  0  0  0  0  0  0  0  0  0  0  # atno 17395 bound_to 11000

$$$$
