AV-unprocessed.smi:2775|AV-procd|sdf|10694|dock1
  -GOLD-   2272015133D 1   1.00000     0.00000
 Structure written by MMmdl.
 42 45  0  0  0  0  0  0  0  0  1 V2000
  148.7030  130.3872  153.6947 C   0  0  0  0  0  0  0  0  0  0  0  0
  149.4852  131.4651  154.4217 C   0  0  0  0  0  0  0  0  0  0  0  0
  150.2411  131.0410  155.4574 N   0  0  0  0  0  0  0  0  0  0  0  0
  150.9532  131.9599  156.1405 C   0  0  0  0  0  0  0  0  0  0  0  0
  150.9504  133.3328  155.8284 C   0  0  0  0  0  0  0  0  0  0  0  0
  150.1646  133.7813  154.7389 C   0  0  0  0  0  0  0  0  0  0  0  0
  150.0669  135.1402  154.3264 N   0  0  0  0  0  0  0  0  0  0  0  0
  150.6992  136.2390  154.7820 C   0  0  0  0  0  0  0  0  0  0  0  0
  151.5758  136.2478  155.6427 O   0  0  0  0  0  0  0  0  0  0  0  0
  150.3008  137.3763  154.1863 N   0  0  0  0  0  0  0  0  0  0  0  0
  150.7831  138.7326  154.4464 C   0  0  2  0  0  0  0  0  0  0  0  0
  151.1316  138.9528  155.9197 C   0  0  1  0  0  0  0  0  0  0  0  0
  152.4026  139.1428  156.6653 C   0  0  0  0  0  0  0  0  0  0  0  0
  151.9377  140.3097  157.5735 C   0  0  0  0  0  0  0  0  0  0  0  0
  150.6480  140.7212  157.0586 O   0  0  0  0  0  0  0  0  0  0  0  0
  150.6972  140.3908  155.6837 C   0  0  2  0  0  0  0  0  0  0  0  0
  149.6510  139.7710  154.7458 C   0  0  0  0  0  0  0  0  0  0  0  0
  148.2399  139.4071  155.2444 C   0  0  0  0  0  0  0  0  0  0  0  0
  147.7252  140.6530  154.5156 C   0  0  0  0  0  0  0  0  0  0  0  0
  148.9892  140.6154  153.6499 C   0  0  0  0  0  0  0  0  0  0  0  0
  149.4105  132.8206  154.0237 C   0  0  0  0  0  0  0  0  0  0  0  0
  148.4144  133.2938  152.6869 Cl  0  0  0  0  0  0  0  0  0  0  0  0
  149.0022  130.3436  152.6471 H   0  0  0  0  0  0  0  0  0  0  0  0
  147.6341  130.5975  153.7407 H   0  0  0  0  0  0  0  0  0  0  0  0
  148.8718  129.4032  154.1342 H   0  0  0  0  0  0  0  0  0  0  0  0
  151.5428  131.5899  156.9660 H   0  0  0  0  0  0  0  0  0  0  0  0
  151.5428  133.9987  156.4346 H   0  0  0  0  0  0  0  0  0  0  0  0
  149.4076  135.3043  153.5794 H   0  0  0  0  0  0  0  0  0  0  0  0
  149.6043  137.2877  153.4605 H   0  0  0  0  0  0  0  0  0  0  0  0
  151.5569  139.0903  153.7615 H   0  0  0  0  0  0  0  0  0  0  0  0
  150.4189  138.4072  156.5495 H   0  0  0  0  0  0  0  0  0  0  0  0
  152.6974  138.2599  157.2330 H   0  0  0  0  0  0  0  0  0  0  0  0
  153.2217  139.4372  156.0078 H   0  0  0  0  0  0  0  0  0  0  0  0
  151.8348  140.0015  158.6143 H   0  0  0  0  0  0  0  0  0  0  0  0
  152.6455  141.1386  157.5332 H   0  0  0  0  0  0  0  0  0  0  0  0
  151.4370  140.9945  155.1473 H   0  0  0  0  0  0  0  0  0  0  0  0
  147.8514  138.4841  154.8125 H   0  0  0  0  0  0  0  0  0  0  0  0
  148.1120  139.4315  156.3270 H   0  0  0  0  0  0  0  0  0  0  0  0
  146.7933  140.5089  153.9683 H   0  0  0  0  0  0  0  0  0  0  0  0
  147.6838  141.5310  155.1624 H   0  0  0  0  0  0  0  0  0  0  0  0
  149.4524  141.5872  153.4771 H   0  0  0  0  0  0  0  0  0  0  0  0
  148.8382  140.0703  152.7181 H   0  0  0  0  0  0  0  0  0  0  0  0
  1  2  1  0  0  0  0
  1 23  1  0  0  0  0
  1 24  1  0  0  0  0
  1 25  1  0  0  0  0
  2 21  1  0  0  0  0
  2  3  2  0  0  0  0
  3  4  1  0  0  0  0
  4  5  2  0  0  0  0
  4 26  1  0  0  0  0
  5  6  1  0  0  0  0
  5 27  1  0  0  0  0
  6  7  1  0  0  0  0
  6 21  2  0  0  0  0
  7  8  1  0  0  0  0
  7 28  1  0  0  0  0
  8  9  2  0  0  0  0
  8 10  1  0  0  0  0
 10 11  1  0  0  0  0
 10 29  1  0  0  0  0
 11 17  1  0  0  0  0
 11 12  1  0  0  0  0
 11 30  1  0  0  0  0
 12 16  1  0  0  0  0
 12 13  1  0  0  0  0
 12 31  1  0  0  0  0
 13 14  1  0  0  0  0
 13 32  1  0  0  0  0
 13 33  1  0  0  0  0
 14 15  1  0  0  0  0
 14 34  1  0  0  0  0
 14 35  1  0  0  0  0
 15 16  1  0  0  0  0
 16 17  1  0  0  0  0
 16 36  1  0  0  0  0
 17 20  1  0  0  0  0
 17 18  1  0  0  0  0
 18 19  1  0  0  0  0
 18 37  1  0  0  0  0
 18 38  1  0  0  0  0
 19 20  1  0  0  0  0
 19 39  1  0  0  0  0
 19 40  1  0  0  0  0
 20 41  1  0  0  0  0
 20 42  1  0  0  0  0
 21 22  1  0  0  0  0
M  END
> <s_m_source_file>
AV-unprocessed.smi

> <i_m_source_file_index>
2775

> <i_lp_mmshare_version>
43012

> <i_f3d_flags>
0

> <s_epik_input>
W0NIM11jMW5bY0hdW2NIXWMoYzFDbClbTkhdQyg9TylbTkhdW0NAQEhdMltDQEhdKFtDSDJdW0NIMl1PMylbQ0BASF0zQzI0W0NIMl1bQ0gyXVtDSDJdNA==

> <s_epik_cmdline>
J2VwaWtfcHl0aG9uJywgJy1waCcsICc3LjAnLCAnLXRuJywgJzgnLCAnLW1hJywgJzIwMCcsICctbWV0YWxfYmluZGluZycsICctaW1hZScsICc8aW5maWxlLm1hZT4nLCAnLW9tYWUnLCAnPG91dGZpbGUubWFlPic=

> <r_epik_Ionization_Penalty>
0.01026

> <r_epik_Ionization_Penalty_Charging>
0

> <r_epik_Ionization_Penalty_Neutral>
0.01026

> <r_epik_State_Penalty>
0.00780685

> <r_epik_Charging_Adjusted_Penalty>
0.00780685

> <i_epik_Tot_Q>
0

> <i_epik_Tot_abs_Q>
0

> <r_epik_Metal_State_Penalty>
0.00767411

> <b_epik_Metal_Only>
0

> <s_lp_Force_Field>
OPLS_2005

> <r_lp_Energy>
80.7477

> <b_lp_Chiralities_Consistent>
1

> <s_lp_Variant>
AV-unprocessed.smi:2775-7

> <Gold.Version>
5.8.1

> <Gold.Id.Protein>
6NUR|6NUR_protein|mol2

> <Gold.PLP.Fitness>
43.4420

> <Gold.PLP.PLP>
-35.0623

> <Gold.PLP.part.hbond>
-3.9398

> <Gold.PLP.part.metal>
0.0000

> <Gold.PLP.part.buried>
0.7754

> <Gold.PLP.part.nonpolar>
-31.5335

> <Gold.PLP.part.repulsive>
0.1976

> <Gold.PLP.ligand.clash>
0.0000

> <Gold.PLP.ligand.torsion>
0.2064

> <Gold.PLP.Chemscore.Hbond>
2.8240

> <Gold.PLP.Chemscore.CHOScore>
0.0000

> <Gold.PLP.Chemscore.Metal>
0.0000

> <Gold.Chemscore.Hbonds>
donor molecule, donor type, donor heavy atom, donor atom, acceptor molecule, acceptor atom, score
      L1  H     7    28       P1  7948  0.86
      L1  H    10    29       P1  7948  0.91
      P1  H 10752 10765       L1     9  1.00

> <Gold.PLP.Chemscore.Internal.Correction>
0.3206

> <Gold.Rescore>
     Score         DG    S(hbond)    S(metal)    S(lipo)     H(rot)  DE(clash)    DE(int)     intcor
     16.30     -20.68       2.00        0.00      94.56       1.00       1.66       2.72       ----

> <Gold.Chemscore.Fitness>
16.2981

> <Gold.Chemscore.DG>
-20.6758

> <Gold.Chemscore.ZeroCoef>
-5.4800

> <Gold.Chemscore.Hbond>
2.0035

> <Gold.Chemscore.Metal>
0.0000

> <Gold.Chemscore.Lipo>
94.5648

> <Gold.Chemscore.Internal_Hbond>
0.0000

> <Gold.Chemscore.DEClash>
1.6557

> <Gold.Chemscore.DEInternal>
2.7221

> <Gold.Chemscore.Rot>
1.0000

> <Gold.Chemscore.Internal.Correction>
   9.000000E+99

> <Gold.Chemscore.Hbonds>
donor molecule, donor type, donor heavy atom, donor atom, acceptor molecule, acceptor atom, score
      L1  H     7    28       P1  7948  0.16
      L1  H    10    29       P1  7948  0.71
      P1  H 10752 10765       L1     9  0.74

> <Gold.Chemscore.Hbond.Weighted>
-6.6917

> <Gold.Chemscore.Metal.Weighted>
-0.0000

> <Gold.Chemscore.Lipo.Weighted>
-11.0641

> <Gold.Chemscore.Internal_Hbond.Weighted>
0.0000

> <Gold.Chemscore.DEClash.Weighted>
1.6557

> <Gold.Chemscore.DEInternal.Weighted>
2.7221

> <Gold.Chemscore.Rot.Weighted>
2.5600

> <Gold.Chemscore.Internal.Correction.Weighted>
   9.000000E+99

> <Gold.Protein.RotatedTorsions>
[ 6907 6896 6895 6894 ] final  109.94 input  -60.11 | X-H torsion
[ 7974 7965 7964 7962 ] final  -12.13 input  175.53 | X-H torsion
[ 8008 7997 7996 7995 ] final  172.61 input   59.86 | X-H torsion
[ 10167 10162 10161 10158 ] final   71.29 input  -65.29 | X-H torsion
[ 10718 10713 10712 10709 ] final -155.59 input   66.30 | X-H torsion
[ 10763 10752 10751 10750 ] final -152.91 input  -60.55 | X-H torsion
[ 11005 11000 10999 10996 ] final -101.71 input  -57.11 | X-H torsion

> <Gold.Protein.ActiveResidues>
 VAL166  LYS551  ARG553  GLY616  TRP617  ASP618  TYR619  PRO620  LYS621  CYS622 
 ASP623  PHE694  ASN695  SER759  ASP760  ASP761  ALA762  ILE779  LEU786  VAL792 
 PHE793  MET794  SER795  GLU796  ALA797  LYS798  CYS799  TRP800  GLU811  SER814 

> <Gold.Protein.RotatedAtoms>
  152.5043  133.8871  159.7375 H   0  0  0  0  0  0  0  0  0  0  0  0  # atno 6907 bound_to 6896
  150.9319  133.6748  159.2815 H   0  0  0  0  0  0  0  0  0  0  0  0  # atno 6908 bound_to 6896
  151.4089  135.0987  159.9631 H   0  0  0  0  0  0  0  0  0  0  0  0  # atno 6909 bound_to 6896
  146.2163  140.3013  142.8375 H   0  0  0  0  0  0  0  0  0  0  0  0  # atno 7974 bound_to 7965
  156.1158  140.1481  156.9275 H   0  0  0  0  0  0  0  0  0  0  0  0  # atno 8008 bound_to 7997
  154.4799  140.0882  156.7395 H   0  0  0  0  0  0  0  0  0  0  0  0  # atno 8009 bound_to 7997
  155.4517  140.3435  155.4304 H   0  0  0  0  0  0  0  0  0  0  0  0  # atno 8010 bound_to 7997
  140.0477  144.5337  150.7386 H   0  0  0  0  0  0  0  0  0  0  0  0  # atno 10167 bound_to 10162
  156.5150  130.8452  151.2660 H   0  0  0  0  0  0  0  0  0  0  0  0  # atno 10718 bound_to 10713
  154.7963  135.3225  154.7659 H   0  0  0  0  0  0  0  0  0  0  0  0  # atno 10763 bound_to 10752
  153.8336  135.6877  153.4815 H   0  0  0  0  0  0  0  0  0  0  0  0  # atno 10764 bound_to 10752
  153.1656  135.4643  154.9774 H   0  0  0  0  0  0  0  0  0  0  0  0  # atno 10765 bound_to 10752
  141.1220  133.8499  157.1266 H   0  0  0  0  0  0  0  0  0  0  0  0  # atno 11005 bound_to 11000
  144.9055  140.7694  143.5840 LP  0  0  0  0  0  0  0  0  0  0  0  0  # atno 17320 bound_to 7965
  145.2941  139.1873  143.4724 LP  0  0  0  0  0  0  0  0  0  0  0  0  # atno 17321 bound_to 7965
  140.7231  143.2608  151.4212 LP  0  0  0  0  0  0  0  0  0  0  0  0  # atno 17342 bound_to 10162
  139.5973  144.1370  152.2158 LP  0  0  0  0  0  0  0  0  0  0  0  0  # atno 17343 bound_to 10162
  157.7445  130.9937  150.2680 LP  0  0  0  0  0  0  0  0  0  0  0  0  # atno 17370 bound_to 10713
  156.3204  130.3785  149.7580 LP  0  0  0  0  0  0  0  0  0  0  0  0  # atno 17371 bound_to 10713
  140.0185  134.9957  157.0542 LP  0  0  0  0  0  0  0  0  0  0  0  0  # atno 17394 bound_to 11000
  140.4480  134.1612  155.7179 LP  0  0  0  0  0  0  0  0  0  0  0  0  # atno 17395 bound_to 11000

$$$$
