AV-unprocessed.smi:2331|AV-procd|sdf|9315|dock5
  -GOLD-   2272012533D 1   1.00000     0.00000
 Structure written by MMmdl.
 49 50  0  0  0  0  0  0  0  0  1 V2000
  152.0404  141.5867  157.5643 C   0  0  0  0  0  0  0  0  0  0  0  0
  151.5034  142.7911  158.3654 C   0  0  0  0  0  0  0  0  0  0  0  0
  151.8014  144.0629  157.5350 C   0  0  0  0  0  0  0  0  0  0  0  0
  149.9658  142.6531  158.5113 C   0  0  0  0  0  0  0  0  0  0  0  0
  149.3250  142.3481  157.2355 N   0  0  0  0  0  0  0  0  0  0  0  0
  148.1707  141.6823  157.0732 C   0  0  0  0  0  0  0  0  0  0  0  0
  147.4956  141.2795  158.0210 O   0  0  0  0  0  0  0  0  0  0  0  0
  147.7871  141.5661  155.7788 N   0  0  0  0  0  0  0  0  0  0  0  0
  148.7358  141.4785  154.6593 C   0  0  0  0  0  0  0  0  0  0  0  0
  147.9515  140.9727  153.4503 C   0  0  0  0  0  0  0  0  0  0  0  0
  146.7011  140.3412  154.0458 C   0  0  0  0  0  0  0  0  0  0  0  0
  146.4501  141.1143  155.3533 C   0  0  2  0  0  0  0  0  0  0  0  0
  145.3844  142.2601  155.2459 C   0  0  0  0  0  0  0  0  0  0  0  0
  145.2666  143.0119  156.5867 C   0  0  0  0  0  0  0  0  0  0  0  0
  145.6516  143.2857  154.1262 C   0  0  0  0  0  0  0  0  0  0  0  0
  144.1060  141.7096  154.9906 O   0  0  0  0  0  0  0  0  0  0  0  0
  152.1706  142.8244  159.7546 C   0  0  0  0  0  0  0  0  0  0  0  0
  153.1336  141.8708  160.1679 C   0  0  0  0  0  0  0  0  0  0  0  0
  153.7070  141.9885  161.4496 C   0  0  0  0  0  0  0  0  0  0  0  0
  153.3896  142.9687  162.3196 N   0  0  0  0  0  0  0  0  0  0  0  0
  152.4735  143.8782  161.9299 C   0  0  0  0  0  0  0  0  0  0  0  0
  151.8429  143.8513  160.6706 C   0  0  0  0  0  0  0  0  0  0  0  0
  151.6035  141.5480  156.5658 H   0  0  0  0  0  0  0  0  0  0  0  0
  151.8126  140.6368  158.0484 H   0  0  0  0  0  0  0  0  0  0  0  0
  153.1232  141.6420  157.4463 H   0  0  0  0  0  0  0  0  0  0  0  0
  151.3252  144.0144  156.5551 H   0  0  0  0  0  0  0  0  0  0  0  0
  152.8711  144.1882  157.3632 H   0  0  0  0  0  0  0  0  0  0  0  0
  151.4321  144.9666  158.0209 H   0  0  0  0  0  0  0  0  0  0  0  0
  149.7294  141.8915  159.2565 H   0  0  0  0  0  0  0  0  0  0  0  0
  149.5316  143.5830  158.8804 H   0  0  0  0  0  0  0  0  0  0  0  0
  149.8000  142.6694  156.4044 H   0  0  0  0  0  0  0  0  0  0  0  0
  149.1960  142.4458  154.4522 H   0  0  0  0  0  0  0  0  0  0  0  0
  149.5318  140.7722  154.9028 H   0  0  0  0  0  0  0  0  0  0  0  0
  147.6765  141.8124  152.8114 H   0  0  0  0  0  0  0  0  0  0  0  0
  148.5239  140.2720  152.8421 H   0  0  0  0  0  0  0  0  0  0  0  0
  145.8632  140.3495  153.3498 H   0  0  0  0  0  0  0  0  0  0  0  0
  146.9103  139.2970  154.2822 H   0  0  0  0  0  0  0  0  0  0  0  0
  146.0794  140.3957  156.0871 H   0  0  0  0  0  0  0  0  0  0  0  0
  146.2160  143.4725  156.8617 H   0  0  0  0  0  0  0  0  0  0  0  0
  144.9731  142.3554  157.4052 H   0  0  0  0  0  0  0  0  0  0  0  0
  144.5232  143.8082  156.5334 H   0  0  0  0  0  0  0  0  0  0  0  0
  146.6244  143.7615  154.2507 H   0  0  0  0  0  0  0  0  0  0  0  0
  144.9032  144.0789  154.1287 H   0  0  0  0  0  0  0  0  0  0  0  0
  145.6219  142.8293  153.1365 H   0  0  0  0  0  0  0  0  0  0  0  0
  144.1745  141.1192  154.2560 H   0  0  0  0  0  0  0  0  0  0  0  0
  153.4492  141.0563  159.5348 H   0  0  0  0  0  0  0  0  0  0  0  0
  154.4446  141.2740  161.7838 H   0  0  0  0  0  0  0  0  0  0  0  0
  152.2364  144.6544  162.6424 H   0  0  0  0  0  0  0  0  0  0  0  0
  151.1231  144.6155  160.4180 H   0  0  0  0  0  0  0  0  0  0  0  0
  1  2  1  0  0  0  0
  1 23  1  0  0  0  0
  1 24  1  0  0  0  0
  1 25  1  0  0  0  0
  2  3  1  0  0  0  0
  2  4  1  0  0  0  0
  2 17  1  0  0  0  0
  3 26  1  0  0  0  0
  3 27  1  0  0  0  0
  3 28  1  0  0  0  0
  4  5  1  0  0  0  0
  4 29  1  0  0  0  0
  4 30  1  0  0  0  0
  5  6  1  0  0  0  0
  5 31  1  0  0  0  0
  6  7  2  0  0  0  0
  6  8  1  0  0  0  0
  8 12  1  0  0  0  0
  8  9  1  0  0  0  0
  9 10  1  0  0  0  0
  9 32  1  0  0  0  0
  9 33  1  0  0  0  0
 10 11  1  0  0  0  0
 10 34  1  0  0  0  0
 10 35  1  0  0  0  0
 11 12  1  0  0  0  0
 11 36  1  0  0  0  0
 11 37  1  0  0  0  0
 12 13  1  0  0  0  0
 12 38  1  0  0  0  0
 13 14  1  0  0  0  0
 13 15  1  0  0  0  0
 13 16  1  0  0  0  0
 14 39  1  0  0  0  0
 14 40  1  0  0  0  0
 14 41  1  0  0  0  0
 15 42  1  0  0  0  0
 15 43  1  0  0  0  0
 15 44  1  0  0  0  0
 16 45  1  0  0  0  0
 17 22  1  0  0  0  0
 17 18  2  0  0  0  0
 18 19  1  0  0  0  0
 18 46  1  0  0  0  0
 19 20  2  0  0  0  0
 19 47  1  0  0  0  0
 20 21  1  0  0  0  0
 21 22  2  0  0  0  0
 21 48  1  0  0  0  0
 22 49  1  0  0  0  0
M  END
> <s_m_source_file>
AV-unprocessed.smi

> <i_m_source_file_index>
2331

> <i_lp_mmshare_version>
43012

> <i_f3d_flags>
0

> <s_epik_input>
W2NIXTFbY0hdbltjSF1bY0hdYzFDKFtDSDNdKShbQ0gzXSlbQ0gyXVtOSF1DKD1PKU4yW0NIMl1bQ0gyXVtDSDJdW0NASF0yQyhbQ0gzXSkoW0NIM10pW09IXQ==

> <s_epik_cmdline>
J2VwaWtfcHl0aG9uJywgJy1waCcsICc3LjAnLCAnLXRuJywgJzgnLCAnLW1hJywgJzIwMCcsICctbWV0YWxfYmluZGluZycsICctaW1hZScsICc8aW5maWxlLm1hZT4nLCAnLW9tYWUnLCAnPG91dGZpbGUubWFlPic=

> <r_epik_Ionization_Penalty>
0.0581496

> <r_epik_Ionization_Penalty_Charging>
0

> <r_epik_Ionization_Penalty_Neutral>
0.0581496

> <r_epik_State_Penalty>
0.0501956

> <r_epik_Charging_Adjusted_Penalty>
0.0501956

> <i_epik_Tot_Q>
0

> <i_epik_Tot_abs_Q>
0

> <r_epik_Metal_State_Penalty>
0.0456895

> <b_epik_Metal_Only>
0

> <s_lp_Force_Field>
OPLS_2005

> <r_lp_Energy>
50.0165

> <b_lp_Chiralities_Consistent>
1

> <s_lp_Variant>
AV-unprocessed.smi:2331-2

> <Gold.Version>
5.8.1

> <Gold.Id.Protein>
6NUR|6NUR_protein|mol2

> <Gold.PLP.Fitness>
47.0820

> <Gold.PLP.PLP>
-44.8592

> <Gold.PLP.part.hbond>
-2.6877

> <Gold.PLP.part.metal>
0.0000

> <Gold.PLP.part.buried>
-4.9727

> <Gold.PLP.part.nonpolar>
-36.8495

> <Gold.PLP.part.repulsive>
0.1351

> <Gold.PLP.ligand.clash>
0.0000

> <Gold.PLP.ligand.torsion>
0.5247

> <Gold.PLP.Chemscore.Hbond>
1.0068

> <Gold.PLP.Chemscore.CHOScore>
0.0000

> <Gold.PLP.Chemscore.Metal>
0.0000

> <Gold.Chemscore.Hbonds>
donor molecule, donor type, donor heavy atom, donor atom, acceptor molecule, acceptor atom, score
      L1  H     5    31       P1  8028  0.03
      L1  H    16    45       P1 10175  1.00

> <Gold.PLP.Chemscore.Internal.Correction>
0.2519

> <Gold.Rescore>
     Score         DG    S(hbond)    S(metal)    S(lipo)     H(rot)  DE(clash)    DE(int)     intcor
     16.91     -17.55       0.86        0.00     120.90       1.94       0.09       0.55       ----

> <Gold.Chemscore.Fitness>
16.9060

> <Gold.Chemscore.DG>
-17.5520

> <Gold.Chemscore.ZeroCoef>
-5.4800

> <Gold.Chemscore.Hbond>
0.8625

> <Gold.Chemscore.Metal>
0.0000

> <Gold.Chemscore.Lipo>
120.8967

> <Gold.Chemscore.Internal_Hbond>
0.0000

> <Gold.Chemscore.DEClash>
0.0940

> <Gold.Chemscore.DEInternal>
0.5521

> <Gold.Chemscore.Rot>
1.9350

> <Gold.Chemscore.Internal.Correction>
   9.000000E+99

> <Gold.Chemscore.Hbonds>
donor molecule, donor type, donor heavy atom, donor atom, acceptor molecule, acceptor atom, score
      L1  H     5    31       P1  8028  0.04
      L1  H    16    45       P1 10175  0.75

> <Gold.Chemscore.Hbond.Weighted>
-2.8807

> <Gold.Chemscore.Metal.Weighted>
-0.0000

> <Gold.Chemscore.Lipo.Weighted>
-14.1449

> <Gold.Chemscore.Internal_Hbond.Weighted>
0.0000

> <Gold.Chemscore.DEClash.Weighted>
0.0940

> <Gold.Chemscore.DEInternal.Weighted>
0.5521

> <Gold.Chemscore.Rot.Weighted>
4.9536

> <Gold.Chemscore.Internal.Correction.Weighted>
   9.000000E+99

> <Gold.Protein.RotatedTorsions>
[ 6907 6896 6895 6894 ] final  156.80 input  -60.11 | X-H torsion
[ 7974 7965 7964 7962 ] final   42.97 input  175.53 | X-H torsion
[ 8008 7997 7996 7995 ] final -157.00 input   59.86 | X-H torsion
[ 10167 10162 10161 10158 ] final   15.57 input  -65.29 | X-H torsion
[ 10718 10713 10712 10709 ] final   40.67 input   66.30 | X-H torsion
[ 10763 10752 10751 10750 ] final  -77.67 input  -60.55 | X-H torsion
[ 11005 11000 10999 10996 ] final -105.92 input  -57.11 | X-H torsion

> <Gold.Protein.ActiveResidues>
 VAL166  LYS551  ARG553  GLY616  TRP617  ASP618  TYR619  PRO620  LYS621  CYS622 
 ASP623  PHE694  ASN695  SER759  ASP760  ASP761  ALA762  ILE779  LEU786  VAL792 
 PHE793  MET794  SER795  GLU796  ALA797  LYS798  CYS799  TRP800  GLU811  SER814 

> <Gold.Protein.RotatedAtoms>
  152.0244  133.3912  159.4271 H   0  0  0  0  0  0  0  0  0  0  0  0  # atno 6907 bound_to 6896
  150.6887  134.3590  159.4951 H   0  0  0  0  0  0  0  0  0  0  0  0  # atno 6908 bound_to 6896
  152.1368  134.9093  160.0606 H   0  0  0  0  0  0  0  0  0  0  0  0  # atno 6909 bound_to 6896
  146.0695  139.5239  142.9607 H   0  0  0  0  0  0  0  0  0  0  0  0  # atno 7974 bound_to 7965
  155.7258  140.0796  157.2311 H   0  0  0  0  0  0  0  0  0  0  0  0  # atno 8008 bound_to 7997
  154.4039  140.1604  156.2507 H   0  0  0  0  0  0  0  0  0  0  0  0  # atno 8009 bound_to 7997
  155.9154  140.3401  155.6134 H   0  0  0  0  0  0  0  0  0  0  0  0  # atno 8010 bound_to 7997
  140.5858  143.8892  150.6829 H   0  0  0  0  0  0  0  0  0  0  0  0  # atno 10167 bound_to 10162
  157.3848  130.7773  149.7221 H   0  0  0  0  0  0  0  0  0  0  0  0  # atno 10718 bound_to 10713
  154.5159  135.5756  153.6642 H   0  0  0  0  0  0  0  0  0  0  0  0  # atno 10763 bound_to 10752
  152.9907  135.6170  154.2818 H   0  0  0  0  0  0  0  0  0  0  0  0  # atno 10764 bound_to 10752
  154.2735  135.2853  155.2707 H   0  0  0  0  0  0  0  0  0  0  0  0  # atno 10765 bound_to 10752
  141.1030  133.8849  157.1793 H   0  0  0  0  0  0  0  0  0  0  0  0  # atno 11005 bound_to 11000
  145.6417  141.0283  143.1808 LP  0  0  0  0  0  0  0  0  0  0  0  0  # atno 17320 bound_to 7965
  144.7223  139.7990  143.7377 LP  0  0  0  0  0  0  0  0  0  0  0  0  # atno 17321 bound_to 7965
  140.2403  143.3669  152.1492 LP  0  0  0  0  0  0  0  0  0  0  0  0  # atno 17342 bound_to 10162
  139.5197  144.7023  151.5458 LP  0  0  0  0  0  0  0  0  0  0  0  0  # atno 17343 bound_to 10162
  155.9784  130.4052  150.3651 LP  0  0  0  0  0  0  0  0  0  0  0  0  # atno 17370 bound_to 10713
  157.1760  131.0380  151.2772 LP  0  0  0  0  0  0  0  0  0  0  0  0  # atno 17371 bound_to 10713
  139.9889  135.0072  156.9928 LP  0  0  0  0  0  0  0  0  0  0  0  0  # atno 17394 bound_to 11000
  140.4974  134.1132  155.7244 LP  0  0  0  0  0  0  0  0  0  0  0  0  # atno 17395 bound_to 11000

$$$$
