AV-unprocessed.smi:107|AV-procd|sdf|1017|dock2
  -GOLD-   2262018 13D 1   1.00000     0.00000
 Structure written by MMmdl.
 31 32  0  0  0  0  0  0  0  0  1 V2000
  152.5220  142.7792  159.8428 C   0  0  0  0  0  0  0  0  0  0  0  0
  152.0025  142.1667  158.5528 C   0  0  0  0  0  0  0  0  0  0  0  0
  152.2759  140.8867  158.1935 C   0  0  0  0  0  0  0  0  0  0  0  0
  151.8192  140.2983  157.0229 N   0  0  0  0  0  0  0  0  0  0  0  0
  152.1930  138.8718  156.6891 C   0  0  2  0  0  0  0  0  0  0  0  0
  152.7374  138.7581  155.2605 C   0  0  0  0  0  0  0  0  0  0  0  0
  151.6248  138.0153  154.5424 C   0  0  1  0  0  0  0  0  0  0  0  0
  152.1431  137.1976  153.5130 O   0  0  0  0  0  0  0  0  0  0  0  0
  150.9827  137.2001  155.6683 C   0  0  2  0  0  0  0  0  0  0  0  0
  149.5227  136.8126  155.3887 C   0  0  0  0  0  0  0  0  0  0  0  0
  149.4729  135.7452  154.4665 O   0  0  0  0  0  0  0  0  0  0  0  0
  151.0425  138.0882  156.7793 O   0  0  0  0  0  0  0  0  0  0  0  0
  151.0326  141.0576  156.1301 C   0  0  0  0  0  0  0  0  0  0  0  0
  150.5888  140.6116  155.0726 O   0  0  0  0  0  0  0  0  0  0  0  0
  150.7512  142.3723  156.4985 N   0  0  0  0  0  0  0  0  0  0  0  0
  151.1830  143.0005  157.6693 C   0  0  0  0  0  0  0  0  0  0  0  0
  150.8652  144.1690  157.8845 O   0  0  0  0  0  0  0  0  0  0  0  0
  150.1866  142.9179  155.8639 H   0  0  0  0  0  0  0  0  0  0  0  0
  153.1092  142.0659  160.4216 H   0  0  0  0  0  0  0  0  0  0  0  0
  151.6930  143.1136  160.4676 H   0  0  0  0  0  0  0  0  0  0  0  0
  153.1576  143.6388  159.6269 H   0  0  0  0  0  0  0  0  0  0  0  0
  152.8888  140.2935  158.8555 H   0  0  0  0  0  0  0  0  0  0  0  0
  152.9074  138.5201  157.4339 H   0  0  0  0  0  0  0  0  0  0  0  0
  152.9649  139.7315  154.8240 H   0  0  0  0  0  0  0  0  0  0  0  0
  153.6541  138.1672  155.2935 H   0  0  0  0  0  0  0  0  0  0  0  0
  150.9102  138.7247  154.1236 H   0  0  0  0  0  0  0  0  0  0  0  0
  151.4273  136.9072  152.9686 H   0  0  0  0  0  0  0  0  0  0  0  0
  151.5949  136.3213  155.8814 H   0  0  0  0  0  0  0  0  0  0  0  0
  148.9996  136.5474  156.3081 H   0  0  0  0  0  0  0  0  0  0  0  0
  148.9896  137.6530  154.9433 H   0  0  0  0  0  0  0  0  0  0  0  0
  149.4668  136.1036  153.5920 H   0  0  0  0  0  0  0  0  0  0  0  0
  1  2  1  0  0  0  0
  1 19  1  0  0  0  0
  1 20  1  0  0  0  0
  1 21  1  0  0  0  0
  2 16  1  0  0  0  0
  2  3  2  0  0  0  0
  3  4  1  0  0  0  0
  3 22  1  0  0  0  0
  4  5  1  0  0  0  0
  4 13  1  0  0  0  0
  5 12  1  0  0  0  0
  5  6  1  0  0  0  0
  5 23  1  0  0  0  0
  6  7  1  0  0  0  0
  6 24  1  0  0  0  0
  6 25  1  0  0  0  0
  7  8  1  0  0  0  0
  7  9  1  0  0  0  0
  7 26  1  0  0  0  0
  8 27  1  0  0  0  0
  9 10  1  0  0  0  0
  9 12  1  0  0  0  0
  9 28  1  0  0  0  0
 10 11  1  0  0  0  0
 10 29  1  0  0  0  0
 10 30  1  0  0  0  0
 11 31  1  0  0  0  0
 13 14  2  0  0  0  0
 13 15  1  0  0  0  0
 15 18  1  0  0  0  0
 15 16  1  0  0  0  0
 16 17  2  0  0  0  0
M  END
> <s_m_source_file>
AV-unprocessed.smi

> <i_m_source_file_index>
107

> <i_lp_mmshare_version>
43012

> <i_f3d_flags>
0

> <s_epik_input>
Tz1jMVtuSF1jKD1PKW4oW2NIXWMxW0NIM10pW0NAQEhdMltDSDJdW0NAQEhdKFtPSF0pW0NASF0oTzIpW0NIMl1bT0hd

> <s_epik_cmdline>
J2VwaWtfcHl0aG9uJywgJy1waCcsICc3LjAnLCAnLXRuJywgJzgnLCAnLW1hJywgJzIwMCcsICctbWV0YWxfYmluZGluZycsICctaW1hZScsICc8aW5maWxlLm1hZT4nLCAnLW9tYWUnLCAnPG91dGZpbGUubWFlPic=

> <r_lp_tautomer_probability>
0.999537

> <r_epik_Ionization_Penalty>
0.00121888

> <r_epik_Ionization_Penalty_Charging>
0.00121876

> <r_epik_Ionization_Penalty_Neutral>
1.19946e-07

> <r_epik_State_Penalty>
0.000805124

> <r_epik_Charging_Adjusted_Penalty>
0.00202389

> <i_epik_Tot_Q>
0

> <i_epik_Tot_abs_Q>
0

> <r_epik_Metal_State_Penalty>
0.662472

> <b_epik_Metal_Only>
0

> <s_epik_Chemistry_Notes>
This compound contains an acetal/aminal-like group ( X-CH(R)-Y where X, Y are N, S, or O) that may be acid/base labile, releasing an aldehyde.

> <s_lp_Force_Field>
OPLS_2005

> <r_lp_Energy>
24.9707

> <b_lp_Chiralities_Consistent>
1

> <s_lp_Variant>
AV-unprocessed.smi:107-5

> <Gold.Version>
5.8.1

> <Gold.Id.Protein>
6NUR|6NUR_protein|mol2

> <Gold.PLP.Fitness>
42.0690

> <Gold.PLP.PLP>
-30.0058

> <Gold.PLP.part.hbond>
-4.7260

> <Gold.PLP.part.metal>
0.0000

> <Gold.PLP.part.buried>
-3.3148

> <Gold.PLP.part.nonpolar>
-22.4012

> <Gold.PLP.part.repulsive>
1.2177

> <Gold.PLP.ligand.clash>
0.0000

> <Gold.PLP.ligand.torsion>
0.2918

> <Gold.PLP.Chemscore.Hbond>
4.2114

> <Gold.PLP.Chemscore.CHOScore>
0.0000

> <Gold.PLP.Chemscore.Metal>
0.0000

> <Gold.Chemscore.Hbonds>
donor molecule, donor type, donor heavy atom, donor atom, acceptor molecule, acceptor atom, score
      L1  H     8    27       P1  7949  0.77
      L1  H    11    31       P1  7948  1.00
      L1  H    15    18       P1  8028  0.46
      P1  H  7989  7998       L1    14  0.94
      P1  H 10752 10763       L1     8  1.00

> <Gold.PLP.Chemscore.Internal.Correction>
0.0127

> <Gold.Rescore>
     Score         DG    S(hbond)    S(metal)    S(lipo)     H(rot)  DE(clash)    DE(int)     intcor
     13.36     -16.94       3.72        0.00      51.28       2.73       0.04       3.54       ----

> <Gold.Chemscore.Fitness>
13.3614

> <Gold.Chemscore.DG>
-16.9403

> <Gold.Chemscore.ZeroCoef>
-5.4800

> <Gold.Chemscore.Hbond>
3.7236

> <Gold.Chemscore.Metal>
0.0000

> <Gold.Chemscore.Lipo>
51.2839

> <Gold.Chemscore.Internal_Hbond>
0.0000

> <Gold.Chemscore.DEClash>
0.0383

> <Gold.Chemscore.DEInternal>
3.5406

> <Gold.Chemscore.Rot>
2.7253

> <Gold.Chemscore.Internal.Correction>
   9.000000E+99

> <Gold.Chemscore.Hbonds>
donor molecule, donor type, donor heavy atom, donor atom, acceptor molecule, acceptor atom, score
      L1  H     8    27       P1  7949  0.66
      L1  H    11    31       P1  7948  0.55
      L1  H    15    18       P1  8028  0.44
      P1  H  7989  7998       L1    14  0.86
      P1  H 10752 10763       L1     8  0.53

> <Gold.Chemscore.Hbond.Weighted>
-12.4369

> <Gold.Chemscore.Metal.Weighted>
-0.0000

> <Gold.Chemscore.Lipo.Weighted>
-6.0002

> <Gold.Chemscore.Internal_Hbond.Weighted>
0.0000

> <Gold.Chemscore.DEClash.Weighted>
0.0383

> <Gold.Chemscore.DEInternal.Weighted>
3.5406

> <Gold.Chemscore.Rot.Weighted>
6.9769

> <Gold.Chemscore.Internal.Correction.Weighted>
   9.000000E+99

> <Gold.Protein.RotatedTorsions>
[ 6907 6896 6895 6894 ] final  -36.56 input  -60.11 | X-H torsion
[ 7974 7965 7964 7962 ] final -139.08 input  175.53 | X-H torsion
[ 8008 7997 7996 7995 ] final    3.37 input   59.86 | X-H torsion
[ 10167 10162 10161 10158 ] final  -12.05 input  -65.29 | X-H torsion
[ 10718 10713 10712 10709 ] final   95.56 input   66.30 | X-H torsion
[ 10763 10752 10751 10750 ] final   16.44 input  -60.55 | X-H torsion
[ 11005 11000 10999 10996 ] final   74.31 input  -57.11 | X-H torsion

> <Gold.Protein.ActiveResidues>
 VAL166  LYS551  ARG553  GLY616  TRP617  ASP618  TYR619  PRO620  LYS621  CYS622 
 ASP623  PHE694  ASN695  SER759  ASP760  ASP761  ALA762  ILE779  LEU786  VAL792 
 PHE793  MET794  SER795  GLU796  ALA797  LYS798  CYS799  TRP800  GLU811  SER814 

> <Gold.Protein.RotatedAtoms>
  151.0257  134.9502  159.8083 H   0  0  0  0  0  0  0  0  0  0  0  0  # atno 6907 bound_to 6896
  152.5335  134.2846  159.9030 H   0  0  0  0  0  0  0  0  0  0  0  0  # atno 6908 bound_to 6896
  151.2854  133.4148  159.2663 H   0  0  0  0  0  0  0  0  0  0  0  0  # atno 6909 bound_to 6896
  144.8706  140.6361  143.5269 H   0  0  0  0  0  0  0  0  0  0  0  0  # atno 7974 bound_to 7965
  154.7028  140.2676  155.6703 H   0  0  0  0  0  0  0  0  0  0  0  0  # atno 8008 bound_to 7997
  156.2770  140.2769  156.1568 H   0  0  0  0  0  0  0  0  0  0  0  0  # atno 8009 bound_to 7997
  155.0741  140.0372  157.2608 H   0  0  0  0  0  0  0  0  0  0  0  0  # atno 8010 bound_to 7997
  140.7152  143.5574  150.9234 H   0  0  0  0  0  0  0  0  0  0  0  0  # atno 10167 bound_to 10162
  157.6937  131.0549  150.4357 H   0  0  0  0  0  0  0  0  0  0  0  0  # atno 10718 bound_to 10713
  153.1430  135.6764  153.8997 H   0  0  0  0  0  0  0  0  0  0  0  0  # atno 10763 bound_to 10752
  153.8448  135.3100  155.3430 H   0  0  0  0  0  0  0  0  0  0  0  0  # atno 10764 bound_to 10752
  154.7803  135.4892  153.9914 H   0  0  0  0  0  0  0  0  0  0  0  0  # atno 10765 bound_to 10752
  139.9397  134.7422  156.1132 H   0  0  0  0  0  0  0  0  0  0  0  0  # atno 11005 bound_to 11000
  145.4138  139.1575  143.4111 LP  0  0  0  0  0  0  0  0  0  0  0  0  # atno 17320 bound_to 7965
  146.2927  140.4243  142.8733 LP  0  0  0  0  0  0  0  0  0  0  0  0  # atno 17321 bound_to 7965
  139.9299  143.6506  152.3078 LP  0  0  0  0  0  0  0  0  0  0  0  0  # atno 17342 bound_to 10162
  139.6953  144.7642  151.1368 LP  0  0  0  0  0  0  0  0  0  0  0  0  # atno 17343 bound_to 10162
  156.4720  130.4055  149.6512 LP  0  0  0  0  0  0  0  0  0  0  0  0  # atno 17370 bound_to 10713
  156.3589  130.7471  151.2441 LP  0  0  0  0  0  0  0  0  0  0  0  0  # atno 17371 bound_to 10713
  141.1027  133.6671  156.2791 LP  0  0  0  0  0  0  0  0  0  0  0  0  # atno 17394 bound_to 11000
  140.5983  134.5581  157.5513 LP  0  0  0  0  0  0  0  0  0  0  0  0  # atno 17395 bound_to 11000

$$$$
