AV-unprocessed.smi:2699|AV-procd|sdf|10423|dock5
  -GOLD-   2272014463D 1   1.00000     0.00000
 Structure written by MMmdl.
 42 44  0  0  0  0  0  0  0  0  2 V2000
  151.3658  144.6326  160.4237 C   0  0  0  0  0  0  0  0  0  0  0  0
  152.2994  143.4374  160.5788 C   0  0  0  0  0  0  0  0  0  0  0  0
  152.9062  143.1920  161.7609 C   0  0  0  0  0  0  0  0  0  0  0  0
  153.7385  142.0951  161.9416 C   0  0  0  0  0  0  0  0  0  0  0  0
  154.3052  141.8650  163.0326 O   0  5  0  0  0  0  0  0  0  0  0  0
  153.8986  141.2673  160.8381 C   0  0  0  0  0  0  0  0  0  0  0  0
  153.2667  141.4759  159.5409 C   0  0  0  0  0  0  0  0  0  0  0  0
  153.4353  140.7001  158.5984 O   0  0  0  0  0  0  0  0  0  0  0  0
  152.4877  142.5907  159.4538 N   0  0  0  0  0  0  0  0  0  0  0  0
  151.8504  142.9130  158.1561 C   0  0  0  0  0  0  0  0  0  0  0  0
  150.7753  141.8961  157.7221 C   0  0  0  0  0  0  0  0  0  0  0  0
  149.5938  142.2283  157.6397 O   0  0  0  0  0  0  0  0  0  0  0  0
  151.1567  140.6443  157.4248 N   0  0  0  0  0  0  0  0  0  0  0  0
  150.2882  139.5517  156.9983 C   0  0  0  0  0  0  0  0  0  0  0  0
  150.1387  139.5054  155.4667 C   0  0  0  0  0  0  0  0  0  0  0  0
  149.6118  140.8699  155.0137 C   0  0  0  0  0  0  0  0  0  0  0  0
  148.2141  141.3381  155.3407 C   0  0  0  0  0  0  0  0  0  0  0  0
  148.6051  141.0608  153.9028 C   0  0  0  0  0  0  0  0  0  0  0  0
  151.3927  139.0130  154.7139 C   0  0  0  0  0  0  0  0  0  0  0  0
  150.8317  137.5921  154.7414 C   0  0  0  0  0  0  0  0  0  0  0  0
  149.4537  138.2272  154.9201 C   0  0  0  0  0  0  0  0  0  0  0  0
  151.0986  145.0413  161.3986 H   0  0  0  0  0  0  0  0  0  0  0  0
  150.4318  144.3621  159.9322 H   0  0  0  0  0  0  0  0  0  0  0  0
  151.8517  145.4265  159.8561 H   0  0  0  0  0  0  0  0  0  0  0  0
  152.7350  143.8663  162.5879 H   0  0  0  0  0  0  0  0  0  0  0  0
  154.5357  140.4000  160.9353 H   0  0  0  0  0  0  0  0  0  0  0  0
  151.4198  143.9127  158.1611 H   0  0  0  0  0  0  0  0  0  0  0  0
  152.6092  142.9698  157.3741 H   0  0  0  0  0  0  0  0  0  0  0  0
  152.1401  140.4296  157.5043 H   0  0  0  0  0  0  0  0  0  0  0  0
  150.6875  138.6053  157.3663 H   0  0  0  0  0  0  0  0  0  0  0  0
  149.3152  139.6785  157.4748 H   0  0  0  0  0  0  0  0  0  0  0  0
  150.3810  141.6401  155.0414 H   0  0  0  0  0  0  0  0  0  0  0  0
  147.5387  140.6332  155.8219 H   0  0  0  0  0  0  0  0  0  0  0  0
  148.0927  142.3770  155.6400 H   0  0  0  0  0  0  0  0  0  0  0  0
  148.7413  141.9199  153.2491 H   0  0  0  0  0  0  0  0  0  0  0  0
  148.1788  140.1838  153.4225 H   0  0  0  0  0  0  0  0  0  0  0  0
  151.4653  139.4088  153.6994 H   0  0  0  0  0  0  0  0  0  0  0  0
  152.3318  139.1403  155.2535 H   0  0  0  0  0  0  0  0  0  0  0  0
  150.9610  137.0319  153.8151 H   0  0  0  0  0  0  0  0  0  0  0  0
  151.1561  137.0199  155.6119 H   0  0  0  0  0  0  0  0  0  0  0  0
  148.8132  137.7083  155.6340 H   0  0  0  0  0  0  0  0  0  0  0  0
  148.9414  138.3581  153.9675 H   0  0  0  0  0  0  0  0  0  0  0  0
  1  2  1  0  0  0  0
  1 22  1  0  0  0  0
  1 23  1  0  0  0  0
  1 24  1  0  0  0  0
  2  9  1  0  0  0  0
  2  3  2  0  0  0  0
  3  4  1  0  0  0  0
  3 25  1  0  0  0  0
  4  5  1  0  0  0  0
  4  6  2  0  0  0  0
  6  7  1  0  0  0  0
  6 26  1  0  0  0  0
  7  8  2  0  0  0  0
  7  9  1  0  0  0  0
  9 10  1  0  0  0  0
 10 11  1  0  0  0  0
 10 27  1  0  0  0  0
 10 28  1  0  0  0  0
 11 12  2  0  0  0  0
 11 13  1  0  0  0  0
 13 14  1  0  0  0  0
 13 29  1  0  0  0  0
 14 15  1  0  0  0  0
 14 30  1  0  0  0  0
 14 31  1  0  0  0  0
 15 21  1  0  0  0  0
 15 16  1  0  0  0  0
 15 19  1  0  0  0  0
 16 18  1  0  0  0  0
 16 17  1  0  0  0  0
 16 32  1  0  0  0  0
 17 18  1  0  0  0  0
 17 33  1  0  0  0  0
 17 34  1  0  0  0  0
 18 35  1  0  0  0  0
 18 36  1  0  0  0  0
 19 20  1  0  0  0  0
 19 37  1  0  0  0  0
 19 38  1  0  0  0  0
 20 21  1  0  0  0  0
 20 39  1  0  0  0  0
 20 40  1  0  0  0  0
 21 41  1  0  0  0  0
 21 42  1  0  0  0  0
M  CHG  1   5  -1
M  END
> <s_m_source_file>
AV-unprocessed.smi

> <i_m_source_file_index>
2699

> <i_lp_mmshare_version>
43012

> <i_f3d_flags>
0

> <s_epik_input>
W0NIM11jMVtjSF1jKFtPSF0pW2NIXWMoPU8pbjFbQ0gyXUMoPU8pW05IXVtDSDJdQzIoW0NIXTNbQ0gyXVtDSDJdMylbQ0gyXVtDSDJdW0NIMl0y

> <s_epik_cmdline>
J2VwaWtfcHl0aG9uJywgJy1waCcsICc3LjAnLCAnLXRuJywgJzgnLCAnLW1hJywgJzIwMCcsICctbWV0YWxfYmluZGluZycsICctaW1hZScsICc8aW5maWxlLm1hZT4nLCAnLW9tYWUnLCAnPG91dGZpbGUubWFlPic=

> <r_lp_tautomer_probability>
1

> <r_epik_Ionization_Penalty>
0.201472

> <r_epik_Ionization_Penalty_Charging>
0.201472

> <r_epik_Ionization_Penalty_Neutral>
1.82775e-08

> <r_epik_State_Penalty>
0.183831

> <r_epik_Charging_Adjusted_Penalty>
0.385303

> <i_epik_Tot_Q>
-1

> <i_epik_Tot_abs_Q>
1

> <r_epik_Metal_State_Penalty>
0.183831

> <b_epik_Metal_Only>
0

> <s_lp_Force_Field>
OPLS_2005

> <r_lp_Energy>
45.0719

> <b_lp_Chiralities_Consistent>
1

> <s_lp_Variant>
AV-unprocessed.smi:2699-1

> <Gold.Version>
5.8.1

> <Gold.Id.Protein>
6NUR|6NUR_protein|mol2

> <Gold.PLP.Fitness>
46.6511

> <Gold.PLP.PLP>
-45.4573

> <Gold.PLP.part.hbond>
-2.0000

> <Gold.PLP.part.metal>
0.0000

> <Gold.PLP.part.buried>
-1.5888

> <Gold.PLP.part.nonpolar>
-41.1141

> <Gold.PLP.part.repulsive>
0.2177

> <Gold.PLP.ligand.clash>
0.0000

> <Gold.PLP.ligand.torsion>
1.2190

> <Gold.PLP.Chemscore.Hbond>
0.6224

> <Gold.PLP.Chemscore.CHOScore>
0.0000

> <Gold.PLP.Chemscore.Metal>
0.0000

> <Gold.Chemscore.Hbonds>
donor molecule, donor type, donor heavy atom, donor atom, acceptor molecule, acceptor atom, score
      P1  H  7997  8008       L1     8  0.67

> <Gold.PLP.Chemscore.Internal.Correction>
1.7646

> <Gold.Rescore>
     Score         DG    S(hbond)    S(metal)    S(lipo)     H(rot)  DE(clash)    DE(int)     intcor
     14.62     -17.05       0.81        0.00     113.10       1.71       0.58       1.84       ----

> <Gold.Chemscore.Fitness>
14.6205

> <Gold.Chemscore.DG>
-17.0458

> <Gold.Chemscore.ZeroCoef>
-5.4800

> <Gold.Chemscore.Hbond>
0.8109

> <Gold.Chemscore.Metal>
0.0000

> <Gold.Chemscore.Lipo>
113.1048

> <Gold.Chemscore.Internal_Hbond>
0.0000

> <Gold.Chemscore.DEClash>
0.5818

> <Gold.Chemscore.DEInternal>
1.8435

> <Gold.Chemscore.Rot>
1.7094

> <Gold.Chemscore.Internal.Correction>
   9.000000E+99

> <Gold.Chemscore.Hbonds>
donor molecule, donor type, donor heavy atom, donor atom, acceptor molecule, acceptor atom, score
      P1  H  7997  8008       L1     8  0.63

> <Gold.Chemscore.Hbond.Weighted>
-2.7085

> <Gold.Chemscore.Metal.Weighted>
-0.0000

> <Gold.Chemscore.Lipo.Weighted>
-13.2333

> <Gold.Chemscore.Internal_Hbond.Weighted>
0.0000

> <Gold.Chemscore.DEClash.Weighted>
0.5818

> <Gold.Chemscore.DEInternal.Weighted>
1.8435

> <Gold.Chemscore.Rot.Weighted>
4.3760

> <Gold.Chemscore.Internal.Correction.Weighted>
   9.000000E+99

> <Gold.Protein.RotatedTorsions>
[ 6907 6896 6895 6894 ] final   -1.79 input  -60.11 | X-H torsion
[ 7974 7965 7964 7962 ] final  145.14 input  175.53 | X-H torsion
[ 8008 7997 7996 7995 ] final  -90.77 input   59.86 | X-H torsion
[ 10167 10162 10161 10158 ] final  -89.64 input  -65.29 | X-H torsion
[ 10718 10713 10712 10709 ] final   49.30 input   66.30 | X-H torsion
[ 10763 10752 10751 10750 ] final  -16.42 input  -60.55 | X-H torsion
[ 11005 11000 10999 10996 ] final  172.81 input  -57.11 | X-H torsion

> <Gold.Protein.ActiveResidues>
 VAL166  LYS551  ARG553  GLY616  TRP617  ASP618  TYR619  PRO620  LYS621  CYS622 
 ASP623  PHE694  ASN695  SER759  ASP760  ASP761  ALA762  ILE779  LEU786  VAL792 
 PHE793  MET794  SER795  GLU796  ALA797  LYS798  CYS799  TRP800  GLU811  SER814 

> <Gold.Protein.RotatedAtoms>
  151.5404  135.1068  159.9924 H   0  0  0  0  0  0  0  0  0  0  0  0  # atno 6907 bound_to 6896
  152.4538  133.7677  159.6792 H   0  0  0  0  0  0  0  0  0  0  0  0  # atno 6908 bound_to 6896
  150.8474  133.7773  159.3062 H   0  0  0  0  0  0  0  0  0  0  0  0  # atno 6909 bound_to 6896
  144.8777  139.5747  143.5857 H   0  0  0  0  0  0  0  0  0  0  0  0  # atno 7974 bound_to 7965
  154.7026  140.0527  157.0472 H   0  0  0  0  0  0  0  0  0  0  0  0  # atno 8008 bound_to 7997
  155.0664  140.3195  155.4625 H   0  0  0  0  0  0  0  0  0  0  0  0  # atno 8009 bound_to 7997
  156.2764  140.2089  156.5791 H   0  0  0  0  0  0  0  0  0  0  0  0  # atno 8010 bound_to 7997
  140.3629  143.2833  151.9593 H   0  0  0  0  0  0  0  0  0  0  0  0  # atno 10167 bound_to 10162
  157.4773  130.8293  149.8054 H   0  0  0  0  0  0  0  0  0  0  0  0  # atno 10718 bound_to 10713
  153.5583  135.7010  153.5559 H   0  0  0  0  0  0  0  0  0  0  0  0  # atno 10763 bound_to 10752
  153.3452  135.4010  155.1603 H   0  0  0  0  0  0  0  0  0  0  0  0  # atno 10764 bound_to 10752
  154.8651  135.3752  154.5099 H   0  0  0  0  0  0  0  0  0  0  0  0  # atno 10765 bound_to 10752
  140.3337  134.7335  157.4153 H   0  0  0  0  0  0  0  0  0  0  0  0  # atno 11005 bound_to 11000
  146.2974  139.7319  142.9117 LP  0  0  0  0  0  0  0  0  0  0  0  0  # atno 17320 bound_to 7965
  145.4011  141.0385  143.3070 LP  0  0  0  0  0  0  0  0  0  0  0  0  # atno 17321 bound_to 7965
  139.4812  144.5977  151.7661 LP  0  0  0  0  0  0  0  0  0  0  0  0  # atno 17342 bound_to 10162
  140.5110  144.1025  150.5995 LP  0  0  0  0  0  0  0  0  0  0  0  0  # atno 17343 bound_to 10162
  156.0103  130.3836  150.2287 LP  0  0  0  0  0  0  0  0  0  0  0  0  # atno 17370 bound_to 10713
  157.0471  131.0052  151.3265 LP  0  0  0  0  0  0  0  0  0  0  0  0  # atno 17371 bound_to 10713
  140.0839  134.5693  155.8512 LP  0  0  0  0  0  0  0  0  0  0  0  0  # atno 17394 bound_to 11000
  141.2057  133.6649  156.6195 LP  0  0  0  0  0  0  0  0  0  0  0  0  # atno 17395 bound_to 11000

$$$$
