AV-unprocessed.smi:234|AV-procd|sdf|1790|dock4
  -GOLD-   2262020353D 1   1.00000     0.00000
 Structure written by MMmdl.
 59 62  0  0  0  0  0  0  0  0  1 V2000
  153.0533  142.2965  161.0451 C   0  0  0  0  0  0  0  0  0  0  0  0
  153.5607  141.4589  159.8693 C   0  0  0  0  0  0  0  0  0  0  0  0
  153.0779  142.0242  158.6625 O   0  0  0  0  0  0  0  0  0  0  0  0
  151.7108  141.7289  158.4216 C   0  0  1  0  0  0  0  0  0  0  0  0
  151.0853  142.5086  157.2619 C   0  0  0  0  0  0  0  0  0  0  0  0
  150.3272  141.2147  156.9537 C   0  0  1  0  0  0  0  0  0  0  0  0
  150.1347  140.9693  155.5221 N   0  0  0  0  0  0  0  0  0  0  0  0
  149.0339  141.6801  154.8844 C   0  0  0  0  0  0  0  0  0  0  0  0
  150.1378  139.6684  155.1483 C   0  0  0  0  0  0  0  0  0  0  0  0
  150.9793  139.2383  154.1707 N   0  0  0  0  0  0  0  0  0  0  0  0
  150.9775  137.9531  153.8045 C   0  0  0  0  0  0  0  0  0  0  0  0
  150.2334  136.9508  154.2779 N   0  0  0  0  0  0  0  0  0  0  0  0
  149.3944  137.3801  155.2641 C   0  0  0  0  0  0  0  0  0  0  0  0
  149.2897  138.7087  155.7614 C   0  0  0  0  0  0  0  0  0  0  0  0
  148.3332  138.7686  156.7667 N   0  0  0  0  0  0  0  0  0  0  0  0
  147.8926  137.5432  156.8559 C   0  0  0  0  0  0  0  0  0  0  0  0
  148.4697  136.6458  155.9850 N   0  0  0  0  0  0  0  0  0  0  0  0
  148.1661  135.2291  155.8633 C   0  0  0  0  0  0  0  0  0  0  0  0
  149.3698  134.3110  156.1842 C   0  0  2  0  0  0  0  0  0  0  0  0
  149.9574  134.7380  157.4033 O   0  0  0  0  0  0  0  0  0  0  0  0
  150.4509  134.3094  155.1129 C   0  0  0  0  0  0  0  0  0  0  0  0
  151.1262  132.9612  155.3292 C   0  0  0  0  0  0  0  0  0  0  0  0
  150.0618  132.0824  155.6650 O   0  0  0  0  0  0  0  0  0  0  0  0
  148.9856  132.8146  156.2498 C   0  0  1  0  0  0  0  0  0  0  0  0
  148.6357  132.2546  157.6381 C   0  0  0  0  0  0  0  0  0  0  0  0
  151.4966  140.4255  157.6127 C   0  0  0  0  0  0  0  0  0  0  0  0
  152.6741  140.0065  156.7129 C   0  0  0  0  0  0  0  0  0  0  0  0
  151.1070  139.2008  158.4401 C   0  0  0  0  0  0  0  0  0  0  0  0
  153.4013  141.8873  161.9935 H   0  0  0  0  0  0  0  0  0  0  0  0
  151.9635  142.3170  161.0687 H   0  0  0  0  0  0  0  0  0  0  0  0
  153.4070  143.3253  160.9744 H   0  0  0  0  0  0  0  0  0  0  0  0
  154.6514  141.4430  159.8664 H   0  0  0  0  0  0  0  0  0  0  0  0
  153.2152  140.4294  159.9719 H   0  0  0  0  0  0  0  0  0  0  0  0
  151.1001  141.7575  159.3275 H   0  0  0  0  0  0  0  0  0  0  0  0
  150.4551  143.3455  157.5633 H   0  0  0  0  0  0  0  0  0  0  0  0
  151.8060  142.7977  156.4951 H   0  0  0  0  0  0  0  0  0  0  0  0
  149.4067  141.1537  157.5385 H   0  0  0  0  0  0  0  0  0  0  0  0
  148.9837  141.4605  153.8171 H   0  0  0  0  0  0  0  0  0  0  0  0
  149.1600  142.7573  154.9920 H   0  0  0  0  0  0  0  0  0  0  0  0
  148.0820  141.4014  155.3377 H   0  0  0  0  0  0  0  0  0  0  0  0
  151.6700  137.6905  153.0186 H   0  0  0  0  0  0  0  0  0  0  0  0
  147.1245  137.2595  157.5606 H   0  0  0  0  0  0  0  0  0  0  0  0
  147.3279  134.9971  156.5217 H   0  0  0  0  0  0  0  0  0  0  0  0
  147.8135  135.0481  154.8470 H   0  0  0  0  0  0  0  0  0  0  0  0
  150.1962  135.6485  157.3193 H   0  0  0  0  0  0  0  0  0  0  0  0
  149.9990  134.3276  154.1201 H   0  0  0  0  0  0  0  0  0  0  0  0
  151.1416  135.1508  155.1822 H   0  0  0  0  0  0  0  0  0  0  0  0
  151.6692  132.6154  154.4496 H   0  0  0  0  0  0  0  0  0  0  0  0
  151.8253  133.0091  156.1652 H   0  0  0  0  0  0  0  0  0  0  0  0
  148.1318  132.6432  155.5929 H   0  0  0  0  0  0  0  0  0  0  0  0
  147.8200  132.8165  158.0937 H   0  0  0  0  0  0  0  0  0  0  0  0
  149.4905  132.2886  158.3139 H   0  0  0  0  0  0  0  0  0  0  0  0
  148.3199  131.2138  157.5645 H   0  0  0  0  0  0  0  0  0  0  0  0
  152.4264  139.1415  156.0975 H   0  0  0  0  0  0  0  0  0  0  0  0
  153.5493  139.7365  157.3046 H   0  0  0  0  0  0  0  0  0  0  0  0
  152.9800  140.8039  156.0357 H   0  0  0  0  0  0  0  0  0  0  0  0
  150.8609  138.3479  157.8068 H   0  0  0  0  0  0  0  0  0  0  0  0
  150.2353  139.4005  159.0637 H   0  0  0  0  0  0  0  0  0  0  0  0
  151.9170  138.8947  159.1028 H   0  0  0  0  0  0  0  0  0  0  0  0
  1  2  1  0  0  0  0
  1 29  1  0  0  0  0
  1 30  1  0  0  0  0
  1 31  1  0  0  0  0
  2  3  1  0  0  0  0
  2 32  1  0  0  0  0
  2 33  1  0  0  0  0
  3  4  1  0  0  0  0
  4 26  1  0  0  0  0
  4  5  1  0  0  0  0
  4 34  1  0  0  0  0
  5  6  1  0  0  0  0
  5 35  1  0  0  0  0
  5 36  1  0  0  0  0
  6  7  1  0  0  0  0
  6 26  1  0  0  0  0
  6 37  1  0  0  0  0
  7  8  1  0  0  0  0
  7  9  1  0  0  0  0
  8 38  1  0  0  0  0
  8 39  1  0  0  0  0
  8 40  1  0  0  0  0
  9 14  1  0  0  0  0
  9 10  2  0  0  0  0
 10 11  1  0  0  0  0
 11 12  2  0  0  0  0
 11 41  1  0  0  0  0
 12 13  1  0  0  0  0
 13 17  1  0  0  0  0
 13 14  2  0  0  0  0
 14 15  1  0  0  0  0
 15 16  2  0  0  0  0
 16 17  1  0  0  0  0
 16 42  1  0  0  0  0
 17 18  1  0  0  0  0
 18 19  1  0  0  0  0
 18 43  1  0  0  0  0
 18 44  1  0  0  0  0
 19 24  1  0  0  0  0
 19 20  1  0  0  0  0
 19 21  1  0  0  0  0
 20 45  1  0  0  0  0
 21 22  1  0  0  0  0
 21 46  1  0  0  0  0
 21 47  1  0  0  0  0
 22 23  1  0  0  0  0
 22 48  1  0  0  0  0
 22 49  1  0  0  0  0
 23 24  1  0  0  0  0
 24 25  1  0  0  0  0
 24 50  1  0  0  0  0
 25 51  1  0  0  0  0
 25 52  1  0  0  0  0
 25 53  1  0  0  0  0
 26 27  1  0  0  0  0
 26 28  1  0  0  0  0
 27 54  1  0  0  0  0
 27 55  1  0  0  0  0
 27 56  1  0  0  0  0
 28 57  1  0  0  0  0
 28 58  1  0  0  0  0
 28 59  1  0  0  0  0
M  END
> <s_m_source_file>
AV-unprocessed.smi

> <i_m_source_file_index>
234

> <i_lp_mmshare_version>
43012

> <i_f3d_flags>
0

> <s_epik_input>
W0NIM11bQ0gyXU9bQ0BASF0oQzEoW0NIM10pW0NIM10pW0NIMl1bQ0BIXTFOKFtDSDNdKWMobltjSF1uMiljKGMyMyluW2NIXW4zW0NIMl1bQ0BAXTQoW09IXSlbQ0gyXVtDSDJdT1tDQEhdNFtDSDNd

> <s_epik_cmdline>
J2VwaWtfcHl0aG9uJywgJy1waCcsICc3LjAnLCAnLXRuJywgJzgnLCAnLW1hJywgJzIwMCcsICctbWV0YWxfYmluZGluZycsICctaW1hZScsICc8aW5maWxlLm1hZT4nLCAnLW9tYWUnLCAnPG91dGZpbGUubWFlPic=

> <r_lp_tautomer_probability>
1

> <r_epik_Ionization_Penalty>
0.00349132

> <r_epik_Ionization_Penalty_Charging>
0

> <r_epik_Ionization_Penalty_Neutral>
0.00349132

> <r_epik_State_Penalty>
0.00242418

> <r_epik_Charging_Adjusted_Penalty>
0.00242418

> <i_epik_Tot_Q>
0

> <i_epik_Tot_abs_Q>
0

> <r_epik_Metal_State_Penalty>
-0

> <b_epik_Metal_Only>
0

> <s_lp_Force_Field>
OPLS_2005

> <r_lp_Energy>
47.69

> <b_lp_Chiralities_Consistent>
1

> <s_lp_Variant>
AV-unprocessed.smi:234-6

> <Gold.Version>
5.8.1

> <Gold.Id.Protein>
6NUR|6NUR_protein|mol2

> <Gold.PLP.Fitness>
39.3440

> <Gold.PLP.PLP>
-32.3934

> <Gold.PLP.part.hbond>
-2.0000

> <Gold.PLP.part.metal>
0.0000

> <Gold.PLP.part.buried>
-2.9583

> <Gold.PLP.part.nonpolar>
-28.2639

> <Gold.PLP.part.repulsive>
0.9994

> <Gold.PLP.ligand.clash>
0.0269

> <Gold.PLP.ligand.torsion>
1.0701

> <Gold.PLP.Chemscore.Hbond>
2.0000

> <Gold.PLP.Chemscore.CHOScore>
0.7794

> <Gold.PLP.Chemscore.Metal>
0.0000

> <Gold.Chemscore.Hbonds>
donor molecule, donor type, donor heavy atom, donor atom, acceptor molecule, acceptor atom, score
      P1  H  6896  6909       L1    20  0.57
      P1  H  7989  7998       L1    10  1.00
      L1  C    11    41       P1  7949  0.83

> <Gold.PLP.Chemscore.Internal.Correction>
0.7794

> <Gold.Rescore>
     Score         DG    S(hbond)    S(metal)    S(lipo)     H(rot)  DE(clash)    DE(int)     intcor
     10.19     -14.60       1.80        0.00      83.86       2.62       0.29       4.12       ----

> <Gold.Chemscore.Fitness>
10.1898

> <Gold.Chemscore.DG>
-14.6020

> <Gold.Chemscore.ZeroCoef>
-5.4800

> <Gold.Chemscore.Hbond>
1.8033

> <Gold.Chemscore.Metal>
0.0000

> <Gold.Chemscore.Lipo>
83.8571

> <Gold.Chemscore.Internal_Hbond>
0.0000

> <Gold.Chemscore.DEClash>
0.2882

> <Gold.Chemscore.DEInternal>
4.1240

> <Gold.Chemscore.Rot>
2.6219

> <Gold.Chemscore.Internal.Correction>
   9.000000E+99

> <Gold.Chemscore.Hbonds>
donor molecule, donor type, donor heavy atom, donor atom, acceptor molecule, acceptor atom, score
      P1  H  6896  6909       L1    20  0.31
      P1  H  7989  7998       L1    10  0.35

> <Gold.Chemscore.Hbond.Weighted>
-6.0229

> <Gold.Chemscore.Metal.Weighted>
-0.0000

> <Gold.Chemscore.Lipo.Weighted>
-9.8113

> <Gold.Chemscore.Internal_Hbond.Weighted>
0.0000

> <Gold.Chemscore.DEClash.Weighted>
0.2882

> <Gold.Chemscore.DEInternal.Weighted>
4.1240

> <Gold.Chemscore.Rot.Weighted>
6.7121

> <Gold.Chemscore.Internal.Correction.Weighted>
   9.000000E+99

> <Gold.Protein.RotatedTorsions>
[ 6907 6896 6895 6894 ] final   20.79 input  -60.11 | X-H torsion
[ 7974 7965 7964 7962 ] final  -79.38 input  175.53 | X-H torsion
[ 8008 7997 7996 7995 ] final -113.31 input   59.86 | X-H torsion
[ 10167 10162 10161 10158 ] final   20.46 input  -65.29 | X-H torsion
[ 10718 10713 10712 10709 ] final   43.00 input   66.30 | X-H torsion
[ 10763 10752 10751 10750 ] final  -42.68 input  -60.55 | X-H torsion
[ 11005 11000 10999 10996 ] final  121.82 input  -57.11 | X-H torsion

> <Gold.Protein.ActiveResidues>
 VAL166  LYS551  ARG553  GLY616  TRP617  ASP618  TYR619  PRO620  LYS621  CYS622 
 ASP623  PHE694  ASN695  SER759  ASP760  ASP761  ALA762  ILE779  LEU786  VAL792 
 PHE793  MET794  SER795  GLU796  ALA797  LYS798  CYS799  TRP800  GLU811  SER814 

> <Gold.Protein.RotatedAtoms>
  151.9019  135.0375  160.0506 H   0  0  0  0  0  0  0  0  0  0  0  0  # atno 6907 bound_to 6896
  152.2351  133.5085  159.5246 H   0  0  0  0  0  0  0  0  0  0  0  0  # atno 6908 bound_to 6896
  150.7037  134.1080  159.4032 H   0  0  0  0  0  0  0  0  0  0  0  0  # atno 6909 bound_to 6896
  145.5739  140.9461  143.1380 H   0  0  0  0  0  0  0  0  0  0  0  0  # atno 7974 bound_to 7965
  155.0188  140.0393  157.2429 H   0  0  0  0  0  0  0  0  0  0  0  0  # atno 8008 bound_to 7997
  154.7396  140.2746  155.6361 H   0  0  0  0  0  0  0  0  0  0  0  0  # atno 8009 bound_to 7997
  156.2861  140.2668  156.2120 H   0  0  0  0  0  0  0  0  0  0  0  0  # atno 8010 bound_to 7997
  140.5502  143.9523  150.6573 H   0  0  0  0  0  0  0  0  0  0  0  0  # atno 10167 bound_to 10162
  157.4111  130.7915  149.7431 H   0  0  0  0  0  0  0  0  0  0  0  0  # atno 10718 bound_to 10713
  153.9830  135.6714  153.4751 H   0  0  0  0  0  0  0  0  0  0  0  0  # atno 10763 bound_to 10752
  153.0740  135.4959  154.8361 H   0  0  0  0  0  0  0  0  0  0  0  0  # atno 10764 bound_to 10752
  154.7153  135.3106  154.9094 H   0  0  0  0  0  0  0  0  0  0  0  0  # atno 10765 bound_to 10752
  139.9242  134.9640  156.8016 H   0  0  0  0  0  0  0  0  0  0  0  0  # atno 11005 bound_to 11000
  144.7425  139.7410  143.7305 LP  0  0  0  0  0  0  0  0  0  0  0  0  # atno 17320 bound_to 7965
  146.1764  139.4937  142.9894 LP  0  0  0  0  0  0  0  0  0  0  0  0  # atno 17321 bound_to 7965
  140.2946  143.3301  152.1029 LP  0  0  0  0  0  0  0  0  0  0  0  0  # atno 17342 bound_to 10162
  139.5024  144.6734  151.6188 LP  0  0  0  0  0  0  0  0  0  0  0  0  # atno 17343 bound_to 10162
  155.9851  130.3986  150.3279 LP  0  0  0  0  0  0  0  0  0  0  0  0  # atno 17370 bound_to 10713
  157.1417  131.0298  151.2925 LP  0  0  0  0  0  0  0  0  0  0  0  0  # atno 17371 bound_to 10713
  140.6385  133.9840  155.7696 LP  0  0  0  0  0  0  0  0  0  0  0  0  # atno 17394 bound_to 11000
  141.0787  134.0096  157.3419 LP  0  0  0  0  0  0  0  0  0  0  0  0  # atno 17395 bound_to 11000

$$$$
