AV-unprocessed.smi:1013|AV-procd|sdf|4427|dock5
  -GOLD-   22720 2383D 1   1.00000     0.00000
 Structure written by MMmdl.
 30 31  0  0  0  0  0  0  0  0  3 V2000
  151.8159  137.4333  154.1712 O   0  0  0  0  0  0  0  0  0  0  0  0
  151.4966  138.5828  154.5458 C   0  0  0  0  0  0  0  0  0  0  0  0
  152.2943  139.5344  154.7083 O   0  5  0  0  0  0  0  0  0  0  0  0
  150.0039  138.8430  154.8101 C   0  0  1  0  0  0  0  0  0  0  0  0
  149.7927  140.3211  155.2166 C   0  0  0  0  0  0  0  0  0  0  0  0
  150.4823  140.6853  156.4441 N   0  0  0  0  0  0  0  0  0  0  0  0
  151.2364  139.8776  157.2675 C   0  0  0  0  0  0  0  0  0  0  0  0
  151.6600  140.6451  158.3140 C   0  0  0  0  0  0  0  0  0  0  0  0
  151.0957  141.9276  158.0543 C   0  0  0  0  0  0  0  0  0  0  0  0
  151.2181  143.1864  158.8720 C   0  0  0  0  0  0  0  0  0  0  0  0
  150.0279  143.5266  159.3661 F   0  0  0  0  0  0  0  0  0  0  0  0
  152.0658  142.9999  159.8836 F   0  0  0  0  0  0  0  0  0  0  0  0
  151.6732  144.1798  158.1086 F   0  0  0  0  0  0  0  0  0  0  0  0
  150.3847  141.9396  156.9351 N   0  0  0  0  0  0  0  0  0  0  0  0
  149.2186  138.5156  153.5980 N   0  3  0  0  0  0  0  0  0  0  0  0
  147.7534  138.5117  153.7902 C   0  0  0  0  0  0  0  0  0  0  0  0
  146.9628  138.6370  152.5102 C   0  0  0  0  0  0  0  0  0  0  0  0
  147.1106  139.8292  153.4312 C   0  0  0  0  0  0  0  0  0  0  0  0
  149.6649  138.2031  155.6276 H   0  0  0  0  0  0  0  0  0  0  0  0
  150.1486  140.9836  154.4260 H   0  0  0  0  0  0  0  0  0  0  0  0
  148.7311  140.5375  155.3488 H   0  0  0  0  0  0  0  0  0  0  0  0
  151.4090  138.8351  157.0431 H   0  0  0  0  0  0  0  0  0  0  0  0
  152.2758  140.3355  159.1455 H   0  0  0  0  0  0  0  0  0  0  0  0
  149.4312  139.2160  152.9028 H   0  0  0  0  0  0  0  0  0  0  0  0
  147.3756  137.9497  154.6425 H   0  0  0  0  0  0  0  0  0  0  0  0
  147.5093  138.6552  151.5688 H   0  0  0  0  0  0  0  0  0  0  0  0
  145.9907  138.1493  152.4733 H   0  0  0  0  0  0  0  0  0  0  0  0
  146.2320  140.1314  153.9976 H   0  0  0  0  0  0  0  0  0  0  0  0
  147.7524  140.6433  153.0992 H   0  0  0  0  0  0  0  0  0  0  0  0
  149.5171  137.6134  153.2560 H   0  0  0  0  0  0  0  0  0  0  0  0
  1  2  2  0  0  0  0
  2  3  1  0  0  0  0
  2  4  1  0  0  0  0
  4  5  1  0  0  0  0
  4 15  1  0  0  0  0
  4 19  1  0  0  0  0
  5  6  1  0  0  0  0
  5 20  1  0  0  0  0
  5 21  1  0  0  0  0
  6 14  1  0  0  0  0
  6  7  1  0  0  0  0
  7  8  2  0  0  0  0
  7 22  1  0  0  0  0
  8  9  1  0  0  0  0
  8 23  1  0  0  0  0
  9 10  1  0  0  0  0
  9 14  2  0  0  0  0
 10 11  1  0  0  0  0
 10 12  1  0  0  0  0
 10 13  1  0  0  0  0
 15 16  1  0  0  0  0
 15 24  1  0  0  0  0
 15 30  1  0  0  0  0
 16 18  1  0  0  0  0
 16 17  1  0  0  0  0
 16 25  1  0  0  0  0
 17 18  1  0  0  0  0
 17 26  1  0  0  0  0
 17 27  1  0  0  0  0
 18 28  1  0  0  0  0
 18 29  1  0  0  0  0
M  CHG  1   3  -1
M  CHG  1  15   1
M  END
> <s_m_source_file>
AV-unprocessed.smi

> <i_m_source_file_index>
1013

> <i_lp_mmshare_version>
43012

> <i_f3d_flags>
0

> <s_epik_input>
W0NIMl0xW0NIMl1bQ0hdMVtOSF1bQ0BIXShDKD1PKVtPSF0pW0NIMl1uMltjSF1bY0hdYyhuMilDKEYpKEYpRg==

> <s_epik_cmdline>
J2VwaWtfcHl0aG9uJywgJy1waCcsICc3LjAnLCAnLXRuJywgJzgnLCAnLW1hJywgJzIwMCcsICctbWV0YWxfYmluZGluZycsICctaW1hZScsICc8aW5maWxlLm1hZT4nLCAnLW9tYWUnLCAnPG91dGZpbGUubWFlPic=

> <r_lp_tautomer_probability>
1

> <r_epik_Ionization_Penalty>
0.183175

> <r_epik_Ionization_Penalty_Charging>
0.183175

> <r_epik_Ionization_Penalty_Neutral>
3.57035e-11

> <r_epik_State_Penalty>
0.172705

> <r_epik_Charging_Adjusted_Penalty>
0.35588

> <i_epik_Tot_Q>
0

> <i_epik_Tot_abs_Q>
2

> <r_epik_Metal_State_Penalty>
0.172705

> <b_epik_Metal_Only>
0

> <s_lp_Force_Field>
OPLS_2005

> <r_lp_Energy>
10.483

> <b_lp_Chiralities_Consistent>
1

> <s_lp_Variant>
AV-unprocessed.smi:1013-2

> <Gold.Version>
5.8.1

> <Gold.Id.Protein>
6NUR|6NUR_protein|mol2

> <Gold.PLP.Fitness>
54.9513

> <Gold.PLP.PLP>
-39.0959

> <Gold.PLP.part.hbond>
-4.0000

> <Gold.PLP.part.metal>
0.0000

> <Gold.PLP.part.buried>
-4.9849

> <Gold.PLP.part.nonpolar>
-32.1038

> <Gold.PLP.part.repulsive>
0.6194

> <Gold.PLP.ligand.clash>
0.0000

> <Gold.PLP.ligand.torsion>
0.4735

> <Gold.PLP.Chemscore.Hbond>
5.3519

> <Gold.PLP.Chemscore.CHOScore>
0.0000

> <Gold.PLP.Chemscore.Metal>
0.0000

> <Gold.Chemscore.Hbonds>
donor molecule, donor type, donor heavy atom, donor atom, acceptor molecule, acceptor atom, score
      L1  H    15    24       P1  7957  1.00
      L1  H    15    30       P1  7948  1.60
      P1  H  7989  7998       L1     3  0.75
      P1  H 10752 10765       L1     1  1.62

> <Gold.PLP.Chemscore.Internal.Correction>
0.7465

> <Gold.Rescore>
     Score         DG    S(hbond)    S(metal)    S(lipo)     H(rot)  DE(clash)    DE(int)     intcor
     15.13     -16.99       3.33        0.00      60.11       2.60       0.17       1.69       ----

> <Gold.Chemscore.Fitness>
15.1307

> <Gold.Chemscore.DG>
-16.9917

> <Gold.Chemscore.ZeroCoef>
-5.4800

> <Gold.Chemscore.Hbond>
3.3314

> <Gold.Chemscore.Metal>
0.0000

> <Gold.Chemscore.Lipo>
60.1132

> <Gold.Chemscore.Internal_Hbond>
0.0000

> <Gold.Chemscore.DEClash>
0.1730

> <Gold.Chemscore.DEInternal>
1.6879

> <Gold.Chemscore.Rot>
2.5970

> <Gold.Chemscore.Internal.Correction>
   9.000000E+99

> <Gold.Chemscore.Hbonds>
donor molecule, donor type, donor heavy atom, donor atom, acceptor molecule, acceptor atom, score
      L1  H    15    24       P1  7957  0.98
      L1  H    15    30       P1  7948  0.67
      P1  H  7989  7998       L1     3  0.33
      P1  H 10752 10765       L1     1  0.75

> <Gold.Chemscore.Hbond.Weighted>
-11.1268

> <Gold.Chemscore.Metal.Weighted>
-0.0000

> <Gold.Chemscore.Lipo.Weighted>
-7.0332

> <Gold.Chemscore.Internal_Hbond.Weighted>
0.0000

> <Gold.Chemscore.DEClash.Weighted>
0.1730

> <Gold.Chemscore.DEInternal.Weighted>
1.6879

> <Gold.Chemscore.Rot.Weighted>
6.6484

> <Gold.Chemscore.Internal.Correction.Weighted>
   9.000000E+99

> <Gold.Protein.RotatedTorsions>
[ 6907 6896 6895 6894 ] final  139.20 input  -60.11 | X-H torsion
[ 7974 7965 7964 7962 ] final  119.01 input  175.53 | X-H torsion
[ 8008 7997 7996 7995 ] final   19.78 input   59.86 | X-H torsion
[ 10167 10162 10161 10158 ] final  -58.57 input  -65.29 | X-H torsion
[ 10718 10713 10712 10709 ] final   24.61 input   66.30 | X-H torsion
[ 10763 10752 10751 10750 ] final  164.92 input  -60.55 | X-H torsion
[ 11005 11000 10999 10996 ] final   26.26 input  -57.11 | X-H torsion

> <Gold.Protein.ActiveResidues>
 VAL166  LYS551  ARG553  GLY616  TRP617  ASP618  TYR619  PRO620  LYS621  CYS622 
 ASP623  PHE694  ASN695  SER759  ASP760  ASP761  ALA762  ILE779  LEU786  VAL792 
 PHE793  MET794  SER795  GLU796  ALA797  LYS798  CYS799  TRP800  GLU811  SER814 

> <Gold.Protein.RotatedAtoms>
  152.2577  133.5270  159.5362 H   0  0  0  0  0  0  0  0  0  0  0  0  # atno 6907 bound_to 6896
  150.7114  134.0872  159.3928 H   0  0  0  0  0  0  0  0  0  0  0  0  # atno 6908 bound_to 6896
  151.8791  135.0460  160.0537 H   0  0  0  0  0  0  0  0  0  0  0  0  # atno 6909 bound_to 6896
  145.1483  139.3226  143.4580 H   0  0  0  0  0  0  0  0  0  0  0  0  # atno 7974 bound_to 7965
  154.9258  140.3033  155.5193 H   0  0  0  0  0  0  0  0  0  0  0  0  # atno 8008 bound_to 7997
  156.3007  140.2363  156.4249 H   0  0  0  0  0  0  0  0  0  0  0  0  # atno 8009 bound_to 7997
  154.8286  140.0419  157.1449 H   0  0  0  0  0  0  0  0  0  0  0  0  # atno 8010 bound_to 7997
  140.6189  143.2412  151.5529 H   0  0  0  0  0  0  0  0  0  0  0  0  # atno 10167 bound_to 10162
  157.1821  130.6807  149.6117 H   0  0  0  0  0  0  0  0  0  0  0  0  # atno 10718 bound_to 10713
  154.3163  135.2756  155.2541 H   0  0  0  0  0  0  0  0  0  0  0  0  # atno 10763 bound_to 10752
  154.4915  135.5832  153.6466 H   0  0  0  0  0  0  0  0  0  0  0  0  # atno 10764 bound_to 10752
  152.9882  135.6135  154.3344 H   0  0  0  0  0  0  0  0  0  0  0  0  # atno 10765 bound_to 10752
  140.3390  134.2354  155.7692 H   0  0  0  0  0  0  0  0  0  0  0  0  # atno 11005 bound_to 11000
  146.3497  140.1547  142.8592 LP  0  0  0  0  0  0  0  0  0  0  0  0  # atno 17320 bound_to 7965
  145.0458  140.8980  143.5025 LP  0  0  0  0  0  0  0  0  0  0  0  0  # atno 17321 bound_to 7965
  139.5422  144.2617  152.1372 LP  0  0  0  0  0  0  0  0  0  0  0  0  # atno 17342 bound_to 10162
  140.1833  144.4823  150.6517 LP  0  0  0  0  0  0  0  0  0  0  0  0  # atno 17343 bound_to 10162
  155.9723  130.4643  150.6213 LP  0  0  0  0  0  0  0  0  0  0  0  0  # atno 17370 bound_to 10713
  157.3942  131.0800  151.1366 LP  0  0  0  0  0  0  0  0  0  0  0  0  # atno 17371 bound_to 10713
  141.2043  133.7888  157.0291 LP  0  0  0  0  0  0  0  0  0  0  0  0  # atno 17394 bound_to 11000
  140.0797  134.9655  157.1604 LP  0  0  0  0  0  0  0  0  0  0  0  0  # atno 17395 bound_to 11000

$$$$
