AV-unprocessed.smi:2237|AV-procd|sdf|9047|dock7
  -GOLD-   2272012253D 1   1.00000     0.00000
 Structure written by MMmdl.
 55 57  0  0  0  0  0  0  0  0  3 V2000
  153.5002  142.3507  160.9244 C   0  0  0  0  0  0  0  0  0  0  0  0
  152.4980  143.2671  160.2547 C   0  0  0  0  0  0  0  0  0  0  0  0
  152.2260  144.5480  160.7742 C   0  0  0  0  0  0  0  0  0  0  0  0
  151.2834  145.3483  160.1045 C   0  0  0  0  0  0  0  0  0  0  0  0
  150.6564  144.8393  158.9507 C   0  0  0  0  0  0  0  0  0  0  0  0
  150.9869  143.5432  158.4947 C   0  0  0  0  0  0  0  0  0  0  0  0
  150.3039  143.1242  157.3217 N   0  0  0  0  0  0  0  0  0  0  0  0
  150.4167  141.9538  156.6689 C   0  0  0  0  0  0  0  0  0  0  0  0
  151.1397  141.0157  157.0058 O   0  0  0  0  0  0  0  0  0  0  0  0
  149.6312  141.9234  155.5818 N   0  0  0  0  0  0  0  0  0  0  0  0
  149.5430  140.8066  154.6450 C   0  0  2  0  0  0  0  0  0  0  0  0
  148.2885  140.9541  153.7675 C   0  0  0  0  0  0  0  0  0  0  0  0
  148.1318  139.7377  152.8364 C   0  0  0  0  0  0  0  0  0  0  0  0
  148.0404  138.4620  153.6037 N   0  3  2  0  0  0  0  0  0  0  0  0
  146.7587  138.2261  154.3530 C   0  0  2  0  0  0  0  0  0  0  0  0
  145.5877  137.9324  153.3822 C   0  0  0  0  0  0  0  0  0  0  0  0
  144.2512  137.7335  154.1175 C   0  0  0  0  0  0  0  0  0  0  0  0
  143.9202  138.9120  154.9515 N   0  3  1  0  0  0  0  0  0  0  0  0
  142.5850  138.8036  155.5782 C   0  0  0  0  0  0  0  0  0  0  0  0
  144.9874  139.1925  155.9392 C   0  0  0  0  0  0  0  0  0  0  0  0
  146.3410  139.4226  155.2457 C   0  0  0  0  0  0  0  0  0  0  0  0
  149.2783  138.2834  154.4177 C   0  0  0  0  0  0  0  0  0  0  0  0
  149.5138  139.4573  155.3900 C   0  0  0  0  0  0  0  0  0  0  0  0
  151.8966  142.7785  159.1486 N   0  0  0  0  0  0  0  0  0  0  0  0
  154.0014  142.8508  161.7535 H   0  0  0  0  0  0  0  0  0  0  0  0
  154.2608  142.0324  160.2107 H   0  0  0  0  0  0  0  0  0  0  0  0
  153.0004  141.4631  161.3133 H   0  0  0  0  0  0  0  0  0  0  0  0
  152.7246  144.9100  161.6613 H   0  0  0  0  0  0  0  0  0  0  0  0
  151.0449  146.3367  160.4683 H   0  0  0  0  0  0  0  0  0  0  0  0
  149.9308  145.4421  158.4244 H   0  0  0  0  0  0  0  0  0  0  0  0
  149.6645  143.7992  156.9295 H   0  0  0  0  0  0  0  0  0  0  0  0
  149.0707  142.7381  155.3783 H   0  0  0  0  0  0  0  0  0  0  0  0
  150.4156  140.8266  153.9888 H   0  0  0  0  0  0  0  0  0  0  0  0
  147.4002  141.0658  154.3907 H   0  0  0  0  0  0  0  0  0  0  0  0
  148.3609  141.8641  153.1706 H   0  0  0  0  0  0  0  0  0  0  0  0
  147.2970  139.8677  152.1502 H   0  0  0  0  0  0  0  0  0  0  0  0
  149.0075  139.6779  152.1882 H   0  0  0  0  0  0  0  0  0  0  0  0
  146.8899  137.3647  155.0079 H   0  0  0  0  0  0  0  0  0  0  0  0
  145.4888  138.7502  152.6667 H   0  0  0  0  0  0  0  0  0  0  0  0
  145.7723  137.0335  152.7970 H   0  0  0  0  0  0  0  0  0  0  0  0
  143.4564  137.5693  153.3884 H   0  0  0  0  0  0  0  0  0  0  0  0
  144.2957  136.8411  154.7440 H   0  0  0  0  0  0  0  0  0  0  0  0
  142.5428  137.9610  156.2697 H   0  0  0  0  0  0  0  0  0  0  0  0
  141.8137  138.6630  154.8200 H   0  0  0  0  0  0  0  0  0  0  0  0
  142.3441  139.7123  156.1311 H   0  0  0  0  0  0  0  0  0  0  0  0
  144.7226  140.0770  156.5201 H   0  0  0  0  0  0  0  0  0  0  0  0
  145.0625  138.3619  156.6433 H   0  0  0  0  0  0  0  0  0  0  0  0
  147.0757  139.5962  156.0315 H   0  0  0  0  0  0  0  0  0  0  0  0
  146.2938  140.3346  154.6487 H   0  0  0  0  0  0  0  0  0  0  0  0
  149.2814  137.3391  154.9573 H   0  0  0  0  0  0  0  0  0  0  0  0
  150.1250  138.2189  153.7329 H   0  0  0  0  0  0  0  0  0  0  0  0
  150.4565  139.3035  155.9171 H   0  0  0  0  0  0  0  0  0  0  0  0
  148.7410  139.4695  156.1587 H   0  0  0  0  0  0  0  0  0  0  0  0
  148.0659  137.7348  152.9027 H   0  0  0  0  0  0  0  0  0  0  0  0
  143.8787  139.7079  154.3306 H   0  0  0  0  0  0  0  0  0  0  0  0
  1  2  1  0  0  0  0
  1 25  1  0  0  0  0
  1 26  1  0  0  0  0
  1 27  1  0  0  0  0
  2 24  1  0  0  0  0
  2  3  2  0  0  0  0
  3  4  1  0  0  0  0
  3 28  1  0  0  0  0
  4  5  2  0  0  0  0
  4 29  1  0  0  0  0
  5  6  1  0  0  0  0
  5 30  1  0  0  0  0
  6  7  1  0  0  0  0
  6 24  2  0  0  0  0
  7  8  1  0  0  0  0
  7 31  1  0  0  0  0
  8  9  2  0  0  0  0
  8 10  1  0  0  0  0
 10 11  1  0  0  0  0
 10 32  1  0  0  0  0
 11 23  1  0  0  0  0
 11 12  1  0  0  0  0
 11 33  1  0  0  0  0
 12 13  1  0  0  0  0
 12 34  1  0  0  0  0
 12 35  1  0  0  0  0
 13 14  1  0  0  0  0
 13 36  1  0  0  0  0
 13 37  1  0  0  0  0
 14 15  1  0  0  0  0
 14 22  1  0  0  0  0
 14 54  1  0  0  0  0
 15 21  1  0  0  0  0
 15 16  1  0  0  0  0
 15 38  1  0  0  0  0
 16 17  1  0  0  0  0
 16 39  1  0  0  0  0
 16 40  1  0  0  0  0
 17 18  1  0  0  0  0
 17 41  1  0  0  0  0
 17 42  1  0  0  0  0
 18 19  1  0  0  0  0
 18 20  1  0  0  0  0
 18 55  1  0  0  0  0
 19 43  1  0  0  0  0
 19 44  1  0  0  0  0
 19 45  1  0  0  0  0
 20 21  1  0  0  0  0
 20 46  1  0  0  0  0
 20 47  1  0  0  0  0
 21 48  1  0  0  0  0
 21 49  1  0  0  0  0
 22 23  1  0  0  0  0
 22 50  1  0  0  0  0
 22 51  1  0  0  0  0
 23 52  1  0  0  0  0
 23 53  1  0  0  0  0
M  CHG  1  14   1
M  CHG  1  18   1
M  END
> <s_m_source_file>
AV-unprocessed.smi

> <i_m_source_file_index>
2237

> <i_lp_mmshare_version>
43012

> <i_f3d_flags>
0

> <s_epik_input>
W0NIM11jMVtjSF1bY0hdW2NIXWMobjEpW05IXUMoPU8pW05IXVtDSF0yW0NIMl1bQ0gyXU4oW0NIMl1bQ0gyXTIpW0NIXTNbQ0gyXVtDSDJdTihbQ0gzXSlbQ0gyXVtDSDJdMw==

> <s_epik_cmdline>
J2VwaWtfcHl0aG9uJywgJy1waCcsICc3LjAnLCAnLXRuJywgJzgnLCAnLW1hJywgJzIwMCcsICctbWV0YWxfYmluZGluZycsICctaW1hZScsICc8aW5maWxlLm1hZT4nLCAnLW9tYWUnLCAnPG91dGZpbGUubWFlPic=

> <r_epik_Ionization_Penalty>
0.180851

> <r_epik_Ionization_Penalty_Charging>
0.180787

> <r_epik_Ionization_Penalty_Neutral>
6.38624e-05

> <r_epik_State_Penalty>
0.153592

> <r_epik_Charging_Adjusted_Penalty>
0.334379

> <i_epik_Tot_Q>
2

> <i_epik_Tot_abs_Q>
2

> <r_epik_Metal_State_Penalty>
0.153595

> <b_epik_Metal_Only>
0

> <s_lp_Force_Field>
OPLS_2005

> <r_lp_Energy>
43.8269

> <b_lp_Chiralities_Consistent>
1

> <s_lp_Variant>
AV-unprocessed.smi:2237-2

> <Gold.Version>
5.8.1

> <Gold.Id.Protein>
6NUR|6NUR_protein|mol2

> <Gold.PLP.Fitness>
49.6302

> <Gold.PLP.PLP>
-36.4553

> <Gold.PLP.part.hbond>
-4.1295

> <Gold.PLP.part.metal>
0.0000

> <Gold.PLP.part.buried>
1.6529

> <Gold.PLP.part.nonpolar>
-34.1642

> <Gold.PLP.part.repulsive>
0.1993

> <Gold.PLP.ligand.clash>
3.7620

> <Gold.PLP.ligand.torsion>
0.4478

> <Gold.PLP.Chemscore.Hbond>
5.9280

> <Gold.PLP.Chemscore.CHOScore>
0.0000

> <Gold.PLP.Chemscore.Metal>
0.0000

> <Gold.Chemscore.Hbonds>
donor molecule, donor type, donor heavy atom, donor atom, acceptor molecule, acceptor atom, score
      L1  H     7    31       P1  8028  1.00
      L1  H    10    32       P1  8028  0.91
      L1  H    14    54       P1  7948  2.00
      L1  H    18    55       P1 10175  2.00

> <Gold.PLP.Chemscore.Internal.Correction>
0.0486

> <Gold.Rescore>
     Score         DG    S(hbond)    S(metal)    S(lipo)     H(rot)  DE(clash)    DE(int)     intcor
     19.56     -26.15       3.63        0.00     100.11       1.23       2.15       4.45       ----

> <Gold.Chemscore.Fitness>
19.5555

> <Gold.Chemscore.DG>
-26.1547

> <Gold.Chemscore.ZeroCoef>
-5.4800

> <Gold.Chemscore.Hbond>
3.6254

> <Gold.Chemscore.Metal>
0.0000

> <Gold.Chemscore.Lipo>
100.1147

> <Gold.Chemscore.Internal_Hbond>
0.0000

> <Gold.Chemscore.DEClash>
2.1526

> <Gold.Chemscore.DEInternal>
4.4466

> <Gold.Chemscore.Rot>
1.2295

> <Gold.Chemscore.Internal.Correction>
   9.000000E+99

> <Gold.Chemscore.Hbonds>
donor molecule, donor type, donor heavy atom, donor atom, acceptor molecule, acceptor atom, score
      L1  H     7    31       P1  8028  0.92
      L1  H    10    32       P1  8028  0.86
      L1  H    14    54       P1  7948  0.92
      L1  H    18    55       P1 10175  0.91

> <Gold.Chemscore.Hbond.Weighted>
-12.1088

> <Gold.Chemscore.Metal.Weighted>
-0.0000

> <Gold.Chemscore.Lipo.Weighted>
-11.7134

> <Gold.Chemscore.Internal_Hbond.Weighted>
0.0000

> <Gold.Chemscore.DEClash.Weighted>
2.1526

> <Gold.Chemscore.DEInternal.Weighted>
4.4466

> <Gold.Chemscore.Rot.Weighted>
3.1474

> <Gold.Chemscore.Internal.Correction.Weighted>
   9.000000E+99

> <Gold.Protein.RotatedTorsions>
[ 6907 6896 6895 6894 ] final  -22.16 input  -60.11 | X-H torsion
[ 7974 7965 7964 7962 ] final -143.75 input  175.53 | X-H torsion
[ 8008 7997 7996 7995 ] final   53.00 input   59.86 | X-H torsion
[ 10167 10162 10161 10158 ] final -169.73 input  -65.29 | X-H torsion
[ 10718 10713 10712 10709 ] final  -25.25 input   66.30 | X-H torsion
[ 10763 10752 10751 10750 ] final -130.14 input  -60.55 | X-H torsion
[ 11005 11000 10999 10996 ] final  -89.29 input  -57.11 | X-H torsion

> <Gold.Protein.ActiveResidues>
 VAL166  LYS551  ARG553  GLY616  TRP617  ASP618  TYR619  PRO620  LYS621  CYS622 
 ASP623  PHE694  ASN695  SER759  ASP760  ASP761  ALA762  ILE779  LEU786  VAL792 
 PHE793  MET794  SER795  GLU796  ALA797  LYS798  CYS799  TRP800  GLU811  SER814 

> <Gold.Protein.RotatedAtoms>
  151.2226  135.0524  159.8955 H   0  0  0  0  0  0  0  0  0  0  0  0  # atno 6907 bound_to 6896
  152.5414  134.0624  159.8168 H   0  0  0  0  0  0  0  0  0  0  0  0  # atno 6908 bound_to 6896
  151.0792  133.5355  159.2653 H   0  0  0  0  0  0  0  0  0  0  0  0  # atno 6909 bound_to 6896
  144.8347  140.5796  143.5492 H   0  0  0  0  0  0  0  0  0  0  0  0  # atno 7974 bound_to 7965
  155.4611  140.3462  155.4313 H   0  0  0  0  0  0  0  0  0  0  0  0  # atno 8008 bound_to 7997
  156.1160  140.1474  156.9301 H   0  0  0  0  0  0  0  0  0  0  0  0  # atno 8009 bound_to 7997
  154.4789  140.0876  156.7309 H   0  0  0  0  0  0  0  0  0  0  0  0  # atno 8010 bound_to 7997
  139.5905  144.1224  152.1628 H   0  0  0  0  0  0  0  0  0  0  0  0  # atno 10167 bound_to 10162
  156.4668  130.4516  149.6894 H   0  0  0  0  0  0  0  0  0  0  0  0  # atno 10718 bound_to 10713
  154.8756  135.3872  154.4035 H   0  0  0  0  0  0  0  0  0  0  0  0  # atno 10763 bound_to 10752
  153.4756  135.7030  153.5973 H   0  0  0  0  0  0  0  0  0  0  0  0  # atno 10764 bound_to 10752
  153.4410  135.3856  155.2196 H   0  0  0  0  0  0  0  0  0  0  0  0  # atno 10765 bound_to 10752
  141.1587  133.7621  156.9574 H   0  0  0  0  0  0  0  0  0  0  0  0  # atno 11005 bound_to 11000
  145.4820  139.1494  143.3756 LP  0  0  0  0  0  0  0  0  0  0  0  0  # atno 17320 bound_to 7965
  146.2647  140.4956  142.8839 LP  0  0  0  0  0  0  0  0  0  0  0  0  # atno 17321 bound_to 7965
  140.0797  144.5711  150.7131 LP  0  0  0  0  0  0  0  0  0  0  0  0  # atno 17342 bound_to 10162
  140.7169  143.2552  151.4406 LP  0  0  0  0  0  0  0  0  0  0  0  0  # atno 17343 bound_to 10162
  156.3659  130.7505  151.2483 LP  0  0  0  0  0  0  0  0  0  0  0  0  # atno 17370 bound_to 10713
  157.7494  131.0337  150.4283 LP  0  0  0  0  0  0  0  0  0  0  0  0  # atno 17371 bound_to 10713
  140.1216  134.9413  157.2211 LP  0  0  0  0  0  0  0  0  0  0  0  0  # atno 17394 bound_to 11000
  140.3065  134.3072  155.7277 LP  0  0  0  0  0  0  0  0  0  0  0  0  # atno 17395 bound_to 11000

$$$$
