#       Name:                AV-unprocessed.smi:223
#       Creating user name   scv26
#       Creation time:       Thu Mar 26 20:16:53 2020


#       File generated by GOLD software.
#

@<TRIPOS>MOLECULE
AV-unprocessed.smi:223
    55    58     1
SMALL
NO_CHARGES


@<TRIPOS>ATOM
      1 ****        -4.7451   0.2384   1.3419 C.3            1 S1                 0.0000
      2 ****        -3.3465   0.4878   1.9183 C.3            1 S1                 0.0000
      3 ****        -3.4358   1.2685   3.1633 C.1            1 S1                 0.0000
      4 ****        -3.5075   1.8829   4.1412 N.1            1 S1                 0.0000
      5 ****        -2.5822  -0.8389   2.1081 C.3            1 S1                 0.0000
      6 ****        -1.1909  -0.6680   2.5272 N.pl3          1 S1                 0.0000
      7 ****        -0.3878   0.0838   1.7251 C.ar           1 S1                 0.0000
      8 ****         0.3839   1.0554   2.2832 N.ar           1 S1                 0.0000
      9 ****         1.1668   1.8244   1.5222 C.ar           1 S1                 0.0000
     10 ****         1.3324   1.7934   0.1997 N.ar           1 S1                 0.0000
     11 ****         0.5725   0.8158  -0.3705 C.ar           1 S1                 0.0000
     12 ****        -0.3102  -0.0725   0.3094 C.ar           1 S1                 0.0000
     13 ****        -0.9086  -0.9274  -0.6095 N.2            1 S1                 0.0000
     14 ****        -0.4171  -0.5614  -1.7609 C.2            1 S1                 0.0000
     15 ****         0.4910   0.4712  -1.7089 N.pl3          1 S1                 0.0000
     16 ****         1.1970   1.0718  -2.8314 C.3            1 S1                 0.0000
     17 ****         2.5744   0.4250  -3.1195 C.3            1 S1                 0.0000
     18 ****         3.4078   0.5942  -1.9875 O.3            1 S1                 0.0000
     19 ****         3.2635   1.0374  -4.3413 C.3            1 S1                 0.0000
     20 ****         3.1789  -0.0632  -5.3920 C.3            1 S1                 0.0000
     21 ****         3.3102  -1.2411  -4.6171 O.3            1 S1                 0.0000
     22 ****         2.4937  -1.0751  -3.4672 C.3            1 S1                 0.0000
     23 ****        -0.9154  -0.6788   3.9622 C.3            1 S1                 0.0000
     24 ****         0.3616  -1.3175   4.4615 C.3            1 S1                 0.0000
     25 ****        -0.9664  -1.9964   4.6994 C.3            1 S1                 0.0000
     26 ****        -5.2717   1.1783   1.1743 H              1 S1                 0.0000
     27 ****        -5.3492  -0.3657   2.0195 H              1 S1                 0.0000
     28 ****        -4.6883  -0.2837   0.3866 H              1 S1                 0.0000
     29 ****        -2.8075   1.1146   1.2078 H              1 S1                 0.0000
     30 ****        -3.0977  -1.4391   2.8588 H              1 S1                 0.0000
     31 ****        -2.6190  -1.4328   1.1964 H              1 S1                 0.0000
     32 ****         1.7415   2.5723   2.0483 H              1 S1                 0.0000
     33 ****        -0.7029  -1.0431  -2.6845 H              1 S1                 0.0000
     34 ****         0.5580   0.9981  -3.7124 H              1 S1                 0.0000
     35 ****         1.3149   2.1375  -2.6303 H              1 S1                 0.0000
     36 ****         4.2390   0.1808  -2.1635 H              1 S1                 0.0000
     37 ****         2.8055   1.9679  -4.6788 H              1 S1                 0.0000
     38 ****         4.3143   1.2478  -4.1343 H              1 S1                 0.0000
     39 ****         2.2093  -0.0551  -5.8925 H              1 S1                 0.0000
     40 ****         3.9608   0.0129  -6.1479 H              1 S1                 0.0000
     41 ****         2.8099  -1.7310  -2.6550 H              1 S1                 0.0000
     42 ****         1.4790  -1.3609  -3.7455 H              1 S1                 0.0000
     43 ****        -1.2551   0.1926   4.5180 H              1 S1                 0.0000
     44 ****         1.0288  -1.7638   3.7264 H              1 S1                 0.0000
     45 ****         0.8514  -0.8543   5.3154 H              1 S1                 0.0000
     46 ****        -1.3630  -1.9875   5.7124 H              1 S1                 0.0000
     47 ****        -1.1796  -2.8944   4.1228 H              1 S1                 0.0000
     48 ****        -3.5694   2.4139   4.9863 LP             1 S1                 0.0000
     49 ****         0.3647   1.1951   3.2732 LP             1 S1                 0.0000
     50 ****         1.9361   2.4078  -0.3083 LP             1 S1                 0.0000
     51 ****        -1.5671  -1.6579  -0.4285 LP             1 S1                 0.0000
     52 ****         2.9821   0.1695  -1.1885 LP             1 S1                 0.0000
     53 ****         3.5460   1.5691  -1.8128 LP             1 S1                 0.0000
     54 ****         4.2641  -1.3689  -4.3454 LP             1 S1                 0.0000
     55 ****         3.0046  -2.0344  -5.1436 LP             1 S1                 0.0000
@<TRIPOS>BOND
    1    1    2 1     
    2    1   26 1     
    3    1   27 1     
    4    1   28 1     
    5    2    3 1     
    6    2    5 1     
    7    2   29 1     
    8    3    4 3     
    9    5    6 1     
   10    5   30 1     
   11    5   31 1     
   12    6    7 1     
   13    6   23 1     
   14    7   12 ar    
   15    7    8 ar    
   16    8    9 ar    
   17    9   10 ar    
   18    9   32 1     
   19   10   11 ar    
   20   11   15 1     
   21   11   12 ar    
   22   12   13 1     
   23   13   14 2     
   24   14   15 1     
   25   14   33 1     
   26   15   16 1     
   27   16   17 1     
   28   16   34 1     
   29   16   35 1     
   30   17   22 1     
   31   17   18 1     
   32   17   19 1     
   33   18   36 1     
   34   19   20 1     
   35   19   37 1     
   36   19   38 1     
   37   20   21 1     
   38   20   39 1     
   39   20   40 1     
   40   21   22 1     
   41   22   41 1     
   42   22   42 1     
   43   23   25 1     
   44   23   24 1     
   45   23   43 1     
   46   24   25 1     
   47   24   44 1     
   48   24   45 1     
   49   25   46 1     
   50   25   47 1     
   51    4   48 1     
   52    8   49 1     
   53   10   50 1     
   54   13   51 1     
   55   18   52 1     
   56   18   53 1     
   57   21   54 1     
   58   21   55 1     
@<TRIPOS>SUBSTRUCTURE
      1 S1             1
@<TRIPOS>SET
LONE_PAIRS      STATIC     ATOMS    <user>   **** ""
8 48 49 50 51 52 53 54 55
DONOR_HYDROGENS      STATIC     ATOMS    <user>   **** ""
1 36
ATOM$BLUE        STATIC     ATOMS    COLORGROUP SYSTEM
8 48 49 50 51 52 53 54 55
ATOM$RED        STATIC     ATOMS    COLORGROUP SYSTEM
1 36
