AV-unprocessed.smi:1033|AV-procd|sdf|4492|dock2
  -GOLD-   22720 2473D 1   1.00000     0.00000
 Structure written by MMmdl.
 56 58  0  0  0  0  0  0  0  0  2 V2000
  152.7067  142.9161  160.7284 C   0  0  0  0  0  0  0  0  0  0  0  0
  152.0934  142.5113  159.3995 C   0  0  0  0  0  0  0  0  0  0  0  0
  152.5362  141.3256  158.7711 C   0  0  0  0  0  0  0  0  0  0  0  0
  151.9961  140.9176  157.5320 C   0  0  0  0  0  0  0  0  0  0  0  0
  152.2814  139.8141  156.7464 N   0  0  0  0  0  0  0  0  0  0  0  0
  151.4602  139.9975  155.7171 C   0  0  0  0  0  0  0  0  0  0  0  0
  150.6769  141.0930  155.7407 N   0  0  0  0  0  0  0  0  0  0  0  0
  149.7228  141.5045  154.7258 C   0  0  0  0  0  0  0  0  0  0  0  0
  148.7368  140.3777  154.3621 C   0  0  2  0  0  0  0  0  0  0  0  0
  149.4129  139.3875  153.6109 O   0  0  0  0  0  0  0  0  0  0  0  0
  147.5474  140.8969  153.5300 C   0  0  0  0  0  0  0  0  0  0  0  0
  146.4352  139.9160  153.4493 N   0  3  0  0  0  0  0  0  0  0  0  0
  146.0383  139.3917  154.7813 C   0  0  0  0  0  0  0  0  0  0  0  0
  144.8251  138.4475  154.6477 C   0  0  0  0  0  0  0  0  0  0  0  0
  145.0570  137.3330  153.7287 N   0  0  0  0  0  0  0  0  0  0  0  0
  145.9759  136.3255  154.2777 C   0  0  0  0  0  0  0  0  0  0  0  0
  145.9942  134.9477  153.5780 C   0  0  1  0  0  0  0  0  0  0  0  0
  144.6296  134.2439  153.5111 C   0  0  0  0  0  0  0  0  0  0  0  0
  146.5628  135.0496  152.2886 O   0  0  0  0  0  0  0  0  0  0  0  0
  145.4487  137.8811  152.4278 C   0  0  0  0  0  0  0  0  0  0  0  0
  146.6847  138.7986  152.5000 C   0  0  0  0  0  0  0  0  0  0  0  0
  150.9927  141.7348  156.9339 C   0  0  0  0  0  0  0  0  0  0  0  0
  150.5403  142.9141  157.5518 C   0  0  0  0  0  0  0  0  0  0  0  0
  151.0910  143.3074  158.7894 C   0  0  0  0  0  0  0  0  0  0  0  0
  150.5990  144.5849  159.4465 C   0  0  0  0  0  0  0  0  0  0  0  0
  153.4605  142.1989  161.0545 H   0  0  0  0  0  0  0  0  0  0  0  0
  151.9407  142.9715  161.5021 H   0  0  0  0  0  0  0  0  0  0  0  0
  153.1875  143.8911  160.6454 H   0  0  0  0  0  0  0  0  0  0  0  0
  153.3000  140.7192  159.2355 H   0  0  0  0  0  0  0  0  0  0  0  0
  151.4302  139.2980  154.8944 H   0  0  0  0  0  0  0  0  0  0  0  0
  149.1792  142.3722  155.1025 H   0  0  0  0  0  0  0  0  0  0  0  0
  150.2712  141.8399  153.8442 H   0  0  0  0  0  0  0  0  0  0  0  0
  148.3831  139.9221  155.2863 H   0  0  0  0  0  0  0  0  0  0  0  0
  149.5812  139.7296  152.7452 H   0  0  0  0  0  0  0  0  0  0  0  0
  147.1716  141.8354  153.9402 H   0  0  0  0  0  0  0  0  0  0  0  0
  147.9041  141.1249  152.5240 H   0  0  0  0  0  0  0  0  0  0  0  0
  146.8818  138.8818  155.2485 H   0  0  0  0  0  0  0  0  0  0  0  0
  145.7728  140.2230  155.4354 H   0  0  0  0  0  0  0  0  0  0  0  0
  144.5411  138.0668  155.6295 H   0  0  0  0  0  0  0  0  0  0  0  0
  143.9682  139.0236  154.2957 H   0  0  0  0  0  0  0  0  0  0  0  0
  146.9911  136.7163  154.3447 H   0  0  0  0  0  0  0  0  0  0  0  0
  145.6760  136.1384  155.3098 H   0  0  0  0  0  0  0  0  0  0  0  0
  146.6697  134.3049  154.1437 H   0  0  0  0  0  0  0  0  0  0  0  0
  144.1912  134.1479  154.5046 H   0  0  0  0  0  0  0  0  0  0  0  0
  144.7282  133.2405  153.0958 H   0  0  0  0  0  0  0  0  0  0  0  0
  143.9218  134.7888  152.8860 H   0  0  0  0  0  0  0  0  0  0  0  0
  147.3074  135.6297  152.3330 H   0  0  0  0  0  0  0  0  0  0  0  0
  145.6171  137.0810  151.7088 H   0  0  0  0  0  0  0  0  0  0  0  0
  144.6139  138.4550  152.0233 H   0  0  0  0  0  0  0  0  0  0  0  0
  146.8884  139.1864  151.5029 H   0  0  0  0  0  0  0  0  0  0  0  0
  147.5692  138.2375  152.8037 H   0  0  0  0  0  0  0  0  0  0  0  0
  149.7789  143.5133  157.0745 H   0  0  0  0  0  0  0  0  0  0  0  0
  149.8338  145.0740  158.8429 H   0  0  0  0  0  0  0  0  0  0  0  0
  151.4210  145.2890  159.5781 H   0  0  0  0  0  0  0  0  0  0  0  0
  150.1667  144.3698  160.4240 H   0  0  0  0  0  0  0  0  0  0  0  0
  145.6356  140.4255  153.1003 H   0  0  0  0  0  0  0  0  0  0  0  0
  1  2  1  0  0  0  0
  1 26  1  0  0  0  0
  1 27  1  0  0  0  0
  1 28  1  0  0  0  0
  2 24  1  0  0  0  0
  2  3  2  0  0  0  0
  3  4  1  0  0  0  0
  3 29  1  0  0  0  0
  4 22  2  0  0  0  0
  4  5  1  0  0  0  0
  5  6  2  0  0  0  0
  6  7  1  0  0  0  0
  6 30  1  0  0  0  0
  7  8  1  0  0  0  0
  7 22  1  0  0  0  0
  8  9  1  0  0  0  0
  8 31  1  0  0  0  0
  8 32  1  0  0  0  0
  9 10  1  0  0  0  0
  9 11  1  0  0  0  0
  9 33  1  0  0  0  0
 10 34  1  0  0  0  0
 11 12  1  0  0  0  0
 11 35  1  0  0  0  0
 11 36  1  0  0  0  0
 12 21  1  0  0  0  0
 12 13  1  0  0  0  0
 12 56  1  0  0  0  0
 13 14  1  0  0  0  0
 13 37  1  0  0  0  0
 13 38  1  0  0  0  0
 14 15  1  0  0  0  0
 14 39  1  0  0  0  0
 14 40  1  0  0  0  0
 15 16  1  0  0  0  0
 15 20  1  0  0  0  0
 16 17  1  0  0  0  0
 16 41  1  0  0  0  0
 16 42  1  0  0  0  0
 17 18  1  0  0  0  0
 17 19  1  0  0  0  0
 17 43  1  0  0  0  0
 18 44  1  0  0  0  0
 18 45  1  0  0  0  0
 18 46  1  0  0  0  0
 19 47  1  0  0  0  0
 20 21  1  0  0  0  0
 20 48  1  0  0  0  0
 20 49  1  0  0  0  0
 21 50  1  0  0  0  0
 21 51  1  0  0  0  0
 22 23  1  0  0  0  0
 23 24  2  0  0  0  0
 23 52  1  0  0  0  0
 24 25  1  0  0  0  0
 25 53  1  0  0  0  0
 25 54  1  0  0  0  0
 25 55  1  0  0  0  0
M  CHG  1  12   1
M  END
> <s_m_source_file>
AV-unprocessed.smi

> <i_m_source_file_index>
1033

> <i_lp_mmshare_version>
43012

> <i_f3d_flags>
0

> <s_epik_input>
W0NIM11jKFtjSF0xKWMoW0NIM10pW2NIXWMoYzEyKW4oW2NIXW4yKVtDSDJdW0NASF0oW09IXSlbQ0gyXU4zW0NIMl1bQ0gyXU4oW0NIMl1bQ0gyXTMpW0NIMl1bQ0BIXShbQ0gzXSlbT0hd

> <s_epik_cmdline>
J2VwaWtfcHl0aG9uJywgJy1waCcsICc3LjAnLCAnLXRuJywgJzgnLCAnLW1hJywgJzIwMCcsICctbWV0YWxfYmluZGluZycsICctaW1hZScsICc8aW5maWxlLm1hZT4nLCAnLW9tYWUnLCAnPG91dGZpbGUubWFlPic=

> <r_epik_Ionization_Penalty>
0.131893

> <r_epik_Ionization_Penalty_Charging>
0.00208556

> <r_epik_Ionization_Penalty_Neutral>
0.129808

> <r_epik_State_Penalty>
0.452125

> <r_epik_Charging_Adjusted_Penalty>
0.454211

> <i_epik_Tot_Q>
1

> <i_epik_Tot_abs_Q>
1

> <r_epik_Metal_State_Penalty>
0.376389

> <b_epik_Metal_Only>
0

> <s_lp_Force_Field>
OPLS_2005

> <r_lp_Energy>
36.4064

> <b_lp_Chiralities_Consistent>
1

> <s_lp_Variant>
AV-unprocessed.smi:1033-3

> <Gold.Version>
5.8.1

> <Gold.Id.Protein>
6NUR|6NUR_protein|mol2

> <Gold.PLP.Fitness>
56.9795

> <Gold.PLP.PLP>
-42.6045

> <Gold.PLP.part.hbond>
-3.4599

> <Gold.PLP.part.metal>
0.0000

> <Gold.PLP.part.buried>
-1.8847

> <Gold.PLP.part.nonpolar>
-36.8071

> <Gold.PLP.part.repulsive>
0.1331

> <Gold.PLP.ligand.clash>
0.0035

> <Gold.PLP.ligand.torsion>
0.4389

> <Gold.PLP.Chemscore.Hbond>
4.9825

> <Gold.PLP.Chemscore.CHOScore>
0.0000

> <Gold.PLP.Chemscore.Metal>
0.0000

> <Gold.Chemscore.Hbonds>
donor molecule, donor type, donor heavy atom, donor atom, acceptor molecule, acceptor atom, score
      L1  H    10    34       P1  7957  1.00
      L1  H    12    56       P1 10175  1.92
      L1  H    19    47       P1  7948  1.00
      P1  H  7997  8010       L1     5  0.79

> <Gold.PLP.Chemscore.Internal.Correction>
0.3087

> <Gold.Rescore>
     Score         DG    S(hbond)    S(metal)    S(lipo)     H(rot)  DE(clash)    DE(int)     intcor
     19.01     -22.81       3.51        0.00     114.95       3.07       1.19       2.61       ----

> <Gold.Chemscore.Fitness>
19.0098

> <Gold.Chemscore.DG>
-22.8092

> <Gold.Chemscore.ZeroCoef>
-5.4800

> <Gold.Chemscore.Hbond>
3.5109

> <Gold.Chemscore.Metal>
0.0000

> <Gold.Chemscore.Lipo>
114.9512

> <Gold.Chemscore.Internal_Hbond>
0.0000

> <Gold.Chemscore.DEClash>
1.1859

> <Gold.Chemscore.DEInternal>
2.6135

> <Gold.Chemscore.Rot>
3.0650

> <Gold.Chemscore.Internal.Correction>
   9.000000E+99

> <Gold.Chemscore.Hbonds>
donor molecule, donor type, donor heavy atom, donor atom, acceptor molecule, acceptor atom, score
      L1  H    10    34       P1  7957  0.99
      L1  H    12    56       P1 10175  0.81
      L1  H    19    47       P1  7948  0.97
      P1  H  7997  8010       L1     5  0.17

> <Gold.Chemscore.Hbond.Weighted>
-11.7264

> <Gold.Chemscore.Metal.Weighted>
-0.0000

> <Gold.Chemscore.Lipo.Weighted>
-13.4493

> <Gold.Chemscore.Internal_Hbond.Weighted>
0.0000

> <Gold.Chemscore.DEClash.Weighted>
1.1859

> <Gold.Chemscore.DEInternal.Weighted>
2.6135

> <Gold.Chemscore.Rot.Weighted>
7.8465

> <Gold.Chemscore.Internal.Correction.Weighted>
   9.000000E+99

> <Gold.Protein.RotatedTorsions>
[ 6907 6896 6895 6894 ] final   46.80 input  -60.11 | X-H torsion
[ 7974 7965 7964 7962 ] final  -76.37 input  175.53 | X-H torsion
[ 8008 7997 7996 7995 ] final   67.90 input   59.86 | X-H torsion
[ 10167 10162 10161 10158 ] final   59.35 input  -65.29 | X-H torsion
[ 10718 10713 10712 10709 ] final  -43.69 input   66.30 | X-H torsion
[ 10763 10752 10751 10750 ] final -150.05 input  -60.55 | X-H torsion
[ 11005 11000 10999 10996 ] final   81.55 input  -57.11 | X-H torsion

> <Gold.Protein.ActiveResidues>
 VAL166  LYS551  ARG553  GLY616  TRP617  ASP618  TYR619  PRO620  LYS621  CYS622 
 ASP623  PHE694  ASN695  SER759  ASP760  ASP761  ALA762  ILE779  LEU786  VAL792 
 PHE793  MET794  SER795  GLU796  ALA797  LYS798  CYS799  TRP800  GLU811  SER814 

> <Gold.Protein.RotatedAtoms>
  152.2606  134.8037  160.0430 H   0  0  0  0  0  0  0  0  0  0  0  0  # atno 6907 bound_to 6896
  151.8685  133.3466  159.3735 H   0  0  0  0  0  0  0  0  0  0  0  0  # atno 6908 bound_to 6896
  150.7115  134.5063  159.5630 H   0  0  0  0  0  0  0  0  0  0  0  0  # atno 6909 bound_to 6896
  145.6137  140.9380  143.1175 H   0  0  0  0  0  0  0  0  0  0  0  0  # atno 7974 bound_to 7965
  155.7000  140.3495  155.4929 H   0  0  0  0  0  0  0  0  0  0  0  0  # atno 8008 bound_to 7997
  155.9448  140.1108  157.1047 H   0  0  0  0  0  0  0  0  0  0  0  0  # atno 8009 bound_to 7997
  154.4110  140.1205  156.4961 H   0  0  0  0  0  0  0  0  0  0  0  0  # atno 8010 bound_to 7997
  140.1773  144.4217  150.6632 H   0  0  0  0  0  0  0  0  0  0  0  0  # atno 10167 bound_to 10162
  156.2463  130.4184  149.8701 H   0  0  0  0  0  0  0  0  0  0  0  0  # atno 10718 bound_to 10713
  154.8142  135.3294  154.7223 H   0  0  0  0  0  0  0  0  0  0  0  0  # atno 10763 bound_to 10752
  153.7867  135.6914  153.4883 H   0  0  0  0  0  0  0  0  0  0  0  0  # atno 10764 bound_to 10752
  153.1944  135.4539  155.0136 H   0  0  0  0  0  0  0  0  0  0  0  0  # atno 10765 bound_to 10752
  139.9094  134.8005  156.2057 H   0  0  0  0  0  0  0  0  0  0  0  0  # atno 11005 bound_to 11000
  144.7259  139.7877  143.7365 LP  0  0  0  0  0  0  0  0  0  0  0  0  # atno 17320 bound_to 7965
  146.1484  139.4560  143.0064 LP  0  0  0  0  0  0  0  0  0  0  0  0  # atno 17321 bound_to 7965
  140.6543  143.2233  151.6006 LP  0  0  0  0  0  0  0  0  0  0  0  0  # atno 17342 bound_to 10162
  139.5311  144.2913  152.1150 LP  0  0  0  0  0  0  0  0  0  0  0  0  # atno 17343 bound_to 10162
  156.6265  130.8648  151.3486 LP  0  0  0  0  0  0  0  0  0  0  0  0  # atno 17370 bound_to 10713
  157.7196  130.9542  150.1388 LP  0  0  0  0  0  0  0  0  0  0  0  0  # atno 17371 bound_to 10713
  141.0497  133.6895  156.1749 LP  0  0  0  0  0  0  0  0  0  0  0  0  # atno 17394 bound_to 11000
  140.6829  134.4748  157.5589 LP  0  0  0  0  0  0  0  0  0  0  0  0  # atno 17395 bound_to 11000

$$$$
