#       Name:                AV-unprocessed.smi:2867
#       Creating user name   scv26
#       Creation time:       Fri Mar 27 15:48:41 2020


#       File generated by GOLD software.
#

@<TRIPOS>MOLECULE
AV-unprocessed.smi:2867
    44    46     1
SMALL
NO_CHARGES


@<TRIPOS>ATOM
      1 ****        -2.7278   2.8713   0.4851 C.3            1 S1                 0.0000
      2 ****        -2.2523   1.6715  -0.0981 O.3            1 S1                 0.0000
      3 ****        -2.6174   0.5198   0.6454 C.3            1 S1                 0.0000
      4 ****        -2.0490  -0.7303  -0.0397 C.3            1 S1                 0.0000
      5 ****        -0.5869  -0.6597  -0.1909 N.pl3          1 S1                 0.0000
      6 ****         0.1922  -0.1799  -1.2016 C.2            1 S1                 0.0000
      7 ****        -0.2719   0.4060  -2.4682 C.ar           1 S1                 0.0000
      8 ****         0.1357   1.7052  -2.8415 C.ar           1 S1                 0.0000
      9 ****        -0.3038   2.2781  -4.0508 C.ar           1 S1                 0.0000
     10 ****        -1.1544   1.5521  -4.9049 C.ar           1 S1                 0.0000
     11 ****        -1.5618   0.2535  -4.5475 C.ar           1 S1                 0.0000
     12 ****        -2.3771  -0.4506  -5.3678 F              1 S1                 0.0000
     13 ****        -1.1202  -0.3147  -3.3371 C.ar           1 S1                 0.0000
     14 ****         1.4971  -0.2935  -0.8355 N.pl3          1 S1                 1.0000
     15 ****         1.5618  -0.8656   0.4365 C.ar           1 S1                 0.0000
     16 ****         2.6572  -1.1844   1.2326 C.ar           1 S1                 0.0000
     17 ****         2.3721  -1.7518   2.4926 C.ar           1 S1                 0.0000
     18 ****         3.7267  -2.1991   3.5723 S.o2           1 S1                 0.0000
     19 ****         3.8701  -0.8020   4.5655 N.3            1 S1                 0.0000
     20 ****         3.2937  -3.3120   4.4309 O.2            1 S1                 0.0000
     21 ****         4.9554  -2.3016   2.7700 O.2            1 S1                 0.0000
     22 ****         1.0485  -1.9806   2.9240 C.ar           1 S1                 0.0000
     23 ****        -0.0527  -1.6519   2.1062 C.ar           1 S1                 0.0000
     24 ****         0.2316  -1.0971   0.8580 C.ar           1 S1                 0.0000
     25 ****        -2.4312   3.7198  -0.1316 H              1 S1                 0.0000
     26 ****        -2.3101   3.0169   1.4821 H              1 S1                 0.0000
     27 ****        -3.8161   2.8715   0.5570 H              1 S1                 0.0000
     28 ****        -2.2335   0.5954   1.6640 H              1 S1                 0.0000
     29 ****        -3.7038   0.4444   0.7101 H              1 S1                 0.0000
     30 ****        -2.3090  -1.6337   0.5119 H              1 S1                 0.0000
     31 ****        -2.4909  -0.8424  -1.0282 H              1 S1                 0.0000
     32 ****         0.7853   2.2740  -2.1922 H              1 S1                 0.0000
     33 ****         0.0111   3.2750  -4.3223 H              1 S1                 0.0000
     34 ****        -1.4925   1.9897  -5.8326 H              1 S1                 0.0000
     35 ****        -1.4347  -1.3149  -3.0773 H              1 S1                 0.0000
     36 ****         3.6717  -1.0073   0.9066 H              1 S1                 0.0000
     37 ****         3.0476  -0.6503   5.1489 H              1 S1                 0.0000
     38 ****         4.1550   0.0241   4.0400 H              1 S1                 0.0000
     39 ****         0.8695  -2.4147   3.8972 H              1 S1                 0.0000
     40 ****        -1.0632  -1.8279   2.4441 H              1 S1                 0.0000
     41 ****         2.2770  -0.0034  -1.4112 H              1 S1                 0.0000
     42 ****        -1.2546   1.7151  -0.1514 LP             1 S1                 0.0000
     43 ****        -2.6321   1.5912  -1.0197 LP             1 S1                 0.0000
     44 ****         4.6186  -0.9818   5.2037 LP             1 S1                 0.0000
@<TRIPOS>BOND
    1    1    2 1     
    2    1   25 1     
    3    1   26 1     
    4    1   27 1     
    5    2    3 1     
    6    3    4 1     
    7    3   28 1     
    8    3   29 1     
    9    4    5 1     
   10    4   30 1     
   11    4   31 1     
   12    5   24 1     
   13    5    6 1     
   14    6    7 1     
   15    6   14 2     
   16    7   13 ar    
   17    7    8 ar    
   18    8    9 ar    
   19    8   32 1     
   20    9   10 ar    
   21    9   33 1     
   22   10   11 ar    
   23   10   34 1     
   24   11   12 1     
   25   11   13 ar    
   26   13   35 1     
   27   14   15 1     
   28   14   41 1     
   29   15   24 ar    
   30   15   16 ar    
   31   16   17 ar    
   32   16   36 1     
   33   17   18 1     
   34   17   22 ar    
   35   18   19 1     
   36   18   20 2     
   37   18   21 2     
   38   19   37 1     
   39   19   38 1     
   40   22   23 ar    
   41   22   39 1     
   42   23   24 ar    
   43   23   40 1     
   44    2   42 1     
   45    2   43 1     
   46   19   44 1     
@<TRIPOS>SUBSTRUCTURE
      1 S1             1
@<TRIPOS>SET
LONE_PAIRS      STATIC     ATOMS    <user>   **** ""
5 42 43 44 20 21
DONOR_HYDROGENS      STATIC     ATOMS    <user>   **** ""
3 41 37 38
ATOM$BLUE        STATIC     ATOMS    COLORGROUP SYSTEM
5 42 43 44 20 21
ATOM$RED        STATIC     ATOMS    COLORGROUP SYSTEM
3 41 37 38
