AV-unprocessed.smi:2873|AV-procd|sdf|11036|dock2
  -GOLD-   2272015503D 1   1.00000     0.00000
 Structure written by MMmdl.
 40 42  0  0  0  0  0  0  0  0  1 V2000
  145.3216  135.7822  150.7414 C   0  0  0  0  0  0  0  0  0  0  0  0
  145.2684  134.6954  151.8316 C   0  0  1  0  0  0  0  0  0  0  0  0
  145.5019  135.3604  153.2101 C   0  0  0  0  0  0  0  0  0  0  0  0
  146.7661  136.0912  153.2906 N   0  0  0  0  0  0  0  0  0  0  0  0
  147.1145  136.9539  154.2551 C   0  0  0  0  0  0  0  0  0  0  0  0
  146.3946  137.2317  155.2135 O   0  0  0  0  0  0  0  0  0  0  0  0
  148.3349  137.4661  154.0240 N   0  0  0  0  0  0  0  0  0  0  0  0
  149.0474  138.4356  154.7796 C   0  0  0  0  0  0  0  0  0  0  0  0
  148.8041  138.7579  156.1380 C   0  0  0  0  0  0  0  0  0  0  0  0
  149.5340  139.6908  156.7873 N   0  0  0  0  0  0  0  0  0  0  0  0
  150.4954  140.3026  156.0902 C   0  0  0  0  0  0  0  0  0  0  0  0
  151.3187  141.3150  156.8244 C   0  0  0  0  0  0  0  0  0  0  0  0
  151.1648  141.5025  158.3202 C   0  0  0  0  0  0  0  0  0  0  0  0
  150.6846  142.5734  157.3812 C   0  0  0  0  0  0  0  0  0  0  0  0
  150.8313  140.0639  154.8195 N   0  0  0  0  0  0  0  0  0  0  0  0
  150.1077  139.1324  154.1630 C   0  0  0  0  0  0  0  0  0  0  0  0
  143.9200  133.9421  151.7513 C   0  0  0  0  0  0  0  0  0  0  0  0
  144.0677  132.8215  150.7197 C   0  0  0  0  0  0  0  0  0  0  0  0
  145.4141  132.1572  150.9990 C   0  0  0  0  0  0  0  0  0  0  0  0
  146.5671  133.4661  151.4805 S   0  0  0  0  0  0  0  0  0  0  0  0
  144.5450  136.5329  150.8919 H   0  0  0  0  0  0  0  0  0  0  0  0
  145.1845  135.3623  149.7448 H   0  0  0  0  0  0  0  0  0  0  0  0
  146.2819  136.2991  150.7453 H   0  0  0  0  0  0  0  0  0  0  0  0
  144.7048  136.0771  153.4111 H   0  0  0  0  0  0  0  0  0  0  0  0
  145.4317  134.6100  153.9993 H   0  0  0  0  0  0  0  0  0  0  0  0
  147.4273  135.9239  152.5462 H   0  0  0  0  0  0  0  0  0  0  0  0
  148.7827  137.1718  153.1683 H   0  0  0  0  0  0  0  0  0  0  0  0
  148.0451  138.2714  156.7297 H   0  0  0  0  0  0  0  0  0  0  0  0
  152.3186  141.3941  156.4017 H   0  0  0  0  0  0  0  0  0  0  0  0
  150.4086  140.9099  158.8317 H   0  0  0  0  0  0  0  0  0  0  0  0
  152.0651  141.7059  158.8961 H   0  0  0  0  0  0  0  0  0  0  0  0
  151.2644  143.4922  157.3261 H   0  0  0  0  0  0  0  0  0  0  0  0
  149.6087  142.6936  157.2698 H   0  0  0  0  0  0  0  0  0  0  0  0
  150.3777  138.9445  153.1340 H   0  0  0  0  0  0  0  0  0  0  0  0
  143.6699  133.4836  152.7073 H   0  0  0  0  0  0  0  0  0  0  0  0
  143.0920  134.6083  151.5067 H   0  0  0  0  0  0  0  0  0  0  0  0
  143.2460  132.1070  150.7754 H   0  0  0  0  0  0  0  0  0  0  0  0
  144.0639  133.2404  149.7131 H   0  0  0  0  0  0  0  0  0  0  0  0
  145.3206  131.4616  151.8334 H   0  0  0  0  0  0  0  0  0  0  0  0
  145.7872  131.6005  150.1391 H   0  0  0  0  0  0  0  0  0  0  0  0
  1  2  1  0  0  0  0
  1 21  1  0  0  0  0
  1 22  1  0  0  0  0
  1 23  1  0  0  0  0
  2 20  1  0  0  0  0
  2  3  1  0  0  0  0
  2 17  1  0  0  0  0
  3  4  1  0  0  0  0
  3 24  1  0  0  0  0
  3 25  1  0  0  0  0
  4  5  1  0  0  0  0
  4 26  1  0  0  0  0
  5  6  2  0  0  0  0
  5  7  1  0  0  0  0
  7  8  1  0  0  0  0
  7 27  1  0  0  0  0
  8 16  1  0  0  0  0
  8  9  2  0  0  0  0
  9 10  1  0  0  0  0
  9 28  1  0  0  0  0
 10 11  2  0  0  0  0
 11 12  1  0  0  0  0
 11 15  1  0  0  0  0
 12 14  1  0  0  0  0
 12 13  1  0  0  0  0
 12 29  1  0  0  0  0
 13 14  1  0  0  0  0
 13 30  1  0  0  0  0
 13 31  1  0  0  0  0
 14 32  1  0  0  0  0
 14 33  1  0  0  0  0
 15 16  2  0  0  0  0
 16 34  1  0  0  0  0
 17 18  1  0  0  0  0
 17 35  1  0  0  0  0
 17 36  1  0  0  0  0
 18 19  1  0  0  0  0
 18 37  1  0  0  0  0
 18 38  1  0  0  0  0
 19 20  1  0  0  0  0
 19 39  1  0  0  0  0
 19 40  1  0  0  0  0
M  END
> <s_m_source_file>
AV-unprocessed.smi

> <i_m_source_file_index>
2873

> <i_lp_mmshare_version>
43012

> <i_f3d_flags>
0

> <s_epik_input>
UzFbQ0gyXVtDSDJdW0NIMl1bQ0BAXTEoW0NIM10pW0NIMl1bTkhdQyg9TylbTkhdYzJbY0hdbmMobltjSF0yKVtDSF0zW0NIMl1bQ0gyXTM=

> <s_epik_cmdline>
J2VwaWtfcHl0aG9uJywgJy1waCcsICc3LjAnLCAnLXRuJywgJzgnLCAnLW1hJywgJzIwMCcsICctbWV0YWxfYmluZGluZycsICctaW1hZScsICc8aW5maWxlLm1hZT4nLCAnLW9tYWUnLCAnPG91dGZpbGUubWFlPic=

> <r_lp_tautomer_probability>
1

> <r_epik_Ionization_Penalty>
2.48741e-05

> <r_epik_Ionization_Penalty_Charging>
0

> <r_epik_Ionization_Penalty_Neutral>
2.48741e-05

> <r_epik_State_Penalty>
-0

> <r_epik_Charging_Adjusted_Penalty>
0

> <i_epik_Tot_Q>
0

> <i_epik_Tot_abs_Q>
0

> <r_epik_Metal_State_Penalty>
-0

> <b_epik_Metal_Only>
0

> <s_lp_Force_Field>
OPLS_2005

> <r_lp_Energy>
13.0444

> <b_lp_Chiralities_Consistent>
1

> <s_lp_Variant>
AV-unprocessed.smi:2873-1

> <Gold.Version>
5.8.1

> <Gold.Id.Protein>
6NUR|6NUR_protein|mol2

> <Gold.PLP.Fitness>
43.0667

> <Gold.PLP.PLP>
-31.4223

> <Gold.PLP.part.hbond>
-3.0000

> <Gold.PLP.part.metal>
0.0000

> <Gold.PLP.part.buried>
-4.5295

> <Gold.PLP.part.nonpolar>
-24.3953

> <Gold.PLP.part.repulsive>
0.0951

> <Gold.PLP.ligand.clash>
0.0000

> <Gold.PLP.ligand.torsion>
0.2402

> <Gold.PLP.Chemscore.Hbond>
3.0000

> <Gold.PLP.Chemscore.CHOScore>
0.9994

> <Gold.PLP.Chemscore.Metal>
0.0000

> <Gold.Chemscore.Hbonds>
donor molecule, donor type, donor heavy atom, donor atom, acceptor molecule, acceptor atom, score
      L1  H     4    26       P1  7948  1.00
      L1  H     7    27       P1  7948  1.00
      P1  H  7989  7998       L1    15  1.00
      L1  C    16    34       P1  7957  1.00

> <Gold.PLP.Chemscore.Internal.Correction>
0.1264

> <Gold.Rescore>
     Score         DG    S(hbond)    S(metal)    S(lipo)     H(rot)  DE(clash)    DE(int)     intcor
     17.54     -18.78       2.43        0.00      73.83       1.35       0.06       1.17       ----

> <Gold.Chemscore.Fitness>
17.5443

> <Gold.Chemscore.DG>
-18.7799

> <Gold.Chemscore.ZeroCoef>
-5.4800

> <Gold.Chemscore.Hbond>
2.4307

> <Gold.Chemscore.Metal>
0.0000

> <Gold.Chemscore.Lipo>
73.8269

> <Gold.Chemscore.Internal_Hbond>
0.0000

> <Gold.Chemscore.DEClash>
0.0621

> <Gold.Chemscore.DEInternal>
1.1735

> <Gold.Chemscore.Rot>
1.3501

> <Gold.Chemscore.Internal.Correction>
   9.000000E+99

> <Gold.Chemscore.Hbonds>
donor molecule, donor type, donor heavy atom, donor atom, acceptor molecule, acceptor atom, score
      L1  H     4    26       P1  7948  0.94
      L1  H     7    27       P1  7948  0.97
      P1  H  7989  7998       L1    15  0.30

> <Gold.Chemscore.Hbond.Weighted>
-8.1185

> <Gold.Chemscore.Metal.Weighted>
-0.0000

> <Gold.Chemscore.Lipo.Weighted>
-8.6377

> <Gold.Chemscore.Internal_Hbond.Weighted>
0.0000

> <Gold.Chemscore.DEClash.Weighted>
0.0621

> <Gold.Chemscore.DEInternal.Weighted>
1.1735

> <Gold.Chemscore.Rot.Weighted>
3.4563

> <Gold.Chemscore.Internal.Correction.Weighted>
   9.000000E+99

> <Gold.Protein.RotatedTorsions>
[ 6907 6896 6895 6894 ] final  133.58 input  -60.11 | X-H torsion
[ 7974 7965 7964 7962 ] final   45.22 input  175.53 | X-H torsion
[ 8008 7997 7996 7995 ] final -158.77 input   59.86 | X-H torsion
[ 10167 10162 10161 10158 ] final   92.37 input  -65.29 | X-H torsion
[ 10718 10713 10712 10709 ] final  -25.79 input   66.30 | X-H torsion
[ 10763 10752 10751 10750 ] final  -77.62 input  -60.55 | X-H torsion
[ 11005 11000 10999 10996 ] final  -68.73 input  -57.11 | X-H torsion

> <Gold.Protein.ActiveResidues>
 VAL166  LYS551  ARG553  GLY616  TRP617  ASP618  TYR619  PRO620  LYS621  CYS622 
 ASP623  PHE694  ASN695  SER759  ASP760  ASP761  ALA762  ILE779  LEU786  VAL792 
 PHE793  MET794  SER795  GLU796  ALA797  LYS798  CYS799  TRP800  GLU811  SER814 

> <Gold.Protein.RotatedAtoms>
  152.3204  133.5847  159.5740 H   0  0  0  0  0  0  0  0  0  0  0  0  # atno 6907 bound_to 6896
  150.7368  134.0019  159.3650 H   0  0  0  0  0  0  0  0  0  0  0  0  # atno 6908 bound_to 6896
  151.7904  135.0738  160.0437 H   0  0  0  0  0  0  0  0  0  0  0  0  # atno 6909 bound_to 6896
  146.0500  139.4989  142.9724 H   0  0  0  0  0  0  0  0  0  0  0  0  # atno 7974 bound_to 7965
  155.7526  140.0828  157.2194 H   0  0  0  0  0  0  0  0  0  0  0  0  # atno 8008 bound_to 7997
  154.4010  140.1557  156.2797 H   0  0  0  0  0  0  0  0  0  0  0  0  # atno 8009 bound_to 7997
  155.8916  140.3415  155.5963 H   0  0  0  0  0  0  0  0  0  0  0  0  # atno 8010 bound_to 7997
  139.8283  144.6699  150.9431 H   0  0  0  0  0  0  0  0  0  0  0  0  # atno 10167 bound_to 10162
  156.4597  130.4501  149.6937 H   0  0  0  0  0  0  0  0  0  0  0  0  # atno 10718 bound_to 10713
  154.5153  135.5758  153.6637 H   0  0  0  0  0  0  0  0  0  0  0  0  # atno 10763 bound_to 10752
  152.9905  135.6168  154.2825 H   0  0  0  0  0  0  0  0  0  0  0  0  # atno 10764 bound_to 10752
  154.2743  135.2852  155.2704 H   0  0  0  0  0  0  0  0  0  0  0  0  # atno 10765 bound_to 10752
  141.1538  133.6747  156.6491 H   0  0  0  0  0  0  0  0  0  0  0  0  # atno 11005 bound_to 11000
  145.6741  141.0209  143.1642 LP  0  0  0  0  0  0  0  0  0  0  0  0  # atno 17320 bound_to 7965
  144.7117  139.8345  143.7412 LP  0  0  0  0  0  0  0  0  0  0  0  0  # atno 17321 bound_to 7965
  140.7808  143.4025  151.1125 LP  0  0  0  0  0  0  0  0  0  0  0  0  # atno 17342 bound_to 10162
  139.7680  143.8536  152.3115 LP  0  0  0  0  0  0  0  0  0  0  0  0  # atno 17343 bound_to 10162
  156.3730  130.7540  151.2525 LP  0  0  0  0  0  0  0  0  0  0  0  0  # atno 17370 bound_to 10713
  157.7498  131.0318  150.4196 LP  0  0  0  0  0  0  0  0  0  0  0  0  # atno 17371 bound_to 10713
  140.3334  134.7909  157.4343 LP  0  0  0  0  0  0  0  0  0  0  0  0  # atno 17394 bound_to 11000
  140.0997  134.5489  155.8364 LP  0  0  0  0  0  0  0  0  0  0  0  0  # atno 17395 bound_to 11000

$$$$
