#       Name:                AV-unprocessed.smi:2442
#       Creating user name   scv26
#       Creation time:       Fri Mar 27 13:25:28 2020


#       File generated by GOLD software.
#

@<TRIPOS>MOLECULE
AV-unprocessed.smi:2442
    51    52     1
SMALL
NO_CHARGES


@<TRIPOS>ATOM
      1 ****        -1.7374   0.0428   4.1735 C.3            1 S1                 0.0000
      2 ****        -2.2290  -0.4117   2.9228 O.3            1 S1                 0.0000
      3 ****        -2.0869   0.5309   1.8666 C.3            1 S1                 0.0000
      4 ****        -3.2620   1.5312   1.8915 C.3            1 S1                 0.0000
      5 ****        -3.2197   2.4810   0.6831 C.3            1 S1                 0.0000
      6 ****        -3.2014   1.7018  -0.6414 C.3            1 S1                 0.0000
      7 ****        -2.0312   0.7075  -0.6826 C.3            1 S1                 0.0000
      8 ****        -2.0736  -0.2484   0.5296 C.3            1 S1                 0.0000
      9 ****        -1.0111  -1.2550   0.4661 N.am           1 S1                 0.0000
     10 ****         0.3129  -1.0452   0.5254 C.2            1 S1                 0.0000
     11 ****         0.8378   0.0563   0.6885 O.2            1 S1                 0.0000
     12 ****         1.0009  -2.1833   0.3525 N.am           1 S1                 0.0000
     13 ****         2.4568  -2.2854   0.2796 C.3            1 S1                 0.0000
     14 ****         2.9863  -2.2392  -1.1701 C.3            1 S1                 0.0000
     15 ****         2.5420  -1.0159  -1.9649 C.ar           1 S1                 0.0000
     16 ****         1.4549  -1.1289  -2.8583 C.ar           1 S1                 0.0000
     17 ****         1.0289   0.0155  -3.5592 C.ar           1 S1                 0.0000
     18 ****         1.6115   1.2243  -3.4265 N.ar           1 S1                 0.0000
     19 ****         2.6559   1.3295  -2.5785 C.ar           1 S1                 0.0000
     20 ****         3.1665   0.2492  -1.8262 C.ar           1 S1                 0.0000
     21 ****         4.3424   0.4757  -0.8933 C.3            1 S1                 0.0000
     22 ****        -1.8761  -0.7364   4.9227 H              1 S1                 0.0000
     23 ****        -2.2640   0.9325   4.5177 H              1 S1                 0.0000
     24 ****        -0.6709   0.2654   4.1184 H              1 S1                 0.0000
     25 ****        -1.1515   1.0820   1.9743 H              1 S1                 0.0000
     26 ****        -4.2068   0.9860   1.8910 H              1 S1                 0.0000
     27 ****        -3.2462   2.1182   2.8094 H              1 S1                 0.0000
     28 ****        -4.0800   3.1505   0.7073 H              1 S1                 0.0000
     29 ****        -2.3335   3.1136   0.7471 H              1 S1                 0.0000
     30 ****        -4.1430   1.1650  -0.7631 H              1 S1                 0.0000
     31 ****        -3.1295   2.3951  -1.4799 H              1 S1                 0.0000
     32 ****        -2.0672   0.1371  -1.6115 H              1 S1                 0.0000
     33 ****        -1.0930   1.2631  -0.6991 H              1 S1                 0.0000
     34 ****        -3.0055  -0.8120   0.4677 H              1 S1                 0.0000
     35 ****        -1.3193  -2.2073   0.3361 H              1 S1                 0.0000
     36 ****         0.4788  -3.0382   0.2277 H              1 S1                 0.0000
     37 ****         2.9193  -1.5017   0.8801 H              1 S1                 0.0000
     38 ****         2.7534  -3.2267   0.7424 H              1 S1                 0.0000
     39 ****         4.0743  -2.2999  -1.1690 H              1 S1                 0.0000
     40 ****         2.6502  -3.1330  -1.6972 H              1 S1                 0.0000
     41 ****         0.9442  -2.0706  -2.9952 H              1 S1                 0.0000
     42 ****         0.1946  -0.0414  -4.2426 H              1 S1                 0.0000
     43 ****         3.0969   2.3122  -2.4975 H              1 S1                 0.0000
     44 ****         4.7649   1.4716  -1.0304 H              1 S1                 0.0000
     45 ****         5.1357  -0.2471  -1.0822 H              1 S1                 0.0000
     46 ****         4.0280   0.3895   0.1463 H              1 S1                 0.0000
     47 ****        -3.2007  -0.6243   3.0256 LP             1 S1                 0.0000
     48 ****        -1.7308  -1.2418   2.6723 LP             1 S1                 0.0000
     49 ****         0.2679   0.8721   0.7872 LP             1 S1                 0.0000
     50 ****         1.8341   0.1353   0.7223 LP             1 S1                 0.0000
     51 ****         1.2807   2.0164  -3.9394 LP             1 S1                 0.0000
@<TRIPOS>BOND
    1    1    2 1     
    2    1   22 1     
    3    1   23 1     
    4    1   24 1     
    5    2    3 1     
    6    3    8 1     
    7    3    4 1     
    8    3   25 1     
    9    4    5 1     
   10    4   26 1     
   11    4   27 1     
   12    5    6 1     
   13    5   28 1     
   14    5   29 1     
   15    6    7 1     
   16    6   30 1     
   17    6   31 1     
   18    7    8 1     
   19    7   32 1     
   20    7   33 1     
   21    8    9 1     
   22    8   34 1     
   23    9   10 am    
   24    9   35 1     
   25   10   11 2     
   26   10   12 am    
   27   12   13 1     
   28   12   36 1     
   29   13   14 1     
   30   13   37 1     
   31   13   38 1     
   32   14   15 1     
   33   14   39 1     
   34   14   40 1     
   35   15   20 ar    
   36   15   16 ar    
   37   16   17 ar    
   38   16   41 1     
   39   17   18 ar    
   40   17   42 1     
   41   18   19 ar    
   42   19   20 ar    
   43   19   43 1     
   44   20   21 1     
   45   21   44 1     
   46   21   45 1     
   47   21   46 1     
   48    2   47 1     
   49    2   48 1     
   50   11   49 1     
   51   11   50 1     
   52   18   51 1     
@<TRIPOS>SUBSTRUCTURE
      1 S1             1
@<TRIPOS>SET
LONE_PAIRS      STATIC     ATOMS    <user>   **** ""
5 47 48 49 50 51
DONOR_HYDROGENS      STATIC     ATOMS    <user>   **** ""
2 35 36
ATOM$BLUE        STATIC     ATOMS    COLORGROUP SYSTEM
5 47 48 49 50 51
ATOM$RED        STATIC     ATOMS    COLORGROUP SYSTEM
2 35 36
