#       Name:                AV-unprocessed.smi:2079
#       Creating user name   scv26
#       Creation time:       Fri Mar 27 11:19:11 2020


#       File generated by GOLD software.
#

@<TRIPOS>MOLECULE
AV-unprocessed.smi:2079
    47    48     1
SMALL
NO_CHARGES


@<TRIPOS>ATOM
      1 ****        -7.2311   3.9146  -0.4064 C.3            1 S1                 0.0000
      2 ****        -5.8498   3.3566  -0.4412 C.2            1 S1                 0.0000
      3 ****        -5.3157   2.2282  -0.9967 C.2            1 S1                 0.0000
      4 ****        -3.9404   2.3211  -0.6534 C.2            1 S1                 0.0000
      5 ****        -3.0232   1.3156  -1.0591 N.am           1 S1                 0.0000
      6 ****        -1.6939   1.2571  -0.8583 C.2            1 S1                 0.0000
      7 ****        -1.1157   2.1544  -0.2332 O.2            1 S1                 0.0000
      8 ****        -1.1377   0.1403  -1.4049 N.pl3          1 S1                -1.0000
      9 ****         0.2915  -0.1682  -1.4005 C.3            1 S1                 0.0000
     10 ****         0.6976  -0.8193  -0.0623 C.3            1 S1                 0.0000
     11 ****         2.1525  -1.1286  -0.0144 N.4            1 S1                 1.0000
     12 ****         2.5040  -2.4954  -0.4977 C.3            1 S1                 0.0000
     13 ****         4.0264  -2.6524  -0.6443 C.3            1 S1                 0.0000
     14 ****         4.7473  -2.3279   0.6701 C.3            1 S1                 0.0000
     15 ****         4.3355  -0.9346   1.1693 C.3            1 S1                 0.0000
     16 ****         2.8036  -0.7892   1.2864 C.3            1 S1                 0.0000
     17 ****         2.2275  -1.5775   2.4831 C.3            1 S1                 0.0000
     18 ****        -3.6623   3.4075   0.0520 N.2            1 S1                 0.0000
     19 ****        -4.8839   4.0768   0.1906 O.3            1 S1                 0.0000
     20 ****        -7.9533   3.1912  -0.7852 H              1 S1                 0.0000
     21 ****        -7.2987   4.8135  -1.0191 H              1 S1                 0.0000
     22 ****        -7.5174   4.1762   0.6123 H              1 S1                 0.0000
     23 ****        -5.8271   1.4622  -1.5605 H              1 S1                 0.0000
     24 ****        -3.4206   0.5477  -1.5797 H              1 S1                 0.0000
     25 ****         0.5435  -0.8486  -2.2140 H              1 S1                 0.0000
     26 ****         0.9054   0.7184  -1.5662 H              1 S1                 0.0000
     27 ****         0.4477  -0.1208   0.7377 H              1 S1                 0.0000
     28 ****         0.1159  -1.7224   0.1299 H              1 S1                 0.0000
     29 ****         2.1061  -3.2493   0.1819 H              1 S1                 0.0000
     30 ****         2.0389  -2.6826  -1.4659 H              1 S1                 0.0000
     31 ****         4.2680  -3.6674  -0.9614 H              1 S1                 0.0000
     32 ****         4.3866  -1.9889  -1.4317 H              1 S1                 0.0000
     33 ****         4.5080  -3.0823   1.4198 H              1 S1                 0.0000
     34 ****         5.8271  -2.3705   0.5251 H              1 S1                 0.0000
     35 ****         4.8115  -0.7237   2.1276 H              1 S1                 0.0000
     36 ****         4.7127  -0.1837   0.4735 H              1 S1                 0.0000
     37 ****         2.6043   0.2669   1.4749 H              1 S1                 0.0000
     38 ****         2.7076  -1.2692   3.4120 H              1 S1                 0.0000
     39 ****         2.3767  -2.6521   2.3852 H              1 S1                 0.0000
     40 ****         1.1585  -1.4043   2.6058 H              1 S1                 0.0000
     41 ****         2.5646  -0.4904  -0.6802 H              1 S1                 0.0000
     42 ****        -1.6363   2.9289   0.1261 LP             1 S1                 0.0000
     43 ****        -0.1276   2.1053  -0.0872 LP             1 S1                 0.0000
     44 ****        -1.7520  -0.5170  -1.8414 LP             1 S1                 0.0000
     45 ****        -2.7714   3.6889   0.4086 LP             1 S1                 0.0000
     46 ****        -5.1107   4.1659   1.1604 LP             1 S1                 0.0000
     47 ****        -4.8182   4.9857  -0.2212 LP             1 S1                 0.0000
@<TRIPOS>BOND
    1    1    2 1     
    2    1   20 1     
    3    1   21 1     
    4    1   22 1     
    5    2   19 1     
    6    2    3 2     
    7    3    4 1     
    8    3   23 1     
    9    4    5 1     
   10    4   18 2     
   11    5    6 am    
   12    5   24 1     
   13    6    7 2     
   14    6    8 1     
   15    8    9 1     
   16    9   10 1     
   17    9   25 1     
   18    9   26 1     
   19   10   11 1     
   20   10   27 1     
   21   10   28 1     
   22   11   16 1     
   23   11   12 1     
   24   11   41 1     
   25   12   13 1     
   26   12   29 1     
   27   12   30 1     
   28   13   14 1     
   29   13   31 1     
   30   13   32 1     
   31   14   15 1     
   32   14   33 1     
   33   14   34 1     
   34   15   16 1     
   35   15   35 1     
   36   15   36 1     
   37   16   17 1     
   38   16   37 1     
   39   17   38 1     
   40   17   39 1     
   41   17   40 1     
   42   18   19 1     
   43    7   42 1     
   44    7   43 1     
   45    8   44 1     
   46   18   45 1     
   47   19   46 1     
   48   19   47 1     
@<TRIPOS>SUBSTRUCTURE
      1 S1             1
@<TRIPOS>SET
LONE_PAIRS      STATIC     ATOMS    <user>   **** ""
6 42 43 44 45 46 47
DONOR_HYDROGENS      STATIC     ATOMS    <user>   **** ""
2 24 41
ATOM$BLUE        STATIC     ATOMS    COLORGROUP SYSTEM
6 42 43 44 45 46 47
ATOM$RED        STATIC     ATOMS    COLORGROUP SYSTEM
2 24 41
