#       Name:                AV-unprocessed.smi:2892
#       Creating user name   scv26
#       Creation time:       Fri Mar 27 15:59:02 2020


#       File generated by GOLD software.
#

@<TRIPOS>MOLECULE
AV-unprocessed.smi:2892
    49    49     1
SMALL
NO_CHARGES


@<TRIPOS>ATOM
      1 ****        -4.3666  -2.7978   1.5549 C.3            1 S1                 0.0000
      2 ****        -3.8544  -2.0922   0.2903 C.3            1 S1                 0.0000
      3 ****        -2.3085  -2.0592   0.1533 C.3            1 S1                 0.0000
      4 ****        -1.7555  -3.4939  -0.0046 C.3            1 S1                 0.0000
      5 ****        -1.8282  -1.1443  -1.0167 C.3            1 S1                 0.0000
      6 ****        -0.3657  -1.1434  -1.0611 N.am           1 S1                 0.0000
      7 ****         0.3940  -0.9082  -2.1441 C.2            1 S1                 0.0000
      8 ****        -0.0662  -0.7400  -3.2732 O.2            1 S1                 0.0000
      9 ****         1.9090  -0.8663  -1.9222 C.3            1 S1                 0.0000
     10 ****         2.2604   0.1083  -0.8276 C.2            1 S1                 0.0000
     11 ****         2.4938  -0.1680   0.5500 C.2            1 S1                 0.0000
     12 ****         2.7199   1.0613   1.0983 C.2            1 S1                 0.0000
     13 ****         2.6430   1.9886   0.0790 N.pl3          1 S1                 0.0000
     14 ****         2.7619   3.4370   0.1503 C.3            1 S1                 0.0000
     15 ****         4.0488   3.8567   0.8777 C.3            1 S1                 0.0000
     16 ****         1.5091   4.0476   0.7957 C.3            1 S1                 0.0000
     17 ****         2.3624   1.4006  -1.1037 N.2            1 S1                 0.0000
     18 ****        -2.2872   0.3105  -0.7967 C.2            1 S1                 0.0000
     19 ****        -3.0780   0.7885  -1.6390 O.co2          1 S1                 0.0000
     20 ****        -1.8464   0.9161   0.2068 O.co2          1 S1                -1.0000
     21 ****        -5.4470  -2.6838   1.6440 H              1 S1                 0.0000
     22 ****        -3.9154  -2.3742   2.4525 H              1 S1                 0.0000
     23 ****        -4.1566  -3.8666   1.5405 H              1 S1                 0.0000
     24 ****        -4.2933  -2.5590  -0.5921 H              1 S1                 0.0000
     25 ****        -4.2553  -1.0797   0.3187 H              1 S1                 0.0000
     26 ****        -1.9035  -1.6580   1.0843 H              1 S1                 0.0000
     27 ****        -2.1282  -3.9606  -0.9168 H              1 S1                 0.0000
     28 ****        -2.0345  -4.1314   0.8330 H              1 S1                 0.0000
     29 ****        -0.6666  -3.5117  -0.0467 H              1 S1                 0.0000
     30 ****        -2.2319  -1.5183  -1.9599 H              1 S1                 0.0000
     31 ****         0.1055  -1.2599  -0.1761 H              1 S1                 0.0000
     32 ****         2.2535  -1.8686  -1.6663 H              1 S1                 0.0000
     33 ****         2.4074  -0.5936  -2.8536 H              1 S1                 0.0000
     34 ****         2.4732  -1.1196   1.0595 H              1 S1                 0.0000
     35 ****         2.9197   1.3499   2.1195 H              1 S1                 0.0000
     36 ****         2.8270   3.8156  -0.8716 H              1 S1                 0.0000
     37 ****         4.1680   4.9402   0.8624 H              1 S1                 0.0000
     38 ****         4.9283   3.4223   0.4014 H              1 S1                 0.0000
     39 ****         4.0427   3.5406   1.9213 H              1 S1                 0.0000
     40 ****         1.5626   5.1364   0.8034 H              1 S1                 0.0000
     41 ****         1.3886   3.7124   1.8262 H              1 S1                 0.0000
     42 ****         0.6093   3.7655   0.2477 H              1 S1                 0.0000
     43 ****        -1.0546  -0.7751  -3.4206 LP             1 S1                 0.0000
     44 ****         0.5484  -0.5682  -4.0431 LP             1 S1                 0.0000
     45 ****         2.2548   1.8436  -1.9937 LP             1 S1                 0.0000
     46 ****        -3.4083   1.7270  -1.5384 LP             1 S1                 0.0000
     47 ****        -3.3801   0.2323  -2.4132 LP             1 S1                 0.0000
     48 ****        -2.1256   1.8598   0.3839 LP             1 S1                 0.0000
     49 ****        -1.2151   0.4560   0.8311 LP             1 S1                 0.0000
@<TRIPOS>BOND
    1    1    2 1     
    2    1   21 1     
    3    1   22 1     
    4    1   23 1     
    5    2    3 1     
    6    2   24 1     
    7    2   25 1     
    8    3    4 1     
    9    3    5 1     
   10    3   26 1     
   11    4   27 1     
   12    4   28 1     
   13    4   29 1     
   14    5    6 1     
   15    5   18 1     
   16    5   30 1     
   17    6    7 am    
   18    6   31 1     
   19    7    8 2     
   20    7    9 1     
   21    9   10 1     
   22    9   32 1     
   23    9   33 1     
   24   10   17 2     
   25   10   11 1     
   26   11   12 2     
   27   11   34 1     
   28   12   13 1     
   29   12   35 1     
   30   13   14 1     
   31   13   17 1     
   32   14   15 1     
   33   14   16 1     
   34   14   36 1     
   35   15   37 1     
   36   15   38 1     
   37   15   39 1     
   38   16   40 1     
   39   16   41 1     
   40   16   42 1     
   41   18   19 ar    
   42   18   20 ar    
   43    8   43 1     
   44    8   44 1     
   45   17   45 1     
   46   19   46 1     
   47   19   47 1     
   48   20   48 1     
   49   20   49 1     
@<TRIPOS>SUBSTRUCTURE
      1 S1             1
@<TRIPOS>SET
LONE_PAIRS      STATIC     ATOMS    <user>   **** ""
7 43 44 45 46 47 48 49
DONOR_HYDROGENS      STATIC     ATOMS    <user>   **** ""
1 31
ATOM$BLUE        STATIC     ATOMS    COLORGROUP SYSTEM
7 43 44 45 46 47 48 49
ATOM$RED        STATIC     ATOMS    COLORGROUP SYSTEM
1 31
