AV-unprocessed.smi:1762|AV-procd|sdf|7102|dock7
  -GOLD-   22720 8323D 1   1.00000     0.00000
 Structure written by MMmdl.
 52 53  0  0  0  0  0  0  0  0  1 V2000
  152.2077  144.9838  159.0713 C   0  0  0  0  0  0  0  0  0  0  0  0
  151.9784  143.5116  159.4300 C   0  0  1  0  0  0  0  0  0  0  0  0
  151.5083  142.6808  158.2207 C   0  0  0  0  0  0  0  0  0  0  0  0
  151.3566  141.2554  158.5360 N   0  0  0  0  0  0  0  0  0  0  0  0
  150.8708  140.4519  157.3791 C   0  0  1  0  0  0  0  0  0  0  0  0
  150.8002  138.9362  157.6818 C   0  0  0  0  0  0  0  0  0  0  0  0
  151.4995  138.1412  157.0526 O   0  0  0  0  0  0  0  0  0  0  0  0
  149.9258  138.5509  158.6250 N   0  0  0  0  0  0  0  0  0  0  0  0
  149.6765  137.1701  159.0192 C   0  0  0  0  0  0  0  0  0  0  0  0
  148.1743  136.9055  159.2161 C   0  0  0  0  0  0  0  0  0  0  0  0
  147.8675  136.3338  160.5870 C   0  0  0  0  0  0  0  0  0  0  0  0
  147.7391  134.9407  160.7737 C   0  0  0  0  0  0  0  0  0  0  0  0
  147.4629  134.4599  162.0683 C   0  0  0  0  0  0  0  0  0  0  0  0
  147.3275  135.3857  163.1206 C   0  0  0  0  0  0  0  0  0  0  0  0
  147.4745  136.7567  162.8304 C   0  0  0  0  0  0  0  0  0  0  0  0
  147.7395  137.2285  161.5928 N   0  0  0  0  0  0  0  0  0  0  0  0
  149.5347  140.9545  156.7357 C   0  0  0  0  0  0  0  0  0  0  0  0
  148.3256  140.9166  157.6913 C   0  0  0  0  0  0  0  0  0  0  0  0
  149.1909  140.2524  155.4066 C   0  0  0  0  0  0  0  0  0  0  0  0
  152.6195  140.7709  159.1214 C   0  0  0  0  0  0  0  0  0  0  0  0
  153.0893  141.6191  160.3190 C   0  0  1  0  0  0  0  0  0  0  0  0
  154.4523  141.1651  160.8538 C   0  0  0  0  0  0  0  0  0  0  0  0
  153.2032  142.9777  159.9157 O   0  0  0  0  0  0  0  0  0  0  0  0
  151.2905  145.4463  158.7059 H   0  0  0  0  0  0  0  0  0  0  0  0
  152.9676  145.0873  158.2962 H   0  0  0  0  0  0  0  0  0  0  0  0
  152.5407  145.5492  159.9420 H   0  0  0  0  0  0  0  0  0  0  0  0
  151.2290  143.4586  160.2219 H   0  0  0  0  0  0  0  0  0  0  0  0
  150.5611  143.1069  157.8964 H   0  0  0  0  0  0  0  0  0  0  0  0
  152.2102  142.8054  157.3942 H   0  0  0  0  0  0  0  0  0  0  0  0
  151.6247  140.5549  156.5955 H   0  0  0  0  0  0  0  0  0  0  0  0
  149.3843  139.2646  159.0907 H   0  0  0  0  0  0  0  0  0  0  0  0
  150.0910  136.4869  158.2760 H   0  0  0  0  0  0  0  0  0  0  0  0
  150.2145  136.9809  159.9486 H   0  0  0  0  0  0  0  0  0  0  0  0
  147.6114  137.8308  159.0841 H   0  0  0  0  0  0  0  0  0  0  0  0
  147.8096  136.2156  158.4539 H   0  0  0  0  0  0  0  0  0  0  0  0
  147.8518  134.2555  159.9463 H   0  0  0  0  0  0  0  0  0  0  0  0
  147.3579  133.4006  162.2508 H   0  0  0  0  0  0  0  0  0  0  0  0
  147.1166  135.0532  164.1264 H   0  0  0  0  0  0  0  0  0  0  0  0
  147.3774  137.4944  163.6133 H   0  0  0  0  0  0  0  0  0  0  0  0
  149.6779  141.9952  156.4499 H   0  0  0  0  0  0  0  0  0  0  0  0
  148.0493  139.8975  157.9596 H   0  0  0  0  0  0  0  0  0  0  0  0
  147.4525  141.3774  157.2284 H   0  0  0  0  0  0  0  0  0  0  0  0
  148.5255  141.4619  158.6138 H   0  0  0  0  0  0  0  0  0  0  0  0
  148.9130  139.2083  155.5529 H   0  0  0  0  0  0  0  0  0  0  0  0
  150.0345  140.2820  154.7164 H   0  0  0  0  0  0  0  0  0  0  0  0
  148.3507  140.7431  154.9145 H   0  0  0  0  0  0  0  0  0  0  0  0
  152.5233  139.7475  159.4824 H   0  0  0  0  0  0  0  0  0  0  0  0
  153.3971  140.7596  158.3556 H   0  0  0  0  0  0  0  0  0  0  0  0
  152.3569  141.5482  161.1253 H   0  0  0  0  0  0  0  0  0  0  0  0
  154.4179  140.1284  161.1894 H   0  0  0  0  0  0  0  0  0  0  0  0
  154.7623  141.7781  161.7004 H   0  0  0  0  0  0  0  0  0  0  0  0
  155.2231  141.2437  160.0864 H   0  0  0  0  0  0  0  0  0  0  0  0
  1  2  1  0  0  0  0
  1 24  1  0  0  0  0
  1 25  1  0  0  0  0
  1 26  1  0  0  0  0
  2 23  1  0  0  0  0
  2  3  1  0  0  0  0
  2 27  1  0  0  0  0
  3  4  1  0  0  0  0
  3 28  1  0  0  0  0
  3 29  1  0  0  0  0
  4  5  1  0  0  0  0
  4 20  1  0  0  0  0
  5  6  1  0  0  0  0
  5 17  1  0  0  0  0
  5 30  1  0  0  0  0
  6  7  2  0  0  0  0
  6  8  1  0  0  0  0
  8  9  1  0  0  0  0
  8 31  1  0  0  0  0
  9 10  1  0  0  0  0
  9 32  1  0  0  0  0
  9 33  1  0  0  0  0
 10 11  1  0  0  0  0
 10 34  1  0  0  0  0
 10 35  1  0  0  0  0
 11 16  1  0  0  0  0
 11 12  2  0  0  0  0
 12 13  1  0  0  0  0
 12 36  1  0  0  0  0
 13 14  2  0  0  0  0
 13 37  1  0  0  0  0
 14 15  1  0  0  0  0
 14 38  1  0  0  0  0
 15 16  2  0  0  0  0
 15 39  1  0  0  0  0
 17 18  1  0  0  0  0
 17 19  1  0  0  0  0
 17 40  1  0  0  0  0
 18 41  1  0  0  0  0
 18 42  1  0  0  0  0
 18 43  1  0  0  0  0
 19 44  1  0  0  0  0
 19 45  1  0  0  0  0
 19 46  1  0  0  0  0
 20 21  1  0  0  0  0
 20 47  1  0  0  0  0
 20 48  1  0  0  0  0
 21 22  1  0  0  0  0
 21 23  1  0  0  0  0
 21 49  1  0  0  0  0
 22 50  1  0  0  0  0
 22 51  1  0  0  0  0
 22 52  1  0  0  0  0
M  END
> <s_m_source_file>
AV-unprocessed.smi

> <i_m_source_file_index>
1762

> <i_lp_mmshare_version>
43012

> <i_f3d_flags>
0

> <s_epik_input>
W0NIM11bQ0BASF0xW0NIMl1OKFtDSDJdW0NASF0oTzEpW0NIM10pW0NAQEhdKFtDSF0oW0NIM10pW0NIM10pQyg9TylbTkhdW0NIMl1bQ0gyXWMyW2NIXVtjSF1bY0hdW2NIXW4y

> <s_epik_cmdline>
J2VwaWtfcHl0aG9uJywgJy1waCcsICc3LjAnLCAnLXRuJywgJzgnLCAnLW1hJywgJzIwMCcsICctbWV0YWxfYmluZGluZycsICctaW1hZScsICc8aW5maWxlLm1hZT4nLCAnLW9tYWUnLCAnPG91dGZpbGUubWFlPic=

> <r_epik_Ionization_Penalty>
0.0399736

> <r_epik_Ionization_Penalty_Charging>
0

> <r_epik_Ionization_Penalty_Neutral>
0.0399736

> <r_epik_State_Penalty>
0.0317634

> <r_epik_Charging_Adjusted_Penalty>
0.0317634

> <i_epik_Tot_Q>
0

> <i_epik_Tot_abs_Q>
0

> <r_epik_Metal_State_Penalty>
0.0307795

> <b_epik_Metal_Only>
0

> <s_lp_Force_Field>
OPLS_2005

> <r_lp_Energy>
24.971

> <b_lp_Chiralities_Consistent>
1

> <s_lp_Variant>
AV-unprocessed.smi:1762-4

> <Gold.Version>
5.8.1

> <Gold.Id.Protein>
6NUR|6NUR_protein|mol2

> <Gold.PLP.Fitness>
51.6409

> <Gold.PLP.PLP>
-47.9860

> <Gold.PLP.part.hbond>
-2.0000

> <Gold.PLP.part.metal>
0.0000

> <Gold.PLP.part.buried>
-6.1289

> <Gold.PLP.part.nonpolar>
-40.3553

> <Gold.PLP.part.repulsive>
0.1830

> <Gold.PLP.ligand.clash>
0.0000

> <Gold.PLP.ligand.torsion>
0.9602

> <Gold.PLP.Chemscore.Hbond>
1.7520

> <Gold.PLP.Chemscore.CHOScore>
0.0000

> <Gold.PLP.Chemscore.Metal>
0.0000

> <Gold.Chemscore.Hbonds>
donor molecule, donor type, donor heavy atom, donor atom, acceptor molecule, acceptor atom, score
      P1  H  6931  6943       L1    16  1.00
      P1  H  6934  6947       L1    16  0.72

> <Gold.PLP.Chemscore.Internal.Correction>
0.3193

> <Gold.Rescore>
     Score         DG    S(hbond)    S(metal)    S(lipo)     H(rot)  DE(clash)    DE(int)     intcor
     18.67     -19.70       1.12        0.00     124.53       1.60       0.01       1.03       ----

> <Gold.Chemscore.Fitness>
18.6656

> <Gold.Chemscore.DG>
-19.7034

> <Gold.Chemscore.ZeroCoef>
-5.4800

> <Gold.Chemscore.Hbond>
1.1220

> <Gold.Chemscore.Metal>
0.0000

> <Gold.Chemscore.Lipo>
124.5302

> <Gold.Chemscore.Internal_Hbond>
0.0000

> <Gold.Chemscore.DEClash>
0.0082

> <Gold.Chemscore.DEInternal>
1.0295

> <Gold.Chemscore.Rot>
1.5993

> <Gold.Chemscore.Internal.Correction>
   9.000000E+99

> <Gold.Chemscore.Hbonds>
donor molecule, donor type, donor heavy atom, donor atom, acceptor molecule, acceptor atom, score
      P1  H  6931  6943       L1    16  0.27
      P1  H  6934  6947       L1    16  0.59

> <Gold.Chemscore.Hbond.Weighted>
-3.7474

> <Gold.Chemscore.Metal.Weighted>
-0.0000

> <Gold.Chemscore.Lipo.Weighted>
-14.5700

> <Gold.Chemscore.Internal_Hbond.Weighted>
0.0000

> <Gold.Chemscore.DEClash.Weighted>
0.0082

> <Gold.Chemscore.DEInternal.Weighted>
1.0295

> <Gold.Chemscore.Rot.Weighted>
4.0941

> <Gold.Chemscore.Internal.Correction.Weighted>
   9.000000E+99

> <Gold.Protein.RotatedTorsions>
[ 6907 6896 6895 6894 ] final  -10.30 input  -60.11 | X-H torsion
[ 7974 7965 7964 7962 ] final   51.23 input  175.53 | X-H torsion
[ 8008 7997 7996 7995 ] final  123.79 input   59.86 | X-H torsion
[ 10167 10162 10161 10158 ] final  -94.75 input  -65.29 | X-H torsion
[ 10718 10713 10712 10709 ] final   75.86 input   66.30 | X-H torsion
[ 10763 10752 10751 10750 ] final  166.71 input  -60.55 | X-H torsion
[ 11005 11000 10999 10996 ] final  126.86 input  -57.11 | X-H torsion

> <Gold.Protein.ActiveResidues>
 VAL166  LYS551  ARG553  GLY616  TRP617  ASP618  TYR619  PRO620  LYS621  CYS622 
 ASP623  PHE694  ASN695  SER759  ASP760  ASP761  ALA762  ILE779  LEU786  VAL792 
 PHE793  MET794  SER795  GLU796  ALA797  LYS798  CYS799  TRP800  GLU811  SER814 

> <Gold.Protein.RotatedAtoms>
  151.4042  135.0975  159.9564 H   0  0  0  0  0  0  0  0  0  0  0  0  # atno 6907 bound_to 6896
  152.5041  133.8859  159.7380 H   0  0  0  0  0  0  0  0  0  0  0  0  # atno 6908 bound_to 6896
  150.9340  133.6677  159.2833 H   0  0  0  0  0  0  0  0  0  0  0  0  # atno 6909 bound_to 6896
  145.9934  139.4362  143.0059 H   0  0  0  0  0  0  0  0  0  0  0  0  # atno 7974 bound_to 7965
  156.2778  140.2755  156.1684 H   0  0  0  0  0  0  0  0  0  0  0  0  # atno 8008 bound_to 7997
  155.0680  140.0387  157.2617 H   0  0  0  0  0  0  0  0  0  0  0  0  # atno 8009 bound_to 7997
  154.7063  140.2659  155.6677 H   0  0  0  0  0  0  0  0  0  0  0  0  # atno 8010 bound_to 7997
  140.3112  143.3104  152.0146 H   0  0  0  0  0  0  0  0  0  0  0  0  # atno 10167 bound_to 10162
  157.6651  130.9746  150.1413 H   0  0  0  0  0  0  0  0  0  0  0  0  # atno 10718 bound_to 10713
  154.3430  135.2754  155.2412 H   0  0  0  0  0  0  0  0  0  0  0  0  # atno 10763 bound_to 10752
  154.4675  135.5891  153.6302 H   0  0  0  0  0  0  0  0  0  0  0  0  # atno 10764 bound_to 10752
  152.9856  135.6080  154.3633 H   0  0  0  0  0  0  0  0  0  0  0  0  # atno 10765 bound_to 10752
  139.9477  134.9627  156.8769 H   0  0  0  0  0  0  0  0  0  0  0  0  # atno 11005 bound_to 11000
  145.7596  140.9940  143.1207 LP  0  0  0  0  0  0  0  0  0  0  0  0  # atno 17320 bound_to 7965
  144.6896  139.9314  143.7472 LP  0  0  0  0  0  0  0  0  0  0  0  0  # atno 17321 bound_to 7965
  139.4893  144.6383  151.6930 LP  0  0  0  0  0  0  0  0  0  0  0  0  # atno 17342 bound_to 10162
  140.5566  144.0337  150.6150 LP  0  0  0  0  0  0  0  0  0  0  0  0  # atno 17343 bound_to 10162
  156.2235  130.3676  149.8528 LP  0  0  0  0  0  0  0  0  0  0  0  0  # atno 17370 bound_to 10713
  156.6374  130.8691  151.3507 LP  0  0  0  0  0  0  0  0  0  0  0  0  # atno 17371 bound_to 10713
  140.5793  134.0367  155.7458 LP  0  0  0  0  0  0  0  0  0  0  0  0  # atno 17394 bound_to 11000
  141.1133  133.9582  157.2870 LP  0  0  0  0  0  0  0  0  0  0  0  0  # atno 17395 bound_to 11000

$$$$
