AV-unprocessed.smi:1|AV-procd|sdf|9|dock10
  -GOLD-   2262015 93D 1   1.00000     0.00000
 Structure written by MMmdl.
 57 62  0  0  0  0  0  0  0  0  1 V2000
  146.4646  133.1235  155.1262 O   0  0  0  0  0  0  0  0  0  0  0  0
  146.2304  133.6871  154.0538 C   0  0  0  0  0  0  0  0  0  0  0  0
  146.3376  135.0345  153.7362 N   0  0  0  0  0  0  0  0  0  0  0  0
  147.3520  135.7259  154.1594 C   0  0  0  0  0  0  0  0  0  0  0  0
  148.4727  135.3892  154.9299 N   0  0  0  0  0  0  0  0  0  0  0  0
  149.5089  136.2608  155.3005 C   0  0  0  0  0  0  0  0  0  0  0  0
  149.5736  137.5250  154.9775 N   0  0  0  0  0  0  0  0  0  0  0  0
  148.4819  137.9100  154.2124 C   0  0  0  0  0  0  0  0  0  0  0  0
  147.4104  137.1555  153.7871 C   0  0  0  0  0  0  0  0  0  0  0  0
  146.5299  137.9272  153.0370 N   0  0  0  0  0  0  0  0  0  0  0  0
  147.1157  139.1218  153.0386 C   0  0  0  0  0  0  0  0  0  0  0  0
  148.2850  139.1910  153.7064 N   0  0  0  0  0  0  0  0  0  0  0  0
  149.1864  140.3768  153.8880 C   0  0  2  0  0  0  0  0  0  0  0  0
  150.3999  139.9397  154.4219 O   0  0  0  0  0  0  0  0  0  0  0  0
  150.4130  140.1587  155.8271 C   0  0  1  0  0  0  0  0  0  0  0  0
  151.8526  140.1742  156.3485 C   0  0  0  0  0  0  0  0  0  0  0  0
  151.9395  141.1020  157.4171 O   0  0  0  0  0  0  0  0  0  0  0  0
  152.7864  140.8786  158.4395 C   0  0  0  0  0  0  0  0  0  0  0  0
  153.5376  139.9032  158.5027 O   0  0  0  0  0  0  0  0  0  0  0  0
  152.7176  141.9354  159.4898 C   0  0  0  0  0  0  0  0  0  0  0  0
  152.1311  143.1844  159.1788 C   0  0  0  0  0  0  0  0  0  0  0  0
  152.0533  144.2020  160.1494 C   0  0  0  0  0  0  0  0  0  0  0  0
  152.5604  143.9827  161.4435 C   0  0  0  0  0  0  0  0  0  0  0  0
  153.1454  142.7444  161.7658 C   0  0  0  0  0  0  0  0  0  0  0  0
  153.2249  141.7257  160.7962 C   0  0  0  0  0  0  0  0  0  0  0  0
  149.6962  141.5019  155.9555 C   0  0  2  0  0  0  0  0  0  0  0  0
  149.0943  141.6644  157.2277 O   0  0  0  0  0  0  0  0  0  0  0  0
  147.5071  141.1495  157.1451 S   0  0  0  0  0  0  0  0  0  0  0  0
  147.4130  139.8344  157.7971 O   0  0  0  0  0  0  0  0  0  0  0  0
  146.6373  142.2783  157.5083 O   0  0  0  0  0  0  0  0  0  0  0  0
  147.4054  140.9189  155.4952 O   0  0  0  0  0  0  0  0  0  0  0  0
  148.5974  141.3952  154.8871 C   0  0  2  0  0  0  0  0  0  0  0  0
  145.7868  132.8456  152.9022 C   0  0  0  0  0  0  0  0  0  0  0  0
  146.0821  131.4660  152.8803 C   0  0  0  0  0  0  0  0  0  0  0  0
  145.6767  130.6741  151.7884 C   0  0  0  0  0  0  0  0  0  0  0  0
  144.9770  131.2589  150.7150 C   0  0  0  0  0  0  0  0  0  0  0  0
  144.6828  132.6361  150.7333 C   0  0  0  0  0  0  0  0  0  0  0  0
  145.0878  133.4297  151.8245 C   0  0  0  0  0  0  0  0  0  0  0  0
  150.2892  135.7914  155.9015 H   0  0  0  0  0  0  0  0  0  0  0  0
  146.6754  139.9691  152.5346 H   0  0  0  0  0  0  0  0  0  0  0  0
  149.3277  140.7718  152.8814 H   0  0  0  0  0  0  0  0  0  0  0  0
  149.8335  139.3793  156.3245 H   0  0  0  0  0  0  0  0  0  0  0  0
  152.1539  139.1765  156.6711 H   0  0  0  0  0  0  0  0  0  0  0  0
  152.5329  140.4859  155.5550 H   0  0  0  0  0  0  0  0  0  0  0  0
  151.7350  143.3759  158.1919 H   0  0  0  0  0  0  0  0  0  0  0  0
  151.6039  145.1519  159.8998 H   0  0  0  0  0  0  0  0  0  0  0  0
  152.5005  144.7628  162.1881 H   0  0  0  0  0  0  0  0  0  0  0  0
  153.5348  142.5749  162.7588 H   0  0  0  0  0  0  0  0  0  0  0  0
  153.6805  140.7872  161.0770 H   0  0  0  0  0  0  0  0  0  0  0  0
  150.3707  142.3289  155.7298 H   0  0  0  0  0  0  0  0  0  0  0  0
  148.4080  142.3489  154.3936 H   0  0  0  0  0  0  0  0  0  0  0  0
  146.6214  131.0113  153.6988 H   0  0  0  0  0  0  0  0  0  0  0  0
  145.9043  129.6186  151.7734 H   0  0  0  0  0  0  0  0  0  0  0  0
  144.6678  130.6512  149.8773 H   0  0  0  0  0  0  0  0  0  0  0  0
  144.1481  133.0847  149.9090 H   0  0  0  0  0  0  0  0  0  0  0  0
  144.8616  134.4862  151.8297 H   0  0  0  0  0  0  0  0  0  0  0  0
  148.5414  134.4319  155.2440 H   0  0  0  0  0  0  0  0  0  0  0  0
  1  2  2  0  0  0  0
  2  3  1  0  0  0  0
  2 33  1  0  0  0  0
  3  4  2  0  0  0  0
  4  9  1  0  0  0  0
  4  5  1  0  0  0  0
  5  6  1  0  0  0  0
  5 57  1  0  0  0  0
  6  7  2  0  0  0  0
  6 39  1  0  0  0  0
  7  8  1  0  0  0  0
  8 12  1  0  0  0  0
  8  9  2  0  0  0  0
  9 10  1  0  0  0  0
 10 11  2  0  0  0  0
 11 12  1  0  0  0  0
 11 40  1  0  0  0  0
 12 13  1  0  0  0  0
 13 32  1  0  0  0  0
 13 14  1  0  0  0  0
 13 41  1  0  0  0  0
 14 15  1  0  0  0  0
 15 16  1  0  0  0  0
 15 26  1  0  0  0  0
 15 42  1  0  0  0  0
 16 17  1  0  0  0  0
 16 43  1  0  0  0  0
 16 44  1  0  0  0  0
 17 18  1  0  0  0  0
 18 19  2  0  0  0  0
 18 20  1  0  0  0  0
 20 25  1  0  0  0  0
 20 21  2  0  0  0  0
 21 22  1  0  0  0  0
 21 45  1  0  0  0  0
 22 23  2  0  0  0  0
 22 46  1  0  0  0  0
 23 24  1  0  0  0  0
 23 47  1  0  0  0  0
 24 25  2  0  0  0  0
 24 48  1  0  0  0  0
 25 49  1  0  0  0  0
 26 32  1  0  0  0  0
 26 27  1  0  0  0  0
 26 50  1  0  0  0  0
 27 28  1  0  0  0  0
 28 29  2  0  0  0  0
 28 30  2  0  0  0  0
 28 31  1  0  0  0  0
 31 32  1  0  0  0  0
 32 51  1  0  0  0  0
 33 38  1  0  0  0  0
 33 34  2  0  0  0  0
 34 35  1  0  0  0  0
 34 52  1  0  0  0  0
 35 36  2  0  0  0  0
 35 53  1  0  0  0  0
 36 37  1  0  0  0  0
 36 54  1  0  0  0  0
 37 38  2  0  0  0  0
 37 55  1  0  0  0  0
 38 56  1  0  0  0  0
M  END
> <s_m_source_file>
AV-unprocessed.smi

> <i_m_source_file_index>
1

> <i_lp_mmshare_version>
43012

> <i_f3d_flags>
0

> <s_epik_input>
W2NIXTFbY0hdW2NIXVtjSF1bY0hdYzFDKD1PKVtOSF1jKG5bY0hdbjIpYyhjMjMpbltjSF1uM1tDQEBIXShbQ0BIXShbQ0BIXTQ1KU9TKE81KSg9Tyk9TylPW0NASF00W0NIMl1PQyg9TyljNltjSF1bY0hdW2NIXVtjSF1bY0hdNg==

> <s_epik_cmdline>
J2VwaWtfcHl0aG9uJywgJy1waCcsICc3LjAnLCAnLXRuJywgJzgnLCAnLW1hJywgJzIwMCcsICctbWV0YWxfYmluZGluZycsICctaW1hZScsICc8aW5maWxlLm1hZT4nLCAnLW9tYWUnLCAnPG91dGZpbGUubWFlPic=

> <r_epik_Ionization_Penalty>
0.122545

> <r_epik_Ionization_Penalty_Charging>
0.122545

> <r_epik_Ionization_Penalty_Neutral>
7.8935e-16

> <r_epik_State_Penalty>
2.69178

> <r_epik_Charging_Adjusted_Penalty>
2.81433

> <i_epik_Tot_Q>
0

> <i_epik_Tot_abs_Q>
0

> <r_epik_Metal_State_Penalty>
3.02665

> <b_epik_Metal_Only>
0

> <s_epik_Chemistry_Notes>
This compound has an ester and may undergo hydrolysis at high or low pH. This compound contains an acetal/aminal-like group ( X-CH(R)-Y where X, Y are N, S, or O) that may be acid/base labile, releasing an aldehyde.

> <s_lp_Force_Field>
OPLS_2005

> <r_lp_Energy>
57.7872

> <b_lp_Chiralities_Consistent>
1

> <s_lp_Variant>
AV-unprocessed.smi:1-9

> <Gold.Version>
5.8.1

> <Gold.Id.Protein>
6NUR|6NUR_protein|mol2

> <Gold.PLP.Fitness>
58.7173

> <Gold.PLP.PLP>
-53.3599

> <Gold.PLP.part.hbond>
-3.8280

> <Gold.PLP.part.metal>
0.0000

> <Gold.PLP.part.buried>
-1.7152

> <Gold.PLP.part.nonpolar>
-47.6886

> <Gold.PLP.part.repulsive>
0.9037

> <Gold.PLP.ligand.clash>
0.0000

> <Gold.PLP.ligand.torsion>
1.6003

> <Gold.PLP.Chemscore.Hbond>
1.9357

> <Gold.PLP.Chemscore.CHOScore>
0.8647

> <Gold.PLP.Chemscore.Metal>
0.0000

> <Gold.Chemscore.Hbonds>
donor molecule, donor type, donor heavy atom, donor atom, acceptor molecule, acceptor atom, score
      P1  H  7989  7998       L1    14  1.00
      P1  H  7997  8010       L1    19  0.96

> <Gold.PLP.Chemscore.Internal.Correction>
0.1567

> <Gold.Rescore>
     Score         DG    S(hbond)    S(metal)    S(lipo)     H(rot)  DE(clash)    DE(int)     intcor
     14.16     -21.03       1.65        0.00     132.47       2.13       0.45       6.42       ----

> <Gold.Chemscore.Fitness>
14.1620

> <Gold.Chemscore.DG>
-21.0297

> <Gold.Chemscore.ZeroCoef>
-5.4800

> <Gold.Chemscore.Hbond>
1.6503

> <Gold.Chemscore.Metal>
0.0000

> <Gold.Chemscore.Lipo>
132.4713

> <Gold.Chemscore.Internal_Hbond>
0.0000

> <Gold.Chemscore.DEClash>
0.4501

> <Gold.Chemscore.DEInternal>
6.4176

> <Gold.Chemscore.Rot>
2.1333

> <Gold.Chemscore.Internal.Correction>
   9.000000E+99

> <Gold.Chemscore.Hbonds>
donor molecule, donor type, donor heavy atom, donor atom, acceptor molecule, acceptor atom, score
      P1  H  7989  7998       L1    14  0.37
      P1  H  7997  8010       L1    19  0.37

> <Gold.Chemscore.Hbond.Weighted>
-5.5119

> <Gold.Chemscore.Metal.Weighted>
-0.0000

> <Gold.Chemscore.Lipo.Weighted>
-15.4991

> <Gold.Chemscore.Internal_Hbond.Weighted>
0.0000

> <Gold.Chemscore.DEClash.Weighted>
0.4501

> <Gold.Chemscore.DEInternal.Weighted>
6.4176

> <Gold.Chemscore.Rot.Weighted>
5.4614

> <Gold.Chemscore.Internal.Correction.Weighted>
   9.000000E+99

> <Gold.Protein.RotatedTorsions>
[ 6907 6896 6895 6894 ] final  -91.96 input  -60.11 | X-H torsion
[ 7974 7965 7964 7962 ] final   84.42 input  175.53 | X-H torsion
[ 8008 7997 7996 7995 ] final   41.21 input   59.86 | X-H torsion
[ 10167 10162 10161 10158 ] final  174.00 input  -65.29 | X-H torsion
[ 10718 10713 10712 10709 ] final  -90.65 input   66.30 | X-H torsion
[ 10763 10752 10751 10750 ] final -153.05 input  -60.55 | X-H torsion
[ 11005 11000 10999 10996 ] final  129.85 input  -57.11 | X-H torsion

> <Gold.Protein.ActiveResidues>
 VAL166  LYS551  ARG553  GLY616  TRP617  ASP618  TYR619  PRO620  LYS621  CYS622 
 ASP623  PHE694  ASN695  SER759  ASP760  ASP761  ALA762  ILE779  LEU786  VAL792 
 PHE793  MET794  SER795  GLU796  ALA797  LYS798  CYS799  TRP800  GLU811  SER814 

> <Gold.Protein.RotatedAtoms>
  150.6899  134.2196  159.4391 H   0  0  0  0  0  0  0  0  0  0  0  0  # atno 6907 bound_to 6896
  152.0153  134.9851  160.0578 H   0  0  0  0  0  0  0  0  0  0  0  0  # atno 6908 bound_to 6896
  152.1449  133.4451  159.4822 H   0  0  0  0  0  0  0  0  0  0  0  0  # atno 6909 bound_to 6896
  145.5989  139.2349  143.2257 H   0  0  0  0  0  0  0  0  0  0  0  0  # atno 7974 bound_to 7965
  155.2659  140.3362  155.4269 H   0  0  0  0  0  0  0  0  0  0  0  0  # atno 8008 bound_to 7997
  156.2154  140.1787  156.7643 H   0  0  0  0  0  0  0  0  0  0  0  0  # atno 8009 bound_to 7997
  154.5746  140.0664  156.8999 H   0  0  0  0  0  0  0  0  0  0  0  0  # atno 8010 bound_to 7997
  139.5127  144.3196  152.0215 H   0  0  0  0  0  0  0  0  0  0  0  0  # atno 10167 bound_to 10162
  155.9989  130.4918  150.5355 H   0  0  0  0  0  0  0  0  0  0  0  0  # atno 10718 bound_to 10713
  154.7954  135.3222  154.7679 H   0  0  0  0  0  0  0  0  0  0  0  0  # atno 10763 bound_to 10752
  153.8359  135.6875  153.4813 H   0  0  0  0  0  0  0  0  0  0  0  0  # atno 10764 bound_to 10752
  153.1643  135.4648  154.9757 H   0  0  0  0  0  0  0  0  0  0  0  0  # atno 10765 bound_to 10752
  139.9639  134.9595  156.9208 H   0  0  0  0  0  0  0  0  0  0  0  0  # atno 11005 bound_to 11000
  146.1591  140.6814  142.9286 LP  0  0  0  0  0  0  0  0  0  0  0  0  # atno 17320 bound_to 7965
  144.7318  140.4694  143.6932 LP  0  0  0  0  0  0  0  0  0  0  0  0  # atno 17321 bound_to 7965
  140.2638  144.4038  150.6176 LP  0  0  0  0  0  0  0  0  0  0  0  0  # atno 17342 bound_to 10162
  140.6138  143.2171  151.6833 LP  0  0  0  0  0  0  0  0  0  0  0  0  # atno 17343 bound_to 10162
  157.3298  131.0697  151.1869 LP  0  0  0  0  0  0  0  0  0  0  0  0  # atno 17370 bound_to 10713
  157.2754  130.6724  149.6039 LP  0  0  0  0  0  0  0  0  0  0  0  0  # atno 17371 bound_to 10713
  140.5440  134.0692  155.7349 LP  0  0  0  0  0  0  0  0  0  0  0  0  # atno 17394 bound_to 11000
  141.1317  133.9290  157.2520 LP  0  0  0  0  0  0  0  0  0  0  0  0  # atno 17395 bound_to 11000

$$$$
