AV-unprocessed.smi:690|AV-procd|sdf|3361|dock6
  -GOLD-   22720 0343D 1   1.00000     0.00000
 Structure written by MMmdl.
 46 48  0  0  0  0  0  0  0  0  1 V2000
  146.8435  139.5913  154.0402 C   0  0  0  0  0  0  0  0  0  0  0  0
  148.3264  139.8383  154.3238 C   0  0  0  0  0  0  0  0  0  0  0  0
  148.5674  139.6227  155.7040 O   0  0  0  0  0  0  0  0  0  0  0  0
  149.8551  140.0570  156.1223 C   0  0  1  0  0  0  0  0  0  0  0  0
  149.8629  140.2549  157.6416 C   0  0  0  0  0  0  0  0  0  0  0  0
  150.4040  138.8285  157.7795 C   0  0  1  0  0  0  0  0  0  0  0  0
  149.3164  137.8692  157.9713 N   0  0  0  0  0  0  0  0  0  0  0  0
  149.3004  136.9028  158.8996 C   0  0  0  0  0  0  0  0  0  0  0  0
  150.2230  136.7144  159.6935 O   0  0  0  0  0  0  0  0  0  0  0  0
  148.0628  135.9954  158.9073 C   0  0  0  0  0  0  0  0  0  0  0  0
  147.9251  135.2250  160.1541 N   0  0  0  0  0  0  0  0  0  0  0  0
  147.9866  133.8205  160.0536 C   0  0  0  0  0  0  0  0  0  0  0  0
  147.8779  133.0264  161.1306 C   0  0  0  0  0  0  0  0  0  0  0  0
  147.6937  133.6477  162.4208 C   0  0  0  0  0  0  0  0  0  0  0  0
  147.6355  134.9899  162.5283 C   0  0  0  0  0  0  0  0  0  0  0  0
  147.7534  135.8617  161.3539 C   0  0  0  0  0  0  0  0  0  0  0  0
  147.7012  137.0889  161.4430 O   0  0  0  0  0  0  0  0  0  0  0  0
  150.8933  138.9173  156.3113 C   0  0  0  0  0  0  0  0  0  0  0  0
  152.3502  139.3303  156.1031 C   0  0  0  0  0  0  0  0  0  0  0  0
  152.6893  139.0449  154.6393 C   0  0  0  0  0  0  0  0  0  0  0  0
  151.7492  137.9143  154.2160 C   0  0  0  0  0  0  0  0  0  0  0  0
  150.8170  137.6802  155.4096 C   0  0  0  0  0  0  0  0  0  0  0  0
  146.6153  139.7527  152.9865 H   0  0  0  0  0  0  0  0  0  0  0  0
  146.2156  140.2630  154.6260 H   0  0  0  0  0  0  0  0  0  0  0  0
  146.5645  138.5672  154.2903 H   0  0  0  0  0  0  0  0  0  0  0  0
  148.9363  139.1701  153.7162 H   0  0  0  0  0  0  0  0  0  0  0  0
  148.5951  140.8611  154.0564 H   0  0  0  0  0  0  0  0  0  0  0  0
  150.2216  140.9340  155.5851 H   0  0  0  0  0  0  0  0  0  0  0  0
  150.5846  141.0081  157.9613 H   0  0  0  0  0  0  0  0  0  0  0  0
  148.8840  140.4297  158.0904 H   0  0  0  0  0  0  0  0  0  0  0  0
  151.2088  138.7502  158.5126 H   0  0  0  0  0  0  0  0  0  0  0  0
  148.5261  137.9461  157.3470 H   0  0  0  0  0  0  0  0  0  0  0  0
  147.1651  136.5929  158.7355 H   0  0  0  0  0  0  0  0  0  0  0  0
  148.1292  135.3278  158.0472 H   0  0  0  0  0  0  0  0  0  0  0  0
  148.1344  133.4359  159.0549 H   0  0  0  0  0  0  0  0  0  0  0  0
  147.9315  131.9519  161.0356 H   0  0  0  0  0  0  0  0  0  0  0  0
  147.6040  133.0333  163.3046 H   0  0  0  0  0  0  0  0  0  0  0  0
  147.4991  135.4370  163.5022 H   0  0  0  0  0  0  0  0  0  0  0  0
  152.5330  140.3755  156.3547 H   0  0  0  0  0  0  0  0  0  0  0  0
  152.9999  138.7347  156.7460 H   0  0  0  0  0  0  0  0  0  0  0  0
  152.4935  139.9305  154.0336 H   0  0  0  0  0  0  0  0  0  0  0  0
  153.7395  138.7820  154.5092 H   0  0  0  0  0  0  0  0  0  0  0  0
  151.1844  138.2070  153.3307 H   0  0  0  0  0  0  0  0  0  0  0  0
  152.2985  137.0058  153.9668 H   0  0  0  0  0  0  0  0  0  0  0  0
  151.1667  136.8052  155.9592 H   0  0  0  0  0  0  0  0  0  0  0  0
  149.8026  137.4494  155.0850 H   0  0  0  0  0  0  0  0  0  0  0  0
  1  2  1  0  0  0  0
  1 23  1  0  0  0  0
  1 24  1  0  0  0  0
  1 25  1  0  0  0  0
  2  3  1  0  0  0  0
  2 26  1  0  0  0  0
  2 27  1  0  0  0  0
  3  4  1  0  0  0  0
  4 18  1  0  0  0  0
  4  5  1  0  0  0  0
  4 28  1  0  0  0  0
  5  6  1  0  0  0  0
  5 29  1  0  0  0  0
  5 30  1  0  0  0  0
  6  7  1  0  0  0  0
  6 18  1  0  0  0  0
  6 31  1  0  0  0  0
  7  8  1  0  0  0  0
  7 32  1  0  0  0  0
  8  9  2  0  0  0  0
  8 10  1  0  0  0  0
 10 11  1  0  0  0  0
 10 33  1  0  0  0  0
 10 34  1  0  0  0  0
 11 16  1  0  0  0  0
 11 12  1  0  0  0  0
 12 13  2  0  0  0  0
 12 35  1  0  0  0  0
 13 14  1  0  0  0  0
 13 36  1  0  0  0  0
 14 15  2  0  0  0  0
 14 37  1  0  0  0  0
 15 16  1  0  0  0  0
 15 38  1  0  0  0  0
 16 17  2  0  0  0  0
 18 22  1  0  0  0  0
 18 19  1  0  0  0  0
 19 20  1  0  0  0  0
 19 39  1  0  0  0  0
 19 40  1  0  0  0  0
 20 21  1  0  0  0  0
 20 41  1  0  0  0  0
 20 42  1  0  0  0  0
 21 22  1  0  0  0  0
 21 43  1  0  0  0  0
 21 44  1  0  0  0  0
 22 45  1  0  0  0  0
 22 46  1  0  0  0  0
M  END
> <s_m_source_file>
AV-unprocessed.smi

> <i_m_source_file_index>
690

> <i_lp_mmshare_version>
43012

> <i_f3d_flags>
0

> <s_epik_input>
W0NIMl0xW0NIMl1bQ0gyXVtDSDJdQzEyW0NASF0oT1tDSDJdW0NIM10pW0NIMl1bQ0BIXTJbTkhdQyg9TylbQ0gyXW4zW2NIXVtjSF1bY0hdW2NIXWMzPU8=

> <s_epik_cmdline>
J2VwaWtfcHl0aG9uJywgJy1waCcsICc3LjAnLCAnLXRuJywgJzgnLCAnLW1hJywgJzIwMCcsICctbWV0YWxfYmluZGluZycsICctaW1hZScsICc8aW5maWxlLm1hZT4nLCAnLW9tYWUnLCAnPG91dGZpbGUubWFlPic=

> <r_lp_tautomer_probability>
1

> <r_epik_Ionization_Penalty>
4.11691e-07

> <r_epik_Ionization_Penalty_Charging>
3.92797e-07

> <r_epik_Ionization_Penalty_Neutral>
1.88943e-08

> <r_epik_State_Penalty>
-0

> <r_epik_Charging_Adjusted_Penalty>
3.92797e-07

> <i_epik_Tot_Q>
0

> <i_epik_Tot_abs_Q>
0

> <r_epik_Metal_State_Penalty>
-0

> <b_epik_Metal_Only>
0

> <s_lp_Force_Field>
OPLS_2005

> <r_lp_Energy>
47.4249

> <b_lp_Chiralities_Consistent>
1

> <s_lp_Variant>
AV-unprocessed.smi:690-2

> <Gold.Version>
5.8.1

> <Gold.Id.Protein>
6NUR|6NUR_protein|mol2

> <Gold.PLP.Fitness>
45.1468

> <Gold.PLP.PLP>
-37.9311

> <Gold.PLP.part.hbond>
-3.0605

> <Gold.PLP.part.metal>
0.0000

> <Gold.PLP.part.buried>
-4.0092

> <Gold.PLP.part.nonpolar>
-31.4437

> <Gold.PLP.part.repulsive>
0.1118

> <Gold.PLP.ligand.clash>
0.0000

> <Gold.PLP.ligand.torsion>
0.7677

> <Gold.PLP.Chemscore.Hbond>
2.7833

> <Gold.PLP.Chemscore.CHOScore>
0.0000

> <Gold.PLP.Chemscore.Metal>
0.0000

> <Gold.Chemscore.Hbonds>
donor molecule, donor type, donor heavy atom, donor atom, acceptor molecule, acceptor atom, score
      P1  H  6896  6908       L1     9  1.00
      P1  H  6931  6943       L1    17  1.00
      P1  H  6934  6947       L1    17  0.74

> <Gold.PLP.Chemscore.Internal.Correction>
0.4015

> <Gold.Rescore>
     Score         DG    S(hbond)    S(metal)    S(lipo)     H(rot)  DE(clash)    DE(int)     intcor
     20.00     -20.73       2.75        0.00      88.75       1.69       0.02       0.71       ----

> <Gold.Chemscore.Fitness>
20.0015

> <Gold.Chemscore.DG>
-20.7334

> <Gold.Chemscore.ZeroCoef>
-5.4800

> <Gold.Chemscore.Hbond>
2.7532

> <Gold.Chemscore.Metal>
0.0000

> <Gold.Chemscore.Lipo>
88.7523

> <Gold.Chemscore.Internal_Hbond>
0.0000

> <Gold.Chemscore.DEClash>
0.0203

> <Gold.Chemscore.DEInternal>
0.7116

> <Gold.Chemscore.Rot>
1.6900

> <Gold.Chemscore.Internal.Correction>
   9.000000E+99

> <Gold.Chemscore.Hbonds>
donor molecule, donor type, donor heavy atom, donor atom, acceptor molecule, acceptor atom, score
      P1  H  6896  6908       L1     9  0.99
      P1  H  6931  6943       L1    17  0.96
      P1  H  6934  6947       L1    17  0.70

> <Gold.Chemscore.Hbond.Weighted>
-9.1958

> <Gold.Chemscore.Metal.Weighted>
-0.0000

> <Gold.Chemscore.Lipo.Weighted>
-10.3840

> <Gold.Chemscore.Internal_Hbond.Weighted>
0.0000

> <Gold.Chemscore.DEClash.Weighted>
0.0203

> <Gold.Chemscore.DEInternal.Weighted>
0.7116

> <Gold.Chemscore.Rot.Weighted>
4.3265

> <Gold.Chemscore.Internal.Correction.Weighted>
   9.000000E+99

> <Gold.Protein.RotatedTorsions>
[ 6907 6896 6895 6894 ] final -150.90 input  -60.11 | X-H torsion
[ 7974 7965 7964 7962 ] final   99.86 input  175.53 | X-H torsion
[ 8008 7997 7996 7995 ] final  153.81 input   59.86 | X-H torsion
[ 10167 10162 10161 10158 ] final  149.75 input  -65.29 | X-H torsion
[ 10718 10713 10712 10709 ] final  -11.22 input   66.30 | X-H torsion
[ 10763 10752 10751 10750 ] final  163.96 input  -60.55 | X-H torsion
[ 11005 11000 10999 10996 ] final -135.61 input  -57.11 | X-H torsion

> <Gold.Protein.ActiveResidues>
 VAL166  LYS551  ARG553  GLY616  TRP617  ASP618  TYR619  PRO620  LYS621  CYS622 
 ASP623  PHE694  ASN695  SER759  ASP760  ASP761  ALA762  ILE779  LEU786  VAL792 
 PHE793  MET794  SER795  GLU796  ALA797  LYS798  CYS799  TRP800  GLU811  SER814 

> <Gold.Protein.RotatedAtoms>
  151.2053  133.4587  159.2596 H   0  0  0  0  0  0  0  0  0  0  0  0  # atno 6907 bound_to 6896
  151.1030  134.9983  159.8467 H   0  0  0  0  0  0  0  0  0  0  0  0  # atno 6908 bound_to 6896
  152.5445  134.1978  159.8753 H   0  0  0  0  0  0  0  0  0  0  0  0  # atno 6909 bound_to 6896
  145.3933  139.2359  143.3340 H   0  0  0  0  0  0  0  0  0  0  0  0  # atno 7974 bound_to 7965
  156.2563  140.1983  156.6549 H   0  0  0  0  0  0  0  0  0  0  0  0  # atno 8008 bound_to 7997
  154.6509  140.0572  156.9979 H   0  0  0  0  0  0  0  0  0  0  0  0  # atno 8009 bound_to 7997
  155.1420  140.3243  155.4453 H   0  0  0  0  0  0  0  0  0  0  0  0  # atno 8010 bound_to 7997
  139.4858  144.5577  151.7287 H   0  0  0  0  0  0  0  0  0  0  0  0  # atno 10167 bound_to 10162
  156.6621  130.4985  149.6027 H   0  0  0  0  0  0  0  0  0  0  0  0  # atno 10718 bound_to 10713
  154.3017  135.2759  155.2608 H   0  0  0  0  0  0  0  0  0  0  0  0  # atno 10763 bound_to 10752
  154.5042  135.5800  153.6558 H   0  0  0  0  0  0  0  0  0  0  0  0  # atno 10764 bound_to 10752
  152.9899  135.6165  154.3188 H   0  0  0  0  0  0  0  0  0  0  0  0  # atno 10765 bound_to 10752
  140.8882  134.1845  157.4545 H   0  0  0  0  0  0  0  0  0  0  0  0  # atno 11005 bound_to 11000
  146.2787  140.4619  142.8785 LP  0  0  0  0  0  0  0  0  0  0  0  0  # atno 17320 bound_to 7965
  144.8425  140.6879  143.6220 LP  0  0  0  0  0  0  0  0  0  0  0  0  # atno 17321 bound_to 7965
  140.5142  144.0979  150.6003 LP  0  0  0  0  0  0  0  0  0  0  0  0  # atno 17342 bound_to 10162
  140.3915  143.2750  152.0055 LP  0  0  0  0  0  0  0  0  0  0  0  0  # atno 17343 bound_to 10162
  156.2003  130.6615  151.1159 LP  0  0  0  0  0  0  0  0  0  0  0  0  # atno 17370 bound_to 10713
  157.7106  131.0736  150.6514 LP  0  0  0  0  0  0  0  0  0  0  0  0  # atno 17371 bound_to 10713
  139.8726  134.9847  156.5251 LP  0  0  0  0  0  0  0  0  0  0  0  0  # atno 17394 bound_to 11000
  140.8379  133.8228  155.9046 LP  0  0  0  0  0  0  0  0  0  0  0  0  # atno 17395 bound_to 11000

$$$$
