AV-unprocessed.smi:2240|AV-procd|sdf|9057|dock6
  -GOLD-   2272012263D 1   1.00000     0.00000
 Structure written by MMmdl.
 37 38  0  0  0  0  0  0  0  0  1 V2000
  146.4820  141.8475  154.3555 C   0  0  0  0  0  0  0  0  0  0  0  0
  147.1149  140.9414  155.2499 O   0  0  0  0  0  0  0  0  0  0  0  0
  148.3490  140.3785  154.8026 C   0  0  0  0  0  0  0  0  0  0  0  0
  149.3711  141.4636  154.4229 C   0  0  0  0  0  0  0  0  0  0  0  0
  149.6620  142.3461  155.5486 N   0  0  0  0  0  0  0  0  0  0  0  0
  150.4765  142.0621  156.5747 C   0  0  0  0  0  0  0  0  0  0  0  0
  151.1066  141.0088  156.6732 O   0  0  0  0  0  0  0  0  0  0  0  0
  150.4912  143.0636  157.4718 N   0  0  0  0  0  0  0  0  0  0  0  0
  151.1768  143.1263  158.7139 C   0  0  0  0  0  0  0  0  0  0  0  0
  151.0657  144.2697  159.5462 C   0  0  0  0  0  0  0  0  0  0  0  0
  151.7344  144.2904  160.7852 C   0  0  0  0  0  0  0  0  0  0  0  0
  152.4877  143.1659  161.1701 C   0  0  0  0  0  0  0  0  0  0  0  0
  153.2262  143.1417  162.4919 C   0  0  0  0  0  0  0  0  0  0  0  0
  152.5316  142.0668  160.2907 C   0  0  0  0  0  0  0  0  0  0  0  0
  151.8898  142.0442  159.1036 N   0  0  0  0  0  0  0  0  0  0  0  0
  148.7735  139.2963  155.8153 C   0  0  0  0  0  0  0  0  0  0  0  0
  149.0794  138.3702  154.6377 C   0  0  0  0  0  0  0  0  0  0  0  0
  148.1070  139.2174  153.8164 C   0  0  0  0  0  0  0  0  0  0  0  0
  145.5022  142.1140  154.7513 H   0  0  0  0  0  0  0  0  0  0  0  0
  146.3318  141.4107  153.3681 H   0  0  0  0  0  0  0  0  0  0  0  0
  147.0499  142.7711  154.2479 H   0  0  0  0  0  0  0  0  0  0  0  0
  150.2891  141.0097  154.0462 H   0  0  0  0  0  0  0  0  0  0  0  0
  149.0010  142.0747  153.6002 H   0  0  0  0  0  0  0  0  0  0  0  0
  149.1817  143.2339  155.5583 H   0  0  0  0  0  0  0  0  0  0  0  0
  149.8467  143.8207  157.2987 H   0  0  0  0  0  0  0  0  0  0  0  0
  150.4701  145.1240  159.2621 H   0  0  0  0  0  0  0  0  0  0  0  0
  151.6639  145.1544  161.4296 H   0  0  0  0  0  0  0  0  0  0  0  0
  153.4947  142.1231  162.7734 H   0  0  0  0  0  0  0  0  0  0  0  0
  152.6052  143.5602  163.2844 H   0  0  0  0  0  0  0  0  0  0  0  0
  154.1404  143.7313  162.4233 H   0  0  0  0  0  0  0  0  0  0  0  0
  153.0931  141.1794  160.5439 H   0  0  0  0  0  0  0  0  0  0  0  0
  149.6402  139.5418  156.4282 H   0  0  0  0  0  0  0  0  0  0  0  0
  147.9467  138.9320  156.4278 H   0  0  0  0  0  0  0  0  0  0  0  0
  150.1110  138.4499  154.2911 H   0  0  0  0  0  0  0  0  0  0  0  0
  148.7763  137.3326  154.7795 H   0  0  0  0  0  0  0  0  0  0  0  0
  147.0885  138.8260  153.8493 H   0  0  0  0  0  0  0  0  0  0  0  0
  148.4286  139.4105  152.7927 H   0  0  0  0  0  0  0  0  0  0  0  0
  1  2  1  0  0  0  0
  1 19  1  0  0  0  0
  1 20  1  0  0  0  0
  1 21  1  0  0  0  0
  2  3  1  0  0  0  0
  3 18  1  0  0  0  0
  3  4  1  0  0  0  0
  3 16  1  0  0  0  0
  4  5  1  0  0  0  0
  4 22  1  0  0  0  0
  4 23  1  0  0  0  0
  5  6  1  0  0  0  0
  5 24  1  0  0  0  0
  6  7  2  0  0  0  0
  6  8  1  0  0  0  0
  8  9  1  0  0  0  0
  8 25  1  0  0  0  0
  9 15  1  0  0  0  0
  9 10  2  0  0  0  0
 10 11  1  0  0  0  0
 10 26  1  0  0  0  0
 11 12  2  0  0  0  0
 11 27  1  0  0  0  0
 12 13  1  0  0  0  0
 12 14  1  0  0  0  0
 13 28  1  0  0  0  0
 13 29  1  0  0  0  0
 13 30  1  0  0  0  0
 14 15  2  0  0  0  0
 14 31  1  0  0  0  0
 16 17  1  0  0  0  0
 16 32  1  0  0  0  0
 16 33  1  0  0  0  0
 17 18  1  0  0  0  0
 17 34  1  0  0  0  0
 17 35  1  0  0  0  0
 18 36  1  0  0  0  0
 18 37  1  0  0  0  0
M  END
> <s_m_source_file>
AV-unprocessed.smi

> <i_m_source_file_index>
2240

> <i_lp_mmshare_version>
43012

> <i_f3d_flags>
0

> <s_epik_input>
W0NIMl0xW0NIMl1bQ0gyXUMxKE9bQ0gzXSlbQ0gyXVtOSF1DKD1PKVtOSF1jMltjSF1bY0hdYyhbQ0gzXSlbY0hdbjI=

> <s_epik_cmdline>
J2VwaWtfcHl0aG9uJywgJy1waCcsICc3LjAnLCAnLXRuJywgJzgnLCAnLW1hJywgJzIwMCcsICctbWV0YWxfYmluZGluZycsICctaW1hZScsICc8aW5maWxlLm1hZT4nLCAnLW9tYWUnLCAnPG91dGZpbGUubWFlPic=

> <r_lp_tautomer_probability>
1

> <r_epik_Ionization_Penalty>
5.83017e-05

> <r_epik_Ionization_Penalty_Charging>
0

> <r_epik_Ionization_Penalty_Neutral>
5.83017e-05

> <r_epik_State_Penalty>
-0

> <r_epik_Charging_Adjusted_Penalty>
0

> <i_epik_Tot_Q>
0

> <i_epik_Tot_abs_Q>
0

> <r_epik_Metal_State_Penalty>
-0

> <b_epik_Metal_Only>
0

> <s_lp_Force_Field>
OPLS_2005

> <r_lp_Energy>
21.5554

> <b_lp_Chiralities_Consistent>
1

> <s_lp_Variant>
AV-unprocessed.smi:2240-1

> <Gold.Version>
5.8.1

> <Gold.Id.Protein>
6NUR|6NUR_protein|mol2

> <Gold.PLP.Fitness>
40.7780

> <Gold.PLP.PLP>
-35.4944

> <Gold.PLP.part.hbond>
-2.0000

> <Gold.PLP.part.metal>
0.0000

> <Gold.PLP.part.buried>
-2.7396

> <Gold.PLP.part.nonpolar>
-29.9838

> <Gold.PLP.part.repulsive>
0.3103

> <Gold.PLP.ligand.clash>
0.0000

> <Gold.PLP.ligand.torsion>
0.2808

> <Gold.PLP.Chemscore.Hbond>
1.8596

> <Gold.PLP.Chemscore.CHOScore>
0.0000

> <Gold.PLP.Chemscore.Metal>
0.0000

> <Gold.Chemscore.Hbonds>
donor molecule, donor type, donor heavy atom, donor atom, acceptor molecule, acceptor atom, score
      L1  H     5    24       P1  8028  0.96
      L1  H     8    25       P1  8028  0.68

> <Gold.PLP.Chemscore.Internal.Correction>
0.2664

> <Gold.Rescore>
     Score         DG    S(hbond)    S(metal)    S(lipo)     H(rot)  DE(clash)    DE(int)     intcor
     12.38     -15.39       0.99        0.00      88.32       1.45       0.18       2.84       ----

> <Gold.Chemscore.Fitness>
12.3786

> <Gold.Chemscore.DG>
-15.3950

> <Gold.Chemscore.ZeroCoef>
-5.4800

> <Gold.Chemscore.Hbond>
0.9879

> <Gold.Chemscore.Metal>
0.0000

> <Gold.Chemscore.Lipo>
88.3185

> <Gold.Chemscore.Internal_Hbond>
0.0000

> <Gold.Chemscore.DEClash>
0.1810

> <Gold.Chemscore.DEInternal>
2.8354

> <Gold.Chemscore.Rot>
1.4523

> <Gold.Chemscore.Internal.Correction>
   9.000000E+99

> <Gold.Chemscore.Hbonds>
donor molecule, donor type, donor heavy atom, donor atom, acceptor molecule, acceptor atom, score
      L1  H     5    24       P1  8028  0.91
      L1  H     8    25       P1  8028  0.54

> <Gold.Chemscore.Hbond.Weighted>
-3.2996

> <Gold.Chemscore.Metal.Weighted>
-0.0000

> <Gold.Chemscore.Lipo.Weighted>
-10.3333

> <Gold.Chemscore.Internal_Hbond.Weighted>
0.0000

> <Gold.Chemscore.DEClash.Weighted>
0.1810

> <Gold.Chemscore.DEInternal.Weighted>
2.8354

> <Gold.Chemscore.Rot.Weighted>
3.7179

> <Gold.Chemscore.Internal.Correction.Weighted>
   9.000000E+99

> <Gold.Protein.RotatedTorsions>
[ 6907 6896 6895 6894 ] final  -29.26 input  -60.11 | X-H torsion
[ 7974 7965 7964 7962 ] final   17.77 input  175.53 | X-H torsion
[ 8008 7997 7996 7995 ] final   30.02 input   59.86 | X-H torsion
[ 10167 10162 10161 10158 ] final -174.25 input  -65.29 | X-H torsion
[ 10718 10713 10712 10709 ] final -162.20 input   66.30 | X-H torsion
[ 10763 10752 10751 10750 ] final  160.17 input  -60.55 | X-H torsion
[ 11005 11000 10999 10996 ] final   24.27 input  -57.11 | X-H torsion

> <Gold.Protein.ActiveResidues>
 VAL166  LYS551  ARG553  GLY616  TRP617  ASP618  TYR619  PRO620  LYS621  CYS622 
 ASP623  PHE694  ASN695  SER759  ASP760  ASP761  ALA762  ILE779  LEU786  VAL792 
 PHE793  MET794  SER795  GLU796  ALA797  LYS798  CYS799  TRP800  GLU811  SER814 

> <Gold.Protein.RotatedAtoms>
  151.1216  135.0082  159.8540 H   0  0  0  0  0  0  0  0  0  0  0  0  # atno 6907 bound_to 6896
  152.5448  134.1716  159.8609 H   0  0  0  0  0  0  0  0  0  0  0  0  # atno 6908 bound_to 6896
  151.1775  133.4701  159.2627 H   0  0  0  0  0  0  0  0  0  0  0  0  # atno 6909 bound_to 6896
  146.2207  139.8554  142.8614 H   0  0  0  0  0  0  0  0  0  0  0  0  # atno 7974 bound_to 7965
  155.0838  140.3213  155.4593 H   0  0  0  0  0  0  0  0  0  0  0  0  # atno 8008 bound_to 7997
  156.2760  140.2090  156.5911 H   0  0  0  0  0  0  0  0  0  0  0  0  # atno 8009 bound_to 7997
  154.6957  140.0512  157.0396 H   0  0  0  0  0  0  0  0  0  0  0  0  # atno 8010 bound_to 7997
  139.5644  144.1791  152.1289 H   0  0  0  0  0  0  0  0  0  0  0  0  # atno 10167 bound_to 10162
  156.6071  130.8835  151.2928 H   0  0  0  0  0  0  0  0  0  0  0  0  # atno 10718 bound_to 10713
  154.2432  135.2774  155.2846 H   0  0  0  0  0  0  0  0  0  0  0  0  # atno 10763 bound_to 10752
  154.5527  135.5670  153.6940 H   0  0  0  0  0  0  0  0  0  0  0  0  # atno 10764 bound_to 10752
  152.9995  135.6278  154.2577 H   0  0  0  0  0  0  0  0  0  0  0  0  # atno 10765 bound_to 10752
  140.3605  134.2131  155.7672 H   0  0  0  0  0  0  0  0  0  0  0  0  # atno 11005 bound_to 11000
  145.2758  141.0123  143.3745 LP  0  0  0  0  0  0  0  0  0  0  0  0  # atno 17320 bound_to 7965
  144.9188  139.4437  143.6551 LP  0  0  0  0  0  0  0  0  0  0  0  0  # atno 17321 bound_to 7965
  140.1311  144.5287  150.6802 LP  0  0  0  0  0  0  0  0  0  0  0  0  # atno 17342 bound_to 10162
  140.6926  143.2385  151.5088 LP  0  0  0  0  0  0  0  0  0  0  0  0  # atno 17343 bound_to 10162
  157.7264  130.9629  150.1655 LP  0  0  0  0  0  0  0  0  0  0  0  0  # atno 17370 bound_to 10713
  156.2420  130.3692  149.8326 LP  0  0  0  0  0  0  0  0  0  0  0  0  # atno 17371 bound_to 10713
  141.1985  133.8033  157.0578 LP  0  0  0  0  0  0  0  0  0  0  0  0  # atno 17394 bound_to 11000
  140.0630  134.9744  157.1338 LP  0  0  0  0  0  0  0  0  0  0  0  0  # atno 17395 bound_to 11000

$$$$
