AV-unprocessed.smi:583|AV-procd|sdf|2998|dock4
  -GOLD-   2262023503D 1   1.00000     0.00000
 Structure written by MMmdl.
 35 36  0  0  0  0  0  0  0  0  1 V2000
  148.6447  140.1563  156.6634 O   0  0  0  0  0  0  0  0  0  0  0  0
  149.0001  141.2784  156.3001 C   0  0  0  0  0  0  0  0  0  0  0  0
  150.4768  141.5845  156.0106 C   0  0  0  0  0  0  0  0  0  0  0  0
  151.2944  141.7334  157.2266 N   0  0  0  0  0  0  0  0  0  0  0  0
  151.1176  142.9115  157.9788 C   0  0  0  0  0  0  0  0  0  0  0  0
  151.7917  143.1623  159.1177 C   0  0  0  0  0  0  0  0  0  0  0  0
  151.6183  144.4671  159.8796 C   0  0  0  0  0  0  0  0  0  0  0  0
  152.2893  144.4432  161.0314 F   0  0  0  0  0  0  0  0  0  0  0  0
  152.0528  145.5047  159.1629 F   0  0  0  0  0  0  0  0  0  0  0  0
  150.3293  144.6633  160.1538 F   0  0  0  0  0  0  0  0  0  0  0  0
  152.7549  142.1609  159.5310 C   0  0  0  0  0  0  0  0  0  0  0  0
  152.9409  141.0315  158.8200 C   0  0  0  0  0  0  0  0  0  0  0  0
  152.1830  140.7626  157.5960 C   0  0  0  0  0  0  0  0  0  0  0  0
  152.3375  139.7303  156.9426 O   0  0  0  0  0  0  0  0  0  0  0  0
  148.1486  142.3040  156.1489 N   0  0  0  0  0  0  0  0  0  0  0  0
  146.7072  142.2372  156.3688 C   0  0  1  0  0  0  0  0  0  0  0  0
  146.2459  143.1704  157.5074 C   0  0  0  0  0  0  0  0  0  0  0  0
  144.7226  143.3295  157.4272 C   0  0  0  0  0  0  0  0  0  0  0  0
  144.2852  143.1684  155.6544 S   0  0  0  0  0  0  0  0  0  0  0  0
  143.3353  142.0568  155.4976 O   0  0  0  0  0  0  0  0  0  0  0  0
  143.9952  144.4971  155.0944 O   0  0  0  0  0  0  0  0  0  0  0  0
  145.9464  142.6334  155.0961 C   0  0  0  0  0  0  0  0  0  0  0  0
  150.8899  140.7984  155.3758 H   0  0  0  0  0  0  0  0  0  0  0  0
  150.5227  142.4909  155.4054 H   0  0  0  0  0  0  0  0  0  0  0  0
  150.3926  143.6010  157.5711 H   0  0  0  0  0  0  0  0  0  0  0  0
  153.3344  142.3158  160.4292 H   0  0  0  0  0  0  0  0  0  0  0  0
  153.6648  140.3054  159.1597 H   0  0  0  0  0  0  0  0  0  0  0  0
  148.5255  143.1930  155.8537 H   0  0  0  0  0  0  0  0  0  0  0  0
  146.4248  141.2138  156.6242 H   0  0  0  0  0  0  0  0  0  0  0  0
  146.5558  142.8037  158.4866 H   0  0  0  0  0  0  0  0  0  0  0  0
  146.7058  144.1507  157.3754 H   0  0  0  0  0  0  0  0  0  0  0  0
  144.2210  142.5280  157.9702 H   0  0  0  0  0  0  0  0  0  0  0  0
  144.3739  144.2858  157.8175 H   0  0  0  0  0  0  0  0  0  0  0  0
  146.4173  143.4828  154.6002 H   0  0  0  0  0  0  0  0  0  0  0  0
  145.8575  141.8167  154.3795 H   0  0  0  0  0  0  0  0  0  0  0  0
  1  2  2  0  0  0  0
  2  3  1  0  0  0  0
  2 15  1  0  0  0  0
  3  4  1  0  0  0  0
  3 23  1  0  0  0  0
  3 24  1  0  0  0  0
  4 13  1  0  0  0  0
  4  5  1  0  0  0  0
  5  6  2  0  0  0  0
  5 25  1  0  0  0  0
  6  7  1  0  0  0  0
  6 11  1  0  0  0  0
  7  8  1  0  0  0  0
  7  9  1  0  0  0  0
  7 10  1  0  0  0  0
 11 12  2  0  0  0  0
 11 26  1  0  0  0  0
 12 13  1  0  0  0  0
 12 27  1  0  0  0  0
 13 14  2  0  0  0  0
 15 16  1  0  0  0  0
 15 28  1  0  0  0  0
 16 22  1  0  0  0  0
 16 17  1  0  0  0  0
 16 29  1  0  0  0  0
 17 18  1  0  0  0  0
 17 30  1  0  0  0  0
 17 31  1  0  0  0  0
 18 19  1  0  0  0  0
 18 32  1  0  0  0  0
 18 33  1  0  0  0  0
 19 20  2  0  0  0  0
 19 21  2  0  0  0  0
 19 22  1  0  0  0  0
 22 34  1  0  0  0  0
 22 35  1  0  0  0  0
M  END
> <s_m_source_file>
AV-unprocessed.smi

> <i_m_source_file_index>
583

> <i_lp_mmshare_version>
43012

> <i_f3d_flags>
0

> <s_epik_input>
Tz1TMSg9TylbQ0gyXVtDSDJdW0NASF0oW0NIMl0xKVtOSF1DKD1PKVtDSDJdbjJbY0hdYyhDKEYpKEYpRilbY0hdW2NIXWMyPU8=

> <s_epik_cmdline>
J2VwaWtfcHl0aG9uJywgJy1waCcsICc3LjAnLCAnLXRuJywgJzgnLCAnLW1hJywgJzIwMCcsICctbWV0YWxfYmluZGluZycsICctaW1hZScsICc8aW5maWxlLm1hZT4nLCAnLW9tYWUnLCAnPG91dGZpbGUubWFlPic=

> <r_lp_tautomer_probability>
1

> <r_epik_Ionization_Penalty>
1.22016e-07

> <r_epik_Ionization_Penalty_Charging>
1.48237e-08

> <r_epik_Ionization_Penalty_Neutral>
1.07193e-07

> <r_epik_State_Penalty>
-0

> <r_epik_Charging_Adjusted_Penalty>
1.48237e-08

> <i_epik_Tot_Q>
0

> <i_epik_Tot_abs_Q>
0

> <r_epik_Metal_State_Penalty>
-0

> <b_epik_Metal_Only>
0

> <s_lp_Force_Field>
OPLS_2005

> <r_lp_Energy>
16.0517

> <b_lp_Chiralities_Consistent>
1

> <s_lp_Variant>
AV-unprocessed.smi:583-2

> <Gold.Version>
5.8.1

> <Gold.Id.Protein>
6NUR|6NUR_protein|mol2

> <Gold.PLP.Fitness>
47.8543

> <Gold.PLP.PLP>
-40.4704

> <Gold.PLP.part.hbond>
-2.0000

> <Gold.PLP.part.metal>
0.0000

> <Gold.PLP.part.buried>
-5.5295

> <Gold.PLP.part.nonpolar>
-32.3683

> <Gold.PLP.part.repulsive>
0.3941

> <Gold.PLP.ligand.clash>
0.0000

> <Gold.PLP.ligand.torsion>
0.5320

> <Gold.PLP.Chemscore.Hbond>
2.0000

> <Gold.PLP.Chemscore.CHOScore>
0.8009

> <Gold.PLP.Chemscore.Metal>
0.0000

> <Gold.Chemscore.Hbonds>
donor molecule, donor type, donor heavy atom, donor atom, acceptor molecule, acceptor atom, score
      L1  H    15    28       P1  8028  1.00
      P1  H  7997  8008       L1    14  0.60
      L1  C     5    25       P1  8028  0.67

> <Gold.PLP.Chemscore.Internal.Correction>
0.0453

> <Gold.Rescore>
     Score         DG    S(hbond)    S(metal)    S(lipo)     H(rot)  DE(clash)    DE(int)     intcor
     14.52     -14.94       1.77        0.00      68.32       1.73       0.07       0.35       ----

> <Gold.Chemscore.Fitness>
14.5225

> <Gold.Chemscore.DG>
-14.9405

> <Gold.Chemscore.ZeroCoef>
-5.4800

> <Gold.Chemscore.Hbond>
1.7663

> <Gold.Chemscore.Metal>
0.0000

> <Gold.Chemscore.Lipo>
68.3206

> <Gold.Chemscore.Internal_Hbond>
0.0000

> <Gold.Chemscore.DEClash>
0.0652

> <Gold.Chemscore.DEInternal>
0.3528

> <Gold.Chemscore.Rot>
1.7314

> <Gold.Chemscore.Internal.Correction>
   9.000000E+99

> <Gold.Chemscore.Hbonds>
donor molecule, donor type, donor heavy atom, donor atom, acceptor molecule, acceptor atom, score
      L1  H    15    28       P1  8028  0.95
      P1  H  7997  8008       L1    14  0.06

> <Gold.Chemscore.Hbond.Weighted>
-5.8994

> <Gold.Chemscore.Metal.Weighted>
-0.0000

> <Gold.Chemscore.Lipo.Weighted>
-7.9935

> <Gold.Chemscore.Internal_Hbond.Weighted>
0.0000

> <Gold.Chemscore.DEClash.Weighted>
0.0652

> <Gold.Chemscore.DEInternal.Weighted>
0.3528

> <Gold.Chemscore.Rot.Weighted>
4.4324

> <Gold.Chemscore.Internal.Correction.Weighted>
   9.000000E+99

> <Gold.Protein.RotatedTorsions>
[ 6907 6896 6895 6894 ] final  -15.86 input  -60.11 | X-H torsion
[ 7974 7965 7964 7962 ] final  157.79 input  175.53 | X-H torsion
[ 8008 7997 7996 7995 ] final  -52.29 input   59.86 | X-H torsion
[ 10167 10162 10161 10158 ] final  -46.24 input  -65.29 | X-H torsion
[ 10718 10713 10712 10709 ] final   51.98 input   66.30 | X-H torsion
[ 10763 10752 10751 10750 ] final  -43.00 input  -60.55 | X-H torsion
[ 11005 11000 10999 10996 ] final  -16.00 input  -57.11 | X-H torsion

> <Gold.Protein.ActiveResidues>
 VAL166  LYS551  ARG553  GLY616  TRP617  ASP618  TYR619  PRO620  LYS621  CYS622 
 ASP623  PHE694  ASN695  SER759  ASP760  ASP761  ALA762  ILE779  LEU786  VAL792 
 PHE793  MET794  SER795  GLU796  ALA797  LYS798  CYS799  TRP800  GLU811  SER814 

> <Gold.Protein.RotatedAtoms>
  151.3175  135.0810  159.9293 H   0  0  0  0  0  0  0  0  0  0  0  0  # atno 6907 bound_to 6896
  152.5264  133.9673  159.7755 H   0  0  0  0  0  0  0  0  0  0  0  0  # atno 6908 bound_to 6896
  150.9988  133.6025  159.2728 H   0  0  0  0  0  0  0  0  0  0  0  0  # atno 6909 bound_to 6896
  144.7883  139.7389  143.6232 H   0  0  0  0  0  0  0  0  0  0  0  0  # atno 7974 bound_to 7965
  154.4103  140.1227  156.4968 H   0  0  0  0  0  0  0  0  0  0  0  0  # atno 8008 bound_to 7997
  155.6935  140.3495  155.4884 H   0  0  0  0  0  0  0  0  0  0  0  0  # atno 8009 bound_to 7997
  155.9448  140.1094  157.1016 H   0  0  0  0  0  0  0  0  0  0  0  0  # atno 8010 bound_to 7997
  140.6825  143.2840  151.3755 H   0  0  0  0  0  0  0  0  0  0  0  0  # atno 10167 bound_to 10162
  157.5032  130.8451  149.8342 H   0  0  0  0  0  0  0  0  0  0  0  0  # atno 10718 bound_to 10713
  153.9883  135.6708  153.4753 H   0  0  0  0  0  0  0  0  0  0  0  0  # atno 10763 bound_to 10752
  153.0717  135.4971  154.8314 H   0  0  0  0  0  0  0  0  0  0  0  0  # atno 10764 bound_to 10752
  154.7124  135.3100  154.9138 H   0  0  0  0  0  0  0  0  0  0  0  0  # atno 10765 bound_to 10752
  140.8023  133.8204  155.9482 H   0  0  0  0  0  0  0  0  0  0  0  0  # atno 11005 bound_to 11000
  146.2124  139.5490  142.9672 LP  0  0  0  0  0  0  0  0  0  0  0  0  # atno 17320 bound_to 7965
  145.5862  141.0376  143.2095 LP  0  0  0  0  0  0  0  0  0  0  0  0  # atno 17321 bound_to 7965
  139.6158  144.1005  152.2344 LP  0  0  0  0  0  0  0  0  0  0  0  0  # atno 17342 bound_to 10162
  140.0434  144.5990  150.7393 LP  0  0  0  0  0  0  0  0  0  0  0  0  # atno 17343 bound_to 10162
  156.0242  130.3785  150.1873 LP  0  0  0  0  0  0  0  0  0  0  0  0  # atno 17370 bound_to 10713
  157.0062  130.9937  151.3378 LP  0  0  0  0  0  0  0  0  0  0  0  0  # atno 17371 bound_to 10713
  140.9282  134.2056  157.4882 LP  0  0  0  0  0  0  0  0  0  0  0  0  # atno 17394 bound_to 11000
  139.8720  134.9821  156.5144 LP  0  0  0  0  0  0  0  0  0  0  0  0  # atno 17395 bound_to 11000

$$$$
