#       Name:                AV-unprocessed.smi:3098
#       Creating user name   scv26
#       Creation time:       Fri Mar 27 17:17:47 2020


#       File generated by GOLD software.
#

@<TRIPOS>MOLECULE
AV-unprocessed.smi:3098
    34    35     1
SMALL
NO_CHARGES


@<TRIPOS>ATOM
      1 ****        -4.6986   1.2169  -0.2575 N.3            1 S1                 0.0000
      2 ****        -4.1522  -0.1124  -0.4445 C.3            1 S1                 0.0000
      3 ****        -2.6397  -0.1342  -0.3622 C.ar           1 S1                 0.0000
      4 ****        -1.9815  -0.7137   0.7408 C.ar           1 S1                 0.0000
      5 ****        -0.6379  -0.7575   0.8622 N.ar           1 S1                 0.0000
      6 ****         0.1266  -0.2164  -0.1191 C.ar           1 S1                 0.0000
      7 ****         1.5276  -0.2562   0.0307 N.3            1 S1                 0.0000
      8 ****         2.1569   1.0526   0.1753 C.3            1 S1                 0.0000
      9 ****         3.6849   0.9229   0.0519 C.3            1 S1                 0.0000
     10 ****         4.1660  -0.0259   0.9993 O.3            1 S1                 0.0000
     11 ****         3.6117  -1.3202   0.7853 C.3            1 S1                 0.0000
     12 ****         2.0825  -1.2580   0.9374 C.3            1 S1                 0.0000
     13 ****        -0.4479   0.3803  -1.2683 C.ar           1 S1                 0.0000
     14 ****         0.3262   0.8908  -2.2566 F              1 S1                 0.0000
     15 ****        -1.8503   0.4217  -1.3880 C.ar           1 S1                 0.0000
     16 ****        -5.2571   1.4657  -1.0617 H              1 S1                 0.0000
     17 ****        -5.3326   1.2101   0.5288 H              1 S1                 0.0000
     18 ****        -4.5761  -0.7800   0.3061 H              1 S1                 0.0000
     19 ****        -4.4635  -0.4903  -1.4188 H              1 S1                 0.0000
     20 ****        -2.5455  -1.1535   1.5502 H              1 S1                 0.0000
     21 ****         1.7905   1.7558  -0.5717 H              1 S1                 0.0000
     22 ****         1.8957   1.4639   1.1512 H              1 S1                 0.0000
     23 ****         3.9688   0.6207  -0.9575 H              1 S1                 0.0000
     24 ****         4.1599   1.8856   0.2412 H              1 S1                 0.0000
     25 ****         3.8904  -1.6885  -0.2035 H              1 S1                 0.0000
     26 ****         4.0337  -2.0126   1.5138 H              1 S1                 0.0000
     27 ****         1.8236  -1.0031   1.9661 H              1 S1                 0.0000
     28 ****         1.6498  -2.2363   0.7240 H              1 S1                 0.0000
     29 ****        -2.3112   0.8710  -2.2553 H              1 S1                 0.0000
     30 ****        -3.9415   1.8554  -0.1193 LP             1 S1                 0.0000
     31 ****        -0.2132  -1.1816   1.6620 LP             1 S1                 0.0000
     32 ****         1.7951  -0.6062  -0.8670 LP             1 S1                 0.0000
     33 ****         3.9208   0.2826   1.9184 LP             1 S1                 0.0000
     34 ****         5.1613  -0.0838   0.9216 LP             1 S1                 0.0000
@<TRIPOS>BOND
    1    1    2 1     
    2    1   16 1     
    3    1   17 1     
    4    2    3 1     
    5    2   18 1     
    6    2   19 1     
    7    3   15 ar    
    8    3    4 ar    
    9    4    5 ar    
   10    4   20 1     
   11    5    6 ar    
   12    6    7 1     
   13    6   13 ar    
   14    7   12 1     
   15    7    8 1     
   16    8    9 1     
   17    8   21 1     
   18    8   22 1     
   19    9   10 1     
   20    9   23 1     
   21    9   24 1     
   22   10   11 1     
   23   11   12 1     
   24   11   25 1     
   25   11   26 1     
   26   12   27 1     
   27   12   28 1     
   28   13   14 1     
   29   13   15 ar    
   30   15   29 1     
   31    1   30 1     
   32    5   31 1     
   33    7   32 1     
   34   10   33 1     
   35   10   34 1     
@<TRIPOS>SUBSTRUCTURE
      1 S1             1
@<TRIPOS>SET
LONE_PAIRS      STATIC     ATOMS    <user>   **** ""
5 30 31 32 33 34
DONOR_HYDROGENS      STATIC     ATOMS    <user>   **** ""
2 16 17
ATOM$BLUE        STATIC     ATOMS    COLORGROUP SYSTEM
5 30 31 32 33 34
ATOM$RED        STATIC     ATOMS    COLORGROUP SYSTEM
2 16 17
