AV-unprocessed.smi:2124|AV-procd|sdf|8661|dock8
  -GOLD-   2272011413D 1   1.00000     0.00000
 Structure written by MMmdl.
 47 49  0  0  0  0  0  0  0  0  1 V2000
  150.9457  142.6706  157.6198 C   0  0  0  0  0  0  0  0  0  0  0  0
  151.1169  141.3984  156.8186 C   0  0  0  0  0  0  0  0  0  0  0  0
  150.0500  141.1218  155.9795 N   0  0  0  0  0  0  0  0  0  0  0  0
  150.1174  139.9791  155.2021 C   0  0  0  0  0  0  0  0  0  0  0  0
  148.9088  139.7488  154.3118 C   0  0  0  0  0  0  0  0  0  0  0  0
  151.1924  139.1525  155.2603 C   0  0  0  0  0  0  0  0  0  0  0  0
  151.3030  137.8783  154.4233 C   0  0  0  0  0  0  0  0  0  0  0  0
  151.2006  136.5557  155.1878 C   0  0  0  0  0  0  0  0  0  0  0  0
  151.8484  136.3744  156.2193 O   0  0  0  0  0  0  0  0  0  0  0  0
  150.3732  135.6376  154.6652 N   0  0  0  0  0  0  0  0  0  0  0  0
  150.1243  134.3075  155.2185 C   0  0  1  0  0  0  0  0  0  0  0  0
  149.3927  134.4556  156.5656 C   0  0  0  0  0  0  0  0  0  0  0  0
  149.3296  133.4589  154.1947 C   0  0  1  0  0  0  0  0  0  0  0  0
  149.2553  131.9523  154.5535 C   0  0  0  0  0  0  0  0  0  0  0  0
  147.7469  131.6513  154.5194 C   0  0  2  0  0  0  0  0  0  0  0  0
  147.2371  131.7187  153.0684 C   0  0  0  0  0  0  0  0  0  0  0  0
  147.2675  133.2291  152.7699 C   0  0  0  0  0  0  0  0  0  0  0  0
  147.8275  133.8233  154.0769 C   0  0  1  0  0  0  0  0  0  0  0  0
  147.1708  132.9253  155.1211 C   0  0  0  0  0  0  0  0  0  0  0  0
  152.2999  139.4975  156.1824 C   0  0  0  0  0  0  0  0  0  0  0  0
  153.2949  138.7819  156.2901 O   0  0  0  0  0  0  0  0  0  0  0  0
  152.1853  140.6717  156.9442 N   0  0  0  0  0  0  0  0  0  0  0  0
  149.2311  141.7084  155.9069 H   0  0  0  0  0  0  0  0  0  0  0  0
  151.7853  142.8192  158.3003 H   0  0  0  0  0  0  0  0  0  0  0  0
  150.0313  142.6276  158.2123 H   0  0  0  0  0  0  0  0  0  0  0  0
  150.8884  143.5325  156.9545 H   0  0  0  0  0  0  0  0  0  0  0  0
  148.4489  138.7855  154.5338 H   0  0  0  0  0  0  0  0  0  0  0  0
  149.2020  139.7573  153.2620 H   0  0  0  0  0  0  0  0  0  0  0  0
  148.1519  140.5213  154.4532 H   0  0  0  0  0  0  0  0  0  0  0  0
  152.2312  137.8763  153.8509 H   0  0  0  0  0  0  0  0  0  0  0  0
  150.5137  137.8914  153.6714 H   0  0  0  0  0  0  0  0  0  0  0  0
  149.8839  135.8735  153.8141 H   0  0  0  0  0  0  0  0  0  0  0  0
  151.0820  133.8170  155.3999 H   0  0  0  0  0  0  0  0  0  0  0  0
  149.2616  133.4962  157.0640 H   0  0  0  0  0  0  0  0  0  0  0  0
  148.4060  134.9008  156.4343 H   0  0  0  0  0  0  0  0  0  0  0  0
  149.9541  135.0925  157.2503 H   0  0  0  0  0  0  0  0  0  0  0  0
  149.8089  133.5745  153.2210 H   0  0  0  0  0  0  0  0  0  0  0  0
  149.8188  131.3314  153.8561 H   0  0  0  0  0  0  0  0  0  0  0  0
  149.6439  131.7575  155.5542 H   0  0  0  0  0  0  0  0  0  0  0  0
  147.4734  130.7317  155.0375 H   0  0  0  0  0  0  0  0  0  0  0  0
  147.8634  131.1456  152.3840 H   0  0  0  0  0  0  0  0  0  0  0  0
  146.2191  131.3340  152.9941 H   0  0  0  0  0  0  0  0  0  0  0  0
  147.8815  133.4718  151.9018 H   0  0  0  0  0  0  0  0  0  0  0  0
  146.2601  133.6004  152.5781 H   0  0  0  0  0  0  0  0  0  0  0  0
  147.6034  134.8835  154.1858 H   0  0  0  0  0  0  0  0  0  0  0  0
  146.0802  132.9593  155.0980 H   0  0  0  0  0  0  0  0  0  0  0  0
  147.5113  133.1158  156.1401 H   0  0  0  0  0  0  0  0  0  0  0  0
  1 24  1  0  0  0  0
  1 25  1  0  0  0  0
  1 26  1  0  0  0  0
  1  2  1  0  0  0  0
  2  3  1  0  0  0  0
  2 22  2  0  0  0  0
  3  4  1  0  0  0  0
  3 23  1  0  0  0  0
  4  6  2  0  0  0  0
  4  5  1  0  0  0  0
  5 27  1  0  0  0  0
  5 28  1  0  0  0  0
  5 29  1  0  0  0  0
  6 20  1  0  0  0  0
  6  7  1  0  0  0  0
  7  8  1  0  0  0  0
  7 30  1  0  0  0  0
  7 31  1  0  0  0  0
  8  9  2  0  0  0  0
  8 10  1  0  0  0  0
 10 11  1  0  0  0  0
 10 32  1  0  0  0  0
 11 12  1  0  0  0  0
 11 13  1  0  0  0  0
 11 33  1  0  0  0  0
 12 34  1  0  0  0  0
 12 35  1  0  0  0  0
 12 36  1  0  0  0  0
 13 18  1  0  0  0  0
 13 14  1  0  0  0  0
 13 37  1  0  0  0  0
 14 15  1  0  0  0  0
 14 38  1  0  0  0  0
 14 39  1  0  0  0  0
 15 19  1  0  0  0  0
 15 16  1  0  0  0  0
 15 40  1  0  0  0  0
 16 17  1  0  0  0  0
 16 41  1  0  0  0  0
 16 42  1  0  0  0  0
 17 18  1  0  0  0  0
 17 43  1  0  0  0  0
 17 44  1  0  0  0  0
 18 19  1  0  0  0  0
 18 45  1  0  0  0  0
 19 46  1  0  0  0  0
 19 47  1  0  0  0  0
 20 21  2  0  0  0  0
 20 22  1  0  0  0  0
M  END
> <s_m_source_file>
AV-unprocessed.smi

> <i_m_source_file_index>
2124

> <i_lp_mmshare_version>
43012

> <i_f3d_flags>
0

> <s_epik_input>
W0NIM11jMW5jKFtDSDNdKWMoYyg9TylbbkhdMSlbQ0gyXUMoPU8pW05IXVtDQEhdKFtDSDNdKVtDQEhdKFtDSDJdW0NASF0yMylbQ0BIXShbQ0gyXTMpW0NIMl1bQ0gyXTI=

> <s_epik_cmdline>
J2VwaWtfcHl0aG9uJywgJy1waCcsICc3LjAnLCAnLXRuJywgJzgnLCAnLW1hJywgJzIwMCcsICctbWV0YWxfYmluZGluZycsICctaW1hZScsICc8aW5maWxlLm1hZT4nLCAnLW9tYWUnLCAnPG91dGZpbGUubWFlPic=

> <r_lp_tautomer_probability>
0.156392

> <r_epik_Ionization_Penalty>
0.0139374

> <r_epik_Ionization_Penalty_Charging>
0.0138122

> <r_epik_Ionization_Penalty_Neutral>
0.000125146

> <r_epik_State_Penalty>
1.15342

> <r_epik_Charging_Adjusted_Penalty>
1.16723

> <i_epik_Tot_Q>
0

> <i_epik_Tot_abs_Q>
0

> <r_epik_Metal_State_Penalty>
1.3173

> <b_epik_Metal_Only>
0

> <s_lp_Force_Field>
OPLS_2005

> <r_lp_Energy>
56.04

> <b_lp_Chiralities_Consistent>
1

> <s_lp_Variant>
AV-unprocessed.smi:2124-12

> <Gold.Version>
5.8.1

> <Gold.Id.Protein>
6NUR|6NUR_protein|mol2

> <Gold.PLP.Fitness>
45.0604

> <Gold.PLP.PLP>
-37.1364

> <Gold.PLP.part.hbond>
-4.1670

> <Gold.PLP.part.metal>
0.0000

> <Gold.PLP.part.buried>
1.3628

> <Gold.PLP.part.nonpolar>
-33.7041

> <Gold.PLP.part.repulsive>
0.2117

> <Gold.PLP.ligand.clash>
0.0000

> <Gold.PLP.ligand.torsion>
0.4759

> <Gold.PLP.Chemscore.Hbond>
2.9500

> <Gold.PLP.Chemscore.CHOScore>
0.0000

> <Gold.PLP.Chemscore.Metal>
0.0000

> <Gold.Chemscore.Hbonds>
donor molecule, donor type, donor heavy atom, donor atom, acceptor molecule, acceptor atom, score
      L1  H    10    32       P1  7948  0.56
      P1  H  7997  8008       L1    21  0.64
      P1  H 10752 10765       L1     9  0.35

> <Gold.PLP.Chemscore.Internal.Correction>
0.0257

> <Gold.Rescore>
     Score         DG    S(hbond)    S(metal)    S(lipo)     H(rot)  DE(clash)    DE(int)     intcor
     16.19     -17.60       2.56        0.00      66.67       1.65       0.02       1.39       ----

> <Gold.Chemscore.Fitness>
16.1943

> <Gold.Chemscore.DG>
-17.6040

> <Gold.Chemscore.ZeroCoef>
-5.4800

> <Gold.Chemscore.Hbond>
2.5619

> <Gold.Chemscore.Metal>
0.0000

> <Gold.Chemscore.Lipo>
66.6653

> <Gold.Chemscore.Internal_Hbond>
0.0000

> <Gold.Chemscore.DEClash>
0.0231

> <Gold.Chemscore.DEInternal>
1.3866

> <Gold.Chemscore.Rot>
1.6534

> <Gold.Chemscore.Internal.Correction>
   9.000000E+99

> <Gold.Chemscore.Hbonds>
donor molecule, donor type, donor heavy atom, donor atom, acceptor molecule, acceptor atom, score
      L1  H    10    32       P1  7948  0.08
      P1  H  7997  8008       L1    21  0.05
      P1  H 10752 10765       L1     9  0.01

> <Gold.Chemscore.Hbond.Weighted>
-8.5568

> <Gold.Chemscore.Metal.Weighted>
-0.0000

> <Gold.Chemscore.Lipo.Weighted>
-7.7998

> <Gold.Chemscore.Internal_Hbond.Weighted>
0.0000

> <Gold.Chemscore.DEClash.Weighted>
0.0231

> <Gold.Chemscore.DEInternal.Weighted>
1.3866

> <Gold.Chemscore.Rot.Weighted>
4.2326

> <Gold.Chemscore.Internal.Correction.Weighted>
   9.000000E+99

> <Gold.Protein.RotatedTorsions>
[ 6907 6896 6895 6894 ] final -169.91 input  -60.11 | X-H torsion
[ 7974 7965 7964 7962 ] final   -5.61 input  175.53 | X-H torsion
[ 8008 7997 7996 7995 ] final  -39.45 input   59.86 | X-H torsion
[ 10167 10162 10161 10158 ] final -162.24 input  -65.29 | X-H torsion
[ 10718 10713 10712 10709 ] final   11.68 input   66.30 | X-H torsion
[ 10763 10752 10751 10750 ] final -147.04 input  -60.55 | X-H torsion
[ 11005 11000 10999 10996 ] final  -30.76 input  -57.11 | X-H torsion

> <Gold.Protein.ActiveResidues>
 VAL166  LYS551  ARG553  GLY616  TRP617  ASP618  TYR619  PRO620  LYS621  CYS622 
 ASP623  PHE694  ASN695  SER759  ASP760  ASP761  ALA762  ILE779  LEU786  VAL792 
 PHE793  MET794  SER795  GLU796  ALA797  LYS798  CYS799  TRP800  GLU811  SER814 

> <Gold.Protein.RotatedAtoms>
  151.4992  133.3508  159.2865 H   0  0  0  0  0  0  0  0  0  0  0  0  # atno 6907 bound_to 6896
  150.8784  134.8173  159.7218 H   0  0  0  0  0  0  0  0  0  0  0  0  # atno 6908 bound_to 6896
  152.4746  134.4886  159.9740 H   0  0  0  0  0  0  0  0  0  0  0  0  # atno 6909 bound_to 6896
  146.2349  140.2046  142.8334 H   0  0  0  0  0  0  0  0  0  0  0  0  # atno 7974 bound_to 7965
  154.4023  140.1551  156.2865 H   0  0  0  0  0  0  0  0  0  0  0  0  # atno 8008 bound_to 7997
  155.8823  140.3443  155.5875 H   0  0  0  0  0  0  0  0  0  0  0  0  # atno 8009 bound_to 7997
  155.7653  140.0823  157.2126 H   0  0  0  0  0  0  0  0  0  0  0  0  # atno 8010 bound_to 7997
  139.6406  144.0266  152.2089 H   0  0  0  0  0  0  0  0  0  0  0  0  # atno 10167 bound_to 10162
  156.9992  130.6073  149.5694 H   0  0  0  0  0  0  0  0  0  0  0  0  # atno 10718 bound_to 10713
  154.8306  135.3370  154.6756 H   0  0  0  0  0  0  0  0  0  0  0  0  # atno 10763 bound_to 10752
  153.7376  135.6948  153.4979 H   0  0  0  0  0  0  0  0  0  0  0  0  # atno 10764 bound_to 10752
  153.2267  135.4430  155.0501 H   0  0  0  0  0  0  0  0  0  0  0  0  # atno 10765 bound_to 10752
  140.9410  133.7279  156.1076 H   0  0  0  0  0  0  0  0  0  0  0  0  # atno 11005 bound_to 11000
  144.9754  140.8409  143.5429 LP  0  0  0  0  0  0  0  0  0  0  0  0  # atno 17320 bound_to 7965
  145.2033  139.2241  143.5181 LP  0  0  0  0  0  0  0  0  0  0  0  0  # atno 17321 bound_to 7965
  139.9955  144.6331  150.7776 LP  0  0  0  0  0  0  0  0  0  0  0  0  # atno 17342 bound_to 10162
  140.7489  143.2929  151.3281 LP  0  0  0  0  0  0  0  0  0  0  0  0  # atno 17343 bound_to 10162
  156.0177  130.5272  150.8185 LP  0  0  0  0  0  0  0  0  0  0  0  0  # atno 17370 bound_to 10713
  157.5403  131.0940  150.9837 LP  0  0  0  0  0  0  0  0  0  0  0  0  # atno 17371 bound_to 10713
  140.7734  134.3807  157.5503 LP  0  0  0  0  0  0  0  0  0  0  0  0  # atno 17394 bound_to 11000
  139.8820  134.9036  156.2859 LP  0  0  0  0  0  0  0  0  0  0  0  0  # atno 17395 bound_to 11000

$$$$
