#       Name:                AV-unprocessed.smi:1244
#       Creating user name   scv26
#       Creation time:       Fri Mar 27 04:32:13 2020


#       File generated by GOLD software.
#

@<TRIPOS>MOLECULE
AV-unprocessed.smi:1244
    61    63     1
SMALL
NO_CHARGES


@<TRIPOS>ATOM
      1 ****        -4.8868   2.0695   4.5758 C.3            1 S1                 0.0000
      2 ****        -3.7879   2.6380   3.6719 C.3            1 S1                 0.0000
      3 ****        -3.1517   1.5548   2.7829 C.3            1 S1                 0.0000
      4 ****        -2.1608   2.1114   1.8710 N.3            1 S1                 0.0000
      5 ****        -1.5360   1.0596   1.0720 C.3            1 S1                 0.0000
      6 ****        -0.2985   1.5049   0.2701 C.3            1 S1                 0.0000
      7 ****         0.3120   0.3827  -0.4324 N.am           1 S1                 0.0000
      8 ****         1.1030  -0.5401   0.1329 C.2            1 S1                 0.0000
      9 ****         1.4102  -0.5345   1.3250 O.2            1 S1                 0.0000
     10 ****         1.5184  -1.4430  -0.7713 N.am           1 S1                 0.0000
     11 ****         2.3635  -2.5717  -0.5708 C.ar           1 S1                 0.0000
     12 ****         2.3979  -3.2643   0.6647 C.ar           1 S1                 0.0000
     13 ****         3.2632  -4.3610   0.8184 C.ar           1 S1                 0.0000
     14 ****         4.0653  -4.7316  -0.2732 C.ar           1 S1                 0.0000
     15 ****         4.0297  -4.0969  -1.4618 N.ar           1 S1                 0.0000
     16 ****         3.1887  -3.0468  -1.6312 C.ar           1 S1                 0.0000
     17 ****         3.1832  -2.4366  -2.9070 N.3            1 S1                 0.0000
     18 ****         4.2448  -2.7186  -3.8677 C.3            1 S1                 0.0000
     19 ****         3.7142  -2.2073  -5.2038 C.3            1 S1                 0.0000
     20 ****         2.2239  -2.5179  -5.1023 C.3            1 S1                 0.0000
     21 ****         1.9122  -2.3186  -3.6152 C.3            1 S1                 0.0000
     22 ****        -2.7968   3.1389   1.0492 C.3            1 S1                 0.0000
     23 ****        -3.4836   4.2339   1.8906 C.3            1 S1                 0.0000
     24 ****        -2.4900   5.2029   2.5538 C.3            1 S1                 0.0000
     25 ****        -4.3683   3.6458   2.8461 O.3            1 S1                 0.0000
     26 ****        -4.4900   1.3000   5.2385 H              1 S1                 0.0000
     27 ****        -5.6904   1.6242   3.9884 H              1 S1                 0.0000
     28 ****        -5.3227   2.8513   5.1980 H              1 S1                 0.0000
     29 ****        -3.0214   3.0856   4.3053 H              1 S1                 0.0000
     30 ****        -2.6847   0.8010   3.4181 H              1 S1                 0.0000
     31 ****        -3.9304   1.0436   2.2144 H              1 S1                 0.0000
     32 ****        -1.2288   0.2541   1.7403 H              1 S1                 0.0000
     33 ****        -2.2730   0.6218   0.3969 H              1 S1                 0.0000
     34 ****        -0.5690   2.2473  -0.4798 H              1 S1                 0.0000
     35 ****         0.4338   1.9766   0.9277 H              1 S1                 0.0000
     36 ****         0.1174   0.3037  -1.4197 H              1 S1                 0.0000
     37 ****         1.2724  -1.2546  -1.7319 H              1 S1                 0.0000
     38 ****         1.7700  -2.9781   1.4945 H              1 S1                 0.0000
     39 ****         3.3113  -4.9026   1.7513 H              1 S1                 0.0000
     40 ****         4.7474  -5.5651  -0.1940 H              1 S1                 0.0000
     41 ****         5.1769  -2.2277  -3.5862 H              1 S1                 0.0000
     42 ****         4.4288  -3.7916  -3.9378 H              1 S1                 0.0000
     43 ****         3.8664  -1.1297  -5.2793 H              1 S1                 0.0000
     44 ****         4.1937  -2.6806  -6.0610 H              1 S1                 0.0000
     45 ****         1.6121  -1.8901  -5.7507 H              1 S1                 0.0000
     46 ****         2.0477  -3.5585  -5.3784 H              1 S1                 0.0000
     47 ****         1.1748  -3.0408  -3.2620 H              1 S1                 0.0000
     48 ****         1.5127  -1.3175  -3.4531 H              1 S1                 0.0000
     49 ****        -2.0681   3.6080   0.3891 H              1 S1                 0.0000
     50 ****        -3.5424   2.6730   0.4028 H              1 S1                 0.0000
     51 ****        -4.1073   4.8279   1.2221 H              1 S1                 0.0000
     52 ****        -1.9026   5.7297   1.8015 H              1 S1                 0.0000
     53 ****        -1.7895   4.6863   3.2095 H              1 S1                 0.0000
     54 ****        -3.0143   5.9517   3.1476 H              1 S1                 0.0000
     55 ****        -1.4216   2.5399   2.3906 LP             1 S1                 0.0000
     56 ****         1.0651   0.1856   1.9269 LP             1 S1                 0.0000
     57 ****         2.0048  -1.2502   1.6915 LP             1 S1                 0.0000
     58 ****         4.6183  -4.3979  -2.2121 LP             1 S1                 0.0000
     59 ****         3.4111  -1.5467  -2.5120 LP             1 S1                 0.0000
     60 ****        -4.7099   4.3738   3.4405 LP             1 S1                 0.0000
     61 ****        -5.1326   3.2356   2.3485 LP             1 S1                 0.0000
@<TRIPOS>BOND
    1    1    2 1     
    2    1   26 1     
    3    1   27 1     
    4    1   28 1     
    5    2   25 1     
    6    2    3 1     
    7    2   29 1     
    8    3    4 1     
    9    3   30 1     
   10    3   31 1     
   11    4    5 1     
   12    4   22 1     
   13    5    6 1     
   14    5   32 1     
   15    5   33 1     
   16    6    7 1     
   17    6   34 1     
   18    6   35 1     
   19    7    8 am    
   20    7   36 1     
   21    8    9 2     
   22    8   10 am    
   23   10   11 1     
   24   10   37 1     
   25   11   16 ar    
   26   11   12 ar    
   27   12   13 ar    
   28   12   38 1     
   29   13   14 ar    
   30   13   39 1     
   31   14   15 ar    
   32   14   40 1     
   33   15   16 ar    
   34   16   17 1     
   35   17   21 1     
   36   17   18 1     
   37   18   19 1     
   38   18   41 1     
   39   18   42 1     
   40   19   20 1     
   41   19   43 1     
   42   19   44 1     
   43   20   21 1     
   44   20   45 1     
   45   20   46 1     
   46   21   47 1     
   47   21   48 1     
   48   22   23 1     
   49   22   49 1     
   50   22   50 1     
   51   23   24 1     
   52   23   25 1     
   53   23   51 1     
   54   24   52 1     
   55   24   53 1     
   56   24   54 1     
   57    4   55 1     
   58    9   56 1     
   59    9   57 1     
   60   15   58 1     
   61   17   59 1     
   62   25   60 1     
   63   25   61 1     
@<TRIPOS>SUBSTRUCTURE
      1 S1             1
@<TRIPOS>SET
LONE_PAIRS      STATIC     ATOMS    <user>   **** ""
7 55 56 57 58 59 60 61
DONOR_HYDROGENS      STATIC     ATOMS    <user>   **** ""
2 36 37
ATOM$BLUE        STATIC     ATOMS    COLORGROUP SYSTEM
7 55 56 57 58 59 60 61
ATOM$RED        STATIC     ATOMS    COLORGROUP SYSTEM
2 36 37
