#       Name:                AV-unprocessed.smi:2033
#       Creating user name   scv26
#       Creation time:       Fri Mar 27 10:53:31 2020


#       File generated by GOLD software.
#

@<TRIPOS>MOLECULE
AV-unprocessed.smi:2033
    39    40     1
SMALL
NO_CHARGES


@<TRIPOS>ATOM
      1 ****        -6.8515   2.3076   0.8574 C.3            1 S1                 0.0000
      2 ****        -5.4858   1.7374   0.6804 C.2            1 S1                 0.0000
      3 ****        -5.2140   0.4383   0.8551 N.2            1 S1                 0.0000
      4 ****        -3.8747   0.1470   0.6362 N.2            1 S1                 0.0000
      5 ****        -3.1737   1.2391   0.3018 C.2            1 S1                 0.0000
      6 ****        -1.7815   1.2279   0.0221 N.am           1 S1                 0.0000
      7 ****        -0.9400   0.1790   0.0225 C.2            1 S1                 0.0000
      8 ****        -1.2527  -0.9847   0.2757 O.2            1 S1                 0.0000
      9 ****         0.3072   0.5583  -0.2924 N.am           1 S1                 0.0000
     10 ****         1.4638  -0.3294  -0.4143 C.3            1 S1                 0.0000
     11 ****         2.0475  -0.6654   0.9819 C.3            1 S1                 0.0000
     12 ****         3.5299  -1.0935   1.0110 C.3            1 S1                 0.0000
     13 ****         3.9075  -2.2465   0.0590 C.3            1 S1                 0.0000
     14 ****         3.5774  -2.0493  -1.4405 C.3            1 S1                 0.0000
     15 ****         3.4462  -0.6523  -1.8539 N.am           1 S1                 0.0000
     16 ****         2.4838   0.1922  -1.4444 C.2            1 S1                 0.0000
     17 ****         2.4273   1.3503  -1.8559 O.2            1 S1                 0.0000
     18 ****        -4.1028   2.7268   0.2291 S.3            1 S1                 0.0000
     19 ****        -7.5970   1.5131   0.9047 H              1 S1                 0.0000
     20 ****        -7.0940   2.9628   0.0207 H              1 S1                 0.0000
     21 ****        -6.8963   2.8852   1.7806 H              1 S1                 0.0000
     22 ****        -1.3793   2.1247  -0.2080 H              1 S1                 0.0000
     23 ****         0.4727   1.5346  -0.4896 H              1 S1                 0.0000
     24 ****         1.0823  -1.2586  -0.8395 H              1 S1                 0.0000
     25 ****         1.9450   0.2027   1.6347 H              1 S1                 0.0000
     26 ****         1.4400  -1.4481   1.4377 H              1 S1                 0.0000
     27 ****         4.1611  -0.2298   0.7971 H              1 S1                 0.0000
     28 ****         3.7875  -1.3841   2.0299 H              1 S1                 0.0000
     29 ****         4.9813  -2.4101   0.1543 H              1 S1                 0.0000
     30 ****         3.4423  -3.1706   0.4036 H              1 S1                 0.0000
     31 ****         4.3540  -2.5153  -2.0474 H              1 S1                 0.0000
     32 ****         2.6601  -2.5815  -1.6942 H              1 S1                 0.0000
     33 ****         4.1254  -0.3071  -2.5167 H              1 S1                 0.0000
     34 ****        -5.8976  -0.2442   1.1138 LP             1 S1                 0.0000
     35 ****        -3.4801  -0.7682   0.7182 LP             1 S1                 0.0000
     36 ****        -2.1999  -1.2095   0.5045 LP             1 S1                 0.0000
     37 ****        -0.5594  -1.7051   0.2526 LP             1 S1                 0.0000
     38 ****         1.7132   1.9654  -1.5216 LP             1 S1                 0.0000
     39 ****         3.0955   1.6765  -2.5245 LP             1 S1                 0.0000
@<TRIPOS>BOND
    1    1    2 1     
    2    1   19 1     
    3    1   20 1     
    4    1   21 1     
    5    2   18 1     
    6    2    3 2     
    7    3    4 1     
    8    4    5 2     
    9    5    6 1     
   10    5   18 1     
   11    6    7 am    
   12    6   22 1     
   13    7    8 2     
   14    7    9 am    
   15    9   10 1     
   16    9   23 1     
   17   10   16 1     
   18   10   11 1     
   19   10   24 1     
   20   11   12 1     
   21   11   25 1     
   22   11   26 1     
   23   12   13 1     
   24   12   27 1     
   25   12   28 1     
   26   13   14 1     
   27   13   29 1     
   28   13   30 1     
   29   14   15 1     
   30   14   31 1     
   31   14   32 1     
   32   15   16 am    
   33   15   33 1     
   34   16   17 2     
   35    3   34 1     
   36    4   35 1     
   37    8   36 1     
   38    8   37 1     
   39   17   38 1     
   40   17   39 1     
@<TRIPOS>SUBSTRUCTURE
      1 S1             1
@<TRIPOS>SET
LONE_PAIRS      STATIC     ATOMS    <user>   **** ""
6 34 35 36 37 38 39
DONOR_HYDROGENS      STATIC     ATOMS    <user>   **** ""
3 22 23 33
ATOM$BLUE        STATIC     ATOMS    COLORGROUP SYSTEM
6 34 35 36 37 38 39
ATOM$RED        STATIC     ATOMS    COLORGROUP SYSTEM
3 22 23 33
