AV-unprocessed.smi:3226|AV-procd|sdf|12315|dock8
  -GOLD-   2272018163D 1   1.00000     0.00000
 Structure written by MMmdl.
 41 43  0  0  0  0  0  0  0  0  2 V2000
  150.8844  130.5118  155.1777 C   0  0  0  0  0  0  0  0  0  0  0  0
  150.1199  131.1912  156.3195 C   0  0  0  0  0  0  0  0  0  0  0  0
  150.3545  132.6697  156.3695 C   0  0  0  0  0  0  0  0  0  0  0  0
  150.9015  133.2916  157.4208 N   0  0  0  0  0  0  0  0  0  0  0  0
  150.9752  134.6245  157.0699 N   0  0  0  0  0  0  0  0  0  0  0  0
  150.4743  134.6740  155.8371 C   0  0  0  0  0  0  0  0  0  0  0  0
  150.0644  133.4958  155.3418 N   0  0  0  0  0  0  0  0  0  0  0  0
  149.4774  133.2209  154.0410 C   0  0  0  0  0  0  0  0  0  0  0  0
  148.0512  133.7806  153.9129 C   0  0  0  0  0  0  0  0  0  0  0  0
  147.6312  133.8896  152.5011 N   0  3  0  0  0  0  0  0  0  0  0  0
  146.1691  133.9545  152.3127 C   0  0  0  0  0  0  0  0  0  0  0  0
  145.7864  133.7442  150.8355 C   0  0  2  0  0  0  0  0  0  0  0  0
  144.2715  133.9679  150.5398 C   0  0  0  0  0  0  0  0  0  0  0  0
  143.8629  132.6662  149.8120 C   0  0  2  0  0  0  0  0  0  0  0  0
  143.9232  131.5375  150.8187 C   0  0  0  0  0  0  0  0  0  0  0  0
  145.2099  131.3232  151.0976 C   0  0  0  0  0  0  0  0  0  0  0  0
  146.0193  132.3116  150.2818 C   0  0  1  0  0  0  0  0  0  0  0  0
  145.1464  132.3876  149.0232 C   0  0  0  0  0  0  0  0  0  0  0  0
  150.6945  129.4385  155.1677 H   0  0  0  0  0  0  0  0  0  0  0  0
  151.9600  130.6588  155.2819 H   0  0  0  0  0  0  0  0  0  0  0  0
  150.5842  130.9120  154.2090 H   0  0  0  0  0  0  0  0  0  0  0  0
  149.0531  130.9895  156.2282 H   0  0  0  0  0  0  0  0  0  0  0  0
  150.4289  130.7589  157.2719 H   0  0  0  0  0  0  0  0  0  0  0  0
  150.4006  135.5971  155.2811 H   0  0  0  0  0  0  0  0  0  0  0  0
  150.1232  133.6412  153.2687 H   0  0  0  0  0  0  0  0  0  0  0  0
  149.4725  132.1421  153.8829 H   0  0  0  0  0  0  0  0  0  0  0  0
  147.3574  133.1210  154.4358 H   0  0  0  0  0  0  0  0  0  0  0  0
  147.9805  134.7588  154.3901 H   0  0  0  0  0  0  0  0  0  0  0  0
  148.0429  134.7229  152.1054 H   0  0  0  0  0  0  0  0  0  0  0  0
  145.6849  133.2146  152.9511 H   0  0  0  0  0  0  0  0  0  0  0  0
  145.8174  134.9328  152.6432 H   0  0  0  0  0  0  0  0  0  0  0  0
  146.3611  134.4479  150.2303 H   0  0  0  0  0  0  0  0  0  0  0  0
  143.6813  134.1241  151.4442 H   0  0  0  0  0  0  0  0  0  0  0  0
  144.1287  134.8377  149.8973 H   0  0  0  0  0  0  0  0  0  0  0  0
  142.9465  132.7069  149.2228 H   0  0  0  0  0  0  0  0  0  0  0  0
  143.0625  131.0387  151.2392 H   0  0  0  0  0  0  0  0  0  0  0  0
  145.6258  130.6115  151.7955 H   0  0  0  0  0  0  0  0  0  0  0  0
  147.0560  132.0225  150.1071 H   0  0  0  0  0  0  0  0  0  0  0  0
  145.1108  131.4463  148.4706 H   0  0  0  0  0  0  0  0  0  0  0  0
  145.4251  133.1886  148.3352 H   0  0  0  0  0  0  0  0  0  0  0  0
  147.9807  133.0862  151.9985 H   0  0  0  0  0  0  0  0  0  0  0  0
  1  2  1  0  0  0  0
  1 19  1  0  0  0  0
  1 20  1  0  0  0  0
  1 21  1  0  0  0  0
  2  3  1  0  0  0  0
  2 22  1  0  0  0  0
  2 23  1  0  0  0  0
  3  7  1  0  0  0  0
  3  4  2  0  0  0  0
  4  5  1  0  0  0  0
  5  6  2  0  0  0  0
  6  7  1  0  0  0  0
  6 24  1  0  0  0  0
  7  8  1  0  0  0  0
  8  9  1  0  0  0  0
  8 25  1  0  0  0  0
  8 26  1  0  0  0  0
  9 10  1  0  0  0  0
  9 27  1  0  0  0  0
  9 28  1  0  0  0  0
 10 11  1  0  0  0  0
 10 29  1  0  0  0  0
 10 41  1  0  0  0  0
 11 12  1  0  0  0  0
 11 30  1  0  0  0  0
 11 31  1  0  0  0  0
 12 17  1  0  0  0  0
 12 13  1  0  0  0  0
 12 32  1  0  0  0  0
 13 14  1  0  0  0  0
 13 33  1  0  0  0  0
 13 34  1  0  0  0  0
 14 18  1  0  0  0  0
 14 15  1  0  0  0  0
 14 35  1  0  0  0  0
 15 16  2  0  0  0  0
 15 36  1  0  0  0  0
 16 17  1  0  0  0  0
 16 37  1  0  0  0  0
 17 18  1  0  0  0  0
 17 38  1  0  0  0  0
 18 39  1  0  0  0  0
 18 40  1  0  0  0  0
M  CHG  1  10   1
M  END
> <s_m_source_file>
AV-unprocessed.smi

> <i_m_source_file_index>
3226

> <i_lp_mmshare_version>
43012

> <i_f3d_flags>
0

> <s_epik_input>
W0NIM11bQ0gyXWMxbm5bY0hdbjFbQ0gyXVtDSDJdW05IXVtDSDJdW0NASF0oW0NIMl1bQ0BASF0yMylbQ0BASF0oW0NIMl0zKVtDSF09W0NIXTI=

> <s_epik_cmdline>
J2VwaWtfcHl0aG9uJywgJy1waCcsICc3LjAnLCAnLXRuJywgJzgnLCAnLW1hJywgJzIwMCcsICctbWV0YWxfYmluZGluZycsICctaW1hZScsICc8aW5maWxlLm1hZT4nLCAnLW9tYWUnLCAnPG91dGZpbGUubWFlPic=

> <r_lp_tautomer_probability>
1

> <r_epik_Ionization_Penalty>
0.00175008

> <r_epik_Ionization_Penalty_Charging>
0.00173932

> <r_epik_Ionization_Penalty_Neutral>
1.07546e-05

> <r_epik_State_Penalty>
-0

> <r_epik_Charging_Adjusted_Penalty>
0.00173932

> <i_epik_Tot_Q>
1

> <i_epik_Tot_abs_Q>
1

> <r_epik_Metal_State_Penalty>
-0

> <b_epik_Metal_Only>
0

> <s_lp_Force_Field>
OPLS_2005

> <r_lp_Energy>
64.9624

> <b_lp_Chiralities_Consistent>
1

> <s_lp_Variant>
AV-unprocessed.smi:3226-3

> <Gold.Version>
5.8.1

> <Gold.Id.Protein>
6NUR|6NUR_protein|mol2

> <Gold.PLP.Fitness>
44.5407

> <Gold.PLP.PLP>
-36.6882

> <Gold.PLP.part.hbond>
-3.0000

> <Gold.PLP.part.metal>
0.0000

> <Gold.PLP.part.buried>
-2.3558

> <Gold.PLP.part.nonpolar>
-30.6915

> <Gold.PLP.part.repulsive>
0.0154

> <Gold.PLP.ligand.clash>
0.0000

> <Gold.PLP.ligand.torsion>
0.3506

> <Gold.PLP.Chemscore.Hbond>
2.8320

> <Gold.PLP.Chemscore.CHOScore>
0.0000

> <Gold.PLP.Chemscore.Metal>
0.0000

> <Gold.Chemscore.Hbonds>
donor molecule, donor type, donor heavy atom, donor atom, acceptor molecule, acceptor atom, score
      L1  H    10    29       P1  7948  2.00
      P1  H  6896  6907       L1     4  0.79

> <Gold.PLP.Chemscore.Internal.Correction>
0.0576

> <Gold.Rescore>
     Score         DG    S(hbond)    S(metal)    S(lipo)     H(rot)  DE(clash)    DE(int)     intcor
     15.11     -15.60       1.39        0.00      91.93       2.06       0.06       0.43       ----

> <Gold.Chemscore.Fitness>
15.1135

> <Gold.Chemscore.DG>
-15.6040

> <Gold.Chemscore.ZeroCoef>
-5.4800

> <Gold.Chemscore.Hbond>
1.3916

> <Gold.Chemscore.Metal>
0.0000

> <Gold.Chemscore.Lipo>
91.9273

> <Gold.Chemscore.Internal_Hbond>
0.0000

> <Gold.Chemscore.DEClash>
0.0558

> <Gold.Chemscore.DEInternal>
0.4347

> <Gold.Chemscore.Rot>
2.0623

> <Gold.Chemscore.Internal.Correction>
   9.000000E+99

> <Gold.Chemscore.Hbonds>
donor molecule, donor type, donor heavy atom, donor atom, acceptor molecule, acceptor atom, score
      L1  H    10    29       P1  7948  0.30
      P1  H  6896  6907       L1     4  0.15

> <Gold.Chemscore.Hbond.Weighted>
-4.6481

> <Gold.Chemscore.Metal.Weighted>
-0.0000

> <Gold.Chemscore.Lipo.Weighted>
-10.7555

> <Gold.Chemscore.Internal_Hbond.Weighted>
0.0000

> <Gold.Chemscore.DEClash.Weighted>
0.0558

> <Gold.Chemscore.DEInternal.Weighted>
0.4347

> <Gold.Chemscore.Rot.Weighted>
5.2796

> <Gold.Chemscore.Internal.Correction.Weighted>
   9.000000E+99

> <Gold.Protein.RotatedTorsions>
[ 6907 6896 6895 6894 ] final -144.84 input  -60.11 | X-H torsion
[ 7974 7965 7964 7962 ] final  -62.13 input  175.53 | X-H torsion
[ 8008 7997 7996 7995 ] final  139.92 input   59.86 | X-H torsion
[ 10167 10162 10161 10158 ] final  -49.37 input  -65.29 | X-H torsion
[ 10718 10713 10712 10709 ] final -116.86 input   66.30 | X-H torsion
[ 10763 10752 10751 10750 ] final  164.15 input  -60.55 | X-H torsion
[ 11005 11000 10999 10996 ] final    3.98 input  -57.11 | X-H torsion

> <Gold.Protein.ActiveResidues>
 VAL166  LYS551  ARG553  GLY616  TRP617  ASP618  TYR619  PRO620  LYS621  CYS622 
 ASP623  PHE694  ASN695  SER759  ASP760  ASP761  ALA762  ILE779  LEU786  VAL792 
 PHE793  MET794  SER795  GLU796  ALA797  LYS798  CYS799  TRP800  GLU811  SER814 

> <Gold.Protein.RotatedAtoms>
  151.1195  133.5114  159.2602 H   0  0  0  0  0  0  0  0  0  0  0  0  # atno 6907 bound_to 6896
  151.1877  135.0388  159.8829 H   0  0  0  0  0  0  0  0  0  0  0  0  # atno 6908 bound_to 6896
  152.5455  134.1039  159.8383 H   0  0  0  0  0  0  0  0  0  0  0  0  # atno 6909 bound_to 6896
  145.7950  140.8688  143.0261 H   0  0  0  0  0  0  0  0  0  0  0  0  # atno 7974 bound_to 7965
  156.2985  140.2355  156.4317 H   0  0  0  0  0  0  0  0  0  0  0  0  # atno 8008 bound_to 7997
  154.8264  140.0435  157.1467 H   0  0  0  0  0  0  0  0  0  0  0  0  # atno 8009 bound_to 7997
  154.9256  140.3009  155.5197 H   0  0  0  0  0  0  0  0  0  0  0  0  # atno 8010 bound_to 7997
  140.6688  143.2701  151.4205 H   0  0  0  0  0  0  0  0  0  0  0  0  # atno 10167 bound_to 10162
  156.0993  130.6159  150.9090 H   0  0  0  0  0  0  0  0  0  0  0  0  # atno 10718 bound_to 10713
  154.3046  135.2758  155.2595 H   0  0  0  0  0  0  0  0  0  0  0  0  # atno 10763 bound_to 10752
  154.5017  135.5806  153.6539 H   0  0  0  0  0  0  0  0  0  0  0  0  # atno 10764 bound_to 10752
  152.9896  135.6159  154.3218 H   0  0  0  0  0  0  0  0  0  0  0  0  # atno 10765 bound_to 10752
  140.5870  133.9959  155.8072 H   0  0  0  0  0  0  0  0  0  0  0  0  # atno 11005 bound_to 11000
  144.6776  140.0178  143.7484 LP  0  0  0  0  0  0  0  0  0  0  0  0  # atno 17320 bound_to 7965
  145.9937  139.3035  143.0969 LP  0  0  0  0  0  0  0  0  0  0  0  0  # atno 17321 bound_to 7965
  139.5948  144.1422  152.2130 LP  0  0  0  0  0  0  0  0  0  0  0  0  # atno 17342 bound_to 10162
  140.0787  144.5718  150.7138 LP  0  0  0  0  0  0  0  0  0  0  0  0  # atno 17343 bound_to 10162
  157.6160  131.0933  150.8709 LP  0  0  0  0  0  0  0  0  0  0  0  0  # atno 17370 bound_to 10713
  156.8840  130.5189  149.5289 LP  0  0  0  0  0  0  0  0  0  0  0  0  # atno 17371 bound_to 10713
  141.0959  133.9844  157.3160 LP  0  0  0  0  0  0  0  0  0  0  0  0  # atno 17394 bound_to 11000
  139.9291  135.0200  156.8338 LP  0  0  0  0  0  0  0  0  0  0  0  0  # atno 17395 bound_to 11000

$$$$
