AV-unprocessed.smi:249|AV-procd|sdf|1920|dock4
  -GOLD-   2262021 23D 1   1.00000     0.00000
 Structure written by MMmdl.
 64 67  0  0  0  0  0  0  0  0  2 V2000
  144.2229  132.4436  150.0064 C   0  0  0  0  0  0  0  0  0  0  0  0
  143.8192  133.0244  151.3704 C   0  0  0  0  0  0  0  0  0  0  0  0
  143.3754  134.4476  151.2925 N   0  3  2  0  0  0  0  0  0  0  0  0
  144.4401  135.3930  150.8515 C   0  0  0  0  0  0  0  0  0  0  0  0
  145.4888  135.6368  151.9541 C   0  0  0  0  0  0  0  0  0  0  0  0
  144.8173  136.1334  153.2497 C   0  0  2  0  0  0  0  0  0  0  0  0
  145.7845  136.3769  154.3258 N   0  0  0  0  0  0  0  0  0  0  0  0
  146.5267  135.2591  154.9078 C   0  0  0  0  0  0  0  0  0  0  0  0
  146.4314  137.5694  154.2654 C   0  0  0  0  0  0  0  0  0  0  0  0
  146.5445  138.2139  153.0732 N   0  0  0  0  0  0  0  0  0  0  0  0
  147.1619  139.3967  153.0014 C   0  0  0  0  0  0  0  0  0  0  0  0
  147.7316  140.1009  153.9810 N   0  0  0  0  0  0  0  0  0  0  0  0
  147.6324  139.4546  155.1772 C   0  0  0  0  0  0  0  0  0  0  0  0
  147.0011  138.1997  155.4076 C   0  0  0  0  0  0  0  0  0  0  0  0
  147.0980  137.8612  156.7526 N   0  0  0  0  0  0  0  0  0  0  0  0
  147.7433  138.8616  157.2876 C   0  0  0  0  0  0  0  0  0  0  0  0
  148.1197  139.8532  156.4098 N   0  0  0  0  0  0  0  0  0  0  0  0
  148.8412  141.0711  156.7347 C   0  0  0  0  0  0  0  0  0  0  0  0
  150.2893  140.8498  157.2464 C   0  0  1  0  0  0  0  0  0  0  0  0
  151.2260  140.6149  156.0387 C   0  0  0  0  0  0  0  0  0  0  0  0
  152.3291  139.8012  156.3838 O   0  0  0  0  0  0  0  0  0  0  0  0
  150.8129  141.9637  158.2002 C   0  0  2  0  0  0  0  0  0  0  0  0
  151.1223  143.2879  157.5190 C   0  0  0  0  0  0  0  0  0  0  0  0
  152.0111  143.9774  158.5435 C   0  0  0  0  0  0  0  0  0  0  0  0
  152.8142  142.9339  159.0723 O   0  0  0  0  0  0  0  0  0  0  0  0
  152.1608  141.6818  158.8848 C   0  0  0  0  0  0  0  0  0  0  0  0
  143.6872  135.1747  153.6729 C   0  0  0  0  0  0  0  0  0  0  0  0
  142.6888  134.9685  152.5148 C   0  0  2  0  0  0  0  0  0  0  0  0
  141.4598  134.1411  152.9329 C   0  0  0  0  0  0  0  0  0  0  0  0
  144.3934  131.3697  150.0859 H   0  0  0  0  0  0  0  0  0  0  0  0
  145.1450  132.8826  149.6268 H   0  0  0  0  0  0  0  0  0  0  0  0
  143.4399  132.5977  149.2634 H   0  0  0  0  0  0  0  0  0  0  0  0
  143.0047  132.4032  151.7372 H   0  0  0  0  0  0  0  0  0  0  0  0
  144.6342  132.9068  152.0842 H   0  0  0  0  0  0  0  0  0  0  0  0
  144.9216  135.0524  149.9364 H   0  0  0  0  0  0  0  0  0  0  0  0
  143.9681  136.3417  150.5919 H   0  0  0  0  0  0  0  0  0  0  0  0
  146.0523  134.7222  152.1381 H   0  0  0  0  0  0  0  0  0  0  0  0
  146.2136  136.3739  151.6067 H   0  0  0  0  0  0  0  0  0  0  0  0
  144.3340  137.0778  153.0007 H   0  0  0  0  0  0  0  0  0  0  0  0
  147.0613  135.5763  155.8044 H   0  0  0  0  0  0  0  0  0  0  0  0
  147.2546  134.8610  154.2006 H   0  0  0  0  0  0  0  0  0  0  0  0
  145.8595  134.4506  155.2026 H   0  0  0  0  0  0  0  0  0  0  0  0
  147.2056  139.8424  152.0185 H   0  0  0  0  0  0  0  0  0  0  0  0
  147.9769  138.8969  158.3418 H   0  0  0  0  0  0  0  0  0  0  0  0
  148.8546  141.6852  155.8335 H   0  0  0  0  0  0  0  0  0  0  0  0
  148.2634  141.6276  157.4737 H   0  0  0  0  0  0  0  0  0  0  0  0
  150.2993  139.9161  157.8092 H   0  0  0  0  0  0  0  0  0  0  0  0
  150.6916  140.1511  155.2098 H   0  0  0  0  0  0  0  0  0  0  0  0
  151.6014  141.5660  155.6599 H   0  0  0  0  0  0  0  0  0  0  0  0
  152.0932  139.2786  157.1353 H   0  0  0  0  0  0  0  0  0  0  0  0
  150.0675  142.1524  158.9746 H   0  0  0  0  0  0  0  0  0  0  0  0
  151.6781  143.1234  156.5946 H   0  0  0  0  0  0  0  0  0  0  0  0
  150.2309  143.8708  157.2853 H   0  0  0  0  0  0  0  0  0  0  0  0
  152.6189  144.7722  158.1105 H   0  0  0  0  0  0  0  0  0  0  0  0
  151.4099  144.4043  159.3472 H   0  0  0  0  0  0  0  0  0  0  0  0
  152.0350  141.1812  159.8440 H   0  0  0  0  0  0  0  0  0  0  0  0
  152.8022  141.0604  158.2591 H   0  0  0  0  0  0  0  0  0  0  0  0
  144.0862  134.2106  153.9867 H   0  0  0  0  0  0  0  0  0  0  0  0
  143.1676  135.5889  154.5380 H   0  0  0  0  0  0  0  0  0  0  0  0
  142.3003  135.9514  152.2429 H   0  0  0  0  0  0  0  0  0  0  0  0
  140.8767  134.6765  153.6828 H   0  0  0  0  0  0  0  0  0  0  0  0
  141.7359  133.1834  153.3738 H   0  0  0  0  0  0  0  0  0  0  0  0
  140.8026  133.9506  152.0839 H   0  0  0  0  0  0  0  0  0  0  0  0
  142.6753  134.4626  150.5646 H   0  0  0  0  0  0  0  0  0  0  0  0
  1  2  1  0  0  0  0
  1 30  1  0  0  0  0
  1 31  1  0  0  0  0
  1 32  1  0  0  0  0
  2  3  1  0  0  0  0
  2 33  1  0  0  0  0
  2 34  1  0  0  0  0
  3 28  1  0  0  0  0
  3  4  1  0  0  0  0
  3 64  1  0  0  0  0
  4  5  1  0  0  0  0
  4 35  1  0  0  0  0
  4 36  1  0  0  0  0
  5  6  1  0  0  0  0
  5 37  1  0  0  0  0
  5 38  1  0  0  0  0
  6  7  1  0  0  0  0
  6 27  1  0  0  0  0
  6 39  1  0  0  0  0
  7  8  1  0  0  0  0
  7  9  1  0  0  0  0
  8 40  1  0  0  0  0
  8 41  1  0  0  0  0
  8 42  1  0  0  0  0
  9 14  1  0  0  0  0
  9 10  2  0  0  0  0
 10 11  1  0  0  0  0
 11 12  2  0  0  0  0
 11 43  1  0  0  0  0
 12 13  1  0  0  0  0
 13 17  1  0  0  0  0
 13 14  2  0  0  0  0
 14 15  1  0  0  0  0
 15 16  2  0  0  0  0
 16 17  1  0  0  0  0
 16 44  1  0  0  0  0
 17 18  1  0  0  0  0
 18 19  1  0  0  0  0
 18 45  1  0  0  0  0
 18 46  1  0  0  0  0
 19 20  1  0  0  0  0
 19 22  1  0  0  0  0
 19 47  1  0  0  0  0
 20 21  1  0  0  0  0
 20 48  1  0  0  0  0
 20 49  1  0  0  0  0
 21 50  1  0  0  0  0
 22 26  1  0  0  0  0
 22 23  1  0  0  0  0
 22 51  1  0  0  0  0
 23 24  1  0  0  0  0
 23 52  1  0  0  0  0
 23 53  1  0  0  0  0
 24 25  1  0  0  0  0
 24 54  1  0  0  0  0
 24 55  1  0  0  0  0
 25 26  1  0  0  0  0
 26 56  1  0  0  0  0
 26 57  1  0  0  0  0
 27 28  1  0  0  0  0
 27 58  1  0  0  0  0
 27 59  1  0  0  0  0
 28 29  1  0  0  0  0
 28 60  1  0  0  0  0
 29 61  1  0  0  0  0
 29 62  1  0  0  0  0
 29 63  1  0  0  0  0
M  CHG  1   3   1
M  END
> <s_m_source_file>
AV-unprocessed.smi

> <i_m_source_file_index>
249

> <i_lp_mmshare_version>
43012

> <i_f3d_flags>
0

> <s_epik_input>
W0NIM11bQ0gyXU4xW0NIMl1bQ0gyXVtDQEhdKFtDSDJdW0NASF0xW0NIM10pTihbQ0gzXSljKG5bY0hdbjIpYyhjMjMpbltjSF1uM1tDSDJdW0NASF0oW0NIMl1bT0hdKVtDQEBIXTRbQ0gyXVtDSDJdT1tDSDJdNA==

> <s_epik_cmdline>
J2VwaWtfcHl0aG9uJywgJy1waCcsICc3LjAnLCAnLXRuJywgJzgnLCAnLW1hJywgJzIwMCcsICctbWV0YWxfYmluZGluZycsICctaW1hZScsICc8aW5maWxlLm1hZT4nLCAnLW9tYWUnLCAnPG91dGZpbGUubWFlPic=

> <r_lp_tautomer_probability>
1

> <r_epik_Ionization_Penalty>
0.00294688

> <r_epik_Ionization_Penalty_Charging>
0.00169971

> <r_epik_Ionization_Penalty_Neutral>
0.00124717

> <r_epik_State_Penalty>
-0

> <r_epik_Charging_Adjusted_Penalty>
0.00169971

> <i_epik_Tot_Q>
1

> <i_epik_Tot_abs_Q>
1

> <r_epik_Metal_State_Penalty>
-0

> <b_epik_Metal_Only>
0

> <s_lp_Force_Field>
OPLS_2005

> <r_lp_Energy>
55.0731

> <b_lp_Chiralities_Consistent>
1

> <s_lp_Variant>
AV-unprocessed.smi:249-23

> <Gold.Version>
5.8.1

> <Gold.Id.Protein>
6NUR|6NUR_protein|mol2

> <Gold.PLP.Fitness>
50.0055

> <Gold.PLP.PLP>
-41.0349

> <Gold.PLP.part.hbond>
-2.0000

> <Gold.PLP.part.metal>
0.0000

> <Gold.PLP.part.buried>
-6.0440

> <Gold.PLP.part.nonpolar>
-34.0454

> <Gold.PLP.part.repulsive>
0.4018

> <Gold.PLP.ligand.clash>
0.0000

> <Gold.PLP.ligand.torsion>
1.6478

> <Gold.PLP.Chemscore.Hbond>
3.0000

> <Gold.PLP.Chemscore.CHOScore>
0.6655

> <Gold.PLP.Chemscore.Metal>
0.0000

> <Gold.Chemscore.Hbonds>
donor molecule, donor type, donor heavy atom, donor atom, acceptor molecule, acceptor atom, score
      L1  H     3    64       P1 10186  2.00
      P1  H  7997  8009       L1    21  0.99
      L1  C    11    43       P1  7957  0.66

> <Gold.PLP.Chemscore.Internal.Correction>
1.2698

> <Gold.Rescore>
     Score         DG    S(hbond)    S(metal)    S(lipo)     H(rot)  DE(clash)    DE(int)     intcor
     12.83     -15.25       1.62        0.00      95.17       2.65       0.05       2.37       ----

> <Gold.Chemscore.Fitness>
12.8322

> <Gold.Chemscore.DG>
-15.2488

> <Gold.Chemscore.ZeroCoef>
-5.4800

> <Gold.Chemscore.Hbond>
1.6235

> <Gold.Chemscore.Metal>
0.0000

> <Gold.Chemscore.Lipo>
95.1656

> <Gold.Chemscore.Internal_Hbond>
0.0000

> <Gold.Chemscore.DEClash>
0.0460

> <Gold.Chemscore.DEInternal>
2.3705

> <Gold.Chemscore.Rot>
2.6515

> <Gold.Chemscore.Internal.Correction>
   9.000000E+99

> <Gold.Chemscore.Hbonds>
donor molecule, donor type, donor heavy atom, donor atom, acceptor molecule, acceptor atom, score
      L1  H     3    64       P1 10186  0.39
      P1  H  7997  8009       L1    21  0.76

> <Gold.Chemscore.Hbond.Weighted>
-5.4224

> <Gold.Chemscore.Metal.Weighted>
-0.0000

> <Gold.Chemscore.Lipo.Weighted>
-11.1344

> <Gold.Chemscore.Internal_Hbond.Weighted>
0.0000

> <Gold.Chemscore.DEClash.Weighted>
0.0460

> <Gold.Chemscore.DEInternal.Weighted>
2.3705

> <Gold.Chemscore.Rot.Weighted>
6.7880

> <Gold.Chemscore.Internal.Correction.Weighted>
   9.000000E+99

> <Gold.Protein.RotatedTorsions>
[ 6907 6896 6895 6894 ] final   31.96 input  -60.11 | X-H torsion
[ 7974 7965 7964 7962 ] final   91.29 input  175.53 | X-H torsion
[ 8008 7997 7996 7995 ] final -160.31 input   59.86 | X-H torsion
[ 10167 10162 10161 10158 ] final   69.94 input  -65.29 | X-H torsion
[ 10718 10713 10712 10709 ] final  145.35 input   66.30 | X-H torsion
[ 10763 10752 10751 10750 ] final -169.78 input  -60.55 | X-H torsion
[ 11005 11000 10999 10996 ] final  -11.59 input  -57.11 | X-H torsion

> <Gold.Protein.ActiveResidues>
 VAL166  LYS551  ARG553  GLY616  TRP617  ASP618  TYR619  PRO620  LYS621  CYS622 
 ASP623  PHE694  ASN695  SER759  ASP760  ASP761  ALA762  ILE779  LEU786  VAL792 
 PHE793  MET794  SER795  GLU796  ALA797  LYS798  CYS799  TRP800  GLU811  SER814 

> <Gold.Protein.RotatedAtoms>
  152.0677  134.9553  160.0574 H   0  0  0  0  0  0  0  0  0  0  0  0  # atno 6907 bound_to 6896
  152.0892  133.4187  159.4544 H   0  0  0  0  0  0  0  0  0  0  0  0  # atno 6908 bound_to 6896
  150.6836  134.2812  159.4671 H   0  0  0  0  0  0  0  0  0  0  0  0  # atno 6909 bound_to 6896
  145.5076  139.2276  143.2742 H   0  0  0  0  0  0  0  0  0  0  0  0  # atno 7974 bound_to 7965
  155.7756  140.0858  157.2085 H   0  0  0  0  0  0  0  0  0  0  0  0  # atno 8008 bound_to 7997
  154.3993  140.1517  156.3050 H   0  0  0  0  0  0  0  0  0  0  0  0  # atno 8009 bound_to 7997
  155.8704  140.3426  155.5820 H   0  0  0  0  0  0  0  0  0  0  0  0  # atno 8010 bound_to 7997
  140.0623  144.5222  150.7285 H   0  0  0  0  0  0  0  0  0  0  0  0  # atno 10167 bound_to 10162
  157.3462  131.0943  151.1039 H   0  0  0  0  0  0  0  0  0  0  0  0  # atno 10718 bound_to 10713
  154.6486  135.2908  155.0015 H   0  0  0  0  0  0  0  0  0  0  0  0  # atno 10763 bound_to 10752
  154.1116  135.6561  153.4890 H   0  0  0  0  0  0  0  0  0  0  0  0  # atno 10764 bound_to 10752
  153.0364  135.5266  154.7384 H   0  0  0  0  0  0  0  0  0  0  0  0  # atno 10765 bound_to 10752
  140.7568  133.8547  155.9091 H   0  0  0  0  0  0  0  0  0  0  0  0  # atno 11005 bound_to 11000
  146.2187  140.5880  142.9027 LP  0  0  0  0  0  0  0  0  0  0  0  0  # atno 17320 bound_to 7965
  144.7745  140.5710  143.6647 LP  0  0  0  0  0  0  0  0  0  0  0  0  # atno 17321 bound_to 7965
  140.7166  143.2550  151.4415 LP  0  0  0  0  0  0  0  0  0  0  0  0  # atno 17342 bound_to 10162
  139.5886  144.1549  152.2060 LP  0  0  0  0  0  0  0  0  0  0  0  0  # atno 17343 bound_to 10162
  157.2232  130.6491  149.5819 LP  0  0  0  0  0  0  0  0  0  0  0  0  # atno 17370 bound_to 10713
  155.9715  130.4622  150.6138 LP  0  0  0  0  0  0  0  0  0  0  0  0  # atno 17371 bound_to 10713
  140.9700  134.1544  157.4584 LP  0  0  0  0  0  0  0  0  0  0  0  0  # atno 17394 bound_to 11000
  139.8777  134.9975  156.5850 LP  0  0  0  0  0  0  0  0  0  0  0  0  # atno 17395 bound_to 11000

$$$$
