AV-unprocessed.smi:557|AV-procd|sdf|2914|dock3
  -GOLD-   2262023403D 1   1.00000     0.00000
 Structure written by MMmdl.
 47 49  0  0  0  0  0  0  0  0  2 V2000
  150.7620  142.1733  157.3899 C   0  0  0  0  0  0  0  0  0  0  0  0
  150.5835  141.1609  156.3713 N   0  0  0  0  0  0  0  0  0  0  0  0
  151.2856  139.9888  156.1907 C   0  0  0  0  0  0  0  0  0  0  0  0
  150.7583  139.3593  155.0984 C   0  0  0  0  0  0  0  0  0  0  0  0
  151.1682  138.0537  154.4772 C   0  0  0  0  0  0  0  0  0  0  0  0
  150.7049  136.8609  155.3232 C   0  0  0  0  0  0  0  0  0  0  0  0
  149.8220  135.9929  154.5490 N   0  0  0  0  0  0  0  0  0  0  0  0
  149.2195  134.8672  154.9672 C   0  0  0  0  0  0  0  0  0  0  0  0
  149.3573  134.4408  156.1119 O   0  0  0  0  0  0  0  0  0  0  0  0
  148.4570  134.2636  154.0390 N   0  0  0  0  0  0  0  0  0  0  0  0
  147.7046  133.0263  154.2373 C   0  0  2  0  0  0  0  0  0  0  0  0
  148.6061  131.7781  154.2950 C   0  0  0  0  0  0  0  0  0  0  0  0
  147.8398  130.7100  153.5082 C   0  0  0  0  0  0  0  0  0  0  0  0
  147.1520  131.4939  152.4761 N   0  3  1  0  0  0  0  0  0  0  0  0
  146.1105  130.8332  151.6634 C   0  0  0  0  0  0  0  0  0  0  0  0
  145.6815  131.8017  150.5401 C   0  0  0  0  0  0  0  0  0  0  0  0
  145.2821  133.1916  151.0860 C   0  0  0  0  0  0  0  0  0  0  0  0
  146.3568  133.7687  152.0329 C   0  0  0  0  0  0  0  0  0  0  0  0
  146.6739  132.7284  153.1222 C   0  0  2  0  0  0  0  0  0  0  0  0
  149.7206  140.2398  154.6784 C   0  0  0  0  0  0  0  0  0  0  0  0
  149.6194  141.3163  155.4409 N   0  0  0  0  0  0  0  0  0  0  0  0
  151.6437  141.9481  157.9908 H   0  0  0  0  0  0  0  0  0  0  0  0
  149.8869  142.2006  158.0396 H   0  0  0  0  0  0  0  0  0  0  0  0
  150.8929  143.1500  156.9229 H   0  0  0  0  0  0  0  0  0  0  0  0
  152.0951  139.7023  156.8460 H   0  0  0  0  0  0  0  0  0  0  0  0
  150.7568  137.9651  153.4709 H   0  0  0  0  0  0  0  0  0  0  0  0
  152.2517  138.0128  154.3591 H   0  0  0  0  0  0  0  0  0  0  0  0
  151.5710  136.2908  155.6641 H   0  0  0  0  0  0  0  0  0  0  0  0
  150.1774  137.2163  156.2101 H   0  0  0  0  0  0  0  0  0  0  0  0
  149.6484  136.2747  153.5947 H   0  0  0  0  0  0  0  0  0  0  0  0
  148.4049  134.6890  153.1246 H   0  0  0  0  0  0  0  0  0  0  0  0
  147.1688  133.0919  155.1866 H   0  0  0  0  0  0  0  0  0  0  0  0
  149.5580  131.9752  153.7993 H   0  0  0  0  0  0  0  0  0  0  0  0
  148.8265  131.4651  155.3162 H   0  0  0  0  0  0  0  0  0  0  0  0
  148.4945  129.9522  153.0773 H   0  0  0  0  0  0  0  0  0  0  0  0
  147.1060  130.2145  154.1460 H   0  0  0  0  0  0  0  0  0  0  0  0
  146.5061  129.9118  151.2350 H   0  0  0  0  0  0  0  0  0  0  0  0
  145.2598  130.5611  152.2901 H   0  0  0  0  0  0  0  0  0  0  0  0
  146.5070  131.9205  149.8370 H   0  0  0  0  0  0  0  0  0  0  0  0
  144.8559  131.3723  149.9720 H   0  0  0  0  0  0  0  0  0  0  0  0
  145.1013  133.8811  150.2607 H   0  0  0  0  0  0  0  0  0  0  0  0
  144.3378  133.1050  151.6249 H   0  0  0  0  0  0  0  0  0  0  0  0
  147.2574  134.0185  151.4704 H   0  0  0  0  0  0  0  0  0  0  0  0
  145.9928  134.6940  152.4799 H   0  0  0  0  0  0  0  0  0  0  0  0
  145.7385  132.4878  153.6327 H   0  0  0  0  0  0  0  0  0  0  0  0
  149.0431  140.1291  153.8445 H   0  0  0  0  0  0  0  0  0  0  0  0
  147.8761  131.7806  151.8328 H   0  0  0  0  0  0  0  0  0  0  0  0
  1  2  1  0  0  0  0
  1 22  1  0  0  0  0
  1 23  1  0  0  0  0
  1 24  1  0  0  0  0
  2 21  1  0  0  0  0
  2  3  1  0  0  0  0
  3  4  2  0  0  0  0
  3 25  1  0  0  0  0
  4  5  1  0  0  0  0
  4 20  1  0  0  0  0
  5  6  1  0  0  0  0
  5 26  1  0  0  0  0
  5 27  1  0  0  0  0
  6  7  1  0  0  0  0
  6 28  1  0  0  0  0
  6 29  1  0  0  0  0
  7  8  1  0  0  0  0
  7 30  1  0  0  0  0
  8  9  2  0  0  0  0
  8 10  1  0  0  0  0
 10 11  1  0  0  0  0
 10 31  1  0  0  0  0
 11 19  1  0  0  0  0
 11 12  1  0  0  0  0
 11 32  1  0  0  0  0
 12 13  1  0  0  0  0
 12 33  1  0  0  0  0
 12 34  1  0  0  0  0
 13 14  1  0  0  0  0
 13 35  1  0  0  0  0
 13 36  1  0  0  0  0
 14 19  1  0  0  0  0
 14 15  1  0  0  0  0
 14 47  1  0  0  0  0
 15 16  1  0  0  0  0
 15 37  1  0  0  0  0
 15 38  1  0  0  0  0
 16 17  1  0  0  0  0
 16 39  1  0  0  0  0
 16 40  1  0  0  0  0
 17 18  1  0  0  0  0
 17 41  1  0  0  0  0
 17 42  1  0  0  0  0
 18 19  1  0  0  0  0
 18 43  1  0  0  0  0
 18 44  1  0  0  0  0
 19 45  1  0  0  0  0
 20 21  2  0  0  0  0
 20 46  1  0  0  0  0
M  CHG  1  14   1
M  END
> <s_m_source_file>
AV-unprocessed.smi

> <i_m_source_file_index>
557

> <i_lp_mmshare_version>
43012

> <i_f3d_flags>
0

> <s_epik_input>
W0NIM11uMVtjSF1jKFtjSF1uMSlbQ0gyXVtDSDJdW05IXUMoPU8pW05IXVtDQEhdKFtDSDJdW0NIMl0yKVtDQEhdKE4yMylbQ0gyXVtDSDJdW0NIMl1bQ0gyXTM=

> <s_epik_cmdline>
J2VwaWtfcHl0aG9uJywgJy1waCcsICc3LjAnLCAnLXRuJywgJzgnLCAnLW1hJywgJzIwMCcsICctbWV0YWxfYmluZGluZycsICctaW1hZScsICc8aW5maWxlLm1hZT4nLCAnLW9tYWUnLCAnPG91dGZpbGUubWFlPic=

> <r_lp_tautomer_probability>
1

> <r_epik_Ionization_Penalty>
0.000956547

> <r_epik_Ionization_Penalty_Charging>
0.000435796

> <r_epik_Ionization_Penalty_Neutral>
0.000520752

> <r_epik_State_Penalty>
-0

> <r_epik_Charging_Adjusted_Penalty>
0.000435796

> <i_epik_Tot_Q>
1

> <i_epik_Tot_abs_Q>
1

> <r_epik_Metal_State_Penalty>
-0

> <b_epik_Metal_Only>
0

> <s_lp_Force_Field>
OPLS_2005

> <r_lp_Energy>
46.5188

> <b_lp_Chiralities_Consistent>
1

> <s_lp_Variant>
AV-unprocessed.smi:557-1

> <Gold.Version>
5.8.1

> <Gold.Id.Protein>
6NUR|6NUR_protein|mol2

> <Gold.PLP.Fitness>
48.6272

> <Gold.PLP.PLP>
-39.2336

> <Gold.PLP.part.hbond>
-4.1637

> <Gold.PLP.part.metal>
0.0000

> <Gold.PLP.part.buried>
-0.5884

> <Gold.PLP.part.nonpolar>
-34.5638

> <Gold.PLP.part.repulsive>
0.1994

> <Gold.PLP.ligand.clash>
0.0000

> <Gold.PLP.ligand.torsion>
0.7007

> <Gold.PLP.Chemscore.Hbond>
2.5960

> <Gold.PLP.Chemscore.CHOScore>
1.0000

> <Gold.PLP.Chemscore.Metal>
0.0000

> <Gold.Chemscore.Hbonds>
donor molecule, donor type, donor heavy atom, donor atom, acceptor molecule, acceptor atom, score
      L1  H     7    30       P1  7948  1.00
      L1  H    10    31       P1  7948  0.97
      L1  H    14    47       P1 10747  0.56
      L1  C    20    46       P1  7957  0.45

> <Gold.PLP.Chemscore.Internal.Correction>
0.0071

> <Gold.Rescore>
     Score         DG    S(hbond)    S(metal)    S(lipo)     H(rot)  DE(clash)    DE(int)     intcor
     16.29     -16.91       1.45        0.00      91.19       1.60       0.06       0.55       ----

> <Gold.Chemscore.Fitness>
16.2939

> <Gold.Chemscore.DG>
-16.9053

> <Gold.Chemscore.ZeroCoef>
-5.4800

> <Gold.Chemscore.Hbond>
1.4540

> <Gold.Chemscore.Metal>
0.0000

> <Gold.Chemscore.Lipo>
91.1920

> <Gold.Chemscore.Internal_Hbond>
0.0000

> <Gold.Chemscore.DEClash>
0.0635

> <Gold.Chemscore.DEInternal>
0.5478

> <Gold.Chemscore.Rot>
1.6018

> <Gold.Chemscore.Internal.Correction>
   9.000000E+99

> <Gold.Chemscore.Hbonds>
donor molecule, donor type, donor heavy atom, donor atom, acceptor molecule, acceptor atom, score
      L1  H     7    30       P1  7948  0.39
      L1  H    10    31       P1  7948  0.48
      L1  H    14    47       P1 10747  0.57

> <Gold.Chemscore.Hbond.Weighted>
-4.8564

> <Gold.Chemscore.Metal.Weighted>
-0.0000

> <Gold.Chemscore.Lipo.Weighted>
-10.6695

> <Gold.Chemscore.Internal_Hbond.Weighted>
0.0000

> <Gold.Chemscore.DEClash.Weighted>
0.0635

> <Gold.Chemscore.DEInternal.Weighted>
0.5478

> <Gold.Chemscore.Rot.Weighted>
4.1006

> <Gold.Chemscore.Internal.Correction.Weighted>
   9.000000E+99

> <Gold.Protein.RotatedTorsions>
[ 6907 6896 6895 6894 ] final -152.72 input  -60.11 | X-H torsion
[ 7974 7965 7964 7962 ] final   22.57 input  175.53 | X-H torsion
[ 8008 7997 7996 7995 ] final  -65.82 input   59.86 | X-H torsion
[ 10167 10162 10161 10158 ] final  -47.18 input  -65.29 | X-H torsion
[ 10718 10713 10712 10709 ] final   12.81 input   66.30 | X-H torsion
[ 10763 10752 10751 10750 ] final   75.79 input  -60.55 | X-H torsion
[ 11005 11000 10999 10996 ] final  -83.66 input  -57.11 | X-H torsion

> <Gold.Protein.ActiveResidues>
 VAL166  LYS551  ARG553  GLY616  TRP617  ASP618  TYR619  PRO620  LYS621  CYS622 
 ASP623  PHE694  ASN695  SER759  ASP760  ASP761  ALA762  ILE779  LEU786  VAL792 
 PHE793  MET794  SER795  GLU796  ALA797  LYS798  CYS799  TRP800  GLU811  SER814 

> <Gold.Protein.RotatedAtoms>
  151.2320  133.4445  159.2603 H   0  0  0  0  0  0  0  0  0  0  0  0  # atno 6907 bound_to 6896
  151.0786  134.9844  159.8354 H   0  0  0  0  0  0  0  0  0  0  0  0  # atno 6908 bound_to 6896
  152.5421  134.2261  159.8859 H   0  0  0  0  0  0  0  0  0  0  0  0  # atno 6909 bound_to 6896
  146.2023  139.7867  142.8752 H   0  0  0  0  0  0  0  0  0  0  0  0  # atno 7974 bound_to 7965
  154.4695  140.0925  156.7108 H   0  0  0  0  0  0  0  0  0  0  0  0  # atno 8008 bound_to 7997
  155.4763  140.3466  155.4315 H   0  0  0  0  0  0  0  0  0  0  0  0  # atno 8009 bound_to 7997
  156.1015  140.1423  156.9450 H   0  0  0  0  0  0  0  0  0  0  0  0  # atno 8010 bound_to 7997
  140.6786  143.2796  151.3889 H   0  0  0  0  0  0  0  0  0  0  0  0  # atno 10167 bound_to 10162
  157.0155  130.6134  149.5714 H   0  0  0  0  0  0  0  0  0  0  0  0  # atno 10718 bound_to 10713
  153.0680  135.4975  154.8241 H   0  0  0  0  0  0  0  0  0  0  0  0  # atno 10763 bound_to 10752
  154.6981  135.2996  154.9384 H   0  0  0  0  0  0  0  0  0  0  0  0  # atno 10764 bound_to 10752
  154.0117  135.6753  153.4818 H   0  0  0  0  0  0  0  0  0  0  0  0  # atno 10765 bound_to 10752
  141.1656  133.7305  156.8752 H   0  0  0  0  0  0  0  0  0  0  0  0  # atno 11005 bound_to 11000
  145.3441  141.0294  143.3375 LP  0  0  0  0  0  0  0  0  0  0  0  0  # atno 17320 bound_to 7965
  144.8711  139.5036  143.6767 LP  0  0  0  0  0  0  0  0  0  0  0  0  # atno 17321 bound_to 7965
  139.6094  144.1130  152.2283 LP  0  0  0  0  0  0  0  0  0  0  0  0  # atno 17342 bound_to 10162
  140.0539  144.5910  150.7314 LP  0  0  0  0  0  0  0  0  0  0  0  0  # atno 17343 bound_to 10162
  156.0120  130.5213  150.8020 LP  0  0  0  0  0  0  0  0  0  0  0  0  # atno 17370 bound_to 10713
  157.5288  131.0935  150.9982 LP  0  0  0  0  0  0  0  0  0  0  0  0  # atno 17371 bound_to 10713
  140.1753  134.9071  157.2883 LP  0  0  0  0  0  0  0  0  0  0  0  0  # atno 17394 bound_to 11000
  140.2455  134.3744  155.7463 LP  0  0  0  0  0  0  0  0  0  0  0  0  # atno 17395 bound_to 11000

$$$$
