AV-unprocessed.smi:1430|AV-procd|sdf|5828|dock8
  -GOLD-   22720 5483D 1   1.00000     0.00000
 Structure written by MMmdl.
 47 48  0  0  0  0  0  0  0  0  2 V2000
  150.9475  142.6575  158.0553 C   0  0  0  0  0  0  0  0  0  0  0  0
  151.5942  141.5337  157.4677 O   0  0  0  0  0  0  0  0  0  0  0  0
  150.9400  140.8539  156.4611 C   0  0  0  0  0  0  0  0  0  0  0  0
  149.8362  141.4688  155.8387 C   0  0  0  0  0  0  0  0  0  0  0  0
  149.1683  140.7799  154.8092 C   0  0  0  0  0  0  0  0  0  0  0  0
  149.6201  139.5002  154.4273 C   0  0  0  0  0  0  0  0  0  0  0  0
  148.9106  138.8355  153.3887 N   0  0  0  0  0  0  0  0  0  0  0  0
  147.6860  139.0899  152.8952 C   0  0  0  0  0  0  0  0  0  0  0  0
  146.9262  139.9780  153.2795 O   0  0  0  0  0  0  0  0  0  0  0  0
  147.3745  138.2355  151.9103 N   0  0  0  0  0  0  0  0  0  0  0  0
  146.1188  138.2403  151.1682 C   0  0  0  0  0  0  0  0  0  0  0  0
  145.8500  136.8742  150.5083 C   0  0  0  0  0  0  0  0  0  0  0  0
  146.0094  135.7427  151.4600 N   0  3  1  0  0  0  0  0  0  0  0  0
  145.0385  135.7708  152.5813 C   0  0  0  0  0  0  0  0  0  0  0  0
  143.6478  135.2769  152.1319 C   0  0  2  0  0  0  0  0  0  0  0  0
  142.6538  135.2148  153.2968 C   0  0  0  0  0  0  0  0  0  0  0  0
  143.7770  133.9667  151.5907 O   0  0  0  0  0  0  0  0  0  0  0  0
  144.6187  133.9214  150.4434 C   0  0  2  0  0  0  0  0  0  0  0  0
  144.6189  132.4836  149.9128 C   0  0  0  0  0  0  0  0  0  0  0  0
  146.0353  134.3957  150.8340 C   0  0  0  0  0  0  0  0  0  0  0  0
  150.7333  138.9642  155.1216 C   0  0  0  0  0  0  0  0  0  0  0  0
  151.3788  139.6205  156.1090 N   0  0  0  0  0  0  0  0  0  0  0  0
  151.5893  143.0788  158.8288 H   0  0  0  0  0  0  0  0  0  0  0  0
  150.0048  142.3744  158.5259 H   0  0  0  0  0  0  0  0  0  0  0  0
  150.7595  143.4404  157.3192 H   0  0  0  0  0  0  0  0  0  0  0  0
  149.5080  142.4509  156.1459 H   0  0  0  0  0  0  0  0  0  0  0  0
  148.3186  141.2330  154.3191 H   0  0  0  0  0  0  0  0  0  0  0  0
  149.3887  138.0420  152.9878 H   0  0  0  0  0  0  0  0  0  0  0  0
  148.0520  137.5299  151.6592 H   0  0  0  0  0  0  0  0  0  0  0  0
  145.3292  138.4934  151.8744 H   0  0  0  0  0  0  0  0  0  0  0  0
  146.1303  139.0325  150.4176 H   0  0  0  0  0  0  0  0  0  0  0  0
  144.8244  136.8721  150.1364 H   0  0  0  0  0  0  0  0  0  0  0  0
  146.4889  136.7399  149.6356 H   0  0  0  0  0  0  0  0  0  0  0  0
  145.4163  135.1228  153.3736 H   0  0  0  0  0  0  0  0  0  0  0  0
  144.9781  136.7714  153.0107 H   0  0  0  0  0  0  0  0  0  0  0  0
  143.2404  135.9431  151.3697 H   0  0  0  0  0  0  0  0  0  0  0  0
  142.5055  136.1999  153.7397 H   0  0  0  0  0  0  0  0  0  0  0  0
  143.0051  134.5439  154.0812 H   0  0  0  0  0  0  0  0  0  0  0  0
  141.6818  134.8529  152.9604 H   0  0  0  0  0  0  0  0  0  0  0  0
  144.2034  134.5674  149.6688 H   0  0  0  0  0  0  0  0  0  0  0  0
  145.2446  132.3925  149.0246 H   0  0  0  0  0  0  0  0  0  0  0  0
  143.6110  132.1680  149.6422 H   0  0  0  0  0  0  0  0  0  0  0  0
  144.9954  131.7856  150.6611 H   0  0  0  0  0  0  0  0  0  0  0  0
  146.7013  134.3734  149.9725 H   0  0  0  0  0  0  0  0  0  0  0  0
  146.4598  133.6998  151.5590 H   0  0  0  0  0  0  0  0  0  0  0  0
  151.1297  137.9840  154.9125 H   0  0  0  0  0  0  0  0  0  0  0  0
  146.9168  135.8828  151.8813 H   0  0  0  0  0  0  0  0  0  0  0  0
  1  2  1  0  0  0  0
  1 23  1  0  0  0  0
  1 24  1  0  0  0  0
  1 25  1  0  0  0  0
  2  3  1  0  0  0  0
  3 22  1  0  0  0  0
  3  4  2  0  0  0  0
  4  5  1  0  0  0  0
  4 26  1  0  0  0  0
  5  6  2  0  0  0  0
  5 27  1  0  0  0  0
  6  7  1  0  0  0  0
  6 21  1  0  0  0  0
  7  8  1  0  0  0  0
  7 28  1  0  0  0  0
  8  9  2  0  0  0  0
  8 10  1  0  0  0  0
 10 11  1  0  0  0  0
 10 29  1  0  0  0  0
 11 12  1  0  0  0  0
 11 30  1  0  0  0  0
 11 31  1  0  0  0  0
 12 13  1  0  0  0  0
 12 32  1  0  0  0  0
 12 33  1  0  0  0  0
 13 20  1  0  0  0  0
 13 14  1  0  0  0  0
 13 47  1  0  0  0  0
 14 15  1  0  0  0  0
 14 34  1  0  0  0  0
 14 35  1  0  0  0  0
 15 16  1  0  0  0  0
 15 17  1  0  0  0  0
 15 36  1  0  0  0  0
 16 37  1  0  0  0  0
 16 38  1  0  0  0  0
 16 39  1  0  0  0  0
 17 18  1  0  0  0  0
 18 19  1  0  0  0  0
 18 20  1  0  0  0  0
 18 40  1  0  0  0  0
 19 41  1  0  0  0  0
 19 42  1  0  0  0  0
 19 43  1  0  0  0  0
 20 44  1  0  0  0  0
 20 45  1  0  0  0  0
 21 22  2  0  0  0  0
 21 46  1  0  0  0  0
M  CHG  1  13   1
M  END
> <s_m_source_file>
AV-unprocessed.smi

> <i_m_source_file_index>
1430

> <i_lp_mmshare_version>
43012

> <i_f3d_flags>
0

> <s_epik_input>
W0NIM11PYzFbY0hdW2NIXWMoW2NIXW4xKVtOSF1DKD1PKVtOSF1bQ0gyXVtDSDJdTjJbQ0gyXVtDQEBIXShbQ0gzXSlPW0NAQEhdKFtDSDNdKVtDSDJdMg==

> <s_epik_cmdline>
J2VwaWtfcHl0aG9uJywgJy1waCcsICc3LjAnLCAnLXRuJywgJzgnLCAnLW1hJywgJzIwMCcsICctbWV0YWxfYmluZGluZycsICctaW1hZScsICc8aW5maWxlLm1hZT4nLCAnLW9tYWUnLCAnPG91dGZpbGUubWFlPic=

> <r_lp_tautomer_probability>
1

> <r_epik_Ionization_Penalty>
0.602607

> <r_epik_Ionization_Penalty_Charging>
0.602531

> <r_epik_Ionization_Penalty_Neutral>
7.66983e-05

> <r_epik_State_Penalty>
0.617039

> <r_epik_Charging_Adjusted_Penalty>
1.21957

> <i_epik_Tot_Q>
1

> <i_epik_Tot_abs_Q>
1

> <r_epik_Metal_State_Penalty>
0.617043

> <b_epik_Metal_Only>
0

> <s_lp_Force_Field>
OPLS_2005

> <r_lp_Energy>
19.3268

> <b_lp_Chiralities_Consistent>
1

> <s_lp_Variant>
AV-unprocessed.smi:1430-7

> <Gold.Version>
5.8.1

> <Gold.Id.Protein>
6NUR|6NUR_protein|mol2

> <Gold.PLP.Fitness>
46.5650

> <Gold.PLP.PLP>
-36.4426

> <Gold.PLP.part.hbond>
-4.8307

> <Gold.PLP.part.metal>
0.0000

> <Gold.PLP.part.buried>
4.3790

> <Gold.PLP.part.nonpolar>
-37.5363

> <Gold.PLP.part.repulsive>
0.9804

> <Gold.PLP.ligand.clash>
0.0098

> <Gold.PLP.ligand.torsion>
0.4753

> <Gold.PLP.Chemscore.Hbond>
3.6763

> <Gold.PLP.Chemscore.CHOScore>
0.0000

> <Gold.PLP.Chemscore.Metal>
0.0000

> <Gold.Chemscore.Hbonds>
donor molecule, donor type, donor heavy atom, donor atom, acceptor molecule, acceptor atom, score
      L1  H     7    28       P1  7948  0.60
      L1  H    10    29       P1  7948  1.00
      L1  H    13    47       P1  7948  1.95

> <Gold.PLP.Chemscore.Internal.Correction>
0.0542

> <Gold.Rescore>
     Score         DG    S(hbond)    S(metal)    S(lipo)     H(rot)  DE(clash)    DE(int)     intcor
     13.51     -19.88       2.44        0.00      91.82       1.76       4.55       1.82       ----

> <Gold.Chemscore.Fitness>
13.5105

> <Gold.Chemscore.DG>
-19.8771

> <Gold.Chemscore.ZeroCoef>
-5.4800

> <Gold.Chemscore.Hbond>
2.4435

> <Gold.Chemscore.Metal>
0.0000

> <Gold.Chemscore.Lipo>
91.8223

> <Gold.Chemscore.Internal_Hbond>
0.0000

> <Gold.Chemscore.DEClash>
4.5515

> <Gold.Chemscore.DEInternal>
1.8151

> <Gold.Chemscore.Rot>
1.7606

> <Gold.Chemscore.Internal.Correction>
   9.000000E+99

> <Gold.Chemscore.Hbonds>
donor molecule, donor type, donor heavy atom, donor atom, acceptor molecule, acceptor atom, score
      L1  H     7    28       P1  7948  0.55
      L1  H    10    29       P1  7948  0.95
      L1  H    13    47       P1  7948  0.90

> <Gold.Chemscore.Hbond.Weighted>
-8.1611

> <Gold.Chemscore.Metal.Weighted>
-0.0000

> <Gold.Chemscore.Lipo.Weighted>
-10.7432

> <Gold.Chemscore.Internal_Hbond.Weighted>
0.0000

> <Gold.Chemscore.DEClash.Weighted>
4.5515

> <Gold.Chemscore.DEInternal.Weighted>
1.8151

> <Gold.Chemscore.Rot.Weighted>
4.5072

> <Gold.Chemscore.Internal.Correction.Weighted>
   9.000000E+99

> <Gold.Protein.RotatedTorsions>
[ 6907 6896 6895 6894 ] final -150.83 input  -60.11 | X-H torsion
[ 7974 7965 7964 7962 ] final  147.39 input  175.53 | X-H torsion
[ 8008 7997 7996 7995 ] final  -75.61 input   59.86 | X-H torsion
[ 10167 10162 10161 10158 ] final  -16.66 input  -65.29 | X-H torsion
[ 10718 10713 10712 10709 ] final  -64.41 input   66.30 | X-H torsion
[ 10763 10752 10751 10750 ] final    5.81 input  -60.55 | X-H torsion
[ 11005 11000 10999 10996 ] final  -20.55 input  -57.11 | X-H torsion

> <Gold.Protein.ActiveResidues>
 VAL166  LYS551  ARG553  GLY616  TRP617  ASP618  TYR619  PRO620  LYS621  CYS622 
 ASP623  PHE694  ASN695  SER759  ASP760  ASP761  ALA762  ILE779  LEU786  VAL792 
 PHE793  MET794  SER795  GLU796  ALA797  LYS798  CYS799  TRP800  GLU811  SER814 

> <Gold.Protein.RotatedAtoms>
  151.2042  133.4593  159.2596 H   0  0  0  0  0  0  0  0  0  0  0  0  # atno 6907 bound_to 6896
  151.1039  134.9988  159.8472 H   0  0  0  0  0  0  0  0  0  0  0  0  # atno 6908 bound_to 6896
  152.5445  134.1967  159.8748 H   0  0  0  0  0  0  0  0  0  0  0  0  # atno 6909 bound_to 6896
  144.8595  139.6023  143.5937 H   0  0  0  0  0  0  0  0  0  0  0  0  # atno 7974 bound_to 7965
  154.5432  140.0741  156.8544 H   0  0  0  0  0  0  0  0  0  0  0  0  # atno 8008 bound_to 7997
  155.3140  140.3392  155.4225 H   0  0  0  0  0  0  0  0  0  0  0  0  # atno 8009 bound_to 7997
  156.1893  140.1680  156.8109 H   0  0  0  0  0  0  0  0  0  0  0  0  # atno 8010 bound_to 7997
  140.7237  143.5094  150.9769 H   0  0  0  0  0  0  0  0  0  0  0  0  # atno 10167 bound_to 10162
  156.0731  130.4233  150.1417 H   0  0  0  0  0  0  0  0  0  0  0  0  # atno 10718 bound_to 10713
  153.2551  135.6917  153.7638 H   0  0  0  0  0  0  0  0  0  0  0  0  # atno 10763 bound_to 10752
  153.6718  135.3343  155.3156 H   0  0  0  0  0  0  0  0  0  0  0  0  # atno 10764 bound_to 10752
  154.8409  135.4501  154.1522 H   0  0  0  0  0  0  0  0  0  0  0  0  # atno 10765 bound_to 10752
  140.8476  133.7881  155.9929 H   0  0  0  0  0  0  0  0  0  0  0  0  # atno 11005 bound_to 11000
  146.2849  139.6978  142.9202 LP  0  0  0  0  0  0  0  0  0  0  0  0  # atno 17320 bound_to 7965
  145.4340  141.0417  143.2895 LP  0  0  0  0  0  0  0  0  0  0  0  0  # atno 17321 bound_to 7965
  139.8806  143.7076  152.3157 LP  0  0  0  0  0  0  0  0  0  0  0  0  # atno 17342 bound_to 10162
  139.7357  144.7572  151.0731 LP  0  0  0  0  0  0  0  0  0  0  0  0  # atno 17343 bound_to 10162
  156.9463  130.9760  151.3506 LP  0  0  0  0  0  0  0  0  0  0  0  0  # atno 17370 bound_to 10713
  157.5812  130.8377  149.8525 LP  0  0  0  0  0  0  0  0  0  0  0  0  # atno 17371 bound_to 10713
  140.8826  134.2592  157.5136 LP  0  0  0  0  0  0  0  0  0  0  0  0  # atno 17394 bound_to 11000
  139.8703  134.9623  156.4423 LP  0  0  0  0  0  0  0  0  0  0  0  0  # atno 17395 bound_to 11000

$$$$
