#       Name:                AV-unprocessed.smi:3019
#       Creating user name   scv26
#       Creation time:       Fri Mar 27 16:43:03 2020


#       File generated by GOLD software.
#

@<TRIPOS>MOLECULE
AV-unprocessed.smi:3019
    35    36     1
SMALL
NO_CHARGES


@<TRIPOS>ATOM
      1 ****        -3.8051   0.0736   1.5871 C.3            1 S1                 0.0000
      2 ****        -3.2821   0.7321   0.3018 C.3            1 S1                 0.0000
      3 ****        -3.8589   0.0724  -0.9593 C.3            1 S1                 0.0000
      4 ****        -1.7850   0.7734   0.2683 C.2            1 S1                 0.0000
      5 ****        -1.1059   1.9194   0.1833 N.pl3          1 S1                 0.0000
      6 ****         0.2168   1.6553   0.1513 N.2            1 S1                 0.0000
      7 ****         0.2377   0.3245   0.2398 C.2            1 S1                 0.0000
      8 ****         1.5174  -0.4529   0.2003 C.3            1 S1                 0.0000
      9 ****         1.9758  -0.7431  -1.2424 C.3            1 S1                 0.0000
     10 ****         3.2727  -1.4180  -1.2362 N.3            1 S1                 0.0000
     11 ****         4.2639  -0.6497  -0.4845 C.3            1 S1                 0.0000
     12 ****         3.7518  -0.3593   0.9379 C.3            1 S1                 0.0000
     13 ****         2.5075   0.3284   0.8666 O.3            1 S1                 0.0000
     14 ****        -0.9838  -0.2876   0.2939 N.2            1 S1                 0.0000
     15 ****        -3.4351   0.5927   2.4718 H              1 S1                 0.0000
     16 ****        -3.4910  -0.9684   1.6566 H              1 S1                 0.0000
     17 ****        -4.8946   0.0951   1.6239 H              1 S1                 0.0000
     18 ****        -3.6328   1.7652   0.3097 H              1 S1                 0.0000
     19 ****        -3.5339   0.5965  -1.8586 H              1 S1                 0.0000
     20 ****        -4.9490   0.0860  -0.9459 H              1 S1                 0.0000
     21 ****        -3.5402  -0.9669  -1.0460 H              1 S1                 0.0000
     22 ****         1.3702  -1.3887   0.7433 H              1 S1                 0.0000
     23 ****         1.2363  -1.3580  -1.7562 H              1 S1                 0.0000
     24 ****         2.0499   0.1911  -1.8005 H              1 S1                 0.0000
     25 ****         5.2060  -1.1963  -0.4399 H              1 S1                 0.0000
     26 ****         4.4708   0.2905  -0.9969 H              1 S1                 0.0000
     27 ****         3.6420  -1.2817   1.5107 H              1 S1                 0.0000
     28 ****         4.4677   0.2642   1.4735 H              1 S1                 0.0000
     29 ****         3.5934  -1.5448  -2.1908 H              1 S1                 0.0000
     30 ****        -1.4827   2.8554   0.1374 H              1 S1                 0.0000
     31 ****         0.9838   2.2929   0.0797 LP             1 S1                 0.0000
     32 ****         3.1625  -2.3072  -0.7921 LP             1 S1                 0.0000
     33 ****         2.1932   0.5291   1.7945 LP             1 S1                 0.0000
     34 ****         2.6373   1.1844   0.3662 LP             1 S1                 0.0000
     35 ****        -1.2109  -1.2604   0.3398 LP             1 S1                 0.0000
@<TRIPOS>BOND
    1    1    2 1     
    2    1   15 1     
    3    1   16 1     
    4    1   17 1     
    5    2    3 1     
    6    2    4 1     
    7    2   18 1     
    8    3   19 1     
    9    3   20 1     
   10    3   21 1     
   11    4   14 2     
   12    4    5 1     
   13    5    6 1     
   14    5   30 1     
   15    6    7 2     
   16    7    8 1     
   17    7   14 1     
   18    8   13 1     
   19    8    9 1     
   20    8   22 1     
   21    9   10 1     
   22    9   23 1     
   23    9   24 1     
   24   10   11 1     
   25   10   29 1     
   26   11   12 1     
   27   11   25 1     
   28   11   26 1     
   29   12   13 1     
   30   12   27 1     
   31   12   28 1     
   32    6   31 1     
   33   10   32 1     
   34   13   33 1     
   35   13   34 1     
   36   14   35 1     
@<TRIPOS>SUBSTRUCTURE
      1 S1             1
@<TRIPOS>SET
LONE_PAIRS      STATIC     ATOMS    <user>   **** ""
5 31 32 33 34 35
DONOR_HYDROGENS      STATIC     ATOMS    <user>   **** ""
2 30 29
ATOM$BLUE        STATIC     ATOMS    COLORGROUP SYSTEM
5 31 32 33 34 35
ATOM$RED        STATIC     ATOMS    COLORGROUP SYSTEM
2 30 29
