AV-unprocessed.smi:36|AV-procd|sdf|285|dock6
  -GOLD-   2262016 63D 1   1.00000     0.00000
 Structure written by MMmdl.
 64 67  0  0  0  0  0  0  0  0  1 V2000
  148.1585  134.1848  161.3391 C   0  0  0  0  0  0  0  0  0  0  0  0
  147.2876  133.0182  160.8443 C   0  0  0  0  0  0  0  0  0  0  0  0
  146.2640  132.6339  161.9260 C   0  0  0  0  0  0  0  0  0  0  0  0
  146.5521  133.4254  159.5565 C   0  0  0  0  0  0  0  0  0  0  0  0
  148.3981  131.5081  160.4737 Si  0  0  0  0  0  0  0  0  0  0  0  0
  149.4490  131.0445  161.9882 C   0  0  0  0  0  0  0  0  0  0  0  0
  147.3581  130.0095  159.9397 C   0  0  0  0  0  0  0  0  0  0  0  0
  149.4282  131.9241  159.1953 O   0  0  0  0  0  0  0  0  0  0  0  0
  148.9948  132.4891  157.9738 C   0  0  0  0  0  0  0  0  0  0  0  0
  150.1550  132.4960  156.9595 C   0  0  2  0  0  0  0  0  0  0  0  0
  150.9718  133.6347  157.2522 O   0  0  0  0  0  0  0  0  0  0  0  0
  151.1050  134.4244  156.1141 C   0  0  2  0  0  0  0  0  0  0  0  0
  151.2113  135.8564  156.5223 N   0  0  0  0  0  0  0  0  0  0  0  0
  151.1651  136.3733  157.7981 C   0  0  0  0  0  0  0  0  0  0  0  0
  151.2696  137.6726  157.8807 N   0  0  0  0  0  0  0  0  0  0  0  0
  151.3894  138.0850  156.5597 C   0  0  0  0  0  0  0  0  0  0  0  0
  151.5295  139.3519  155.9347 C   0  0  0  0  0  0  0  0  0  0  0  0
  151.5654  140.4797  156.6834 N   0  0  0  0  0  0  0  0  0  0  0  0
  152.4020  140.7673  157.8356 C   0  0  0  0  0  0  0  0  0  0  0  0
  153.2553  139.9773  158.2407 O   0  0  0  0  0  0  0  0  0  0  0  0
  152.2240  142.1221  158.4571 C   0  0  0  0  0  0  0  0  0  0  0  0
  152.7367  142.3804  159.7484 C   0  0  0  0  0  0  0  0  0  0  0  0
  152.5630  143.6443  160.3451 C   0  0  0  0  0  0  0  0  0  0  0  0
  151.8677  144.6581  159.6599 C   0  0  0  0  0  0  0  0  0  0  0  0
  151.3428  144.4059  158.3784 C   0  0  0  0  0  0  0  0  0  0  0  0
  151.5164  143.1424  157.7801 C   0  0  0  0  0  0  0  0  0  0  0  0
  151.6200  139.3732  154.5787 N   0  0  0  0  0  0  0  0  0  0  0  0
  151.5735  138.2328  153.8833 C   0  0  0  0  0  0  0  0  0  0  0  0
  151.4451  136.9844  154.3366 N   0  0  0  0  0  0  0  0  0  0  0  0
  151.3549  136.9534  155.6973 C   0  0  0  0  0  0  0  0  0  0  0  0
  149.8662  134.1647  155.2719 C   0  0  0  0  0  0  0  0  0  0  0  0
  149.7328  132.6723  155.4844 C   0  0  2  0  0  0  0  0  0  0  0  0
  148.4316  132.2147  155.1733 O   0  0  0  0  0  0  0  0  0  0  0  0
  147.5523  135.0625  161.5659 H   0  0  0  0  0  0  0  0  0  0  0  0
  148.8924  134.4785  160.5882 H   0  0  0  0  0  0  0  0  0  0  0  0
  148.7030  133.9188  162.2455 H   0  0  0  0  0  0  0  0  0  0  0  0
  146.7559  132.3462  162.8555 H   0  0  0  0  0  0  0  0  0  0  0  0
  145.6470  131.7934  161.6064 H   0  0  0  0  0  0  0  0  0  0  0  0
  145.5956  133.4651  162.1532 H   0  0  0  0  0  0  0  0  0  0  0  0
  145.8918  134.2761  159.7292 H   0  0  0  0  0  0  0  0  0  0  0  0
  145.9421  132.6068  159.1724 H   0  0  0  0  0  0  0  0  0  0  0  0
  147.2524  133.7090  158.7708 H   0  0  0  0  0  0  0  0  0  0  0  0
  148.8257  130.7714  162.8393 H   0  0  0  0  0  0  0  0  0  0  0  0
  150.0853  131.8710  162.3034 H   0  0  0  0  0  0  0  0  0  0  0  0
  150.0989  130.1954  161.7783 H   0  0  0  0  0  0  0  0  0  0  0  0
  146.6663  129.7021  160.7235 H   0  0  0  0  0  0  0  0  0  0  0  0
  147.9850  129.1490  159.7071 H   0  0  0  0  0  0  0  0  0  0  0  0
  146.7668  130.2279  159.0508 H   0  0  0  0  0  0  0  0  0  0  0  0
  148.1556  131.9046  157.5959 H   0  0  0  0  0  0  0  0  0  0  0  0
  148.6234  133.4976  158.1535 H   0  0  0  0  0  0  0  0  0  0  0  0
  150.7447  131.5855  157.0630 H   0  0  0  0  0  0  0  0  0  0  0  0
  152.0364  134.1926  155.5952 H   0  0  0  0  0  0  0  0  0  0  0  0
  151.0502  135.7508  158.6736 H   0  0  0  0  0  0  0  0  0  0  0  0
  150.9252  141.2111  156.4103 H   0  0  0  0  0  0  0  0  0  0  0  0
  153.2722  141.6126  160.2883 H   0  0  0  0  0  0  0  0  0  0  0  0
  152.9628  143.8351  161.3302 H   0  0  0  0  0  0  0  0  0  0  0  0
  151.7340  145.6269  160.1182 H   0  0  0  0  0  0  0  0  0  0  0  0
  150.8035  145.1811  157.8545 H   0  0  0  0  0  0  0  0  0  0  0  0
  151.0978  142.9672  156.7998 H   0  0  0  0  0  0  0  0  0  0  0  0
  151.6487  138.3355  152.8107 H   0  0  0  0  0  0  0  0  0  0  0  0
  149.0113  134.7030  155.6837 H   0  0  0  0  0  0  0  0  0  0  0  0
  150.0190  134.4568  154.2326 H   0  0  0  0  0  0  0  0  0  0  0  0
  150.4471  132.1559  154.8412 H   0  0  0  0  0  0  0  0  0  0  0  0
  148.4061  131.9792  154.2584 H   0  0  0  0  0  0  0  0  0  0  0  0
  1  2  1  0  0  0  0
  1 34  1  0  0  0  0
  1 35  1  0  0  0  0
  1 36  1  0  0  0  0
  2  3  1  0  0  0  0
  2  4  1  0  0  0  0
  2  5  1  0  0  0  0
  3 37  1  0  0  0  0
  3 38  1  0  0  0  0
  3 39  1  0  0  0  0
  4 40  1  0  0  0  0
  4 41  1  0  0  0  0
  4 42  1  0  0  0  0
  5  6  1  0  0  0  0
  5  7  1  0  0  0  0
  5  8  1  0  0  0  0
  6 43  1  0  0  0  0
  6 44  1  0  0  0  0
  6 45  1  0  0  0  0
  7 46  1  0  0  0  0
  7 47  1  0  0  0  0
  7 48  1  0  0  0  0
  8  9  1  0  0  0  0
  9 10  1  0  0  0  0
  9 49  1  0  0  0  0
  9 50  1  0  0  0  0
 10 32  1  0  0  0  0
 10 11  1  0  0  0  0
 10 51  1  0  0  0  0
 11 12  1  0  0  0  0
 12 13  1  0  0  0  0
 12 31  1  0  0  0  0
 12 52  1  0  0  0  0
 13 30  1  0  0  0  0
 13 14  1  0  0  0  0
 14 15  2  0  0  0  0
 14 53  1  0  0  0  0
 15 16  1  0  0  0  0
 16 30  2  0  0  0  0
 16 17  1  0  0  0  0
 17 18  1  0  0  0  0
 17 27  2  0  0  0  0
 18 19  1  0  0  0  0
 18 54  1  0  0  0  0
 19 20  2  0  0  0  0
 19 21  1  0  0  0  0
 21 26  1  0  0  0  0
 21 22  2  0  0  0  0
 22 23  1  0  0  0  0
 22 55  1  0  0  0  0
 23 24  2  0  0  0  0
 23 56  1  0  0  0  0
 24 25  1  0  0  0  0
 24 57  1  0  0  0  0
 25 26  2  0  0  0  0
 25 58  1  0  0  0  0
 26 59  1  0  0  0  0
 27 28  1  0  0  0  0
 28 29  2  0  0  0  0
 28 60  1  0  0  0  0
 29 30  1  0  0  0  0
 31 32  1  0  0  0  0
 31 61  1  0  0  0  0
 31 62  1  0  0  0  0
 32 33  1  0  0  0  0
 32 63  1  0  0  0  0
 33 64  1  0  0  0  0
M  END
> <s_m_source_file>
AV-unprocessed.smi

> <i_m_source_file_index>
36

> <i_lp_mmshare_version>
43012

> <i_f3d_flags>
0

> <s_epik_input>
W0NIM11DKFtDSDNdKShbQ0gzXSlbU2ldKFtDSDNdKShbQ0gzXSlPW0NIMl1bQ0BASF0xT1tDQEhdKFtDSDJdW0NASF0xW09IXSluKFtjSF1uMiljKGMyMyluW2NIXW5jM1tOSF1DKD1PKWM0W2NIXVtjSF1bY0hdW2NIXVtjSF00

> <s_epik_cmdline>
J2VwaWtfcHl0aG9uJywgJy1waCcsICc3LjAnLCAnLXRuJywgJzgnLCAnLW1hJywgJzIwMCcsICctbWV0YWxfYmluZGluZycsICctaW1hZScsICc8aW5maWxlLm1hZT4nLCAnLW9tYWUnLCAnPG91dGZpbGUubWFlPic=

> <r_lp_tautomer_probability>
1

> <r_epik_Ionization_Penalty>
0.00150433

> <r_epik_Ionization_Penalty_Charging>
0

> <r_epik_Ionization_Penalty_Neutral>
0.00150433

> <r_epik_State_Penalty>
0.00724046

> <r_epik_Charging_Adjusted_Penalty>
0.00724046

> <i_epik_Tot_Q>
0

> <i_epik_Tot_abs_Q>
0

> <r_epik_Metal_State_Penalty>
0.323355

> <b_epik_Metal_Only>
0

> <s_epik_Chemistry_Notes>
This compound contains an acetal/aminal-like group ( X-CH(R)-Y where X, Y are N, S, or O) that may be acid/base labile, releasing an aldehyde.

> <s_lp_Force_Field>
OPLS_2005

> <r_lp_Energy>
39.4689

> <b_lp_Chiralities_Consistent>
1

> <s_lp_Variant>
AV-unprocessed.smi:36-7

> <Gold.Version>
5.8.1

> <Gold.Id.Protein>
6NUR|6NUR_protein|mol2

> <Gold.PLP.Fitness>
58.2638

> <Gold.PLP.PLP>
-47.4267

> <Gold.PLP.part.hbond>
-4.1390

> <Gold.PLP.part.metal>
0.0000

> <Gold.PLP.part.buried>
-6.4174

> <Gold.PLP.part.nonpolar>
-39.2828

> <Gold.PLP.part.repulsive>
0.4409

> <Gold.PLP.ligand.clash>
0.0000

> <Gold.PLP.ligand.torsion>
0.8978

> <Gold.PLP.Chemscore.Hbond>
3.7360

> <Gold.PLP.Chemscore.CHOScore>
0.4167

> <Gold.PLP.Chemscore.Metal>
0.0000

> <Gold.Chemscore.Hbonds>
donor molecule, donor type, donor heavy atom, donor atom, acceptor molecule, acceptor atom, score
      P1  H  6896  6907       L1    11  0.67
      P1  H  7989  7998       L1    27  1.00
      P1  H  7997  8008       L1    20  0.98
      P1  H 10752 10765       L1    29  0.80
      L1  C    28    60       P1  7949  0.35

> <Gold.PLP.Chemscore.Internal.Correction>
0.1747

> <Gold.Rescore>
     Score         DG    S(hbond)    S(metal)    S(lipo)     H(rot)  DE(clash)    DE(int)     intcor
     18.34     -20.47       2.58        0.00     113.62       2.70       1.27       0.87       ----

> <Gold.Chemscore.Fitness>
18.3357

> <Gold.Chemscore.DG>
-20.4704

> <Gold.Chemscore.ZeroCoef>
-5.4800

> <Gold.Chemscore.Hbond>
2.5806

> <Gold.Chemscore.Metal>
0.0000

> <Gold.Chemscore.Lipo>
113.6206

> <Gold.Chemscore.Internal_Hbond>
0.0000

> <Gold.Chemscore.DEClash>
1.2693

> <Gold.Chemscore.DEInternal>
0.8654

> <Gold.Chemscore.Rot>
2.7041

> <Gold.Chemscore.Internal.Correction>
   9.000000E+99

> <Gold.Chemscore.Hbonds>
donor molecule, donor type, donor heavy atom, donor atom, acceptor molecule, acceptor atom, score
      P1  H  6896  6907       L1    11  0.20
      P1  H  7989  7998       L1    27  0.81
      P1  H  7997  8008       L1    20  0.69
      P1  H 10752 10765       L1    29  0.11

> <Gold.Chemscore.Hbond.Weighted>
-8.6193

> <Gold.Chemscore.Metal.Weighted>
-0.0000

> <Gold.Chemscore.Lipo.Weighted>
-13.2936

> <Gold.Chemscore.Internal_Hbond.Weighted>
0.0000

> <Gold.Chemscore.DEClash.Weighted>
1.2693

> <Gold.Chemscore.DEInternal.Weighted>
0.8654

> <Gold.Chemscore.Rot.Weighted>
6.9225

> <Gold.Chemscore.Internal.Correction.Weighted>
   9.000000E+99

> <Gold.Protein.RotatedTorsions>
[ 6907 6896 6895 6894 ] final -147.50 input  -60.11 | X-H torsion
[ 7974 7965 7964 7962 ] final  -46.44 input  175.53 | X-H torsion
[ 8008 7997 7996 7995 ] final  -98.14 input   59.86 | X-H torsion
[ 10167 10162 10161 10158 ] final  102.54 input  -65.29 | X-H torsion
[ 10718 10713 10712 10709 ] final -169.66 input   66.30 | X-H torsion
[ 10763 10752 10751 10750 ] final  156.31 input  -60.55 | X-H torsion
[ 11005 11000 10999 10996 ] final  111.07 input  -57.11 | X-H torsion

> <Gold.Protein.ActiveResidues>
 VAL166  LYS551  ARG553  GLY616  TRP617  ASP618  TYR619  PRO620  LYS621  CYS622 
 ASP623  PHE694  ASN695  SER759  ASP760  ASP761  ALA762  ILE779  LEU786  VAL792 
 PHE793  MET794  SER795  GLU796  ALA797  LYS798  CYS799  TRP800  GLU811  SER814 

> <Gold.Protein.RotatedAtoms>
  151.1566  133.4872  159.2594 H   0  0  0  0  0  0  0  0  0  0  0  0  # atno 6907 bound_to 6896
  151.1498  135.0221  159.8673 H   0  0  0  0  0  0  0  0  0  0  0  0  # atno 6908 bound_to 6896
  152.5463  134.1451  159.8548 H   0  0  0  0  0  0  0  0  0  0  0  0  # atno 6909 bound_to 6896
  145.9719  140.7374  142.9406 H   0  0  0  0  0  0  0  0  0  0  0  0  # atno 7974 bound_to 7965
  154.7972  140.0457  157.1245 H   0  0  0  0  0  0  0  0  0  0  0  0  # atno 8008 bound_to 7997
  154.9521  140.3066  155.5050 H   0  0  0  0  0  0  0  0  0  0  0  0  # atno 8009 bound_to 7997
  156.2957  140.2286  156.4600 H   0  0  0  0  0  0  0  0  0  0  0  0  # atno 8010 bound_to 7997
  139.7341  144.7028  151.0676 H   0  0  0  0  0  0  0  0  0  0  0  0  # atno 10167 bound_to 10162
  156.7149  130.9247  151.3092 H   0  0  0  0  0  0  0  0  0  0  0  0  # atno 10718 bound_to 10713
  154.1823  135.2799  155.3048 H   0  0  0  0  0  0  0  0  0  0  0  0  # atno 10763 bound_to 10752
  154.5993  135.5534  153.7361 H   0  0  0  0  0  0  0  0  0  0  0  0  # atno 10764 bound_to 10752
  153.0135  135.6388  154.1962 H   0  0  0  0  0  0  0  0  0  0  0  0  # atno 10765 bound_to 10752
  139.8895  134.9499  156.6376 H   0  0  0  0  0  0  0  0  0  0  0  0  # atno 11005 bound_to 11000
  144.6839  140.2763  143.7298 LP  0  0  0  0  0  0  0  0  0  0  0  0  # atno 17320 bound_to 7965
  145.7894  139.1921  143.2112 LP  0  0  0  0  0  0  0  0  0  0  0  0  # atno 17321 bound_to 7965
  140.7776  143.5006  150.9776 LP  0  0  0  0  0  0  0  0  0  0  0  0  # atno 17342 bound_to 10162
  139.8694  143.7211  152.3167 LP  0  0  0  0  0  0  0  0  0  0  0  0  # atno 17343 bound_to 10162
  157.6921  130.9244  150.0543 LP  0  0  0  0  0  0  0  0  0  0  0  0  # atno 17370 bound_to 10713
  156.1635  130.3644  149.9265 LP  0  0  0  0  0  0  0  0  0  0  0  0  # atno 17371 bound_to 10713
  140.7618  133.8811  155.8424 LP  0  0  0  0  0  0  0  0  0  0  0  0  # atno 17394 bound_to 11000
  140.9915  134.1271  157.4403 LP  0  0  0  0  0  0  0  0  0  0  0  0  # atno 17395 bound_to 11000

$$$$
