#       Name:                AV-unprocessed.smi:110
#       Creating user name   scv26
#       Creation time:       Thu Mar 26 18:15:57 2020


#       File generated by GOLD software.
#

@<TRIPOS>MOLECULE
AV-unprocessed.smi:110
    57    61     1
SMALL
NO_CHARGES


@<TRIPOS>ATOM
      1 ****        -5.1846  -0.4663  -2.5869 O.3            1 S1                 0.0000
      2 ****        -4.9383  -1.7982  -2.1889 C.3            1 S1                 0.0000
      3 ****        -3.4454  -1.9858  -1.8667 C.3            1 S1                 0.0000
      4 ****        -3.1426  -1.5418  -0.5446 O.3            1 S1                 0.0000
      5 ****        -2.0647  -2.2591  -0.0194 C.3            1 S1                 0.0000
      6 ****        -0.9324  -1.3236   0.2857 N.pl3          1 S1                 0.0000
      7 ****        -0.0558  -1.4068   1.3433 C.2            1 S1                 0.0000
      8 ****         0.8530  -0.4722   1.3929 N.2            1 S1                 0.0000
      9 ****         0.5791   0.3314   0.2928 C.ar           1 S1                 0.0000
     10 ****         1.1663   1.5088  -0.2540 C.ar           1 S1                 0.0000
     11 ****         2.2346   2.1525   0.2722 N.pl3          1 S1                 0.0000
     12 ****         3.3683   2.5007  -0.5962 C.3            1 S1                 0.0000
     13 ****         4.5770   2.7931   0.3128 C.3            1 S1                 0.0000
     14 ****         3.9475   2.6958   1.6649 C.ar           1 S1                 0.0000
     15 ****         4.5565   2.9433   2.9073 C.ar           1 S1                 0.0000
     16 ****         3.7678   2.8178   4.0711 C.ar           1 S1                 0.0000
     17 ****         2.4021   2.4627   3.9741 C.ar           1 S1                 0.0000
     18 ****         1.8110   2.2213   2.7143 C.ar           1 S1                 0.0000
     19 ****         2.6104   2.3256   1.5572 C.ar           1 S1                 0.0000
     20 ****         0.6490   1.9894  -1.4130 N.ar           1 S1                 0.0000
     21 ****        -0.3998   1.3882  -1.9798 C.ar           1 S1                 0.0000
     22 ****        -1.0614   0.3058  -1.5688 N.ar           1 S1                 0.0000
     23 ****        -0.5321  -0.2045  -0.4199 C.ar           1 S1                 0.0000
     24 ****        -1.6909  -3.3644  -1.0276 C.3            1 S1                 0.0000
     25 ****        -0.5526  -3.0632  -1.8157 O.3            1 S1                 0.0000
     26 ****        -2.9386  -3.4342  -1.8939 C.3            1 S1                 0.0000
     27 ****        -3.8881  -4.3207  -1.3288 O.3            1 S1                 0.0000
     28 ****        -2.8437  -1.4157  -2.5757 H              1 S1                 0.0000
     29 ****        -2.3557  -2.6595   0.9524 H              1 S1                 0.0000
     30 ****        -1.4962  -4.2969  -0.4962 H              1 S1                 0.0000
     31 ****        -2.7250  -3.7730  -2.9087 H              1 S1                 0.0000
     32 ****        -6.1037  -0.3771  -2.7873 H              1 S1                 0.0000
     33 ****        -5.5667  -2.0601  -1.3372 H              1 S1                 0.0000
     34 ****        -5.2275  -2.4440  -3.0185 H              1 S1                 0.0000
     35 ****        -0.1087  -2.1929   2.0826 H              1 S1                 0.0000
     36 ****         3.5891   1.6900  -1.2919 H              1 S1                 0.0000
     37 ****         3.1112   3.3833  -1.1830 H              1 S1                 0.0000
     38 ****         5.3610   2.0433   0.2043 H              1 S1                 0.0000
     39 ****         4.9956   3.7849   0.1396 H              1 S1                 0.0000
     40 ****         5.5968   3.2268   2.9697 H              1 S1                 0.0000
     41 ****         4.2071   3.0028   5.0402 H              1 S1                 0.0000
     42 ****         1.8046   2.3803   4.8698 H              1 S1                 0.0000
     43 ****         0.7635   1.9677   2.6478 H              1 S1                 0.0000
     44 ****        -0.7599   1.8371  -2.8936 H              1 S1                 0.0000
     45 ****         0.1724  -2.8813  -1.2373 H              1 S1                 0.0000
     46 ****        -4.1089  -4.0124  -0.4632 H              1 S1                 0.0000
     47 ****        -4.6404  -0.2507  -3.3977 LP             1 S1                 0.0000
     48 ****        -4.9393   0.1580  -1.8451 LP             1 S1                 0.0000
     49 ****        -3.9432  -1.6775   0.0391 LP             1 S1                 0.0000
     50 ****        -2.9094  -0.5697  -0.5697 LP             1 S1                 0.0000
     51 ****         1.5812  -0.3596   2.0690 LP             1 S1                 0.0000
     52 ****         1.0543   2.7958  -1.8435 LP             1 S1                 0.0000
     53 ****        -1.8496  -0.0842  -2.0448 LP             1 S1                 0.0000
     54 ****        -0.7388  -2.2627  -2.3854 LP             1 S1                 0.0000
     55 ****        -0.3305  -3.8438  -2.3999 LP             1 S1                 0.0000
     56 ****        -3.4983  -5.2397  -1.2701 LP             1 S1                 0.0000
     57 ****        -4.7096  -4.3428  -1.8985 LP             1 S1                 0.0000
@<TRIPOS>BOND
    1    1    2 1     
    2    1   32 1     
    3    2    3 1     
    4    2   33 1     
    5    2   34 1     
    6    3   28 1     
    7    3   26 1     
    8    3    4 1     
    9    4    5 1     
   10    5   29 1     
   11    5    6 1     
   12    5   24 1     
   13    6   23 1     
   14    6    7 1     
   15    7    8 2     
   16    7   35 1     
   17    8    9 1     
   18    9   23 ar    
   19    9   10 ar    
   20   10   11 1     
   21   10   20 ar    
   22   11   19 1     
   23   11   12 1     
   24   12   13 1     
   25   12   36 1     
   26   12   37 1     
   27   13   14 1     
   28   13   38 1     
   29   13   39 1     
   30   14   19 ar    
   31   14   15 ar    
   32   15   16 ar    
   33   15   40 1     
   34   16   17 ar    
   35   16   41 1     
   36   17   18 ar    
   37   17   42 1     
   38   18   19 ar    
   39   18   43 1     
   40   20   21 ar    
   41   21   22 ar    
   42   21   44 1     
   43   22   23 ar    
   44   24   30 1     
   45   24   25 1     
   46   24   26 1     
   47   25   45 1     
   48   26   31 1     
   49   26   27 1     
   50   27   46 1     
   51    1   47 1     
   52    1   48 1     
   53    4   49 1     
   54    4   50 1     
   55    8   51 1     
   56   20   52 1     
   57   22   53 1     
   58   25   54 1     
   59   25   55 1     
   60   27   56 1     
   61   27   57 1     
@<TRIPOS>SUBSTRUCTURE
      1 S1             1
@<TRIPOS>SET
LONE_PAIRS      STATIC     ATOMS    <user>   **** ""
11 47 48 49 50 51 52 53 54 55 56 57
DONOR_HYDROGENS      STATIC     ATOMS    <user>   **** ""
3 32 45 46
ATOM$BLUE        STATIC     ATOMS    COLORGROUP SYSTEM
11 47 48 49 50 51 52 53 54 55 56 57
ATOM$RED        STATIC     ATOMS    COLORGROUP SYSTEM
3 32 45 46
