AV-unprocessed.smi:2795|AV-procd|sdf|10781|dock2
  -GOLD-   2272015213D 1   1.00000     0.00000
 Structure written by MMmdl.
 36 37  0  0  0  0  0  0  0  0  1 V2000
  143.1767  134.2877  151.7989 C   0  0  0  0  0  0  0  0  0  0  0  0
  144.0042  133.4447  150.9592 N   0  0  0  0  0  0  0  0  0  0  0  0
  143.6387  132.8392  149.8212 C   0  0  0  0  0  0  0  0  0  0  0  0
  144.5937  132.1174  149.2517 N   0  0  0  0  0  0  0  0  0  0  0  0
  145.6801  132.2738  150.1078 C   0  0  0  0  0  0  0  0  0  0  0  0
  145.3368  133.0954  151.1617 C   0  0  0  0  0  0  0  0  0  0  0  0
  146.1308  133.5700  152.3448 C   0  0  0  0  0  0  0  0  0  0  0  0
  147.5682  133.0302  152.4383 C   0  0  0  0  0  0  0  0  0  0  0  0
  147.6060  131.5795  152.3024 N   0  0  0  0  0  0  0  0  0  0  0  0
  146.8262  130.7296  152.9857 C   0  0  0  0  0  0  0  0  0  0  0  0
  146.0182  131.1010  153.8380 O   0  0  0  0  0  0  0  0  0  0  0  0
  147.0003  129.2408  152.6547 C   0  0  1  0  0  0  0  0  0  0  0  0
  146.7675  128.9211  151.1600 C   0  0  0  0  0  0  0  0  0  0  0  0
  147.0363  127.4389  150.8773 C   0  0  0  0  0  0  0  0  0  0  0  0
  148.4271  127.0578  151.3939 C   0  0  0  0  0  0  0  0  0  0  0  0
  148.5756  127.4605  152.8692 C   0  0  0  0  0  0  0  0  0  0  0  0
  148.3252  128.8540  153.0209 O   0  0  0  0  0  0  0  0  0  0  0  0
  142.1603  134.3320  151.4061 H   0  0  0  0  0  0  0  0  0  0  0  0
  143.5894  135.2964  151.8270 H   0  0  0  0  0  0  0  0  0  0  0  0
  143.1468  133.8835  152.8111 H   0  0  0  0  0  0  0  0  0  0  0  0
  142.6477  132.9270  149.4002 H   0  0  0  0  0  0  0  0  0  0  0  0
  146.6216  131.7872  149.8983 H   0  0  0  0  0  0  0  0  0  0  0  0
  146.1683  134.6600  152.3346 H   0  0  0  0  0  0  0  0  0  0  0  0
  145.5974  133.3000  153.2566 H   0  0  0  0  0  0  0  0  0  0  0  0
  148.1809  133.4821  151.6569 H   0  0  0  0  0  0  0  0  0  0  0  0
  148.0117  133.3139  153.3941 H   0  0  0  0  0  0  0  0  0  0  0  0
  148.2445  131.1965  151.6195 H   0  0  0  0  0  0  0  0  0  0  0  0
  146.2855  128.6846  153.2637 H   0  0  0  0  0  0  0  0  0  0  0  0
  145.7457  129.1689  150.8698 H   0  0  0  0  0  0  0  0  0  0  0  0
  147.4266  129.5316  150.5406 H   0  0  0  0  0  0  0  0  0  0  0  0
  146.2803  126.8274  151.3713 H   0  0  0  0  0  0  0  0  0  0  0  0
  146.9573  127.2344  149.8092 H   0  0  0  0  0  0  0  0  0  0  0  0
  148.5941  125.9871  151.2753 H   0  0  0  0  0  0  0  0  0  0  0  0
  149.1903  127.5621  150.7999 H   0  0  0  0  0  0  0  0  0  0  0  0
  147.8943  126.8877  153.4999 H   0  0  0  0  0  0  0  0  0  0  0  0
  149.5866  127.2456  153.2161 H   0  0  0  0  0  0  0  0  0  0  0  0
  1  2  1  0  0  0  0
  1 18  1  0  0  0  0
  1 19  1  0  0  0  0
  1 20  1  0  0  0  0
  2  6  1  0  0  0  0
  2  3  1  0  0  0  0
  3  4  2  0  0  0  0
  3 21  1  0  0  0  0
  4  5  1  0  0  0  0
  5  6  2  0  0  0  0
  5 22  1  0  0  0  0
  6  7  1  0  0  0  0
  7  8  1  0  0  0  0
  7 23  1  0  0  0  0
  7 24  1  0  0  0  0
  8  9  1  0  0  0  0
  8 25  1  0  0  0  0
  8 26  1  0  0  0  0
  9 10  1  0  0  0  0
  9 27  1  0  0  0  0
 10 11  2  0  0  0  0
 10 12  1  0  0  0  0
 12 17  1  0  0  0  0
 12 13  1  0  0  0  0
 12 28  1  0  0  0  0
 13 14  1  0  0  0  0
 13 29  1  0  0  0  0
 13 30  1  0  0  0  0
 14 15  1  0  0  0  0
 14 31  1  0  0  0  0
 14 32  1  0  0  0  0
 15 16  1  0  0  0  0
 15 33  1  0  0  0  0
 15 34  1  0  0  0  0
 16 17  1  0  0  0  0
 16 35  1  0  0  0  0
 16 36  1  0  0  0  0
M  END
> <s_m_source_file>
AV-unprocessed.smi

> <i_m_source_file_index>
2795

> <i_lp_mmshare_version>
43012

> <i_f3d_flags>
0

> <s_epik_input>
W0NIM11uMVtjSF1uW2NIXWMxW0NIMl1bQ0gyXVtOSF1DKD1PKVtDQEBIXTJbQ0gyXVtDSDJdW0NIMl1bQ0gyXU8y

> <s_epik_cmdline>
J2VwaWtfcHl0aG9uJywgJy1waCcsICc3LjAnLCAnLXRuJywgJzgnLCAnLW1hJywgJzIwMCcsICctbWV0YWxfYmluZGluZycsICctaW1hZScsICc8aW5maWxlLm1hZT4nLCAnLW9tYWUnLCAnPG91dGZpbGUubWFlPic=

> <r_lp_tautomer_probability>
1

> <r_epik_Ionization_Penalty>
0.870864

> <r_epik_Ionization_Penalty_Charging>
0.870864

> <r_epik_Ionization_Penalty_Neutral>
4.06047e-08

> <r_epik_State_Penalty>
0.90819

> <r_epik_Charging_Adjusted_Penalty>
1.77905

> <i_epik_Tot_Q>
0

> <i_epik_Tot_abs_Q>
0

> <r_epik_Metal_State_Penalty>
0.360563

> <b_epik_Metal_Only>
0

> <s_lp_Force_Field>
OPLS_2005

> <r_lp_Energy>
10.035

> <b_lp_Chiralities_Consistent>
1

> <s_lp_Variant>
AV-unprocessed.smi:2795-4

> <Gold.Version>
5.8.1

> <Gold.Id.Protein>
6NUR|6NUR_protein|mol2

> <Gold.PLP.Fitness>
45.6249

> <Gold.PLP.PLP>
-33.9341

> <Gold.PLP.part.hbond>
-1.9547

> <Gold.PLP.part.metal>
0.0000

> <Gold.PLP.part.buried>
-2.7346

> <Gold.PLP.part.nonpolar>
-30.3665

> <Gold.PLP.part.repulsive>
0.4869

> <Gold.PLP.ligand.clash>
0.0000

> <Gold.PLP.ligand.torsion>
0.1060

> <Gold.PLP.Chemscore.Hbond>
1.2808

> <Gold.PLP.Chemscore.CHOScore>
2.6775

> <Gold.PLP.Chemscore.Metal>
0.0000

> <Gold.Chemscore.Hbonds>
donor molecule, donor type, donor heavy atom, donor atom, acceptor molecule, acceptor atom, score
      L1  H     9    27       P1 10747  1.00
      L1  C     3    21       P1 10186  1.00
      L1  C     5    22       P1 10747  0.96

> <Gold.PLP.Chemscore.Internal.Correction>
0.0281

> <Gold.Rescore>
     Score         DG    S(hbond)    S(metal)    S(lipo)     H(rot)  DE(clash)    DE(int)     intcor
     11.97     -13.21       0.95        0.00      77.32       1.76       0.08       1.16       ----

> <Gold.Chemscore.Fitness>
11.9695

> <Gold.Chemscore.DG>
-13.2072

> <Gold.Chemscore.ZeroCoef>
-5.4800

> <Gold.Chemscore.Hbond>
0.9528

> <Gold.Chemscore.Metal>
0.0000

> <Gold.Chemscore.Lipo>
77.3233

> <Gold.Chemscore.Internal_Hbond>
0.0000

> <Gold.Chemscore.DEClash>
0.0812

> <Gold.Chemscore.DEInternal>
1.1565

> <Gold.Chemscore.Rot>
1.7585

> <Gold.Chemscore.Internal.Correction>
   9.000000E+99

> <Gold.Chemscore.Hbonds>
donor molecule, donor type, donor heavy atom, donor atom, acceptor molecule, acceptor atom, score
      L1  H     9    27       P1 10747  0.96

> <Gold.Chemscore.Hbond.Weighted>
-3.1822

> <Gold.Chemscore.Metal.Weighted>
-0.0000

> <Gold.Chemscore.Lipo.Weighted>
-9.0468

> <Gold.Chemscore.Internal_Hbond.Weighted>
0.0000

> <Gold.Chemscore.DEClash.Weighted>
0.0812

> <Gold.Chemscore.DEInternal.Weighted>
1.1565

> <Gold.Chemscore.Rot.Weighted>
4.5018

> <Gold.Chemscore.Internal.Correction.Weighted>
   9.000000E+99

> <Gold.Protein.RotatedTorsions>
[ 6907 6896 6895 6894 ] final   17.87 input  -60.11 | X-H torsion
[ 7974 7965 7964 7962 ] final  -83.29 input  175.53 | X-H torsion
[ 8008 7997 7996 7995 ] final  109.75 input   59.86 | X-H torsion
[ 10167 10162 10161 10158 ] final    1.75 input  -65.29 | X-H torsion
[ 10718 10713 10712 10709 ] final  -33.73 input   66.30 | X-H torsion
[ 10763 10752 10751 10750 ] final -111.56 input  -60.55 | X-H torsion
[ 11005 11000 10999 10996 ] final  163.29 input  -57.11 | X-H torsion

> <Gold.Protein.ActiveResidues>
 VAL166  LYS551  ARG553  GLY616  TRP617  ASP618  TYR619  PRO620  LYS621  CYS622 
 ASP623  PHE694  ASN695  SER759  ASP760  ASP761  ALA762  ILE779  LEU786  VAL792 
 PHE793  MET794  SER795  GLU796  ALA797  LYS798  CYS799  TRP800  GLU811  SER814 

> <Gold.Protein.RotatedAtoms>
  151.8564  135.0539  160.0464 H   0  0  0  0  0  0  0  0  0  0  0  0  # atno 6907 bound_to 6896
  152.2696  133.5366  159.5439 H   0  0  0  0  0  0  0  0  0  0  0  0  # atno 6908 bound_to 6896
  150.7147  134.0632  159.3881 H   0  0  0  0  0  0  0  0  0  0  0  0  # atno 6909 bound_to 6896
  145.5219  140.9530  143.1650 H   0  0  0  0  0  0  0  0  0  0  0  0  # atno 7974 bound_to 7965
  156.2002  140.3052  155.9512 H   0  0  0  0  0  0  0  0  0  0  0  0  # atno 8008 bound_to 7997
  155.2970  140.0444  157.3044 H   0  0  0  0  0  0  0  0  0  0  0  0  # atno 8009 bound_to 7997
  154.5561  140.2306  155.8416 H   0  0  0  0  0  0  0  0  0  0  0  0  # atno 8010 bound_to 7997
  140.6668  143.7158  150.7843 H   0  0  0  0  0  0  0  0  0  0  0  0  # atno 10167 bound_to 10162
  156.3592  130.4321  149.7638 H   0  0  0  0  0  0  0  0  0  0  0  0  # atno 10718 bound_to 10713
  154.8306  135.4523  154.1057 H   0  0  0  0  0  0  0  0  0  0  0  0  # atno 10763 bound_to 10752
  153.2334  135.6908  153.7871 H   0  0  0  0  0  0  0  0  0  0  0  0  # atno 10764 bound_to 10752
  153.7245  135.3336  155.3249 H   0  0  0  0  0  0  0  0  0  0  0  0  # atno 10765 bound_to 10752
  140.2343  134.8100  157.3348 H   0  0  0  0  0  0  0  0  0  0  0  0  # atno 11005 bound_to 11000
  144.7671  139.6819  143.7210 LP  0  0  0  0  0  0  0  0  0  0  0  0  # atno 17320 bound_to 7965
  146.2100  139.5450  142.9687 LP  0  0  0  0  0  0  0  0  0  0  0  0  # atno 17321 bound_to 7965
  140.0836  143.4945  152.2517 LP  0  0  0  0  0  0  0  0  0  0  0  0  # atno 17342 bound_to 10162
  139.5920  144.7553  151.3378 LP  0  0  0  0  0  0  0  0  0  0  0  0  # atno 17343 bound_to 10162
  156.4809  130.8040  151.3055 LP  0  0  0  0  0  0  0  0  0  0  0  0  # atno 17370 bound_to 10713
  157.7471  131.0006  150.2932 LP  0  0  0  0  0  0  0  0  0  0  0  0  # atno 17371 bound_to 10713
  140.1718  134.4599  155.7827 LP  0  0  0  0  0  0  0  0  0  0  0  0  # atno 17394 bound_to 11000
  141.2215  133.6945  156.7720 LP  0  0  0  0  0  0  0  0  0  0  0  0  # atno 17395 bound_to 11000

$$$$
