AV-unprocessed.smi:21|AV-procd|sdf|154|dock10
  -GOLD-   2262015383D 1   1.00000     0.00000
 Structure written by MMmdl.
 61 64  0  0  0  0  0  0  0  0  1 V2000
  152.5164  142.6819  159.3610 C   0  0  0  0  0  0  0  0  0  0  0  0
  151.2404  142.0620  159.3653 O   0  0  0  0  0  0  0  0  0  0  0  0
  150.5586  142.1679  158.1238 C   0  0  2  0  0  0  0  0  0  0  0  0
  149.1592  141.5252  158.1477 C   0  0  0  0  0  0  0  0  0  0  0  0
  149.2167  140.4266  157.0737 C   0  0  1  0  0  0  0  0  0  0  0  0
  147.8579  140.1611  156.3882 C   0  0  0  0  0  0  0  0  0  0  0  0
  147.8823  140.4112  154.9470 N   0  0  0  0  0  0  0  0  0  0  0  0
  148.2298  141.7566  154.4922 C   0  0  0  0  0  0  0  0  0  0  0  0
  147.2431  139.5674  154.0830 C   0  0  0  0  0  0  0  0  0  0  0  0
  147.1470  139.9354  152.7758 N   0  0  0  0  0  0  0  0  0  0  0  0
  146.5246  139.1605  151.8847 C   0  0  0  0  0  0  0  0  0  0  0  0
  145.9326  137.9827  152.0763 N   0  0  0  0  0  0  0  0  0  0  0  0
  146.0259  137.5931  153.3786 C   0  0  0  0  0  0  0  0  0  0  0  0
  146.6568  138.3114  154.4377 C   0  0  0  0  0  0  0  0  0  0  0  0
  146.5483  137.5754  155.6145 N   0  0  0  0  0  0  0  0  0  0  0  0
  145.8938  136.5001  155.2752 C   0  0  0  0  0  0  0  0  0  0  0  0
  145.5453  136.4272  153.9482 N   0  0  0  0  0  0  0  0  0  0  0  0
  144.8236  135.3455  153.3023 C   0  0  0  0  0  0  0  0  0  0  0  0
  145.6210  134.6440  152.1711 C   0  0  2  0  0  0  0  0  0  0  0  0
  145.6950  135.4995  150.8799 C   0  0  0  0  0  0  0  0  0  0  0  0
  144.4193  135.9541  150.4759 O   0  0  0  0  0  0  0  0  0  0  0  0
  145.0220  133.2445  151.8746 C   0  0  2  0  0  0  0  0  0  0  0  0
  145.6450  132.5136  150.6965 C   0  0  0  0  0  0  0  0  0  0  0  0
  144.5855  131.4695  150.3717 C   0  0  0  0  0  0  0  0  0  0  0  0
  143.3449  132.1181  150.6136 O   0  0  0  0  0  0  0  0  0  0  0  0
  143.5451  133.2523  151.4531 C   0  0  0  0  0  0  0  0  0  0  0  0
  150.2779  140.8410  156.1702 N   0  0  0  0  0  0  0  0  0  0  0  0
  150.7795  139.7671  155.3229 C   0  0  0  0  0  0  0  0  0  0  0  0
  151.3006  141.3614  157.0553 C   0  0  0  0  0  0  0  0  0  0  0  0
  150.4913  143.2090  157.8027 H   0  0  0  0  0  0  0  0  0  0  0  0
  149.5425  139.5116  157.5714 H   0  0  0  0  0  0  0  0  0  0  0  0
  152.9840  142.5599  160.3376 H   0  0  0  0  0  0  0  0  0  0  0  0
  152.4457  143.7505  159.1557 H   0  0  0  0  0  0  0  0  0  0  0  0
  153.1712  142.2268  158.6169 H   0  0  0  0  0  0  0  0  0  0  0  0
  148.9023  141.1039  159.1203 H   0  0  0  0  0  0  0  0  0  0  0  0
  148.4083  142.2775  157.9037 H   0  0  0  0  0  0  0  0  0  0  0  0
  147.5702  139.1239  156.5643 H   0  0  0  0  0  0  0  0  0  0  0  0
  147.0592  140.7431  156.8427 H   0  0  0  0  0  0  0  0  0  0  0  0
  148.8415  141.7129  153.5902 H   0  0  0  0  0  0  0  0  0  0  0  0
  148.8012  142.2950  155.2484 H   0  0  0  0  0  0  0  0  0  0  0  0
  147.3318  142.3364  154.2759 H   0  0  0  0  0  0  0  0  0  0  0  0
  146.4957  139.5401  150.8741 H   0  0  0  0  0  0  0  0  0  0  0  0
  145.6530  135.7223  155.9851 H   0  0  0  0  0  0  0  0  0  0  0  0
  144.5535  134.6322  154.0809 H   0  0  0  0  0  0  0  0  0  0  0  0
  143.8854  135.7393  152.9100 H   0  0  0  0  0  0  0  0  0  0  0  0
  146.6405  134.4872  152.5279 H   0  0  0  0  0  0  0  0  0  0  0  0
  146.3034  136.3905  151.0273 H   0  0  0  0  0  0  0  0  0  0  0  0
  146.1585  134.9377  150.0684 H   0  0  0  0  0  0  0  0  0  0  0  0
  144.4889  136.8623  150.2236 H   0  0  0  0  0  0  0  0  0  0  0  0
  145.1264  132.6133  152.7588 H   0  0  0  0  0  0  0  0  0  0  0  0
  145.7759  133.1898  149.8503 H   0  0  0  0  0  0  0  0  0  0  0  0
  146.6104  132.0629  150.9284 H   0  0  0  0  0  0  0  0  0  0  0  0
  144.6549  131.1035  149.3471 H   0  0  0  0  0  0  0  0  0  0  0  0
  144.6725  130.6160  151.0452 H   0  0  0  0  0  0  0  0  0  0  0  0
  142.8715  133.2174  152.3095 H   0  0  0  0  0  0  0  0  0  0  0  0
  143.3073  134.1465  150.8755 H   0  0  0  0  0  0  0  0  0  0  0  0
  151.6107  140.1186  154.7108 H   0  0  0  0  0  0  0  0  0  0  0  0
  150.0043  139.4063  154.6474 H   0  0  0  0  0  0  0  0  0  0  0  0
  151.1307  138.9235  155.9187 H   0  0  0  0  0  0  0  0  0  0  0  0
  152.0341  141.9619  156.5164 H   0  0  0  0  0  0  0  0  0  0  0  0
  151.8333  140.5350  157.5296 H   0  0  0  0  0  0  0  0  0  0  0  0
  1  2  1  0  0  0  0
  1 32  1  0  0  0  0
  1 33  1  0  0  0  0
  1 34  1  0  0  0  0
  2  3  1  0  0  0  0
  3 30  1  0  0  0  0
  3 29  1  0  0  0  0
  3  4  1  0  0  0  0
  4  5  1  0  0  0  0
  4 35  1  0  0  0  0
  4 36  1  0  0  0  0
  5 31  1  0  0  0  0
  5  6  1  0  0  0  0
  5 27  1  0  0  0  0
  6  7  1  0  0  0  0
  6 37  1  0  0  0  0
  6 38  1  0  0  0  0
  7  8  1  0  0  0  0
  7  9  1  0  0  0  0
  8 39  1  0  0  0  0
  8 40  1  0  0  0  0
  8 41  1  0  0  0  0
  9 14  1  0  0  0  0
  9 10  2  0  0  0  0
 10 11  1  0  0  0  0
 11 12  2  0  0  0  0
 11 42  1  0  0  0  0
 12 13  1  0  0  0  0
 13 17  1  0  0  0  0
 13 14  2  0  0  0  0
 14 15  1  0  0  0  0
 15 16  2  0  0  0  0
 16 17  1  0  0  0  0
 16 43  1  0  0  0  0
 17 18  1  0  0  0  0
 18 19  1  0  0  0  0
 18 44  1  0  0  0  0
 18 45  1  0  0  0  0
 19 20  1  0  0  0  0
 19 22  1  0  0  0  0
 19 46  1  0  0  0  0
 20 21  1  0  0  0  0
 20 47  1  0  0  0  0
 20 48  1  0  0  0  0
 21 49  1  0  0  0  0
 22 26  1  0  0  0  0
 22 23  1  0  0  0  0
 22 50  1  0  0  0  0
 23 24  1  0  0  0  0
 23 51  1  0  0  0  0
 23 52  1  0  0  0  0
 24 25  1  0  0  0  0
 24 53  1  0  0  0  0
 24 54  1  0  0  0  0
 25 26  1  0  0  0  0
 26 55  1  0  0  0  0
 26 56  1  0  0  0  0
 27 28  1  0  0  0  0
 27 29  1  0  0  0  0
 28 57  1  0  0  0  0
 28 58  1  0  0  0  0
 28 59  1  0  0  0  0
 29 60  1  0  0  0  0
 29 61  1  0  0  0  0
M  END
> <s_m_source_file>
AV-unprocessed.smi

> <i_m_source_file_index>
21

> <i_lp_mmshare_version>
43012

> <i_f3d_flags>
0

> <s_epik_input>
W0NIM11PW0NASF0xW0NIMl1bQ0BIXShOKFtDSDNdKVtDSDJdMSlbQ0gyXU4oW0NIM10pYyhuW2NIXW4yKWMoYzIzKW5bY0hdbjNbQ0gyXVtDQEhdKFtDSDJdW09IXSlbQ0BASF00W0NIMl1bQ0gyXU9bQ0gyXTQ=

> <s_epik_cmdline>
J2VwaWtfcHl0aG9uJywgJy1waCcsICc3LjAnLCAnLXRuJywgJzgnLCAnLW1hJywgJzIwMCcsICctbWV0YWxfYmluZGluZycsICctaW1hZScsICc8aW5maWxlLm1hZT4nLCAnLW9tYWUnLCAnPG91dGZpbGUubWFlPic=

> <r_lp_tautomer_probability>
1

> <r_epik_Ionization_Penalty>
2.17574

> <r_epik_Ionization_Penalty_Charging>
0

> <r_epik_Ionization_Penalty_Neutral>
2.17574

> <r_epik_State_Penalty>
2.31336

> <r_epik_Charging_Adjusted_Penalty>
2.31336

> <i_epik_Tot_Q>
0

> <i_epik_Tot_abs_Q>
0

> <r_epik_Metal_State_Penalty>
2.31025

> <b_epik_Metal_Only>
0

> <s_lp_Force_Field>
OPLS_2005

> <r_lp_Energy>
69.0307

> <b_lp_Chiralities_Consistent>
1

> <s_lp_Variant>
AV-unprocessed.smi:21-34

> <Gold.Version>
5.8.1

> <Gold.Id.Protein>
6NUR|6NUR_protein|mol2

> <Gold.PLP.Fitness>
40.2852

> <Gold.PLP.PLP>
-39.3128

> <Gold.PLP.part.hbond>
-1.3232

> <Gold.PLP.part.metal>
0.0000

> <Gold.PLP.part.buried>
-6.7655

> <Gold.PLP.part.nonpolar>
-33.8698

> <Gold.PLP.part.repulsive>
2.8809

> <Gold.PLP.ligand.clash>
0.0000

> <Gold.PLP.ligand.torsion>
1.1929

> <Gold.PLP.Chemscore.Hbond>
1.0000

> <Gold.PLP.Chemscore.CHOScore>
0.0000

> <Gold.PLP.Chemscore.Metal>
0.0000

> <Gold.Chemscore.Hbonds>
donor molecule, donor type, donor heavy atom, donor atom, acceptor molecule, acceptor atom, score
      L1  H    21    49       P1 10171  1.00

> <Gold.PLP.Chemscore.Internal.Correction>
0.3583

> <Gold.Rescore>
     Score         DG    S(hbond)    S(metal)    S(lipo)     H(rot)  DE(clash)    DE(int)     intcor
      6.77     -11.53       0.98        0.00      89.38       3.00       1.15       3.61       ----

> <Gold.Chemscore.Fitness>
6.7727

> <Gold.Chemscore.DG>
-11.5312

> <Gold.Chemscore.ZeroCoef>
-5.4800

> <Gold.Chemscore.Hbond>
0.9824

> <Gold.Chemscore.Metal>
0.0000

> <Gold.Chemscore.Lipo>
89.3839

> <Gold.Chemscore.Internal_Hbond>
0.0000

> <Gold.Chemscore.DEClash>
1.1463

> <Gold.Chemscore.DEInternal>
3.6121

> <Gold.Chemscore.Rot>
3.0031

> <Gold.Chemscore.Internal.Correction>
   9.000000E+99

> <Gold.Chemscore.Hbonds>
donor molecule, donor type, donor heavy atom, donor atom, acceptor molecule, acceptor atom, score
      L1  H    21    49       P1 10171  0.98

> <Gold.Chemscore.Hbond.Weighted>
-3.2813

> <Gold.Chemscore.Metal.Weighted>
-0.0000

> <Gold.Chemscore.Lipo.Weighted>
-10.4579

> <Gold.Chemscore.Internal_Hbond.Weighted>
0.0000

> <Gold.Chemscore.DEClash.Weighted>
1.1463

> <Gold.Chemscore.DEInternal.Weighted>
3.6121

> <Gold.Chemscore.Rot.Weighted>
7.6880

> <Gold.Chemscore.Internal.Correction.Weighted>
   9.000000E+99

> <Gold.Protein.RotatedTorsions>
[ 6907 6896 6895 6894 ] final  105.32 input  -60.11 | X-H torsion
[ 7974 7965 7964 7962 ] final  154.06 input  175.53 | X-H torsion
[ 8008 7997 7996 7995 ] final  -47.94 input   59.86 | X-H torsion
[ 10167 10162 10161 10158 ] final  161.29 input  -65.29 | X-H torsion
[ 10718 10713 10712 10709 ] final  146.05 input   66.30 | X-H torsion
[ 10763 10752 10751 10750 ] final   68.32 input  -60.55 | X-H torsion
[ 11005 11000 10999 10996 ] final   -9.52 input  -57.11 | X-H torsion

> <Gold.Protein.ActiveResidues>
 VAL166  LYS551  ARG553  GLY616  TRP617  ASP618  TYR619  PRO620  LYS621  CYS622 
 ASP623  PHE694  ASN695  SER759  ASP760  ASP761  ALA762  ILE779  LEU786  VAL792 
 PHE793  MET794  SER795  GLU796  ALA797  LYS798  CYS799  TRP800  GLU811  SER814 

> <Gold.Protein.RotatedAtoms>
  152.5234  133.9545  159.7687 H   0  0  0  0  0  0  0  0  0  0  0  0  # atno 6907 bound_to 6896
  150.9849  133.6200  159.2724 H   0  0  0  0  0  0  0  0  0  0  0  0  # atno 6908 bound_to 6896
  151.3364  135.0859  159.9409 H   0  0  0  0  0  0  0  0  0  0  0  0  # atno 6909 bound_to 6896
  144.8113  139.6883  143.6140 H   0  0  0  0  0  0  0  0  0  0  0  0  # atno 7974 bound_to 7965
  154.4022  140.1334  156.4258 H   0  0  0  0  0  0  0  0  0  0  0  0  # atno 8008 bound_to 7997
  155.7599  140.3486  155.5172 H   0  0  0  0  0  0  0  0  0  0  0  0  # atno 8009 bound_to 7997
  155.8869  140.0996  157.1436 H   0  0  0  0  0  0  0  0  0  0  0  0  # atno 8010 bound_to 7997
  139.4848  144.4551  151.8779 H   0  0  0  0  0  0  0  0  0  0  0  0  # atno 10167 bound_to 10162
  157.3379  131.0931  151.1108 H   0  0  0  0  0  0  0  0  0  0  0  0  # atno 10718 bound_to 10713
  153.0229  135.5252  154.7116 H   0  0  0  0  0  0  0  0  0  0  0  0  # atno 10763 bound_to 10752
  154.6196  135.2887  155.0343 H   0  0  0  0  0  0  0  0  0  0  0  0  # atno 10764 bound_to 10752
  154.1334  135.6589  153.4979 H   0  0  0  0  0  0  0  0  0  0  0  0  # atno 10765 bound_to 10752
  140.7350  133.8717  155.8922 H   0  0  0  0  0  0  0  0  0  0  0  0  # atno 11005 bound_to 11000
  146.2412  139.6005  142.9490 LP  0  0  0  0  0  0  0  0  0  0  0  0  # atno 17320 bound_to 7965
  145.5317  141.0426  143.2379 LP  0  0  0  0  0  0  0  0  0  0  0  0  # atno 17321 bound_to 7965
  140.4009  144.2494  150.5893 LP  0  0  0  0  0  0  0  0  0  0  0  0  # atno 17342 bound_to 10162
  140.5057  143.2305  151.8611 LP  0  0  0  0  0  0  0  0  0  0  0  0  # atno 17343 bound_to 10162
  157.2331  130.6534  149.5858 LP  0  0  0  0  0  0  0  0  0  0  0  0  # atno 17370 bound_to 10713
  155.9704  130.4592  150.6028 LP  0  0  0  0  0  0  0  0  0  0  0  0  # atno 17371 bound_to 10713
  140.9887  134.1307  157.4428 LP  0  0  0  0  0  0  0  0  0  0  0  0  # atno 17394 bound_to 11000
  139.8818  135.0034  156.6182 LP  0  0  0  0  0  0  0  0  0  0  0  0  # atno 17395 bound_to 11000

$$$$
