AV-unprocessed.smi:1056|AV-procd|sdf|4635|dock1
  -GOLD-   22720 3143D 1   1.00000     0.00000
 Structure written by MMmdl.
 46 48  0  0  0  0  0  0  0  0  3 V2000
  152.6572  143.5532  160.3189 C   0  0  0  0  0  0  0  0  0  0  0  0
  152.1491  142.6522  159.2060 C   0  0  0  0  0  0  0  0  0  0  0  0
  151.3165  143.2136  158.2115 C   0  0  0  0  0  0  0  0  0  0  0  0
  150.8682  142.3648  157.2066 C   0  0  0  0  0  0  0  0  0  0  0  0
  150.0498  142.6070  156.1013 N   0  3  0  0  0  0  0  0  0  0  0  0
  149.8879  141.4545  155.3940 C   0  0  0  0  0  0  0  0  0  0  0  0
  150.5889  140.4786  156.0339 N   0  0  0  0  0  0  0  0  0  0  0  0
  150.7506  139.0562  155.7026 C   0  0  0  0  0  0  0  0  0  0  0  0
  149.9497  138.6385  154.4532 C   0  0  1  0  0  0  0  0  0  0  0  0
  150.6793  137.6561  153.7427 O   0  0  0  0  0  0  0  0  0  0  0  0
  148.5669  138.0655  154.8231 C   0  0  0  0  0  0  0  0  0  0  0  0
  147.6459  137.9976  153.6596 N   0  3  2  0  0  0  0  0  0  0  0  0
  147.3699  139.3142  153.0360 C   0  0  0  0  0  0  0  0  0  0  0  0
  146.5944  139.1238  151.7205 C   0  0  0  0  0  0  0  0  0  0  0  0
  145.5171  138.1429  151.8306 N   0  0  0  0  0  0  0  0  0  0  0  0
  145.3702  137.2563  152.8287 C   0  0  0  0  0  0  0  0  0  0  0  0
  144.4426  136.4514  152.8475 O   0  0  0  0  0  0  0  0  0  0  0  0
  146.3939  137.2627  153.9746 C   0  0  0  0  0  0  0  0  0  0  0  0
  151.2194  141.0015  157.1681 C   0  0  0  0  0  0  0  0  0  0  0  0
  152.0392  140.4321  158.1393 C   0  0  0  0  0  0  0  0  0  0  0  0
  152.5069  141.2794  159.1693 C   0  0  0  0  0  0  0  0  0  0  0  0
  153.4045  140.6877  160.2429 C   0  0  0  0  0  0  0  0  0  0  0  0
  152.2524  144.5620  160.2316 H   0  0  0  0  0  0  0  0  0  0  0  0
  153.7446  143.6261  160.2849 H   0  0  0  0  0  0  0  0  0  0  0  0
  152.3659  143.1619  161.2937 H   0  0  0  0  0  0  0  0  0  0  0  0
  151.0409  144.2580  158.2322 H   0  0  0  0  0  0  0  0  0  0  0  0
  149.3057  141.3369  154.4915 H   0  0  0  0  0  0  0  0  0  0  0  0
  151.8155  138.8739  155.5516 H   0  0  0  0  0  0  0  0  0  0  0  0
  150.4573  138.4652  156.5712 H   0  0  0  0  0  0  0  0  0  0  0  0
  149.8374  139.5069  153.8053 H   0  0  0  0  0  0  0  0  0  0  0  0
  150.0735  137.1269  153.2459 H   0  0  0  0  0  0  0  0  0  0  0  0
  148.7068  137.0656  155.2383 H   0  0  0  0  0  0  0  0  0  0  0  0
  148.1033  138.6593  155.6124 H   0  0  0  0  0  0  0  0  0  0  0  0
  146.7880  139.9234  153.7297 H   0  0  0  0  0  0  0  0  0  0  0  0
  148.2906  139.8602  152.8338 H   0  0  0  0  0  0  0  0  0  0  0  0
  146.1853  140.0748  151.3786 H   0  0  0  0  0  0  0  0  0  0  0  0
  147.2749  138.7776  150.9416 H   0  0  0  0  0  0  0  0  0  0  0  0
  144.8329  138.1315  151.0872 H   0  0  0  0  0  0  0  0  0  0  0  0
  146.6363  136.2317  154.2362 H   0  0  0  0  0  0  0  0  0  0  0  0
  145.9196  137.7124  154.8482 H   0  0  0  0  0  0  0  0  0  0  0  0
  152.3117  139.3877  158.1115 H   0  0  0  0  0  0  0  0  0  0  0  0
  153.6166  139.6353  160.0508 H   0  0  0  0  0  0  0  0  0  0  0  0
  152.9283  140.7584  161.2210 H   0  0  0  0  0  0  0  0  0  0  0  0
  154.3569  141.2169  160.2816 H   0  0  0  0  0  0  0  0  0  0  0  0
  148.1187  137.4442  152.9589 H   0  0  0  0  0  0  0  0  0  0  0  0
  149.6315  143.4927  155.8460 H   0  0  0  0  0  0  0  0  0  0  0  0
  1  2  1  0  0  0  0
  1 23  1  0  0  0  0
  1 24  1  0  0  0  0
  1 25  1  0  0  0  0
  2 21  1  0  0  0  0
  2  3  2  0  0  0  0
  3  4  1  0  0  0  0
  3 26  1  0  0  0  0
  4 19  2  0  0  0  0
  4  5  1  0  0  0  0
  5  6  2  0  0  0  0
  5 46  1  0  0  0  0
  6  7  1  0  0  0  0
  6 27  1  0  0  0  0
  7  8  1  0  0  0  0
  7 19  1  0  0  0  0
  8  9  1  0  0  0  0
  8 28  1  0  0  0  0
  8 29  1  0  0  0  0
  9 10  1  0  0  0  0
  9 11  1  0  0  0  0
  9 30  1  0  0  0  0
 10 31  1  0  0  0  0
 11 12  1  0  0  0  0
 11 32  1  0  0  0  0
 11 33  1  0  0  0  0
 12 18  1  0  0  0  0
 12 13  1  0  0  0  0
 12 45  1  0  0  0  0
 13 14  1  0  0  0  0
 13 34  1  0  0  0  0
 13 35  1  0  0  0  0
 14 15  1  0  0  0  0
 14 36  1  0  0  0  0
 14 37  1  0  0  0  0
 15 16  1  0  0  0  0
 15 38  1  0  0  0  0
 16 17  2  0  0  0  0
 16 18  1  0  0  0  0
 18 39  1  0  0  0  0
 18 40  1  0  0  0  0
 19 20  1  0  0  0  0
 20 21  2  0  0  0  0
 20 41  1  0  0  0  0
 21 22  1  0  0  0  0
 22 42  1  0  0  0  0
 22 43  1  0  0  0  0
 22 44  1  0  0  0  0
M  CHG  1   5   1
M  CHG  1  12   1
M  END
> <s_m_source_file>
AV-unprocessed.smi

> <i_m_source_file_index>
1056

> <i_lp_mmshare_version>
43012

> <i_f3d_flags>
0

> <s_epik_input>
W0NIM11jKFtjSF0xKWMoW0NIM10pW2NIXWMoYzEyKW4oW2NIXW4yKVtDSDJdW0NASF0oW09IXSlbQ0gyXU4zW0NIMl1bQ0gyXVtOSF1DKD1PKVtDSDJdMw==

> <s_epik_cmdline>
J2VwaWtfcHl0aG9uJywgJy1waCcsICc3LjAnLCAnLXRuJywgJzgnLCAnLW1hJywgJzIwMCcsICctbWV0YWxfYmluZGluZycsICctaW1hZScsICc8aW5maWxlLm1hZT4nLCAnLW9tYWUnLCAnPG91dGZpbGUubWFlPic=

> <r_epik_Ionization_Penalty>
1.262

> <r_epik_Ionization_Penalty_Charging>
1.26188

> <r_epik_Ionization_Penalty_Neutral>
0.000125436

> <r_epik_State_Penalty>
1.3387

> <r_epik_Charging_Adjusted_Penalty>
2.60058

> <i_epik_Tot_Q>
2

> <i_epik_Tot_abs_Q>
2

> <r_epik_Metal_State_Penalty>
1.58938

> <b_epik_Metal_Only>
0

> <s_lp_Force_Field>
OPLS_2005

> <r_lp_Energy>
34.6646

> <b_lp_Chiralities_Consistent>
1

> <s_lp_Variant>
AV-unprocessed.smi:1056-6

> <Gold.Version>
5.8.1

> <Gold.Id.Protein>
6NUR|6NUR_protein|mol2

> <Gold.PLP.Fitness>
60.0362

> <Gold.PLP.PLP>
-43.6395

> <Gold.PLP.part.hbond>
-5.7762

> <Gold.PLP.part.metal>
0.0000

> <Gold.PLP.part.buried>
-2.6181

> <Gold.PLP.part.nonpolar>
-36.1169

> <Gold.PLP.part.repulsive>
0.3303

> <Gold.PLP.ligand.clash>
0.0000

> <Gold.PLP.ligand.torsion>
0.5957

> <Gold.PLP.Chemscore.Hbond>
5.8500

> <Gold.PLP.Chemscore.CHOScore>
0.0000

> <Gold.PLP.Chemscore.Metal>
0.0000

> <Gold.Chemscore.Hbonds>
donor molecule, donor type, donor heavy atom, donor atom, acceptor molecule, acceptor atom, score
      L1  H     5    46       P1  8028  1.59
      L1  H    10    31       P1  7948  0.85
      L1  H    12    45       P1  7948  2.00
      L1  H    15    38       P1 10171  1.00

> <Gold.PLP.Chemscore.Internal.Correction>
0.0380

> <Gold.Rescore>
     Score         DG    S(hbond)    S(metal)    S(lipo)     H(rot)  DE(clash)    DE(int)     intcor
     21.98     -22.65       3.30        0.00     105.75       2.44       0.06       0.61       ----

> <Gold.Chemscore.Fitness>
21.9834

> <Gold.Chemscore.DG>
-22.6489

> <Gold.Chemscore.ZeroCoef>
-5.4800

> <Gold.Chemscore.Hbond>
3.3030

> <Gold.Chemscore.Metal>
0.0000

> <Gold.Chemscore.Lipo>
105.7458

> <Gold.Chemscore.Internal_Hbond>
0.0000

> <Gold.Chemscore.DEClash>
0.0571

> <Gold.Chemscore.DEInternal>
0.6085

> <Gold.Chemscore.Rot>
2.4357

> <Gold.Chemscore.Internal.Correction>
   9.000000E+99

> <Gold.Chemscore.Hbonds>
donor molecule, donor type, donor heavy atom, donor atom, acceptor molecule, acceptor atom, score
      L1  H     5    46       P1  8028  0.79
      L1  H    10    31       P1  7948  0.15
      L1  H    12    45       P1  7948  1.00
      L1  H    15    38       P1 10171  1.00

> <Gold.Chemscore.Hbond.Weighted>
-11.0320

> <Gold.Chemscore.Metal.Weighted>
-0.0000

> <Gold.Chemscore.Lipo.Weighted>
-12.3723

> <Gold.Chemscore.Internal_Hbond.Weighted>
0.0000

> <Gold.Chemscore.DEClash.Weighted>
0.0571

> <Gold.Chemscore.DEInternal.Weighted>
0.6085

> <Gold.Chemscore.Rot.Weighted>
6.2353

> <Gold.Chemscore.Internal.Correction.Weighted>
   9.000000E+99

> <Gold.Protein.RotatedTorsions>
[ 6907 6896 6895 6894 ] final  -58.22 input  -60.11 | X-H torsion
[ 7974 7965 7964 7962 ] final   75.16 input  175.53 | X-H torsion
[ 8008 7997 7996 7995 ] final -114.24 input   59.86 | X-H torsion
[ 10167 10162 10161 10158 ] final -166.06 input  -65.29 | X-H torsion
[ 10718 10713 10712 10709 ] final   84.93 input   66.30 | X-H torsion
[ 10763 10752 10751 10750 ] final   43.80 input  -60.55 | X-H torsion
[ 11005 11000 10999 10996 ] final  149.63 input  -57.11 | X-H torsion

> <Gold.Protein.ActiveResidues>
 VAL166  LYS551  ARG553  GLY616  TRP617  ASP618  TYR619  PRO620  LYS621  CYS622 
 ASP623  PHE694  ASN695  SER759  ASP760  ASP761  ALA762  ILE779  LEU786  VAL792 
 PHE793  MET794  SER795  GLU796  ALA797  LYS798  CYS799  TRP800  GLU811  SER814 

> <Gold.Protein.RotatedAtoms>
  150.8024  134.7126  159.6611 H   0  0  0  0  0  0  0  0  0  0  0  0  # atno 6907 bound_to 6896
  152.4141  134.6069  160.0025 H   0  0  0  0  0  0  0  0  0  0  0  0  # atno 6908 bound_to 6896
  151.6303  133.3295  159.3143 H   0  0  0  0  0  0  0  0  0  0  0  0  # atno 6909 bound_to 6896
  145.7191  139.2642  143.1606 H   0  0  0  0  0  0  0  0  0  0  0  0  # atno 7974 bound_to 7965
  155.0333  140.0393  157.2482 H   0  0  0  0  0  0  0  0  0  0  0  0  # atno 8008 bound_to 7997
  154.7278  140.2724  155.6459 H   0  0  0  0  0  0  0  0  0  0  0  0  # atno 8009 bound_to 7997
  156.2834  140.2690  156.1969 H   0  0  0  0  0  0  0  0  0  0  0  0  # atno 8010 bound_to 7997
  139.6140  144.0757  152.1870 H   0  0  0  0  0  0  0  0  0  0  0  0  # atno 10167 bound_to 10162
  157.6906  131.0154  150.2746 H   0  0  0  0  0  0  0  0  0  0  0  0  # atno 10718 bound_to 10713
  152.9853  135.6090  154.3171 H   0  0  0  0  0  0  0  0  0  0  0  0  # atno 10763 bound_to 10752
  154.2883  135.2775  155.2668 H   0  0  0  0  0  0  0  0  0  0  0  0  # atno 10764 bound_to 10752
  154.4975  135.5875  153.6562 H   0  0  0  0  0  0  0  0  0  0  0  0  # atno 10765 bound_to 10752
  140.1061  134.8953  157.1868 H   0  0  0  0  0  0  0  0  0  0  0  0  # atno 11005 bound_to 11000
  146.0642  140.7938  142.9720 LP  0  0  0  0  0  0  0  0  0  0  0  0  # atno 17320 bound_to 7965
  144.6921  140.3243  143.7227 LP  0  0  0  0  0  0  0  0  0  0  0  0  # atno 17321 bound_to 7965
  140.0382  144.6028  150.7432 LP  0  0  0  0  0  0  0  0  0  0  0  0  # atno 17342 bound_to 10162
  140.7338  143.2722  151.3853 LP  0  0  0  0  0  0  0  0  0  0  0  0  # atno 17343 bound_to 10162
  156.3303  130.3799  149.7497 LP  0  0  0  0  0  0  0  0  0  0  0  0  # atno 17370 bound_to 10713
  156.5039  130.8141  151.3143 LP  0  0  0  0  0  0  0  0  0  0  0  0  # atno 17371 bound_to 10713
  140.3154  134.2977  155.7257 LP  0  0  0  0  0  0  0  0  0  0  0  0  # atno 17394 bound_to 11000
  141.2118  133.7676  156.9835 LP  0  0  0  0  0  0  0  0  0  0  0  0  # atno 17395 bound_to 11000

$$$$
