AV-unprocessed.smi:1486|AV-procd|sdf|6005|dock3
  -GOLD-   22720 6103D 1   1.00000     0.00000
 Structure written by MMmdl.
 39 40  0  0  0  0  0  0  0  0  1 V2000
  151.6966  131.9560  156.8196 C   0  0  0  0  0  0  0  0  0  0  0  0
  150.5697  132.7470  156.4881 O   0  0  0  0  0  0  0  0  0  0  0  0
  150.9271  133.9974  155.9208 C   0  0  0  0  0  0  0  0  0  0  0  0
  149.6712  134.6925  155.3671 C   0  0  2  0  0  0  0  0  0  0  0  0
  148.9156  133.7912  154.3814 C   0  0  0  0  0  0  0  0  0  0  0  0
  150.0513  135.9287  154.6895 N   0  0  0  0  0  0  0  0  0  0  0  0
  150.8607  136.8788  155.1850 C   0  0  0  0  0  0  0  0  0  0  0  0
  151.3131  136.8625  156.3296 O   0  0  0  0  0  0  0  0  0  0  0  0
  151.2360  138.0134  154.2311 C   0  0  0  0  0  0  0  0  0  0  0  0
  150.8332  139.3315  154.8273 C   0  0  0  0  0  0  0  0  0  0  0  0
  149.8172  140.1521  154.4015 C   0  0  0  0  0  0  0  0  0  0  0  0
  149.6647  141.5736  155.3969 S   0  0  0  0  0  0  0  0  0  0  0  0
  151.0188  140.9949  156.3724 C   0  0  0  0  0  0  0  0  0  0  0  0
  151.5834  141.6463  157.5095 N   0  0  0  0  0  0  0  0  0  0  0  0
  151.2232  143.0150  157.8678 C   0  0  0  0  0  0  0  0  0  0  0  0
  151.8578  143.2734  159.2386 C   0  0  0  0  0  0  0  0  0  0  0  0
  152.8701  142.1468  159.4345 C   0  0  0  0  0  0  0  0  0  0  0  0
  152.5035  141.1445  158.3523 C   0  0  0  0  0  0  0  0  0  0  0  0
  153.0241  140.0310  158.3056 O   0  0  0  0  0  0  0  0  0  0  0  0
  151.5131  139.8282  155.9448 N   0  0  0  0  0  0  0  0  0  0  0  0
  151.3661  131.0062  157.2399 H   0  0  0  0  0  0  0  0  0  0  0  0
  152.3207  132.4530  157.5632 H   0  0  0  0  0  0  0  0  0  0  0  0
  152.3024  131.7426  155.9382 H   0  0  0  0  0  0  0  0  0  0  0  0
  151.4096  134.6301  156.6682 H   0  0  0  0  0  0  0  0  0  0  0  0
  151.6482  133.8336  155.1184 H   0  0  0  0  0  0  0  0  0  0  0  0
  148.9965  134.9103  156.1970 H   0  0  0  0  0  0  0  0  0  0  0  0
  148.6000  132.8645  154.8612 H   0  0  0  0  0  0  0  0  0  0  0  0
  149.5380  133.5274  153.5256 H   0  0  0  0  0  0  0  0  0  0  0  0
  148.0205  134.2861  154.0031 H   0  0  0  0  0  0  0  0  0  0  0  0
  149.7317  136.0379  153.7379 H   0  0  0  0  0  0  0  0  0  0  0  0
  152.3088  137.9805  154.0360 H   0  0  0  0  0  0  0  0  0  0  0  0
  150.7415  137.8599  153.2710 H   0  0  0  0  0  0  0  0  0  0  0  0
  149.1440  139.9998  153.5708 H   0  0  0  0  0  0  0  0  0  0  0  0
  151.6265  143.6993  157.1198 H   0  0  0  0  0  0  0  0  0  0  0  0
  150.1411  143.1493  157.9028 H   0  0  0  0  0  0  0  0  0  0  0  0
  152.3240  144.2579  159.2902 H   0  0  0  0  0  0  0  0  0  0  0  0
  151.0969  143.2282  160.0192 H   0  0  0  0  0  0  0  0  0  0  0  0
  153.8902  142.4964  159.2729 H   0  0  0  0  0  0  0  0  0  0  0  0
  152.8049  141.7026  160.4284 H   0  0  0  0  0  0  0  0  0  0  0  0
  1  2  1  0  0  0  0
  1 21  1  0  0  0  0
  1 22  1  0  0  0  0
  1 23  1  0  0  0  0
  2  3  1  0  0  0  0
  3  4  1  0  0  0  0
  3 24  1  0  0  0  0
  3 25  1  0  0  0  0
  4  5  1  0  0  0  0
  4  6  1  0  0  0  0
  4 26  1  0  0  0  0
  5 27  1  0  0  0  0
  5 28  1  0  0  0  0
  5 29  1  0  0  0  0
  6  7  1  0  0  0  0
  6 30  1  0  0  0  0
  7  8  2  0  0  0  0
  7  9  1  0  0  0  0
  9 10  1  0  0  0  0
  9 31  1  0  0  0  0
  9 32  1  0  0  0  0
 10 20  1  0  0  0  0
 10 11  2  0  0  0  0
 11 12  1  0  0  0  0
 11 33  1  0  0  0  0
 12 13  1  0  0  0  0
 13 14  1  0  0  0  0
 13 20  2  0  0  0  0
 14 18  1  0  0  0  0
 14 15  1  0  0  0  0
 15 16  1  0  0  0  0
 15 34  1  0  0  0  0
 15 35  1  0  0  0  0
 16 17  1  0  0  0  0
 16 36  1  0  0  0  0
 16 37  1  0  0  0  0
 17 18  1  0  0  0  0
 17 38  1  0  0  0  0
 17 39  1  0  0  0  0
 18 19  2  0  0  0  0
M  END
> <s_m_source_file>
AV-unprocessed.smi

> <i_m_source_file_index>
1486

> <i_lp_mmshare_version>
43012

> <i_f3d_flags>
0

> <s_epik_input>
W0NIM11PW0NIMl1bQ0BIXShbQ0gzXSlbTkhdQyg9TylbQ0gyXWMxW2NIXXNjKG4xKU4yW0NIMl1bQ0gyXVtDSDJdQzI9Tw==

> <s_epik_cmdline>
J2VwaWtfcHl0aG9uJywgJy1waCcsICc3LjAnLCAnLXRuJywgJzgnLCAnLW1hJywgJzIwMCcsICctbWV0YWxfYmluZGluZycsICctaW1hZScsICc8aW5maWxlLm1hZT4nLCAnLW9tYWUnLCAnPG91dGZpbGUubWFlPic=

> <r_lp_tautomer_probability>
1

> <r_epik_Ionization_Penalty>
3.00988e-05

> <r_epik_Ionization_Penalty_Charging>
0

> <r_epik_Ionization_Penalty_Neutral>
3.00988e-05

> <r_epik_State_Penalty>
-0

> <r_epik_Charging_Adjusted_Penalty>
0

> <i_epik_Tot_Q>
0

> <i_epik_Tot_abs_Q>
0

> <r_epik_Metal_State_Penalty>
-0

> <b_epik_Metal_Only>
0

> <s_lp_Force_Field>
OPLS_2005

> <r_lp_Energy>
17.4933

> <b_lp_Chiralities_Consistent>
1

> <s_lp_Variant>
AV-unprocessed.smi:1486-1

> <Gold.Version>
5.8.1

> <Gold.Id.Protein>
6NUR|6NUR_protein|mol2

> <Gold.PLP.Fitness>
46.3121

> <Gold.PLP.PLP>
-37.8708

> <Gold.PLP.part.hbond>
-2.0000

> <Gold.PLP.part.metal>
0.0000

> <Gold.PLP.part.buried>
-2.8559

> <Gold.PLP.part.nonpolar>
-32.0266

> <Gold.PLP.part.repulsive>
0.0612

> <Gold.PLP.ligand.clash>
0.0000

> <Gold.PLP.ligand.torsion>
0.2693

> <Gold.PLP.Chemscore.Hbond>
2.0000

> <Gold.PLP.Chemscore.CHOScore>
0.9840

> <Gold.PLP.Chemscore.Metal>
0.0000

> <Gold.Chemscore.Hbonds>
donor molecule, donor type, donor heavy atom, donor atom, acceptor molecule, acceptor atom, score
      L1  H     6    30       P1  7948  1.00
      P1  H  7997  8010       L1    19  1.00
      L1  C    11    33       P1  7957  0.99

> <Gold.PLP.Chemscore.Internal.Correction>
0.0278

> <Gold.Rescore>
     Score         DG    S(hbond)    S(metal)    S(lipo)     H(rot)  DE(clash)    DE(int)     intcor
     12.90     -16.02       1.81        0.00      80.69       1.94       0.03       3.08       ----

> <Gold.Chemscore.Fitness>
12.9046

> <Gold.Chemscore.DG>
-16.0224

> <Gold.Chemscore.ZeroCoef>
-5.4800

> <Gold.Chemscore.Hbond>
1.8146

> <Gold.Chemscore.Metal>
0.0000

> <Gold.Chemscore.Lipo>
80.6923

> <Gold.Chemscore.Internal_Hbond>
0.0000

> <Gold.Chemscore.DEClash>
0.0333

> <Gold.Chemscore.DEInternal>
3.0844

> <Gold.Chemscore.Rot>
1.9373

> <Gold.Chemscore.Internal.Correction>
   9.000000E+99

> <Gold.Chemscore.Hbonds>
donor molecule, donor type, donor heavy atom, donor atom, acceptor molecule, acceptor atom, score
      L1  H     6    30       P1  7948  0.25
      P1  H  7997  8010       L1    19  0.68

> <Gold.Chemscore.Hbond.Weighted>
-6.0608

> <Gold.Chemscore.Metal.Weighted>
-0.0000

> <Gold.Chemscore.Lipo.Weighted>
-9.4410

> <Gold.Chemscore.Internal_Hbond.Weighted>
0.0000

> <Gold.Chemscore.DEClash.Weighted>
0.0333

> <Gold.Chemscore.DEInternal.Weighted>
3.0844

> <Gold.Chemscore.Rot.Weighted>
4.9594

> <Gold.Chemscore.Internal.Correction.Weighted>
   9.000000E+99

> <Gold.Protein.RotatedTorsions>
[ 6907 6896 6895 6894 ] final   15.41 input  -60.11 | X-H torsion
[ 7974 7965 7964 7962 ] final -172.70 input  175.53 | X-H torsion
[ 8008 7997 7996 7995 ] final   34.30 input   59.86 | X-H torsion
[ 10167 10162 10161 10158 ] final  -82.12 input  -65.29 | X-H torsion
[ 10718 10713 10712 10709 ] final   19.92 input   66.30 | X-H torsion
[ 10763 10752 10751 10750 ] final    1.38 input  -60.55 | X-H torsion
[ 11005 11000 10999 10996 ] final  109.39 input  -57.11 | X-H torsion

> <Gold.Protein.ActiveResidues>
 VAL166  LYS551  ARG553  GLY616  TRP617  ASP618  TYR619  PRO620  LYS621  CYS622 
 ASP623  PHE694  ASN695  SER759  ASP760  ASP761  ALA762  ILE779  LEU786  VAL792 
 PHE793  MET794  SER795  GLU796  ALA797  LYS798  CYS799  TRP800  GLU811  SER814 

> <Gold.Protein.RotatedAtoms>
  151.8176  135.0661  160.0420 H   0  0  0  0  0  0  0  0  0  0  0  0  # atno 6907 bound_to 6896
  152.2974  133.5617  159.5605 H   0  0  0  0  0  0  0  0  0  0  0  0  # atno 6908 bound_to 6896
  150.7257  134.0257  159.3758 H   0  0  0  0  0  0  0  0  0  0  0  0  # atno 6909 bound_to 6896
  144.7144  140.1733  143.6365 H   0  0  0  0  0  0  0  0  0  0  0  0  # atno 7974 bound_to 7965
  155.1525  140.3276  155.4428 H   0  0  0  0  0  0  0  0  0  0  0  0  # atno 8008 bound_to 7997
  156.2569  140.1974  156.6587 H   0  0  0  0  0  0  0  0  0  0  0  0  # atno 8009 bound_to 7997
  154.6463  140.0564  156.9890 H   0  0  0  0  0  0  0  0  0  0  0  0  # atno 8010 bound_to 7997
  140.4349  143.2535  151.8707 H   0  0  0  0  0  0  0  0  0  0  0  0  # atno 10167 bound_to 10162
  157.1172  130.6534  149.5914 H   0  0  0  0  0  0  0  0  0  0  0  0  # atno 10718 bound_to 10713
  153.3088  135.6961  153.7135 H   0  0  0  0  0  0  0  0  0  0  0  0  # atno 10763 bound_to 10752
  153.6020  135.3460  155.2949 H   0  0  0  0  0  0  0  0  0  0  0  0  # atno 10764 bound_to 10752
  154.8570  135.4343  154.2220 H   0  0  0  0  0  0  0  0  0  0  0  0  # atno 10765 bound_to 10752
  139.8861  134.9457  156.6118 H   0  0  0  0  0  0  0  0  0  0  0  0  # atno 11005 bound_to 11000
  145.8924  139.2383  143.1542 LP  0  0  0  0  0  0  0  0  0  0  0  0  # atno 17320 bound_to 7965
  145.9890  140.8618  143.0076 LP  0  0  0  0  0  0  0  0  0  0  0  0  # atno 17321 bound_to 7965
  139.4786  144.5293  151.8689 LP  0  0  0  0  0  0  0  0  0  0  0  0  # atno 17342 bound_to 10162
  140.4384  144.2019  150.5890 LP  0  0  0  0  0  0  0  0  0  0  0  0  # atno 17343 bound_to 10162
  155.9836  130.4857  150.6944 LP  0  0  0  0  0  0  0  0  0  0  0  0  # atno 17370 bound_to 10713
  157.4508  131.0872  151.0848 LP  0  0  0  0  0  0  0  0  0  0  0  0  # atno 17371 bound_to 10713
  140.7806  133.8663  155.8564 LP  0  0  0  0  0  0  0  0  0  0  0  0  # atno 17394 bound_to 11000
  140.9764  134.1464  157.4533 LP  0  0  0  0  0  0  0  0  0  0  0  0  # atno 17395 bound_to 11000

$$$$
