AV-unprocessed.smi:2382|AV-procd|sdf|9458|dock1
  -GOLD-   2272013 83D 1   1.00000     0.00000
 Structure written by MMmdl.
 37 38  0  0  0  0  0  0  0  0  1 V2000
  153.8133  140.1266  159.7101 C   0  0  0  0  0  0  0  0  0  0  0  0
  153.3722  141.4050  160.3634 C   0  0  0  0  0  0  0  0  0  0  0  0
  153.7129  141.6411  161.6196 N   0  0  0  0  0  0  0  0  0  0  0  0
  153.1754  142.8452  161.9018 N   0  0  0  0  0  0  0  0  0  0  0  0
  153.3636  143.4164  163.2212 C   0  0  0  0  0  0  0  0  0  0  0  0
  152.4955  143.3717  160.8203 C   0  0  0  0  0  0  0  0  0  0  0  0
  151.8138  144.7009  160.8730 C   0  0  0  0  0  0  0  0  0  0  0  0
  152.5954  142.4612  159.8033 C   0  0  0  0  0  0  0  0  0  0  0  0
  152.0310  142.5427  158.4108 C   0  0  0  0  0  0  0  0  0  0  0  0
  151.3225  141.2367  158.0185 C   0  0  0  0  0  0  0  0  0  0  0  0
  150.1274  141.4922  157.2247 N   0  0  0  0  0  0  0  0  0  0  0  0
  149.9478  141.0982  155.9543 C   0  0  0  0  0  0  0  0  0  0  0  0
  150.7783  140.4556  155.3125 O   0  0  0  0  0  0  0  0  0  0  0  0
  148.7447  141.4352  155.4634 N   0  0  0  0  0  0  0  0  0  0  0  0
  148.0939  141.1820  154.1826 C   0  0  0  0  0  0  0  0  0  0  0  0
  146.8908  141.9312  154.7531 C   0  0  0  0  0  0  0  0  0  0  0  0
  147.5152  141.8177  156.1432 C   0  0  0  0  0  0  0  0  0  0  0  0
  153.9243  140.2512  158.6328 H   0  0  0  0  0  0  0  0  0  0  0  0
  153.0863  139.3324  159.8790 H   0  0  0  0  0  0  0  0  0  0  0  0
  154.7733  139.7884  160.1012 H   0  0  0  0  0  0  0  0  0  0  0  0
  152.4017  143.7296  163.6273 H   0  0  0  0  0  0  0  0  0  0  0  0
  154.0214  144.2829  163.1529 H   0  0  0  0  0  0  0  0  0  0  0  0
  153.8093  142.6860  163.8976 H   0  0  0  0  0  0  0  0  0  0  0  0
  151.5816  145.0636  159.8717 H   0  0  0  0  0  0  0  0  0  0  0  0
  152.4452  145.4469  161.3559 H   0  0  0  0  0  0  0  0  0  0  0  0
  150.8803  144.6334  161.4314 H   0  0  0  0  0  0  0  0  0  0  0  0
  151.3311  143.3757  158.3341 H   0  0  0  0  0  0  0  0  0  0  0  0
  152.8186  142.7579  157.6877 H   0  0  0  0  0  0  0  0  0  0  0  0
  151.9936  140.6129  157.4272 H   0  0  0  0  0  0  0  0  0  0  0  0
  151.0638  140.6587  158.9074 H   0  0  0  0  0  0  0  0  0  0  0  0
  149.3808  142.0030  157.6727 H   0  0  0  0  0  0  0  0  0  0  0  0
  148.5552  141.6793  153.3286 H   0  0  0  0  0  0  0  0  0  0  0  0
  147.9021  140.1258  153.9886 H   0  0  0  0  0  0  0  0  0  0  0  0
  146.8270  142.9619  154.4005 H   0  0  0  0  0  0  0  0  0  0  0  0
  145.9408  141.4072  154.6426 H   0  0  0  0  0  0  0  0  0  0  0  0
  147.0863  141.0225  156.7546 H   0  0  0  0  0  0  0  0  0  0  0  0
  147.5672  142.7650  156.6810 H   0  0  0  0  0  0  0  0  0  0  0  0
  1  2  1  0  0  0  0
  1 18  1  0  0  0  0
  1 19  1  0  0  0  0
  1 20  1  0  0  0  0
  2  8  1  0  0  0  0
  2  3  2  0  0  0  0
  3  4  1  0  0  0  0
  4  5  1  0  0  0  0
  4  6  1  0  0  0  0
  5 21  1  0  0  0  0
  5 22  1  0  0  0  0
  5 23  1  0  0  0  0
  6  7  1  0  0  0  0
  6  8  2  0  0  0  0
  7 24  1  0  0  0  0
  7 25  1  0  0  0  0
  7 26  1  0  0  0  0
  8  9  1  0  0  0  0
  9 10  1  0  0  0  0
  9 27  1  0  0  0  0
  9 28  1  0  0  0  0
 10 11  1  0  0  0  0
 10 29  1  0  0  0  0
 10 30  1  0  0  0  0
 11 12  1  0  0  0  0
 11 31  1  0  0  0  0
 12 13  2  0  0  0  0
 12 14  1  0  0  0  0
 14 17  1  0  0  0  0
 14 15  1  0  0  0  0
 15 16  1  0  0  0  0
 15 32  1  0  0  0  0
 15 33  1  0  0  0  0
 16 17  1  0  0  0  0
 16 34  1  0  0  0  0
 16 35  1  0  0  0  0
 17 36  1  0  0  0  0
 17 37  1  0  0  0  0
M  END
> <s_m_source_file>
AV-unprocessed.smi

> <i_m_source_file_index>
2382

> <i_lp_mmshare_version>
43012

> <i_f3d_flags>
0

> <s_epik_input>
W0NIM11jMW5uKFtDSDNdKWMoW0NIM10pYzFbQ0gyXVtDSDJdW05IXUMoPU8pTjJbQ0gyXVtDSDJdW0NIMl0y

> <s_epik_cmdline>
J2VwaWtfcHl0aG9uJywgJy1waCcsICc3LjAnLCAnLXRuJywgJzgnLCAnLW1hJywgJzIwMCcsICctbWV0YWxfYmluZGluZycsICctaW1hZScsICc8aW5maWxlLm1hZT4nLCAnLW9tYWUnLCAnPG91dGZpbGUubWFlPic=

> <r_lp_tautomer_probability>
1

> <r_epik_Ionization_Penalty>
0.0127252

> <r_epik_Ionization_Penalty_Charging>
0

> <r_epik_Ionization_Penalty_Neutral>
0.0127252

> <r_epik_State_Penalty>
0.00981091

> <r_epik_Charging_Adjusted_Penalty>
0.00981091

> <i_epik_Tot_Q>
0

> <i_epik_Tot_abs_Q>
0

> <r_epik_Metal_State_Penalty>
0.00960532

> <b_epik_Metal_Only>
0

> <s_lp_Force_Field>
OPLS_2005

> <r_lp_Energy>
14.7801

> <b_lp_Chiralities_Consistent>
1

> <s_lp_Variant>
AV-unprocessed.smi:2382-1

> <Gold.Version>
5.8.1

> <Gold.Id.Protein>
6NUR|6NUR_protein|mol2

> <Gold.PLP.Fitness>
44.8206

> <Gold.PLP.PLP>
-42.6924

> <Gold.PLP.part.hbond>
-1.0000

> <Gold.PLP.part.metal>
0.0000

> <Gold.PLP.part.buried>
-3.1271

> <Gold.PLP.part.nonpolar>
-37.0950

> <Gold.PLP.part.repulsive>
0.0735

> <Gold.PLP.ligand.clash>
0.0000

> <Gold.PLP.ligand.torsion>
0.4913

> <Gold.PLP.Chemscore.Hbond>
1.0000

> <Gold.PLP.Chemscore.CHOScore>
0.0000

> <Gold.PLP.Chemscore.Metal>
0.0000

> <Gold.Chemscore.Hbonds>
donor molecule, donor type, donor heavy atom, donor atom, acceptor molecule, acceptor atom, score
      P1  H  7989  7998       L1    13  0.98

> <Gold.PLP.Chemscore.Internal.Correction>
0.1109

> <Gold.Rescore>
     Score         DG    S(hbond)    S(metal)    S(lipo)     H(rot)  DE(clash)    DE(int)     intcor
     15.81     -16.48       0.98        0.00      96.55       1.40       0.13       0.55       ----

> <Gold.Chemscore.Fitness>
15.8050

> <Gold.Chemscore.DG>
-16.4754

> <Gold.Chemscore.ZeroCoef>
-5.4800

> <Gold.Chemscore.Hbond>
0.9843

> <Gold.Chemscore.Metal>
0.0000

> <Gold.Chemscore.Lipo>
96.5546

> <Gold.Chemscore.Internal_Hbond>
0.0000

> <Gold.Chemscore.DEClash>
0.1252

> <Gold.Chemscore.DEInternal>
0.5452

> <Gold.Chemscore.Rot>
1.4020

> <Gold.Chemscore.Internal.Correction>
   9.000000E+99

> <Gold.Chemscore.Hbonds>
donor molecule, donor type, donor heavy atom, donor atom, acceptor molecule, acceptor atom, score
      P1  H  7989  7998       L1    13  0.86

> <Gold.Chemscore.Hbond.Weighted>
-3.2875

> <Gold.Chemscore.Metal.Weighted>
-0.0000

> <Gold.Chemscore.Lipo.Weighted>
-11.2969

> <Gold.Chemscore.Internal_Hbond.Weighted>
0.0000

> <Gold.Chemscore.DEClash.Weighted>
0.1252

> <Gold.Chemscore.DEInternal.Weighted>
0.5452

> <Gold.Chemscore.Rot.Weighted>
3.5890

> <Gold.Chemscore.Internal.Correction.Weighted>
   9.000000E+99

> <Gold.Protein.RotatedTorsions>
[ 6907 6896 6895 6894 ] final  -77.91 input  -60.11 | X-H torsion
[ 7974 7965 7964 7962 ] final -149.99 input  175.53 | X-H torsion
[ 8008 7997 7996 7995 ] final   -4.85 input   59.86 | X-H torsion
[ 10167 10162 10161 10158 ] final  -70.43 input  -65.29 | X-H torsion
[ 10718 10713 10712 10709 ] final  126.13 input   66.30 | X-H torsion
[ 10763 10752 10751 10750 ] final -177.43 input  -60.55 | X-H torsion
[ 11005 11000 10999 10996 ] final   97.44 input  -57.11 | X-H torsion

> <Gold.Protein.ActiveResidues>
 VAL166  LYS551  ARG553  GLY616  TRP617  ASP618  TYR619  PRO620  LYS621  CYS622 
 ASP623  PHE694  ASN695  SER759  ASP760  ASP761  ALA762  ILE779  LEU786  VAL792 
 PHE793  MET794  SER795  GLU796  ALA797  LYS798  CYS799  TRP800  GLU811  SER814 

> <Gold.Protein.RotatedAtoms>
  150.6986  134.4352  159.5266 H   0  0  0  0  0  0  0  0  0  0  0  0  # atno 6907 bound_to 6896
  152.2072  134.8532  160.0510 H   0  0  0  0  0  0  0  0  0  0  0  0  # atno 6908 bound_to 6896
  151.9431  133.3608  159.4009 H   0  0  0  0  0  0  0  0  0  0  0  0  # atno 6909 bound_to 6896
  144.7934  140.4992  143.5757 H   0  0  0  0  0  0  0  0  0  0  0  0  # atno 7974 bound_to 7965
  154.6100  140.2473  155.7682 H   0  0  0  0  0  0  0  0  0  0  0  0  # atno 8008 bound_to 7997
  156.2364  140.2948  156.0275 H   0  0  0  0  0  0  0  0  0  0  0  0  # atno 8009 bound_to 7997
  155.2069  140.0396  157.2917 H   0  0  0  0  0  0  0  0  0  0  0  0  # atno 8010 bound_to 7997
  140.5353  143.2318  151.7188 H   0  0  0  0  0  0  0  0  0  0  0  0  # atno 10167 bound_to 10162
  157.5445  131.1096  150.8804 H   0  0  0  0  0  0  0  0  0  0  0  0  # atno 10718 bound_to 10713
  154.5602  135.2819  155.0926 H   0  0  0  0  0  0  0  0  0  0  0  0  # atno 10763 bound_to 10752
  154.2338  135.6369  153.5188 H   0  0  0  0  0  0  0  0  0  0  0  0  # atno 10764 bound_to 10752
  153.0027  135.5543  154.6194 H   0  0  0  0  0  0  0  0  0  0  0  0  # atno 10765 bound_to 10752
  139.8776  134.9001  156.4307 H   0  0  0  0  0  0  0  0  0  0  0  0  # atno 11005 bound_to 11000
  145.5735  139.1485  143.3275 LP  0  0  0  0  0  0  0  0  0  0  0  0  # atno 17320 bound_to 7965
  146.2194  140.5867  142.9024 LP  0  0  0  0  0  0  0  0  0  0  0  0  # atno 17321 bound_to 7965
  139.4968  144.4052  152.0139 LP  0  0  0  0  0  0  0  0  0  0  0  0  # atno 17342 bound_to 10162
  140.3157  144.3486  150.6022 LP  0  0  0  0  0  0  0  0  0  0  0  0  # atno 17343 bound_to 10162
  156.9347  130.5363  149.5279 LP  0  0  0  0  0  0  0  0  0  0  0  0  # atno 17370 bound_to 10713
  156.0524  130.5591  150.9018 LP  0  0  0  0  0  0  0  0  0  0  0  0  # atno 17371 bound_to 10713
  140.9068  133.7740  155.9745 LP  0  0  0  0  0  0  0  0  0  0  0  0  # atno 17394 bound_to 11000
  140.8590  134.2863  157.5243 LP  0  0  0  0  0  0  0  0  0  0  0  0  # atno 17395 bound_to 11000

$$$$
