AV-unprocessed.smi:34|AV-procd|sdf|232|dock5
  -GOLD-   2262015563D 1   1.00000     0.00000
 Structure written by MMmdl.
 54 58  0  0  0  0  0  0  0  0  2 V2000
  152.0214  140.2014  156.7628 O   0  0  0  0  0  0  0  0  0  0  0  0
  151.1912  141.1107  156.8253 C   0  0  0  0  0  0  0  0  0  0  0  0
  150.0526  141.2501  156.0997 N   0  5  0  0  0  0  0  0  0  0  0  0
  149.6378  140.2516  155.3050 C   0  0  0  0  0  0  0  0  0  0  0  0
  149.4361  140.4691  153.9804 N   0  0  0  0  0  0  0  0  0  0  0  0
  149.0162  139.4754  153.1889 C   0  0  0  0  0  0  0  0  0  0  0  0
  148.7363  138.2092  153.5099 N   0  0  0  0  0  0  0  0  0  0  0  0
  148.9263  137.9767  154.8408 C   0  0  0  0  0  0  0  0  0  0  0  0
  149.3687  138.9424  155.7918 C   0  0  0  0  0  0  0  0  0  0  0  0
  149.4556  138.3831  157.0582 N   0  0  0  0  0  0  0  0  0  0  0  0
  149.0747  137.1296  156.8247 C   0  0  0  0  0  0  0  0  0  0  0  0
  148.7500  136.8022  155.5583 N   0  0  0  0  0  0  0  0  0  0  0  0
  148.3030  135.4595  155.0677 C   0  0  1  0  0  0  0  0  0  0  0  0
  148.4047  134.5187  156.0970 O   0  0  0  0  0  0  0  0  0  0  0  0
  147.2572  133.6642  156.1307 C   0  0  1  0  0  0  0  0  0  0  0  0
  146.4584  133.9532  157.4118 C   0  0  0  0  0  0  0  0  0  0  0  0
  145.4998  132.9249  157.6009 O   0  0  0  0  0  0  0  0  0  0  0  0
  145.4605  132.2429  158.7620 C   0  0  0  0  0  0  0  0  0  0  0  0
  146.4326  132.1063  159.5078 O   0  0  0  0  0  0  0  0  0  0  0  0
  144.1158  131.6659  159.0496 C   0  0  0  0  0  0  0  0  0  0  0  0
  143.9275  130.8983  160.2226 C   0  0  0  0  0  0  0  0  0  0  0  0
  142.6699  130.3369  160.5181 C   0  0  0  0  0  0  0  0  0  0  0  0
  141.5860  130.5347  159.6431 C   0  0  0  0  0  0  0  0  0  0  0  0
  141.7606  131.2957  158.4725 C   0  0  0  0  0  0  0  0  0  0  0  0
  143.0172  131.8589  158.1759 C   0  0  0  0  0  0  0  0  0  0  0  0
  146.4990  133.9974  154.8413 C   0  0  1  0  0  0  0  0  0  0  0  0
  145.1866  133.7588  154.8779 F   0  0  0  0  0  0  0  0  0  0  0  0
  146.8517  135.4479  154.5706 C   0  0  1  0  0  0  0  0  0  0  0  0
  146.0098  136.3533  155.2629 O   0  0  0  0  0  0  0  0  0  0  0  0
  151.4488  142.2650  157.7575 C   0  0  0  0  0  0  0  0  0  0  0  0
  152.4982  142.1823  158.7013 C   0  0  0  0  0  0  0  0  0  0  0  0
  152.7394  143.2402  159.5996 C   0  0  0  0  0  0  0  0  0  0  0  0
  151.9271  144.3889  159.5708 C   0  0  0  0  0  0  0  0  0  0  0  0
  150.8706  144.4774  158.6452 C   0  0  0  0  0  0  0  0  0  0  0  0
  150.6289  143.4202  157.7464 C   0  0  0  0  0  0  0  0  0  0  0  0
  148.8844  139.7311  152.1480 H   0  0  0  0  0  0  0  0  0  0  0  0
  149.0323  136.4033  157.6230 H   0  0  0  0  0  0  0  0  0  0  0  0
  149.0141  135.1973  154.2830 H   0  0  0  0  0  0  0  0  0  0  0  0
  147.5692  132.6192  156.1246 H   0  0  0  0  0  0  0  0  0  0  0  0
  147.1221  134.0230  158.2733 H   0  0  0  0  0  0  0  0  0  0  0  0
  145.9372  134.9072  157.3256 H   0  0  0  0  0  0  0  0  0  0  0  0
  144.7459  130.7313  160.9080 H   0  0  0  0  0  0  0  0  0  0  0  0
  142.5379  129.7531  161.4170 H   0  0  0  0  0  0  0  0  0  0  0  0
  140.6223  130.1027  159.8686 H   0  0  0  0  0  0  0  0  0  0  0  0
  140.9296  131.4476  157.7995 H   0  0  0  0  0  0  0  0  0  0  0  0
  143.1181  132.4348  157.2676 H   0  0  0  0  0  0  0  0  0  0  0  0
  146.8967  133.3828  154.0325 H   0  0  0  0  0  0  0  0  0  0  0  0
  146.8224  135.6883  153.5074 H   0  0  0  0  0  0  0  0  0  0  0  0
  145.3021  136.6060  154.6896 H   0  0  0  0  0  0  0  0  0  0  0  0
  153.1294  141.3063  158.7388 H   0  0  0  0  0  0  0  0  0  0  0  0
  153.5475  143.1686  160.3124 H   0  0  0  0  0  0  0  0  0  0  0  0
  152.1115  145.1996  160.2600 H   0  0  0  0  0  0  0  0  0  0  0  0
  150.2419  145.3552  158.6260 H   0  0  0  0  0  0  0  0  0  0  0  0
  149.8059  143.5046  157.0514 H   0  0  0  0  0  0  0  0  0  0  0  0
  1  2  2  0  0  0  0
  2  3  1  0  0  0  0
  2 30  1  0  0  0  0
  3  4  1  0  0  0  0
  4  9  1  0  0  0  0
  4  5  2  0  0  0  0
  5  6  1  0  0  0  0
  6  7  2  0  0  0  0
  6 36  1  0  0  0  0
  7  8  1  0  0  0  0
  8 12  1  0  0  0  0
  8  9  2  0  0  0  0
  9 10  1  0  0  0  0
 10 11  2  0  0  0  0
 11 12  1  0  0  0  0
 11 37  1  0  0  0  0
 12 13  1  0  0  0  0
 13 28  1  0  0  0  0
 13 14  1  0  0  0  0
 13 38  1  0  0  0  0
 14 15  1  0  0  0  0
 15 16  1  0  0  0  0
 15 26  1  0  0  0  0
 15 39  1  0  0  0  0
 16 17  1  0  0  0  0
 16 40  1  0  0  0  0
 16 41  1  0  0  0  0
 17 18  1  0  0  0  0
 18 19  2  0  0  0  0
 18 20  1  0  0  0  0
 20 25  1  0  0  0  0
 20 21  2  0  0  0  0
 21 22  1  0  0  0  0
 21 42  1  0  0  0  0
 22 23  2  0  0  0  0
 22 43  1  0  0  0  0
 23 24  1  0  0  0  0
 23 44  1  0  0  0  0
 24 25  2  0  0  0  0
 24 45  1  0  0  0  0
 25 46  1  0  0  0  0
 26 27  1  0  0  0  0
 26 28  1  0  0  0  0
 26 47  1  0  0  0  0
 28 29  1  0  0  0  0
 28 48  1  0  0  0  0
 29 49  1  0  0  0  0
 30 35  1  0  0  0  0
 30 31  2  0  0  0  0
 31 32  1  0  0  0  0
 31 50  1  0  0  0  0
 32 33  2  0  0  0  0
 32 51  1  0  0  0  0
 33 34  1  0  0  0  0
 33 52  1  0  0  0  0
 34 35  2  0  0  0  0
 34 53  1  0  0  0  0
 35 54  1  0  0  0  0
M  CHG  1   3  -1
M  END
> <s_m_source_file>
AV-unprocessed.smi

> <i_m_source_file_index>
34

> <i_lp_mmshare_version>
43012

> <i_f3d_flags>
0

> <s_epik_input>
W2NIXTFbY0hdW2NIXVtjSF1bY0hdYzFDKD1PKVtOSF1jKG5bY0hdbjIpYyhjMjMpbltjSF1uM1tDQEBIXTRPW0NASF0oW0NAQEhdKEYpW0NASF00W09IXSlbQ0gyXU9DKD1PKWM1W2NIXVtjSF1bY0hdW2NIXVtjSF01

> <s_epik_cmdline>
J2VwaWtfcHl0aG9uJywgJy1waCcsICc3LjAnLCAnLXRuJywgJzgnLCAnLW1hJywgJzIwMCcsICctbWV0YWxfYmluZGluZycsICctaW1hZScsICc8aW5maWxlLm1hZT4nLCAnLW9tYWUnLCAnPG91dGZpbGUubWFlPic=

> <r_lp_tautomer_probability>
1

> <r_epik_Ionization_Penalty>
4.33227

> <r_epik_Ionization_Penalty_Charging>
3.41027

> <r_epik_Ionization_Penalty_Neutral>
0.922001

> <r_epik_State_Penalty>
3.41358

> <r_epik_Charging_Adjusted_Penalty>
6.82385

> <i_epik_Tot_Q>
-1

> <i_epik_Tot_abs_Q>
1

> <r_epik_Metal_State_Penalty>
0.496292

> <b_epik_Metal_Only>
1

> <s_epik_Chemistry_Notes>
This compound has an ester and may undergo hydrolysis at high or low pH. This compound contains an acetal/aminal-like group ( X-CH(R)-Y where X, Y are N, S, or O) that may be acid/base labile, releasing an aldehyde.

> <s_lp_Force_Field>
OPLS_2005

> <r_lp_Energy>
54.2336

> <b_lp_Chiralities_Consistent>
1

> <s_lp_Variant>
AV-unprocessed.smi:34-18

> <Gold.Version>
5.8.1

> <Gold.Id.Protein>
6NUR|6NUR_protein|mol2

> <Gold.PLP.Fitness>
57.7403

> <Gold.PLP.PLP>
-45.9101

> <Gold.PLP.part.hbond>
-4.0000

> <Gold.PLP.part.metal>
0.0000

> <Gold.PLP.part.buried>
-7.6897

> <Gold.PLP.part.nonpolar>
-34.3682

> <Gold.PLP.part.repulsive>
0.2447

> <Gold.PLP.ligand.clash>
0.0000

> <Gold.PLP.ligand.torsion>
1.4837

> <Gold.PLP.Chemscore.Hbond>
3.8288

> <Gold.PLP.Chemscore.CHOScore>
0.8000

> <Gold.PLP.Chemscore.Metal>
0.0000

> <Gold.Chemscore.Hbonds>
donor molecule, donor type, donor heavy atom, donor atom, acceptor molecule, acceptor atom, score
      P1  H  7989  7998       L1     5  0.21

> <Gold.PLP.Chemscore.Internal.Correction>
0.9114

> <Gold.Rescore>
     Score         DG    S(hbond)    S(metal)    S(lipo)     H(rot)  DE(clash)    DE(int)     intcor
     17.19     -20.08       2.72        0.00     106.18       2.69       0.10       2.79       ----

> <Gold.Chemscore.Fitness>
17.1877

> <Gold.Chemscore.DG>
-20.0814

> <Gold.Chemscore.ZeroCoef>
-5.4800

> <Gold.Chemscore.Hbond>
2.7174

> <Gold.Chemscore.Metal>
0.0000

> <Gold.Chemscore.Lipo>
106.1787

> <Gold.Chemscore.Internal_Hbond>
0.0000

> <Gold.Chemscore.DEClash>
0.1021

> <Gold.Chemscore.DEInternal>
2.7916

> <Gold.Chemscore.Rot>
2.6944

> <Gold.Chemscore.Internal.Correction>
   9.000000E+99

> <Gold.Chemscore.Hbonds>
donor molecule, donor type, donor heavy atom, donor atom, acceptor molecule, acceptor atom, score
      P1  H  7989  7998       L1     5  0.02

> <Gold.Chemscore.Hbond.Weighted>
-9.0760

> <Gold.Chemscore.Metal.Weighted>
-0.0000

> <Gold.Chemscore.Lipo.Weighted>
-12.4229

> <Gold.Chemscore.Internal_Hbond.Weighted>
0.0000

> <Gold.Chemscore.DEClash.Weighted>
0.1021

> <Gold.Chemscore.DEInternal.Weighted>
2.7916

> <Gold.Chemscore.Rot.Weighted>
6.8975

> <Gold.Chemscore.Internal.Correction.Weighted>
   9.000000E+99

> <Gold.Protein.RotatedTorsions>
[ 6907 6896 6895 6894 ] final  124.38 input  -60.11 | X-H torsion
[ 7974 7965 7964 7962 ] final   93.19 input  175.53 | X-H torsion
[ 8008 7997 7996 7995 ] final  -88.11 input   59.86 | X-H torsion
[ 10167 10162 10161 10158 ] final   13.00 input  -65.29 | X-H torsion
[ 10718 10713 10712 10709 ] final  -78.85 input   66.30 | X-H torsion
[ 10763 10752 10751 10750 ] final   53.68 input  -60.55 | X-H torsion
[ 11005 11000 10999 10996 ] final  163.93 input  -57.11 | X-H torsion

> <Gold.Protein.ActiveResidues>
 VAL166  LYS551  ARG553  GLY616  TRP617  ASP618  TYR619  PRO620  LYS621  CYS622 
 ASP623  PHE694  ASN695  SER759  ASP760  ASP761  ALA762  ILE779  LEU786  VAL792 
 PHE793  MET794  SER795  GLU796  ALA797  LYS798  CYS799  TRP800  GLU811  SER814 

> <Gold.Protein.RotatedAtoms>
  152.4082  133.6922  159.6374 H   0  0  0  0  0  0  0  0  0  0  0  0  # atno 6907 bound_to 6896
  150.7965  133.8670  159.3257 H   0  0  0  0  0  0  0  0  0  0  0  0  # atno 6908 bound_to 6896
  151.6419  135.1013  160.0194 H   0  0  0  0  0  0  0  0  0  0  0  0  # atno 6909 bound_to 6896
  145.4823  139.2278  143.2876 H   0  0  0  0  0  0  0  0  0  0  0  0  # atno 7974 bound_to 7965
  154.6709  140.0557  157.0165 H   0  0  0  0  0  0  0  0  0  0  0  0  # atno 8008 bound_to 7997
  155.1089  140.3236  155.4508 H   0  0  0  0  0  0  0  0  0  0  0  0  # atno 8009 bound_to 7997
  156.2657  140.2018  156.6214 H   0  0  0  0  0  0  0  0  0  0  0  0  # atno 8010 bound_to 7997
  140.6031  143.8563  150.6986 H   0  0  0  0  0  0  0  0  0  0  0  0  # atno 10167 bound_to 10162
  156.0107  130.4529  150.3559 H   0  0  0  0  0  0  0  0  0  0  0  0  # atno 10718 bound_to 10713
  152.9797  135.5770  154.4781 H   0  0  0  0  0  0  0  0  0  0  0  0  # atno 10763 bound_to 10752
  154.4334  135.2774  155.1899 H   0  0  0  0  0  0  0  0  0  0  0  0  # atno 10764 bound_to 10752
  154.3598  135.6191  153.5738 H   0  0  0  0  0  0  0  0  0  0  0  0  # atno 10765 bound_to 10752
  140.2407  134.8053  157.3408 H   0  0  0  0  0  0  0  0  0  0  0  0  # atno 11005 bound_to 11000
  146.2334  140.5610  142.8965 LP  0  0  0  0  0  0  0  0  0  0  0  0  # atno 17320 bound_to 7965
  144.7882  140.5978  143.6559 LP  0  0  0  0  0  0  0  0  0  0  0  0  # atno 17321 bound_to 7965
  140.2114  143.3881  152.1715 LP  0  0  0  0  0  0  0  0  0  0  0  0  # atno 17342 bound_to 10162
  139.5305  144.7154  151.5072 LP  0  0  0  0  0  0  0  0  0  0  0  0  # atno 17343 bound_to 10162
  157.1649  131.0354  151.2823 LP  0  0  0  0  0  0  0  0  0  0  0  0  # atno 17370 bound_to 10713
  157.4279  130.7474  149.6966 LP  0  0  0  0  0  0  0  0  0  0  0  0  # atno 17371 bound_to 10713
  140.1656  134.4673  155.7865 LP  0  0  0  0  0  0  0  0  0  0  0  0  # atno 17394 bound_to 11000
  141.2210  133.6919  156.7619 LP  0  0  0  0  0  0  0  0  0  0  0  0  # atno 17395 bound_to 11000

$$$$
