#       Name:                AV-unprocessed.smi:34
#       Creating user name   scv26
#       Creation time:       Thu Mar 26 15:54:26 2020


#       File generated by GOLD software.
#

@<TRIPOS>MOLECULE
AV-unprocessed.smi:34
    66    70     1
SMALL
NO_CHARGES


@<TRIPOS>ATOM
      1 ****        -5.1914   2.5190   0.2828 O.2            1 S1                 0.0000
      2 ****        -5.5648   1.3803  -0.0001 C.2            1 S1                 0.0000
      3 ****        -4.6347   0.2729  -0.1365 N.am           1 S1                 0.0000
      4 ****        -3.2970   0.2723   0.0719 C.ar           1 S1                 0.0000
      5 ****        -2.6152   1.3889   0.4388 N.ar           1 S1                 0.0000
      6 ****        -1.2939   1.3377   0.6276 C.ar           1 S1                 0.0000
      7 ****        -0.4750   0.2915   0.5051 N.ar           1 S1                 0.0000
      8 ****        -1.1491  -0.8363   0.1384 C.ar           1 S1                 0.0000
      9 ****        -2.5508  -0.9237  -0.0948 C.ar           1 S1                 0.0000
     10 ****        -2.8891  -2.2218  -0.4521 N.2            1 S1                 0.0000
     11 ****        -1.7511  -2.8610  -0.4315 C.2            1 S1                 0.0000
     12 ****        -0.6506  -2.1052  -0.0918 N.pl3          1 S1                 0.0000
     13 ****         0.7707  -2.5788  -0.0029 C.3            1 S1                 0.0000
     14 ****         1.4332  -1.9079   1.0297 O.3            1 S1                 0.0000
     15 ****         2.5106  -1.1413   0.4984 C.3            1 S1                 0.0000
     16 ****         3.6297  -0.9747   1.5336 C.3            1 S1                 0.0000
     17 ****         4.6060  -0.0768   1.0303 O.3            1 S1                 0.0000
     18 ****         5.7733   0.0863   1.6831 C.2            1 S1                 0.0000
     19 ****         6.0639  -0.5121   2.7209 O.2            1 S1                 0.0000
     20 ****         6.6803   1.0650   1.0167 C.ar           1 S1                 0.0000
     21 ****         7.9694   1.2910   1.5533 C.ar           1 S1                 0.0000
     22 ****         8.8481   2.2097   0.9470 C.ar           1 S1                 0.0000
     23 ****         8.4481   2.9150  -0.2027 C.ar           1 S1                 0.0000
     24 ****         7.1682   2.6997  -0.7461 C.ar           1 S1                 0.0000
     25 ****         6.2885   1.7801  -0.1421 C.ar           1 S1                 0.0000
     26 ****         2.9084  -1.8853  -0.7770 C.3            1 S1                 0.0000
     27 ****         3.6643  -2.9475  -0.4898 F              1 S1                 0.0000
     28 ****         1.5657  -2.3534  -1.3063 C.3            1 S1                 0.0000
     29 ****         1.0028  -1.3908  -2.1808 O.3            1 S1                 0.0000
     30 ****        -7.0027   1.0751  -0.3049 C.ar           1 S1                 0.0000
     31 ****        -7.8468   2.0873  -0.8146 C.ar           1 S1                 0.0000
     32 ****        -9.2011   1.8155  -1.0895 C.ar           1 S1                 0.0000
     33 ****        -9.7253   0.5316  -0.8496 C.ar           1 S1                 0.0000
     34 ****        -8.8949  -0.4797  -0.3310 C.ar           1 S1                 0.0000
     35 ****        -7.5400  -0.2094  -0.0560 C.ar           1 S1                 0.0000
     36 ****        -5.0393  -0.6110  -0.4087 H              1 S1                 0.0000
     37 ****        -0.8263   2.2674   0.9167 H              1 S1                 0.0000
     38 ****        -1.6815  -3.9119  -0.6722 H              1 S1                 0.0000
     39 ****         0.6900  -3.6336   0.2632 H              1 S1                 0.0000
     40 ****         2.1248  -0.1583   0.2270 H              1 S1                 0.0000
     41 ****         3.2213  -0.5687   2.4598 H              1 S1                 0.0000
     42 ****         4.0771  -1.9408   1.7715 H              1 S1                 0.0000
     43 ****         8.2989   0.7605   2.4351 H              1 S1                 0.0000
     44 ****         9.8303   2.3728   1.3653 H              1 S1                 0.0000
     45 ****         9.1221   3.6197  -0.6669 H              1 S1                 0.0000
     46 ****         6.8593   3.2406  -1.6285 H              1 S1                 0.0000
     47 ****         5.3131   1.6396  -0.5842 H              1 S1                 0.0000
     48 ****         3.4703  -1.2693  -1.4804 H              1 S1                 0.0000
     49 ****         1.6480  -3.2953  -1.8497 H              1 S1                 0.0000
     50 ****         0.1207  -1.6571  -2.3912 H              1 S1                 0.0000
     51 ****        -7.4605   3.0787  -1.0029 H              1 S1                 0.0000
     52 ****        -9.8380   2.5936  -1.4837 H              1 S1                 0.0000
     53 ****       -10.7641   0.3241  -1.0598 H              1 S1                 0.0000
     54 ****        -9.2979  -1.4636  -0.1407 H              1 S1                 0.0000
     55 ****        -6.9235  -0.9979   0.3506 H              1 S1                 0.0000
     56 ****        -4.2195   2.7051   0.4268 LP             1 S1                 0.0000
     57 ****        -5.8601   3.2576   0.3686 LP             1 S1                 0.0000
     58 ****        -3.1042   2.2516   0.5679 LP             1 S1                 0.0000
     59 ****         0.5117   0.3294   0.6628 LP             1 S1                 0.0000
     60 ****        -3.7947  -2.5835  -0.6738 LP             1 S1                 0.0000
     61 ****         1.7916  -2.5755   1.6823 LP             1 S1                 0.0000
     62 ****         0.7908  -1.2989   1.4949 LP             1 S1                 0.0000
     63 ****         5.4166  -1.1600   3.1225 LP             1 S1                 0.0000
     64 ****         6.9469  -0.3497   3.1612 LP             1 S1                 0.0000
     65 ****         1.5474  -1.3359  -3.0176 LP             1 S1                 0.0000
     66 ****         0.9877  -0.4966  -1.7335 LP             1 S1                 0.0000
@<TRIPOS>BOND
    1    1    2 2     
    2    2    3 am    
    3    2   30 1     
    4    3    4 1     
    5    3   36 1     
    6    4    9 ar    
    7    4    5 ar    
    8    5    6 ar    
    9    6    7 ar    
   10    6   37 1     
   11    7    8 ar    
   12    8   12 1     
   13    8    9 ar    
   14    9   10 1     
   15   10   11 2     
   16   11   12 1     
   17   11   38 1     
   18   12   13 1     
   19   13   28 1     
   20   13   14 1     
   21   13   39 1     
   22   14   15 1     
   23   15   16 1     
   24   15   26 1     
   25   15   40 1     
   26   16   17 1     
   27   16   41 1     
   28   16   42 1     
   29   17   18 1     
   30   18   19 2     
   31   18   20 1     
   32   20   25 ar    
   33   20   21 ar    
   34   21   22 ar    
   35   21   43 1     
   36   22   23 ar    
   37   22   44 1     
   38   23   24 ar    
   39   23   45 1     
   40   24   25 ar    
   41   24   46 1     
   42   25   47 1     
   43   26   27 1     
   44   26   28 1     
   45   26   48 1     
   46   28   29 1     
   47   28   49 1     
   48   29   50 1     
   49   30   35 ar    
   50   30   31 ar    
   51   31   32 ar    
   52   31   51 1     
   53   32   33 ar    
   54   32   52 1     
   55   33   34 ar    
   56   33   53 1     
   57   34   35 ar    
   58   34   54 1     
   59   35   55 1     
   60    1   56 1     
   61    1   57 1     
   62    5   58 1     
   63    7   59 1     
   64   10   60 1     
   65   14   61 1     
   66   14   62 1     
   67   19   63 1     
   68   19   64 1     
   69   29   65 1     
   70   29   66 1     
@<TRIPOS>SUBSTRUCTURE
      1 S1             1
@<TRIPOS>SET
LONE_PAIRS      STATIC     ATOMS    <user>   **** ""
11 56 57 58 59 60 61 62 63 64 65 66
DONOR_HYDROGENS      STATIC     ATOMS    <user>   **** ""
2 36 50
ATOM$BLUE        STATIC     ATOMS    COLORGROUP SYSTEM
11 56 57 58 59 60 61 62 63 64 65 66
ATOM$RED        STATIC     ATOMS    COLORGROUP SYSTEM
2 36 50
