AV-unprocessed.smi:2883|AV-procd|sdf|11081|dock8
  -GOLD-   2272015553D 1   1.00000     0.00000
 Structure written by MMmdl.
 39 41  0  0  0  0  0  0  0  0  1 V2000
  150.3112  144.0869  158.9037 C   0  0  0  0  0  0  0  0  0  0  0  0
  151.8284  144.1831  159.1468 C   0  0  0  0  0  0  0  0  0  0  0  0
  152.4872  144.9921  158.0043 C   0  0  0  0  0  0  0  0  0  0  0  0
  152.0941  144.9811  160.4450 C   0  0  0  0  0  0  0  0  0  0  0  0
  152.4240  142.7676  159.2326 C   0  0  0  0  0  0  0  0  0  0  0  0
  153.0638  142.4373  160.3624 N   0  0  0  0  0  0  0  0  0  0  0  0
  153.4757  141.1587  160.4949 C   0  0  0  0  0  0  0  0  0  0  0  0
  153.2196  140.1904  159.5050 C   0  0  0  0  0  0  0  0  0  0  0  0
  152.5047  140.6261  158.3720 C   0  0  0  0  0  0  0  0  0  0  0  0
  152.2039  139.7120  157.3531 N   0  0  0  0  0  0  0  0  0  0  0  0
  151.8433  140.1741  156.0159 C   0  0  2  0  0  0  0  0  0  0  0  0
  150.5964  141.0615  156.0034 C   0  0  0  0  0  0  0  0  0  0  0  0
  149.7183  140.3565  154.9598 C   0  0  2  0  0  0  0  0  0  0  0  0
  149.1033  139.0677  155.5199 C   0  0  0  0  0  0  0  0  0  0  0  0
  150.3168  138.1414  155.5691 C   0  0  0  0  0  0  0  0  0  0  0  0
  151.4360  139.0533  155.0379 C   0  0  1  0  0  0  0  0  0  0  0  0
  150.7037  139.8172  154.0943 O   0  0  0  0  0  0  0  0  0  0  0  0
  152.0966  141.9108  158.2568 N   0  0  0  0  0  0  0  0  0  0  0  0
  149.8550  145.0751  158.8374 H   0  0  0  0  0  0  0  0  0  0  0  0
  149.8144  143.5486  159.7116 H   0  0  0  0  0  0  0  0  0  0  0  0
  150.0918  143.5601  157.9744 H   0  0  0  0  0  0  0  0  0  0  0  0
  152.2963  144.5490  157.0260 H   0  0  0  0  0  0  0  0  0  0  0  0
  153.5687  145.0533  158.1331 H   0  0  0  0  0  0  0  0  0  0  0  0
  152.1036  146.0122  157.9671 H   0  0  0  0  0  0  0  0  0  0  0  0
  151.7130  146.0001  160.3689 H   0  0  0  0  0  0  0  0  0  0  0  0
  153.1612  145.0461  160.6606 H   0  0  0  0  0  0  0  0  0  0  0  0
  151.6084  144.5283  161.3102 H   0  0  0  0  0  0  0  0  0  0  0  0
  154.0076  140.9047  161.3998 H   0  0  0  0  0  0  0  0  0  0  0  0
  153.5504  139.1683  159.6169 H   0  0  0  0  0  0  0  0  0  0  0  0
  152.4482  138.7402  157.4757 H   0  0  0  0  0  0  0  0  0  0  0  0
  152.6751  140.7402  155.5939 H   0  0  0  0  0  0  0  0  0  0  0  0
  150.0985  141.1364  156.9712 H   0  0  0  0  0  0  0  0  0  0  0  0
  150.8545  142.0697  155.6780 H   0  0  0  0  0  0  0  0  0  0  0  0
  148.9986  141.0129  154.4701 H   0  0  0  0  0  0  0  0  0  0  0  0
  148.6435  139.2168  156.4973 H   0  0  0  0  0  0  0  0  0  0  0  0
  148.3465  138.6712  154.8422 H   0  0  0  0  0  0  0  0  0  0  0  0
  150.5178  137.7537  156.5680 H   0  0  0  0  0  0  0  0  0  0  0  0
  150.1696  137.2903  154.9033 H   0  0  0  0  0  0  0  0  0  0  0  0
  152.2788  138.5107  154.6088 H   0  0  0  0  0  0  0  0  0  0  0  0
  1  2  1  0  0  0  0
  1 19  1  0  0  0  0
  1 20  1  0  0  0  0
  1 21  1  0  0  0  0
  2  3  1  0  0  0  0
  2  4  1  0  0  0  0
  2  5  1  0  0  0  0
  3 22  1  0  0  0  0
  3 23  1  0  0  0  0
  3 24  1  0  0  0  0
  4 25  1  0  0  0  0
  4 26  1  0  0  0  0
  4 27  1  0  0  0  0
  5 18  1  0  0  0  0
  5  6  2  0  0  0  0
  6  7  1  0  0  0  0
  7  8  2  0  0  0  0
  7 28  1  0  0  0  0
  8  9  1  0  0  0  0
  8 29  1  0  0  0  0
  9 10  1  0  0  0  0
  9 18  2  0  0  0  0
 10 11  1  0  0  0  0
 10 30  1  0  0  0  0
 11 16  1  0  0  0  0
 11 12  1  0  0  0  0
 11 31  1  0  0  0  0
 12 13  1  0  0  0  0
 12 32  1  0  0  0  0
 12 33  1  0  0  0  0
 13 17  1  0  0  0  0
 13 14  1  0  0  0  0
 13 34  1  0  0  0  0
 14 15  1  0  0  0  0
 14 35  1  0  0  0  0
 14 36  1  0  0  0  0
 15 16  1  0  0  0  0
 15 37  1  0  0  0  0
 15 38  1  0  0  0  0
 16 17  1  0  0  0  0
 16 39  1  0  0  0  0
M  END
> <s_m_source_file>
AV-unprocessed.smi

> <i_m_source_file_index>
2883

> <i_lp_mmshare_version>
43012

> <i_f3d_flags>
0

> <s_epik_input>
W0NIM11DKFtDSDNdKShbQ0gzXSljMW5bY0hdW2NIXWMobjEpW05IXVtDQEhdKFtDSDJdW0NAQEhdMjMpW0NAQEhdKE8zKVtDSDJdW0NIMl0y

> <s_epik_cmdline>
J2VwaWtfcHl0aG9uJywgJy1waCcsICc3LjAnLCAnLXRuJywgJzgnLCAnLW1hJywgJzIwMCcsICctbWV0YWxfYmluZGluZycsICctaW1hZScsICc8aW5maWxlLm1hZT4nLCAnLW9tYWUnLCAnPG91dGZpbGUubWFlPic=

> <r_lp_tautomer_probability>
1

> <r_epik_Ionization_Penalty>
0.453006

> <r_epik_Ionization_Penalty_Charging>
0

> <r_epik_Ionization_Penalty_Neutral>
0.453006

> <r_epik_State_Penalty>
0.455155

> <r_epik_Charging_Adjusted_Penalty>
0.455155

> <i_epik_Tot_Q>
0

> <i_epik_Tot_abs_Q>
0

> <r_epik_Metal_State_Penalty>
0.255592

> <b_epik_Metal_Only>
0

> <s_lp_Force_Field>
OPLS_2005

> <r_lp_Energy>
33.5757

> <b_lp_Chiralities_Consistent>
1

> <s_lp_Variant>
AV-unprocessed.smi:2883-7

> <Gold.Version>
5.8.1

> <Gold.Id.Protein>
6NUR|6NUR_protein|mol2

> <Gold.PLP.Fitness>
41.5912

> <Gold.PLP.PLP>
-38.9410

> <Gold.PLP.part.hbond>
-0.9316

> <Gold.PLP.part.metal>
0.0000

> <Gold.PLP.part.buried>
-5.4401

> <Gold.PLP.part.nonpolar>
-32.3676

> <Gold.PLP.part.repulsive>
0.3190

> <Gold.PLP.ligand.clash>
0.0000

> <Gold.PLP.ligand.torsion>
0.2470

> <Gold.PLP.Chemscore.Hbond>
1.0000

> <Gold.PLP.Chemscore.CHOScore>
0.0000

> <Gold.PLP.Chemscore.Metal>
0.0000

> <Gold.Chemscore.Hbonds>
donor molecule, donor type, donor heavy atom, donor atom, acceptor molecule, acceptor atom, score
      P1  H  7989  7998       L1    17  0.98

> <Gold.PLP.Chemscore.Internal.Correction>
0.1441

> <Gold.Rescore>
     Score         DG    S(hbond)    S(metal)    S(lipo)     H(rot)  DE(clash)    DE(int)     intcor
     14.99     -16.56       0.90        0.00      94.12       1.15       0.03       1.53       ----

> <Gold.Chemscore.Fitness>
14.9916

> <Gold.Chemscore.DG>
-16.5571

> <Gold.Chemscore.ZeroCoef>
-5.4800

> <Gold.Chemscore.Hbond>
0.8997

> <Gold.Chemscore.Metal>
0.0000

> <Gold.Chemscore.Lipo>
94.1154

> <Gold.Chemscore.Internal_Hbond>
0.0000

> <Gold.Chemscore.DEClash>
0.0331

> <Gold.Chemscore.DEInternal>
1.5324

> <Gold.Chemscore.Rot>
1.1482

> <Gold.Chemscore.Internal.Correction>
   9.000000E+99

> <Gold.Chemscore.Hbonds>
donor molecule, donor type, donor heavy atom, donor atom, acceptor molecule, acceptor atom, score
      P1  H  7989  7998       L1    17  0.56

> <Gold.Chemscore.Hbond.Weighted>
-3.0049

> <Gold.Chemscore.Metal.Weighted>
-0.0000

> <Gold.Chemscore.Lipo.Weighted>
-11.0115

> <Gold.Chemscore.Internal_Hbond.Weighted>
0.0000

> <Gold.Chemscore.DEClash.Weighted>
0.0331

> <Gold.Chemscore.DEInternal.Weighted>
1.5324

> <Gold.Chemscore.Rot.Weighted>
2.9393

> <Gold.Chemscore.Internal.Correction.Weighted>
   9.000000E+99

> <Gold.Protein.RotatedTorsions>
[ 6907 6896 6895 6894 ] final  -22.96 input  -60.11 | X-H torsion
[ 7974 7965 7964 7962 ] final -162.49 input  175.53 | X-H torsion
[ 8008 7997 7996 7995 ] final  -47.23 input   59.86 | X-H torsion
[ 10167 10162 10161 10158 ] final    9.52 input  -65.29 | X-H torsion
[ 10718 10713 10712 10709 ] final    4.88 input   66.30 | X-H torsion
[ 10763 10752 10751 10750 ] final  -32.10 input  -60.55 | X-H torsion
[ 11005 11000 10999 10996 ] final  109.26 input  -57.11 | X-H torsion

> <Gold.Protein.ActiveResidues>
 VAL166  LYS551  ARG553  GLY616  TRP617  ASP618  TYR619  PRO620  LYS621  CYS622 
 ASP623  PHE694  ASN695  SER759  ASP760  ASP761  ALA762  ILE779  LEU786  VAL792 
 PHE793  MET794  SER795  GLU796  ALA797  LYS798  CYS799  TRP800  GLU811  SER814 

> <Gold.Protein.RotatedAtoms>
  151.2110  135.0481  159.8910 H   0  0  0  0  0  0  0  0  0  0  0  0  # atno 6907 bound_to 6896
  152.5424  134.0745  159.8218 H   0  0  0  0  0  0  0  0  0  0  0  0  # atno 6908 bound_to 6896
  151.0898  133.5277  159.2647 H   0  0  0  0  0  0  0  0  0  0  0  0  # atno 6909 bound_to 6896
  144.7356  140.3245  143.6164 H   0  0  0  0  0  0  0  0  0  0  0  0  # atno 7974 bound_to 7965
  154.4014  140.1351  156.4141 H   0  0  0  0  0  0  0  0  0  0  0  0  # atno 8008 bound_to 7997
  155.7705  140.3484  155.5224 H   0  0  0  0  0  0  0  0  0  0  0  0  # atno 8009 bound_to 7997
  155.8771  140.0981  157.1501 H   0  0  0  0  0  0  0  0  0  0  0  0  # atno 8010 bound_to 7997
  140.6250  143.8121  150.7222 H   0  0  0  0  0  0  0  0  0  0  0  0  # atno 10167 bound_to 10162
  156.8992  130.5715  149.5648 H   0  0  0  0  0  0  0  0  0  0  0  0  # atno 10718 bound_to 10713
  153.8082  135.6884  153.4845 H   0  0  0  0  0  0  0  0  0  0  0  0  # atno 10763 bound_to 10752
  153.1645  135.4567  154.9816 H   0  0  0  0  0  0  0  0  0  0  0  0  # atno 10764 bound_to 10752
  154.7978  135.3326  154.7565 H   0  0  0  0  0  0  0  0  0  0  0  0  # atno 10765 bound_to 10752
  139.8859  134.9453  156.6098 H   0  0  0  0  0  0  0  0  0  0  0  0  # atno 11005 bound_to 11000
  145.7534  139.1801  143.2308 LP  0  0  0  0  0  0  0  0  0  0  0  0  # atno 17320 bound_to 7965
  146.1043  140.7506  142.9534 LP  0  0  0  0  0  0  0  0  0  0  0  0  # atno 17321 bound_to 7965
  140.1720  143.4186  152.1994 LP  0  0  0  0  0  0  0  0  0  0  0  0  # atno 17342 bound_to 10162
  139.5472  144.7308  151.4547 LP  0  0  0  0  0  0  0  0  0  0  0  0  # atno 17343 bound_to 10162
  156.0590  130.5646  150.9153 LP  0  0  0  0  0  0  0  0  0  0  0  0  # atno 17370 bound_to 10713
  157.6036  131.0940  150.8917 LP  0  0  0  0  0  0  0  0  0  0  0  0  # atno 17371 bound_to 10713
  140.7820  133.8652  155.8575 LP  0  0  0  0  0  0  0  0  0  0  0  0  # atno 17394 bound_to 11000
  140.9752  134.1478  157.4542 LP  0  0  0  0  0  0  0  0  0  0  0  0  # atno 17395 bound_to 11000

$$$$
