AV-unprocessed.smi:760|AV-procd|sdf|3628|dock9
  -GOLD-   22720 1 23D 1   1.00000     0.00000
 Structure written by MMmdl.
 44 45  0  0  0  0  0  0  0  0  2 V2000
  142.4949  143.3667  155.4468 C   0  0  0  0  0  0  0  0  0  0  0  0
  142.5146  142.0650  155.7783 C   0  0  0  0  0  0  0  0  0  0  0  0
  141.2609  141.2090  155.7369 C   0  0  0  0  0  0  0  0  0  0  0  0
  143.8023  141.3641  156.1842 C   0  0  0  0  0  0  0  0  0  0  0  0
  144.8306  141.3786  155.1106 N   0  3  2  0  0  0  0  0  0  0  0  0
  145.9059  140.3869  155.3719 C   0  0  0  0  0  0  0  0  0  0  0  0
  146.8842  140.2935  154.1885 C   0  0  0  0  0  0  0  0  0  0  0  0
  147.4964  141.6631  153.8405 C   0  0  2  0  0  0  0  0  0  0  0  0
  148.4325  142.1170  154.8691 N   0  0  0  0  0  0  0  0  0  0  0  0
  149.3229  141.3371  155.4996 C   0  0  0  0  0  0  0  0  0  0  0  0
  149.4481  140.1330  155.2773 O   0  0  0  0  0  0  0  0  0  0  0  0
  150.0406  142.0363  156.3937 N   0  0  0  0  0  0  0  0  0  0  0  0
  151.0665  141.5449  157.2398 C   0  0  0  0  0  0  0  0  0  0  0  0
  151.7816  140.3153  157.1709 C   0  0  0  0  0  0  0  0  0  0  0  0
  152.6697  140.2265  158.1498 N   0  0  0  0  0  0  0  0  0  0  0  0
  152.5378  141.3787  158.8508 N   0  0  0  0  0  0  0  0  0  0  0  0
  153.3780  141.6067  160.0070 C   0  0  0  0  0  0  0  0  0  0  0  0
  151.5692  142.2068  158.3195 C   0  0  0  0  0  0  0  0  0  0  0  0
  146.3719  142.6914  153.6365 C   0  0  0  0  0  0  0  0  0  0  0  0
  145.3863  142.7275  154.8194 C   0  0  0  0  0  0  0  0  0  0  0  0
  141.5797  143.8570  155.1481 H   0  0  0  0  0  0  0  0  0  0  0  0
  143.3954  143.9631  155.4689 H   0  0  0  0  0  0  0  0  0  0  0  0
  141.3710  140.4222  154.9903 H   0  0  0  0  0  0  0  0  0  0  0  0
  140.3857  141.8026  155.4703 H   0  0  0  0  0  0  0  0  0  0  0  0
  141.0643  140.7352  156.6973 H   0  0  0  0  0  0  0  0  0  0  0  0
  144.2004  141.7988  157.1026 H   0  0  0  0  0  0  0  0  0  0  0  0
  143.5482  140.3294  156.4189 H   0  0  0  0  0  0  0  0  0  0  0  0
  146.4393  140.6571  156.2846 H   0  0  0  0  0  0  0  0  0  0  0  0
  145.4654  139.4042  155.5450 H   0  0  0  0  0  0  0  0  0  0  0  0
  147.6675  139.5664  154.4064 H   0  0  0  0  0  0  0  0  0  0  0  0
  146.3522  139.9086  153.3174 H   0  0  0  0  0  0  0  0  0  0  0  0
  148.0448  141.5748  152.9006 H   0  0  0  0  0  0  0  0  0  0  0  0
  148.4053  143.0963  155.1129 H   0  0  0  0  0  0  0  0  0  0  0  0
  149.8312  143.0197  156.4812 H   0  0  0  0  0  0  0  0  0  0  0  0
  151.6977  139.5001  156.4677 H   0  0  0  0  0  0  0  0  0  0  0  0
  152.9457  142.3871  160.6339 H   0  0  0  0  0  0  0  0  0  0  0  0
  154.3707  141.9196  159.6828 H   0  0  0  0  0  0  0  0  0  0  0  0
  153.4645  140.6911  160.5937 H   0  0  0  0  0  0  0  0  0  0  0  0
  151.3293  143.1694  158.7471 H   0  0  0  0  0  0  0  0  0  0  0  0
  146.7921  143.6838  153.4682 H   0  0  0  0  0  0  0  0  0  0  0  0
  145.8224  142.4397  152.7281 H   0  0  0  0  0  0  0  0  0  0  0  0
  144.5831  143.4153  154.5610 H   0  0  0  0  0  0  0  0  0  0  0  0
  145.8736  143.1239  155.7114 H   0  0  0  0  0  0  0  0  0  0  0  0
  144.3630  141.0716  154.2694 H   0  0  0  0  0  0  0  0  0  0  0  0
  1  2  2  0  0  0  0
  1 21  1  0  0  0  0
  1 22  1  0  0  0  0
  2  3  1  0  0  0  0
  2  4  1  0  0  0  0
  3 23  1  0  0  0  0
  3 24  1  0  0  0  0
  3 25  1  0  0  0  0
  4  5  1  0  0  0  0
  4 26  1  0  0  0  0
  4 27  1  0  0  0  0
  5 20  1  0  0  0  0
  5  6  1  0  0  0  0
  5 44  1  0  0  0  0
  6  7  1  0  0  0  0
  6 28  1  0  0  0  0
  6 29  1  0  0  0  0
  7  8  1  0  0  0  0
  7 30  1  0  0  0  0
  7 31  1  0  0  0  0
  8  9  1  0  0  0  0
  8 19  1  0  0  0  0
  8 32  1  0  0  0  0
  9 10  1  0  0  0  0
  9 33  1  0  0  0  0
 10 11  2  0  0  0  0
 10 12  1  0  0  0  0
 12 13  1  0  0  0  0
 12 34  1  0  0  0  0
 13 18  2  0  0  0  0
 13 14  1  0  0  0  0
 14 15  2  0  0  0  0
 14 35  1  0  0  0  0
 15 16  1  0  0  0  0
 16 17  1  0  0  0  0
 16 18  1  0  0  0  0
 17 36  1  0  0  0  0
 17 37  1  0  0  0  0
 17 38  1  0  0  0  0
 18 39  1  0  0  0  0
 19 20  1  0  0  0  0
 19 40  1  0  0  0  0
 19 41  1  0  0  0  0
 20 42  1  0  0  0  0
 20 43  1  0  0  0  0
M  CHG  1   5   1
M  END
> <s_m_source_file>
AV-unprocessed.smi

> <i_m_source_file_index>
760

> <i_lp_mmshare_version>
43012

> <i_f3d_flags>
0

> <s_epik_input>
W0NIMl09QyhbQ0gzXSlbQ0gyXU4xW0NIMl1bQ0gyXVtDSF0oW0NIMl1bQ0gyXTEpW05IXUMoPU8pW05IXWMyW2NIXW5uKFtDSDNdKVtjSF0y

> <s_epik_cmdline>
J2VwaWtfcHl0aG9uJywgJy1waCcsICc3LjAnLCAnLXRuJywgJzgnLCAnLW1hJywgJzIwMCcsICctbWV0YWxfYmluZGluZycsICctaW1hZScsICc8aW5maWxlLm1hZT4nLCAnLW9tYWUnLCAnPG91dGZpbGUubWFlPic=

> <r_lp_tautomer_probability>
1

> <r_epik_Ionization_Penalty>
0.0194996

> <r_epik_Ionization_Penalty_Charging>
0.0193505

> <r_epik_Ionization_Penalty_Neutral>
0.000149098

> <r_epik_State_Penalty>
0.0154499

> <r_epik_Charging_Adjusted_Penalty>
0.0348004

> <i_epik_Tot_Q>
1

> <i_epik_Tot_abs_Q>
1

> <r_epik_Metal_State_Penalty>
0.0154507

> <b_epik_Metal_Only>
0

> <s_lp_Force_Field>
OPLS_2005

> <r_lp_Energy>
20.0822

> <b_lp_Chiralities_Consistent>
1

> <s_lp_Variant>
AV-unprocessed.smi:760-2

> <Gold.Version>
5.8.1

> <Gold.Id.Protein>
6NUR|6NUR_protein|mol2

> <Gold.PLP.Fitness>
45.5425

> <Gold.PLP.PLP>
-31.6902

> <Gold.PLP.part.hbond>
-4.0000

> <Gold.PLP.part.metal>
0.0000

> <Gold.PLP.part.buried>
-6.1116

> <Gold.PLP.part.nonpolar>
-21.7797

> <Gold.PLP.part.repulsive>
0.3424

> <Gold.PLP.ligand.clash>
0.0000

> <Gold.PLP.ligand.torsion>
0.3718

> <Gold.PLP.Chemscore.Hbond>
4.8560

> <Gold.PLP.Chemscore.CHOScore>
0.0000

> <Gold.PLP.Chemscore.Metal>
0.0000

> <Gold.Chemscore.Hbonds>
donor molecule, donor type, donor heavy atom, donor atom, acceptor molecule, acceptor atom, score
      L1  H     5    44       P1 10175  2.00
      L1  H     9    33       P1  8028  1.00
      L1  H    12    34       P1  8028  0.76
      P1  H  7997  8010       L1    15  0.44

> <Gold.PLP.Chemscore.Internal.Correction>
0.0278

> <Gold.Rescore>
     Score         DG    S(hbond)    S(metal)    S(lipo)     H(rot)  DE(clash)    DE(int)     intcor
     17.35     -20.62       3.44        0.00      61.42       1.38       0.35       2.93       ----

> <Gold.Chemscore.Fitness>
17.3498

> <Gold.Chemscore.DG>
-20.6225

> <Gold.Chemscore.ZeroCoef>
-5.4800

> <Gold.Chemscore.Hbond>
3.4363

> <Gold.Chemscore.Metal>
0.0000

> <Gold.Chemscore.Lipo>
61.4165

> <Gold.Chemscore.Internal_Hbond>
0.0000

> <Gold.Chemscore.DEClash>
0.3477

> <Gold.Chemscore.DEInternal>
2.9250

> <Gold.Chemscore.Rot>
1.3752

> <Gold.Chemscore.Internal.Correction>
   9.000000E+99

> <Gold.Chemscore.Hbonds>
donor molecule, donor type, donor heavy atom, donor atom, acceptor molecule, acceptor atom, score
      L1  H     5    44       P1 10175  0.83
      L1  H     9    33       P1  8028  1.00
      L1  H    12    34       P1  8028  0.72
      P1  H  7997  8010       L1    15  0.07

> <Gold.Chemscore.Hbond.Weighted>
-11.4771

> <Gold.Chemscore.Metal.Weighted>
-0.0000

> <Gold.Chemscore.Lipo.Weighted>
-7.1857

> <Gold.Chemscore.Internal_Hbond.Weighted>
0.0000

> <Gold.Chemscore.DEClash.Weighted>
0.3477

> <Gold.Chemscore.DEInternal.Weighted>
2.9250

> <Gold.Chemscore.Rot.Weighted>
3.5204

> <Gold.Chemscore.Internal.Correction.Weighted>
   9.000000E+99

> <Gold.Protein.RotatedTorsions>
[ 6907 6896 6895 6894 ] final   39.73 input  -60.11 | X-H torsion
[ 7974 7965 7964 7962 ] final  136.47 input  175.53 | X-H torsion
[ 8008 7997 7996 7995 ] final   46.64 input   59.86 | X-H torsion
[ 10167 10162 10161 10158 ] final   34.70 input  -65.29 | X-H torsion
[ 10718 10713 10712 10709 ] final   37.73 input   66.30 | X-H torsion
[ 10763 10752 10751 10750 ] final  148.37 input  -60.55 | X-H torsion
[ 11005 11000 10999 10996 ] final  -36.86 input  -57.11 | X-H torsion

> <Gold.Protein.ActiveResidues>
 VAL166  LYS551  ARG553  GLY616  TRP617  ASP618  TYR619  PRO620  LYS621  CYS622 
 ASP623  PHE694  ASN695  SER759  ASP760  ASP761  ALA762  ILE779  LEU786  VAL792 
 PHE793  MET794  SER795  GLU796  ALA797  LYS798  CYS799  TRP800  GLU811  SER814 

> <Gold.Protein.RotatedAtoms>
  152.1733  134.8815  160.0532 H   0  0  0  0  0  0  0  0  0  0  0  0  # atno 6907 bound_to 6896
  151.9767  133.3739  159.4100 H   0  0  0  0  0  0  0  0  0  0  0  0  # atno 6908 bound_to 6896
  150.6905  134.4005  159.5161 H   0  0  0  0  0  0  0  0  0  0  0  0  # atno 6909 bound_to 6896
  144.9562  139.4762  143.5502 H   0  0  0  0  0  0  0  0  0  0  0  0  # atno 7974 bound_to 7965
  155.3559  140.3416  155.4240 H   0  0  0  0  0  0  0  0  0  0  0  0  # atno 8008 bound_to 7997
  156.1739  140.1641  156.8432 H   0  0  0  0  0  0  0  0  0  0  0  0  # atno 8009 bound_to 7997
  154.5262  140.0755  156.8245 H   0  0  0  0  0  0  0  0  0  0  0  0  # atno 8010 bound_to 7997
  140.4291  144.1350  150.6157 H   0  0  0  0  0  0  0  0  0  0  0  0  # atno 10167 bound_to 10162
  157.3504  130.7595  149.6974 H   0  0  0  0  0  0  0  0  0  0  0  0  # atno 10718 bound_to 10713
  154.0537  135.2879  155.3336 H   0  0  0  0  0  0  0  0  0  0  0  0  # atno 10763 bound_to 10752
  154.6853  135.5247  153.8321 H   0  0  0  0  0  0  0  0  0  0  0  0  # atno 10764 bound_to 10752
  153.0550  135.6592  154.0731 H   0  0  0  0  0  0  0  0  0  0  0  0  # atno 10765 bound_to 10752
  140.9907  133.7006  156.1845 H   0  0  0  0  0  0  0  0  0  0  0  0  # atno 11005 bound_to 11000
  146.3338  139.8681  142.8844 LP  0  0  0  0  0  0  0  0  0  0  0  0  # atno 17320 bound_to 7965
  145.2768  141.0126  143.3740 LP  0  0  0  0  0  0  0  0  0  0  0  0  # atno 17321 bound_to 7965
  140.4448  143.2511  151.9426 LP  0  0  0  0  0  0  0  0  0  0  0  0  # atno 17342 bound_to 10162
  139.4784  144.5620  151.8224 LP  0  0  0  0  0  0  0  0  0  0  0  0  # atno 17343 bound_to 10162
  155.9721  130.4142  150.4121 LP  0  0  0  0  0  0  0  0  0  0  0  0  # atno 17370 bound_to 10713
  157.2183  131.0476  151.2561 LP  0  0  0  0  0  0  0  0  0  0  0  0  # atno 17371 bound_to 10713
  140.7044  134.4529  157.5585 LP  0  0  0  0  0  0  0  0  0  0  0  0  # atno 17394 bound_to 11000
  139.8991  134.8599  156.1974 LP  0  0  0  0  0  0  0  0  0  0  0  0  # atno 17395 bound_to 11000

$$$$
