#       Name:                AV-unprocessed.smi:661
#       Creating user name   scv26
#       Creation time:       Fri Mar 27 00:19:07 2020


#       File generated by GOLD software.
#

@<TRIPOS>MOLECULE
AV-unprocessed.smi:661
    34    35     1
SMALL
NO_CHARGES


@<TRIPOS>ATOM
      1 ****        -4.0324   1.9513   0.2134 C.3            1 S1                 0.0000
      2 ****        -2.5905   1.9887   0.3853 N.3            1 S1                 0.0000
      3 ****        -2.0607   0.6360   0.3012 C.3            1 S1                 0.0000
      4 ****        -0.5652   0.5814   0.2766 C.2            1 S1                 0.0000
      5 ****         0.2922   1.6431   0.2689 N.pl3          1 S1                 1.0000
      6 ****         1.6107   1.1884   0.2298 C.ar           1 S1                 0.0000
      7 ****         2.8157   1.8839   0.2061 C.ar           1 S1                 0.0000
      8 ****         3.9928   1.1081   0.1615 C.ar           1 S1                 0.0000
      9 ****         3.9436  -0.3011   0.1418 C.ar           1 S1                 0.0000
     10 ****         2.7157  -0.9949   0.1671 C.ar           1 S1                 0.0000
     11 ****         1.5573  -0.2201   0.2125 C.ar           1 S1                 0.0000
     12 ****         0.1979  -0.5483   0.2454 N.pl3          1 S1                 0.0000
     13 ****        -0.1999  -1.9617   0.2323 C.3            1 S1                 0.0000
     14 ****        -0.2495  -2.5279  -1.1934 C.3            1 S1                 0.0000
     15 ****        -0.6663  -3.8744  -1.1523 O.3            1 S1                 0.0000
     16 ****        -4.4425   2.9577   0.2994 H              1 S1                 0.0000
     17 ****        -4.5007   1.3275   0.9757 H              1 S1                 0.0000
     18 ****        -4.2984   1.5607  -0.7696 H              1 S1                 0.0000
     19 ****        -2.4009   2.3549   1.3075 H              1 S1                 0.0000
     20 ****        -2.4256   0.0516   1.1468 H              1 S1                 0.0000
     21 ****        -2.4277   0.1563  -0.6073 H              1 S1                 0.0000
     22 ****         2.8560   2.9632   0.2199 H              1 S1                 0.0000
     23 ****         4.9526   1.6039   0.1414 H              1 S1                 0.0000
     24 ****         4.8663  -0.8618   0.1072 H              1 S1                 0.0000
     25 ****         2.6875  -2.0745   0.1504 H              1 S1                 0.0000
     26 ****         0.4887  -2.5274   0.8614 H              1 S1                 0.0000
     27 ****        -1.1809  -2.0360   0.7029 H              1 S1                 0.0000
     28 ****        -0.9455  -1.9587  -1.8104 H              1 S1                 0.0000
     29 ****         0.7300  -2.4737  -1.6690 H              1 S1                 0.0000
     30 ****        -0.7091  -4.2044  -2.0370 H              1 S1                 0.0000
     31 ****        -0.0117   2.6083   0.2831 H              1 S1                 0.0000
     32 ****        -2.1679   2.5569  -0.3208 LP             1 S1                 0.0000
     33 ****        -1.5690  -3.9347  -0.7263 LP             1 S1                 0.0000
     34 ****        -0.0113  -4.4137  -0.6230 LP             1 S1                 0.0000
@<TRIPOS>BOND
    1    1    2 1     
    2    1   16 1     
    3    1   17 1     
    4    1   18 1     
    5    2    3 1     
    6    2   19 1     
    7    3    4 1     
    8    3   20 1     
    9    3   21 1     
   10    4   12 1     
   11    4    5 2     
   12    5    6 1     
   13    5   31 1     
   14    6   11 ar    
   15    6    7 ar    
   16    7    8 ar    
   17    7   22 1     
   18    8    9 ar    
   19    8   23 1     
   20    9   10 ar    
   21    9   24 1     
   22   10   11 ar    
   23   10   25 1     
   24   11   12 1     
   25   12   13 1     
   26   13   14 1     
   27   13   26 1     
   28   13   27 1     
   29   14   15 1     
   30   14   28 1     
   31   14   29 1     
   32   15   30 1     
   33    2   32 1     
   34   15   33 1     
   35   15   34 1     
@<TRIPOS>SUBSTRUCTURE
      1 S1             1
@<TRIPOS>SET
LONE_PAIRS      STATIC     ATOMS    <user>   **** ""
3 32 33 34
DONOR_HYDROGENS      STATIC     ATOMS    <user>   **** ""
3 19 31 30
ATOM$BLUE        STATIC     ATOMS    COLORGROUP SYSTEM
3 32 33 34
ATOM$RED        STATIC     ATOMS    COLORGROUP SYSTEM
3 19 31 30
