AV-unprocessed.smi:3170|AV-procd|sdf|12108|dock7
  -GOLD-   2272017543D 1   1.00000     0.00000
 Structure written by MMmdl.
 36 37  0  0  0  0  0  0  0  0  2 V2000
  148.8481  133.5218  155.2714 O   0  0  0  0  0  0  0  0  0  0  0  0
  148.7710  134.3599  154.3726 C   0  0  0  0  0  0  0  0  0  0  0  0
  148.1335  134.1554  153.2116 N   0  0  0  0  0  0  0  0  0  0  0  0
  147.4404  132.9241  152.8520 C   0  0  0  0  0  0  0  0  0  0  0  0
  147.0252  132.9203  151.3715 C   0  0  0  0  0  0  0  0  0  0  0  0
  145.5701  132.9413  151.2188 N   0  0  0  0  0  0  0  0  0  0  0  0
  144.6652  132.0528  151.7398 C   0  0  0  0  0  0  0  0  0  0  0  0
  143.4259  132.4726  151.3295 C   0  0  0  0  0  0  0  0  0  0  0  0
  143.6273  133.5978  150.5755 N   0  3  0  0  0  0  0  0  0  0  0  0
  144.9324  133.8807  150.5088 C   0  0  0  0  0  0  0  0  0  0  0  0
  149.3173  135.5818  154.4348 N   0  0  0  0  0  0  0  0  0  0  0  0
  150.0802  136.0985  155.5661 C   0  0  0  0  0  0  0  0  0  0  0  0
  150.3241  137.6158  155.4564 C   0  0  1  0  0  0  0  0  0  0  0  0
  151.0940  138.2229  156.6127 C   0  0  0  0  0  0  0  0  0  0  0  0
  151.5782  139.5374  156.0086 C   0  0  0  0  0  0  0  0  0  0  0  0
  151.7697  139.2792  154.6204 O   0  0  0  0  0  0  0  0  0  0  0  0
  151.2038  138.0185  154.2734 C   0  0  0  0  0  0  0  0  0  0  0  0
  148.1221  134.9037  152.5340 H   0  0  0  0  0  0  0  0  0  0  0  0
  148.0746  132.0643  153.0755 H   0  0  0  0  0  0  0  0  0  0  0  0
  146.5588  132.8321  153.4867 H   0  0  0  0  0  0  0  0  0  0  0  0
  147.4301  133.7913  150.8545 H   0  0  0  0  0  0  0  0  0  0  0  0
  147.4057  132.0363  150.8571 H   0  0  0  0  0  0  0  0  0  0  0  0
  144.9625  131.2099  152.3471 H   0  0  0  0  0  0  0  0  0  0  0  0
  142.4421  132.0654  151.5122 H   0  0  0  0  0  0  0  0  0  0  0  0
  145.3825  134.7047  149.9838 H   0  0  0  0  0  0  0  0  0  0  0  0
  149.1996  136.1995  153.6451 H   0  0  0  0  0  0  0  0  0  0  0  0
  149.5266  135.8716  156.4777 H   0  0  0  0  0  0  0  0  0  0  0  0
  151.0311  135.5686  155.6447 H   0  0  0  0  0  0  0  0  0  0  0  0
  149.3689  138.1356  155.3640 H   0  0  0  0  0  0  0  0  0  0  0  0
  150.4866  138.3670  157.5067 H   0  0  0  0  0  0  0  0  0  0  0  0
  151.9471  137.5954  156.8751 H   0  0  0  0  0  0  0  0  0  0  0  0
  150.8144  140.3085  156.1150 H   0  0  0  0  0  0  0  0  0  0  0  0
  152.4933  139.8997  156.4774 H   0  0  0  0  0  0  0  0  0  0  0  0
  152.0178  137.3055  154.1347 H   0  0  0  0  0  0  0  0  0  0  0  0
  150.6444  138.0769  153.3395 H   0  0  0  0  0  0  0  0  0  0  0  0
  142.8965  134.1389  150.1308 H   0  0  0  0  0  0  0  0  0  0  0  0
  1  2  2  0  0  0  0
  2  3  1  0  0  0  0
  2 11  1  0  0  0  0
  3  4  1  0  0  0  0
  3 18  1  0  0  0  0
  4  5  1  0  0  0  0
  4 19  1  0  0  0  0
  4 20  1  0  0  0  0
  5  6  1  0  0  0  0
  5 21  1  0  0  0  0
  5 22  1  0  0  0  0
  6 10  1  0  0  0  0
  6  7  1  0  0  0  0
  7  8  2  0  0  0  0
  7 23  1  0  0  0  0
  8  9  1  0  0  0  0
  8 24  1  0  0  0  0
  9 10  2  0  0  0  0
  9 36  1  0  0  0  0
 10 25  1  0  0  0  0
 11 12  1  0  0  0  0
 11 26  1  0  0  0  0
 12 13  1  0  0  0  0
 12 27  1  0  0  0  0
 12 28  1  0  0  0  0
 13 17  1  0  0  0  0
 13 14  1  0  0  0  0
 13 29  1  0  0  0  0
 14 15  1  0  0  0  0
 14 30  1  0  0  0  0
 14 31  1  0  0  0  0
 15 16  1  0  0  0  0
 15 32  1  0  0  0  0
 15 33  1  0  0  0  0
 16 17  1  0  0  0  0
 17 34  1  0  0  0  0
 17 35  1  0  0  0  0
M  CHG  1   9   1
M  END
> <s_m_source_file>
AV-unprocessed.smi

> <i_m_source_file_index>
3170

> <i_lp_mmshare_version>
43012

> <i_f3d_flags>
0

> <s_epik_input>
W0NIMl0xT1tDSDJdW0NIMl1bQ0BIXTFbQ0gyXVtOSF1DKD1PKVtOSF1bQ0gyXVtDSDJdbjJbY0hdW2NIXW5bY0hdMg==

> <s_epik_cmdline>
J2VwaWtfcHl0aG9uJywgJy1waCcsICc3LjAnLCAnLXRuJywgJzgnLCAnLW1hJywgJzIwMCcsICctbWV0YWxfYmluZGluZycsICctaW1hZScsICc8aW5maWxlLm1hZT4nLCAnLW9tYWUnLCAnPG91dGZpbGUubWFlPic=

> <r_lp_tautomer_probability>
1

> <r_epik_Ionization_Penalty>
0.255699

> <r_epik_Ionization_Penalty_Charging>
0

> <r_epik_Ionization_Penalty_Neutral>
0.255699

> <r_epik_State_Penalty>
0.247169

> <r_epik_Charging_Adjusted_Penalty>
0.247169

> <i_epik_Tot_Q>
1

> <i_epik_Tot_abs_Q>
1

> <r_epik_Metal_State_Penalty>
0.536793

> <b_epik_Metal_Only>
0

> <s_lp_Force_Field>
OPLS_2005

> <r_lp_Energy>
18.8209

> <b_lp_Chiralities_Consistent>
1

> <s_lp_Variant>
AV-unprocessed.smi:3170-2

> <Gold.Version>
5.8.1

> <Gold.Id.Protein>
6NUR|6NUR_protein|mol2

> <Gold.PLP.Fitness>
44.1294

> <Gold.PLP.PLP>
-27.6370

> <Gold.PLP.part.hbond>
-4.0000

> <Gold.PLP.part.metal>
0.0000

> <Gold.PLP.part.buried>
-1.4079

> <Gold.PLP.part.nonpolar>
-21.9270

> <Gold.PLP.part.repulsive>
0.1259

> <Gold.PLP.ligand.clash>
0.0000

> <Gold.PLP.ligand.torsion>
0.4937

> <Gold.PLP.Chemscore.Hbond>
4.8560

> <Gold.PLP.Chemscore.CHOScore>
0.9652

> <Gold.PLP.Chemscore.Metal>
0.0000

> <Gold.Chemscore.Hbonds>
donor molecule, donor type, donor heavy atom, donor atom, acceptor molecule, acceptor atom, score
      L1  H     3    18       P1  7948  0.93
      L1  H     9    36       P1 10186  2.00
      L1  H    11    26       P1  7948  0.85
      P1  H  7989  7998       L1    16  1.00
      L1  C    10    25       P1  7921  0.98

> <Gold.PLP.Chemscore.Internal.Correction>
0.0163

> <Gold.Rescore>
     Score         DG    S(hbond)    S(metal)    S(lipo)     H(rot)  DE(clash)    DE(int)     intcor
     16.36     -17.11       3.41        0.00      53.11       2.33       0.13       0.62       ----

> <Gold.Chemscore.Fitness>
16.3569

> <Gold.Chemscore.DG>
-17.1120

> <Gold.Chemscore.ZeroCoef>
-5.4800

> <Gold.Chemscore.Hbond>
3.4071

> <Gold.Chemscore.Metal>
0.0000

> <Gold.Chemscore.Lipo>
53.1095

> <Gold.Chemscore.Internal_Hbond>
0.0000

> <Gold.Chemscore.DEClash>
0.1318

> <Gold.Chemscore.DEInternal>
0.6232

> <Gold.Chemscore.Rot>
2.3288

> <Gold.Chemscore.Internal.Correction>
   9.000000E+99

> <Gold.Chemscore.Hbonds>
donor molecule, donor type, donor heavy atom, donor atom, acceptor molecule, acceptor atom, score
      L1  H     3    18       P1  7948  0.64
      L1  H     9    36       P1 10186  0.91
      L1  H    11    26       P1  7948  0.77
      P1  H  7989  7998       L1    16  0.86

> <Gold.Chemscore.Hbond.Weighted>
-11.3798

> <Gold.Chemscore.Metal.Weighted>
-0.0000

> <Gold.Chemscore.Lipo.Weighted>
-6.2138

> <Gold.Chemscore.Internal_Hbond.Weighted>
0.0000

> <Gold.Chemscore.DEClash.Weighted>
0.1318

> <Gold.Chemscore.DEInternal.Weighted>
0.6232

> <Gold.Chemscore.Rot.Weighted>
5.9617

> <Gold.Chemscore.Internal.Correction.Weighted>
   9.000000E+99

> <Gold.Protein.RotatedTorsions>
[ 6907 6896 6895 6894 ] final   -2.92 input  -60.11 | X-H torsion
[ 7974 7965 7964 7962 ] final   23.29 input  175.53 | X-H torsion
[ 8008 7997 7996 7995 ] final -168.63 input   59.86 | X-H torsion
[ 10167 10162 10161 10158 ] final   61.91 input  -65.29 | X-H torsion
[ 10718 10713 10712 10709 ] final   39.04 input   66.30 | X-H torsion
[ 10763 10752 10751 10750 ] final  -38.17 input  -60.55 | X-H torsion
[ 11005 11000 10999 10996 ] final  149.90 input  -57.11 | X-H torsion

> <Gold.Protein.ActiveResidues>
 VAL166  LYS551  ARG553  GLY616  TRP617  ASP618  TYR619  PRO620  LYS621  CYS622 
 ASP623  PHE694  ASN695  SER759  ASP760  ASP761  ALA762  ILE779  LEU786  VAL792 
 PHE793  MET794  SER795  GLU796  ALA797  LYS798  CYS799  TRP800  GLU811  SER814 

> <Gold.Protein.RotatedAtoms>
  151.5221  135.1067  159.9880 H   0  0  0  0  0  0  0  0  0  0  0  0  # atno 6907 bound_to 6896
  152.4616  133.7830  159.6871 H   0  0  0  0  0  0  0  0  0  0  0  0  # atno 6908 bound_to 6896
  150.8581  133.7621  159.3027 H   0  0  0  0  0  0  0  0  0  0  0  0  # atno 6909 bound_to 6896
  146.1991  139.7765  142.8775 H   0  0  0  0  0  0  0  0  0  0  0  0  # atno 7974 bound_to 7965
  155.8940  140.1029  157.1398 H   0  0  0  0  0  0  0  0  0  0  0  0  # atno 8008 bound_to 7997
  154.4018  140.1305  156.4415 H   0  0  0  0  0  0  0  0  0  0  0  0  # atno 8009 bound_to 7997
  155.7501  140.3465  155.5148 H   0  0  0  0  0  0  0  0  0  0  0  0  # atno 8010 bound_to 7997
  140.1496  144.4475  150.6766 H   0  0  0  0  0  0  0  0  0  0  0  0  # atno 10167 bound_to 10162
  157.3659  130.7675  149.7082 H   0  0  0  0  0  0  0  0  0  0  0  0  # atno 10718 bound_to 10713
  153.9084  135.6795  153.4752 H   0  0  0  0  0  0  0  0  0  0  0  0  # atno 10763 bound_to 10752
  153.1092  135.4791  154.9002 H   0  0  0  0  0  0  0  0  0  0  0  0  # atno 10764 bound_to 10752
  154.7540  135.3192  154.8460 H   0  0  0  0  0  0  0  0  0  0  0  0  # atno 10765 bound_to 10752
  140.1084  134.8939  157.1900 H   0  0  0  0  0  0  0  0  0  0  0  0  # atno 11005 bound_to 11000
  145.3545  141.0314  143.3320 LP  0  0  0  0  0  0  0  0  0  0  0  0  # atno 17320 bound_to 7965
  144.8644  139.5130  143.6797 LP  0  0  0  0  0  0  0  0  0  0  0  0  # atno 17321 bound_to 7965
  140.6711  143.2286  151.5624 LP  0  0  0  0  0  0  0  0  0  0  0  0  # atno 17342 bound_to 10162
  139.5432  144.2591  152.1392 LP  0  0  0  0  0  0  0  0  0  0  0  0  # atno 17343 bound_to 10162
  155.9746  130.4101  150.3910 LP  0  0  0  0  0  0  0  0  0  0  0  0  # atno 17370 bound_to 10713
  157.1995  131.0434  151.2658 LP  0  0  0  0  0  0  0  0  0  0  0  0  # atno 17371 bound_to 10713
  140.3124  134.3009  155.7264 LP  0  0  0  0  0  0  0  0  0  0  0  0  # atno 17394 bound_to 11000
  141.2124  133.7658  156.9795 LP  0  0  0  0  0  0  0  0  0  0  0  0  # atno 17395 bound_to 11000

$$$$
