AV-unprocessed.smi:1244|AV-procd|sdf|5224|dock9
  -GOLD-   22720 4323D 1   1.00000     0.00000
 Structure written by MMmdl.
 55 57  0  0  0  0  0  0  0  0  2 V2000
  146.0037  131.6803  149.3552 C   0  0  0  0  0  0  0  0  0  0  0  0
  145.3869  131.8584  150.7540 C   0  0  2  0  0  0  0  0  0  0  0  0
  146.2039  132.7872  151.6739 C   0  0  0  0  0  0  0  0  0  0  0  0
  147.4391  132.1205  152.1503 N   0  3  1  0  0  0  0  0  0  0  0  0
  148.2806  133.0178  152.9806 C   0  0  0  0  0  0  0  0  0  0  0  0
  147.4590  133.7897  154.0312 C   0  0  0  0  0  0  0  0  0  0  0  0
  147.8280  135.1997  154.0708 N   0  0  0  0  0  0  0  0  0  0  0  0
  149.0253  135.6646  154.4540 C   0  0  0  0  0  0  0  0  0  0  0  0
  149.9563  134.9363  154.7982 O   0  0  0  0  0  0  0  0  0  0  0  0
  149.0724  137.0054  154.3901 N   0  0  0  0  0  0  0  0  0  0  0  0
  150.1741  137.8577  154.6843 C   0  0  0  0  0  0  0  0  0  0  0  0
  151.4256  137.3347  155.0922 C   0  0  0  0  0  0  0  0  0  0  0  0
  152.4626  138.2172  155.4394 C   0  0  0  0  0  0  0  0  0  0  0  0
  152.2069  139.5973  155.3831 C   0  0  0  0  0  0  0  0  0  0  0  0
  151.0177  140.1111  155.0107 N   0  0  0  0  0  0  0  0  0  0  0  0
  150.0118  139.2727  154.6589 C   0  0  0  0  0  0  0  0  0  0  0  0
  148.7930  139.8679  154.2608 N   0  0  0  0  0  0  0  0  0  0  0  0
  147.5478  139.5299  154.9425 C   0  0  0  0  0  0  0  0  0  0  0  0
  146.5636  140.6195  154.5281 C   0  0  0  0  0  0  0  0  0  0  0  0
  147.4592  141.8519  154.4472 C   0  0  0  0  0  0  0  0  0  0  0  0
  148.7996  141.2959  153.9553 C   0  0  0  0  0  0  0  0  0  0  0  0
  147.1061  130.8341  152.8079 C   0  0  0  0  0  0  0  0  0  0  0  0
  146.3184  129.9286  151.8438 C   0  0  1  0  0  0  0  0  0  0  0  0
  145.8817  128.6199  152.5114 C   0  0  0  0  0  0  0  0  0  0  0  0
  145.1465  130.6095  151.4027 O   0  0  0  0  0  0  0  0  0  0  0  0
  146.0505  132.6348  148.8302 H   0  0  0  0  0  0  0  0  0  0  0  0
  145.4028  131.0018  148.7492 H   0  0  0  0  0  0  0  0  0  0  0  0
  147.0178  131.2842  149.3957 H   0  0  0  0  0  0  0  0  0  0  0  0
  144.4075  132.3152  150.6082 H   0  0  0  0  0  0  0  0  0  0  0  0
  146.4511  133.7082  151.1441 H   0  0  0  0  0  0  0  0  0  0  0  0
  145.6000  133.0725  152.5370 H   0  0  0  0  0  0  0  0  0  0  0  0
  149.0254  132.4130  153.5001 H   0  0  0  0  0  0  0  0  0  0  0  0
  148.8349  133.7056  152.3399 H   0  0  0  0  0  0  0  0  0  0  0  0
  146.3950  133.7428  153.8032 H   0  0  0  0  0  0  0  0  0  0  0  0
  147.5855  133.3441  155.0196 H   0  0  0  0  0  0  0  0  0  0  0  0
  147.1203  135.8676  153.8004 H   0  0  0  0  0  0  0  0  0  0  0  0
  148.2651  137.4650  153.9946 H   0  0  0  0  0  0  0  0  0  0  0  0
  151.5996  136.2722  155.1667 H   0  0  0  0  0  0  0  0  0  0  0  0
  153.4259  137.8442  155.7541 H   0  0  0  0  0  0  0  0  0  0  0  0
  152.9749  140.3079  155.6503 H   0  0  0  0  0  0  0  0  0  0  0  0
  147.1962  138.5370  154.6603 H   0  0  0  0  0  0  0  0  0  0  0  0
  147.6786  139.5537  156.0252 H   0  0  0  0  0  0  0  0  0  0  0  0
  146.1485  140.3945  153.5447 H   0  0  0  0  0  0  0  0  0  0  0  0
  145.7367  140.7352  155.2293 H   0  0  0  0  0  0  0  0  0  0  0  0
  147.0582  142.6286  153.7957 H   0  0  0  0  0  0  0  0  0  0  0  0
  147.5829  142.2795  155.4430 H   0  0  0  0  0  0  0  0  0  0  0  0
  149.6396  141.8126  154.4222 H   0  0  0  0  0  0  0  0  0  0  0  0
  148.8807  141.4247  152.8756 H   0  0  0  0  0  0  0  0  0  0  0  0
  148.0140  130.3183  153.1180 H   0  0  0  0  0  0  0  0  0  0  0  0
  146.5232  131.0253  153.7106 H   0  0  0  0  0  0  0  0  0  0  0  0
  146.9430  129.6763  150.9866 H   0  0  0  0  0  0  0  0  0  0  0  0
  146.7431  128.0519  152.8632 H   0  0  0  0  0  0  0  0  0  0  0  0
  145.3328  127.9896  151.8112 H   0  0  0  0  0  0  0  0  0  0  0  0
  145.2332  128.8094  153.3673 H   0  0  0  0  0  0  0  0  0  0  0  0
  147.9791  131.9019  151.3251 H   0  0  0  0  0  0  0  0  0  0  0  0
  1  2  1  0  0  0  0
  1 26  1  0  0  0  0
  1 27  1  0  0  0  0
  1 28  1  0  0  0  0
  2 25  1  0  0  0  0
  2  3  1  0  0  0  0
  2 29  1  0  0  0  0
  3  4  1  0  0  0  0
  3 30  1  0  0  0  0
  3 31  1  0  0  0  0
  4  5  1  0  0  0  0
  4 22  1  0  0  0  0
  4 55  1  0  0  0  0
  5  6  1  0  0  0  0
  5 32  1  0  0  0  0
  5 33  1  0  0  0  0
  6  7  1  0  0  0  0
  6 34  1  0  0  0  0
  6 35  1  0  0  0  0
  7  8  1  0  0  0  0
  7 36  1  0  0  0  0
  8  9  2  0  0  0  0
  8 10  1  0  0  0  0
 10 11  1  0  0  0  0
 10 37  1  0  0  0  0
 11 16  1  0  0  0  0
 11 12  2  0  0  0  0
 12 13  1  0  0  0  0
 12 38  1  0  0  0  0
 13 14  2  0  0  0  0
 13 39  1  0  0  0  0
 14 15  1  0  0  0  0
 14 40  1  0  0  0  0
 15 16  2  0  0  0  0
 16 17  1  0  0  0  0
 17 21  1  0  0  0  0
 17 18  1  0  0  0  0
 18 19  1  0  0  0  0
 18 41  1  0  0  0  0
 18 42  1  0  0  0  0
 19 20  1  0  0  0  0
 19 43  1  0  0  0  0
 19 44  1  0  0  0  0
 20 21  1  0  0  0  0
 20 45  1  0  0  0  0
 20 46  1  0  0  0  0
 21 47  1  0  0  0  0
 21 48  1  0  0  0  0
 22 23  1  0  0  0  0
 22 49  1  0  0  0  0
 22 50  1  0  0  0  0
 23 24  1  0  0  0  0
 23 25  1  0  0  0  0
 23 51  1  0  0  0  0
 24 52  1  0  0  0  0
 24 53  1  0  0  0  0
 24 54  1  0  0  0  0
M  CHG  1   4   1
M  END
> <s_m_source_file>
AV-unprocessed.smi

> <i_m_source_file_index>
1244

> <i_lp_mmshare_version>
43012

> <i_f3d_flags>
0

> <s_epik_input>
W0NIM11bQ0BASF0xW0NIMl1OKFtDSDJdW0NASF0oTzEpW0NIM10pW0NIMl1bQ0gyXVtOSF1DKD1PKVtOSF1jMltjSF1bY0hdW2NIXW5jMk4zW0NIMl1bQ0gyXVtDSDJdW0NIMl0z

> <s_epik_cmdline>
J2VwaWtfcHl0aG9uJywgJy1waCcsICc3LjAnLCAnLXRuJywgJzgnLCAnLW1hJywgJzIwMCcsICctbWV0YWxfYmluZGluZycsICctaW1hZScsICc8aW5maWxlLm1hZT4nLCAnLW9tYWUnLCAnPG91dGZpbGUubWFlPic=

> <r_lp_tautomer_probability>
1

> <r_epik_Ionization_Penalty>
0.684913

> <r_epik_Ionization_Penalty_Charging>
0.602531

> <r_epik_Ionization_Penalty_Neutral>
0.0823829

> <r_epik_State_Penalty>
0.678827

> <r_epik_Charging_Adjusted_Penalty>
1.28136

> <i_epik_Tot_Q>
1

> <i_epik_Tot_abs_Q>
1

> <r_epik_Metal_State_Penalty>
0.67806

> <b_epik_Metal_Only>
0

> <s_lp_Force_Field>
OPLS_2005

> <r_lp_Energy>
45.4431

> <b_lp_Chiralities_Consistent>
1

> <s_lp_Variant>
AV-unprocessed.smi:1244-4

> <Gold.Version>
5.8.1

> <Gold.Id.Protein>
6NUR|6NUR_protein|mol2

> <Gold.PLP.Fitness>
47.3965

> <Gold.PLP.PLP>
-42.5196

> <Gold.PLP.part.hbond>
-4.0000

> <Gold.PLP.part.metal>
0.0000

> <Gold.PLP.part.buried>
-1.3190

> <Gold.PLP.part.nonpolar>
-38.3637

> <Gold.PLP.part.repulsive>
0.4804

> <Gold.PLP.ligand.clash>
0.0000

> <Gold.PLP.ligand.torsion>
0.6710

> <Gold.PLP.Chemscore.Hbond>
1.9500

> <Gold.PLP.Chemscore.CHOScore>
0.0000

> <Gold.PLP.Chemscore.Metal>
0.0000

> <Gold.Chemscore.Hbonds>
donor molecule, donor type, donor heavy atom, donor atom, acceptor molecule, acceptor atom, score
      L1  H     4    55       P1 10747  1.00
      P1  H  7989  7998       L1    15  0.75

> <Gold.PLP.Chemscore.Internal.Correction>
0.3690

> <Gold.Rescore>
     Score         DG    S(hbond)    S(metal)    S(lipo)     H(rot)  DE(clash)    DE(int)     intcor
     13.93     -17.41       0.99        0.00     108.66       1.60       1.38       2.09       ----

> <Gold.Chemscore.Fitness>
13.9336

> <Gold.Chemscore.DG>
-17.4062

> <Gold.Chemscore.ZeroCoef>
-5.4800

> <Gold.Chemscore.Hbond>
0.9891

> <Gold.Chemscore.Metal>
0.0000

> <Gold.Chemscore.Lipo>
108.6576

> <Gold.Chemscore.Internal_Hbond>
0.0000

> <Gold.Chemscore.DEClash>
1.3829

> <Gold.Chemscore.DEInternal>
2.0897

> <Gold.Chemscore.Rot>
1.5978

> <Gold.Chemscore.Internal.Correction>
   9.000000E+99

> <Gold.Chemscore.Hbonds>
donor molecule, donor type, donor heavy atom, donor atom, acceptor molecule, acceptor atom, score
      L1  H     4    55       P1 10747  0.98
      P1  H  7989  7998       L1    15  0.06

> <Gold.Chemscore.Hbond.Weighted>
-3.3037

> <Gold.Chemscore.Metal.Weighted>
-0.0000

> <Gold.Chemscore.Lipo.Weighted>
-12.7129

> <Gold.Chemscore.Internal_Hbond.Weighted>
0.0000

> <Gold.Chemscore.DEClash.Weighted>
1.3829

> <Gold.Chemscore.DEInternal.Weighted>
2.0897

> <Gold.Chemscore.Rot.Weighted>
4.0905

> <Gold.Chemscore.Internal.Correction.Weighted>
   9.000000E+99

> <Gold.Protein.RotatedTorsions>
[ 6907 6896 6895 6894 ] final  -71.89 input  -60.11 | X-H torsion
[ 7974 7965 7964 7962 ] final   68.20 input  175.53 | X-H torsion
[ 8008 7997 7996 7995 ] final -160.00 input   59.86 | X-H torsion
[ 10167 10162 10161 10158 ] final  127.88 input  -65.29 | X-H torsion
[ 10718 10713 10712 10709 ] final  163.54 input   66.30 | X-H torsion
[ 10763 10752 10751 10750 ] final   92.40 input  -60.55 | X-H torsion
[ 11005 11000 10999 10996 ] final   21.76 input  -57.11 | X-H torsion

> <Gold.Protein.ActiveResidues>
 VAL166  LYS551  ARG553  GLY616  TRP617  ASP618  TYR619  PRO620  LYS621  CYS622 
 ASP623  PHE694  ASN695  SER759  ASP760  ASP761  ALA762  ILE779  LEU786  VAL792 
 PHE793  MET794  SER795  GLU796  ALA797  LYS798  CYS799  TRP800  GLU811  SER814 

> <Gold.Protein.RotatedAtoms>
  150.7193  134.5242  159.5668 H   0  0  0  0  0  0  0  0  0  0  0  0  # atno 6907 bound_to 6896
  152.2790  134.7846  160.0409 H   0  0  0  0  0  0  0  0  0  0  0  0  # atno 6908 bound_to 6896
  151.8499  133.3403  159.3706 H   0  0  0  0  0  0  0  0  0  0  0  0  # atno 6909 bound_to 6896
  145.8055  139.3005  143.1130 H   0  0  0  0  0  0  0  0  0  0  0  0  # atno 7974 bound_to 7965
  155.7710  140.0852  157.2108 H   0  0  0  0  0  0  0  0  0  0  0  0  # atno 8008 bound_to 7997
  154.3996  140.1525  156.2999 H   0  0  0  0  0  0  0  0  0  0  0  0  # atno 8009 bound_to 7997
  155.8747  140.3423  155.5848 H   0  0  0  0  0  0  0  0  0  0  0  0  # atno 8010 bound_to 7997
  139.5555  144.6846  151.4194 H   0  0  0  0  0  0  0  0  0  0  0  0  # atno 10167 bound_to 10162
  157.1070  131.0458  151.2473 H   0  0  0  0  0  0  0  0  0  0  0  0  # atno 10718 bound_to 10713
  153.2188  135.4362  155.0465 H   0  0  0  0  0  0  0  0  0  0  0  0  # atno 10763 bound_to 10752
  154.8239  135.3351  154.6958 H   0  0  0  0  0  0  0  0  0  0  0  0  # atno 10764 bound_to 10752
  153.7391  135.7006  153.5027 H   0  0  0  0  0  0  0  0  0  0  0  0  # atno 10765 bound_to 10752
  140.3880  134.1849  155.7663 H   0  0  0  0  0  0  0  0  0  0  0  0  # atno 11005 bound_to 11000
  145.9833  140.8665  143.0103 LP  0  0  0  0  0  0  0  0  0  0  0  0  # atno 17320 bound_to 7965
  144.6763  140.2110  143.7377 LP  0  0  0  0  0  0  0  0  0  0  0  0  # atno 17321 bound_to 7965
  140.6827  143.8044  150.7144 LP  0  0  0  0  0  0  0  0  0  0  0  0  # atno 17342 bound_to 10162
  140.1502  143.4364  152.2136 LP  0  0  0  0  0  0  0  0  0  0  0  0  # atno 17343 bound_to 10162
  157.4592  130.7643  149.7220 LP  0  0  0  0  0  0  0  0  0  0  0  0  # atno 17370 bound_to 10713
  155.9859  130.3979  150.3236 LP  0  0  0  0  0  0  0  0  0  0  0  0  # atno 17371 bound_to 10713
  141.1900  133.8225  157.0933 LP  0  0  0  0  0  0  0  0  0  0  0  0  # atno 17394 bound_to 11000
  140.0428  134.9846  157.0993 LP  0  0  0  0  0  0  0  0  0  0  0  0  # atno 17395 bound_to 11000

$$$$
