#       Name:                AV-unprocessed.smi:1424
#       Creating user name   scv26
#       Creation time:       Fri Mar 27 05:45:13 2020


#       File generated by GOLD software.
#

@<TRIPOS>MOLECULE
AV-unprocessed.smi:1424
    49    51     1
SMALL
NO_CHARGES


@<TRIPOS>ATOM
      1 ****         1.5131   1.7432  -0.1459 O.2            1 S1                 0.0000
      2 ****         0.9137   0.6820  -0.3174 C.2            1 S1                 0.0000
      3 ****         1.5271  -0.5039  -0.4391 N.am           1 S1                 0.0000
      4 ****         2.9710  -0.7191  -0.4130 C.3            1 S1                 0.0000
      5 ****         3.4685  -1.1942   0.9664 C.3            1 S1                 0.0000
      6 ****         3.2629  -0.1643   2.0983 C.3            1 S1                 0.0000
      7 ****         4.0550  -0.6209   3.3274 C.3            1 S1                 0.0000
      8 ****         5.5584  -1.4321   2.6704 S.o2           1 S1                 0.0000
      9 ****         6.6834  -0.4856   2.7107 O.2            1 S1                 0.0000
     10 ****         5.6763  -2.7744   3.2597 O.2            1 S1                 0.0000
     11 ****         4.9596  -1.5693   0.9430 C.3            1 S1                 0.0000
     12 ****        -0.4193   0.5494  -0.4231 N.am           1 S1                 0.0000
     13 ****        -1.4214   1.5614  -0.3784 C.ar           1 S1                 0.0000
     14 ****        -1.2421   2.7859   0.3109 C.ar           1 S1                 0.0000
     15 ****        -2.2845   3.7299   0.3184 C.ar           1 S1                 0.0000
     16 ****        -3.4761   3.4134  -0.3563 C.ar           1 S1                 0.0000
     17 ****        -3.6695   2.2462  -1.0025 N.ar           1 S1                 0.0000
     18 ****        -2.6688   1.3321  -1.0199 C.ar           1 S1                 0.0000
     19 ****        -2.9150   0.1072  -1.6740 N.3            1 S1                 0.0000
     20 ****        -3.2725  -0.9759  -0.7625 C.3            1 S1                 0.0000
     21 ****        -4.2864  -1.8468  -1.5059 C.3            1 S1                 0.0000
     22 ****        -4.9675  -0.8534  -2.4386 C.3            1 S1                 0.0000
     23 ****        -3.8213   0.0820  -2.8217 C.3            1 S1                 0.0000
     24 ****         0.9511  -1.3211  -0.5790 H              1 S1                 0.0000
     25 ****         3.1995  -1.4785  -1.1614 H              1 S1                 0.0000
     26 ****         3.5060   0.1803  -0.7237 H              1 S1                 0.0000
     27 ****         2.9144  -2.0929   1.2425 H              1 S1                 0.0000
     28 ****         3.6419   0.8058   1.7739 H              1 S1                 0.0000
     29 ****         2.2089  -0.0289   2.3415 H              1 S1                 0.0000
     30 ****         4.3269   0.1990   3.9925 H              1 S1                 0.0000
     31 ****         3.4930  -1.3622   3.8959 H              1 S1                 0.0000
     32 ****         5.1375  -2.5755   0.5631 H              1 S1                 0.0000
     33 ****         5.5330  -0.8656   0.3386 H              1 S1                 0.0000
     34 ****        -0.7549  -0.3748  -0.6522 H              1 S1                 0.0000
     35 ****        -0.3331   3.0136   0.8456 H              1 S1                 0.0000
     36 ****        -2.1738   4.6722   0.8341 H              1 S1                 0.0000
     37 ****        -4.2996   4.1119  -0.3710 H              1 S1                 0.0000
     38 ****        -2.3941  -1.5510  -0.4691 H              1 S1                 0.0000
     39 ****        -3.7250  -0.5701   0.1444 H              1 S1                 0.0000
     40 ****        -3.7658  -2.6059  -2.0918 H              1 S1                 0.0000
     41 ****        -4.9828  -2.3529  -0.8370 H              1 S1                 0.0000
     42 ****        -5.4366  -1.3268  -3.3015 H              1 S1                 0.0000
     43 ****        -5.7341  -0.2991  -1.8952 H              1 S1                 0.0000
     44 ****        -4.1855   1.0617  -3.1316 H              1 S1                 0.0000
     45 ****        -3.2718  -0.3325  -3.6676 H              1 S1                 0.0000
     46 ****         2.5115   1.7502  -0.0905 LP             1 S1                 0.0000
     47 ****         1.0017   2.5984  -0.0619 LP             1 S1                 0.0000
     48 ****        -4.5376   2.0577  -1.4617 LP             1 S1                 0.0000
     49 ****        -2.0091  -0.0366  -2.0723 LP             1 S1                 0.0000
@<TRIPOS>BOND
    1    1    2 2     
    2    2    3 am    
    3    2   12 am    
    4    3    4 1     
    5    3   24 1     
    6    4    5 1     
    7    4   25 1     
    8    4   26 1     
    9    5   11 1     
   10    5    6 1     
   11    5   27 1     
   12    6    7 1     
   13    6   28 1     
   14    6   29 1     
   15    7    8 1     
   16    7   30 1     
   17    7   31 1     
   18    8    9 2     
   19    8   10 2     
   20    8   11 1     
   21   11   32 1     
   22   11   33 1     
   23   12   13 1     
   24   12   34 1     
   25   13   18 ar    
   26   13   14 ar    
   27   14   15 ar    
   28   14   35 1     
   29   15   16 ar    
   30   15   36 1     
   31   16   17 ar    
   32   16   37 1     
   33   17   18 ar    
   34   18   19 1     
   35   19   23 1     
   36   19   20 1     
   37   20   21 1     
   38   20   38 1     
   39   20   39 1     
   40   21   22 1     
   41   21   40 1     
   42   21   41 1     
   43   22   23 1     
   44   22   42 1     
   45   22   43 1     
   46   23   44 1     
   47   23   45 1     
   48    1   46 1     
   49    1   47 1     
   50   17   48 1     
   51   19   49 1     
@<TRIPOS>SUBSTRUCTURE
      1 S1             1
@<TRIPOS>SET
LONE_PAIRS      STATIC     ATOMS    <user>   **** ""
6 46 47 9 10 48 49
DONOR_HYDROGENS      STATIC     ATOMS    <user>   **** ""
2 24 34
ATOM$BLUE        STATIC     ATOMS    COLORGROUP SYSTEM
6 46 47 9 10 48 49
ATOM$RED        STATIC     ATOMS    COLORGROUP SYSTEM
2 24 34
