AV-unprocessed.smi:2822|AV-procd|sdf|10865|dock2
  -GOLD-   2272015313D 1   1.00000     0.00000
 Structure written by MMmdl.
 41 43  0  0  0  0  0  0  0  0  3 V2000
  149.9247  138.1763  154.3109 Cl  0  0  0  0  0  0  0  0  0  0  0  0
  148.9338  139.5881  154.1881 C   0  0  0  0  0  0  0  0  0  0  0  0
  149.4034  140.8078  154.7176 C   0  0  0  0  0  0  0  0  0  0  0  0
  148.6427  141.9196  154.6305 N   0  3  0  0  0  0  0  0  0  0  0  0
  147.4254  141.9259  154.0478 C   0  0  0  0  0  0  0  0  0  0  0  0
  146.9021  140.7379  153.4988 C   0  0  0  0  0  0  0  0  0  0  0  0
  147.6620  139.5428  153.5650 C   0  0  0  0  0  0  0  0  0  0  0  0
  147.1963  138.3267  153.0406 N   0  0  0  0  0  0  0  0  0  0  0  0
  145.7777  138.1115  152.7966 C   0  0  0  0  0  0  0  0  0  0  0  0
  145.4881  136.6639  152.3738 C   0  0  1  0  0  0  0  0  0  0  0  0
  145.8282  136.4327  150.8844 C   0  0  0  0  0  0  0  0  0  0  0  0
  145.6678  135.0090  150.5015 N   0  3  2  0  0  0  0  0  0  0  0  0
  144.2487  134.6048  150.3057 C   0  0  0  0  0  0  0  0  0  0  0  0
  144.1404  133.1434  149.8468 C   0  0  0  0  0  0  0  0  0  0  0  0
  144.8319  132.2100  150.8464 C   0  0  0  0  0  0  0  0  0  0  0  0
  146.2937  132.6378  151.0324 C   0  0  0  0  0  0  0  0  0  0  0  0
  146.4300  134.1241  151.4256 C   0  0  2  0  0  0  0  0  0  0  0  0
  146.0590  134.4208  152.8940 C   0  0  0  0  0  0  0  0  0  0  0  0
  146.2939  135.7976  153.1681 O   0  0  0  0  0  0  0  0  0  0  0  0
  150.3597  140.9261  155.2060 H   0  0  0  0  0  0  0  0  0  0  0  0
  146.9089  142.8749  154.0389 H   0  0  0  0  0  0  0  0  0  0  0  0
  145.9256  140.7631  153.0389 H   0  0  0  0  0  0  0  0  0  0  0  0
  147.8583  137.7005  152.6038 H   0  0  0  0  0  0  0  0  0  0  0  0
  145.2334  138.3332  153.7154 H   0  0  0  0  0  0  0  0  0  0  0  0
  145.4235  138.8044  152.0321 H   0  0  0  0  0  0  0  0  0  0  0  0
  144.4332  136.4509  152.5536 H   0  0  0  0  0  0  0  0  0  0  0  0
  145.2136  137.0651  150.2425 H   0  0  0  0  0  0  0  0  0  0  0  0
  146.8641  136.7195  150.6983 H   0  0  0  0  0  0  0  0  0  0  0  0
  143.6805  134.7397  151.2258 H   0  0  0  0  0  0  0  0  0  0  0  0
  143.7899  135.2533  149.5585 H   0  0  0  0  0  0  0  0  0  0  0  0
  143.0920  132.8633  149.7395 H   0  0  0  0  0  0  0  0  0  0  0  0
  144.5936  133.0308  148.8609 H   0  0  0  0  0  0  0  0  0  0  0  0
  144.3081  132.2325  151.8025 H   0  0  0  0  0  0  0  0  0  0  0  0
  144.7853  131.1801  150.4913 H   0  0  0  0  0  0  0  0  0  0  0  0
  146.7796  132.0037  151.7749 H   0  0  0  0  0  0  0  0  0  0  0  0
  146.8286  132.4693  150.0966 H   0  0  0  0  0  0  0  0  0  0  0  0
  147.4834  134.3842  151.3100 H   0  0  0  0  0  0  0  0  0  0  0  0
  145.0216  134.1656  153.1139 H   0  0  0  0  0  0  0  0  0  0  0  0
  146.6783  133.8255  153.5653 H   0  0  0  0  0  0  0  0  0  0  0  0
  146.0997  134.9084  149.5940 H   0  0  0  0  0  0  0  0  0  0  0  0
  149.0025  142.7908  155.0219 H   0  0  0  0  0  0  0  0  0  0  0  0
  1  2  1  0  0  0  0
  2  7  1  0  0  0  0
  2  3  2  0  0  0  0
  3  4  1  0  0  0  0
  3 20  1  0  0  0  0
  4  5  2  0  0  0  0
  4 41  1  0  0  0  0
  5  6  1  0  0  0  0
  5 21  1  0  0  0  0
  6  7  2  0  0  0  0
  6 22  1  0  0  0  0
  7  8  1  0  0  0  0
  8  9  1  0  0  0  0
  8 23  1  0  0  0  0
  9 10  1  0  0  0  0
  9 24  1  0  0  0  0
  9 25  1  0  0  0  0
 10 19  1  0  0  0  0
 10 11  1  0  0  0  0
 10 26  1  0  0  0  0
 11 12  1  0  0  0  0
 11 27  1  0  0  0  0
 11 28  1  0  0  0  0
 12 17  1  0  0  0  0
 12 13  1  0  0  0  0
 12 40  1  0  0  0  0
 13 14  1  0  0  0  0
 13 29  1  0  0  0  0
 13 30  1  0  0  0  0
 14 15  1  0  0  0  0
 14 31  1  0  0  0  0
 14 32  1  0  0  0  0
 15 16  1  0  0  0  0
 15 33  1  0  0  0  0
 15 34  1  0  0  0  0
 16 17  1  0  0  0  0
 16 35  1  0  0  0  0
 16 36  1  0  0  0  0
 17 18  1  0  0  0  0
 17 37  1  0  0  0  0
 18 19  1  0  0  0  0
 18 38  1  0  0  0  0
 18 39  1  0  0  0  0
M  CHG  1   4   1
M  CHG  1  12   1
M  END
> <s_m_source_file>
AV-unprocessed.smi

> <i_m_source_file_index>
2822

> <i_lp_mmshare_version>
43012

> <i_f3d_flags>
0

> <s_epik_input>
Q2xjMVtjSF1uW2NIXVtjSF1jMVtOSF1bQ0gyXVtDQEhdKFtDSDJdMilPW0NIMl1bQ0BASF0oTjIzKVtDSDJdW0NIMl1bQ0gyXVtDSDJdMw==

> <s_epik_cmdline>
J2VwaWtfcHl0aG9uJywgJy1waCcsICc3LjAnLCAnLXRuJywgJzgnLCAnLW1hJywgJzIwMCcsICctbWV0YWxfYmluZGluZycsICctaW1hZScsICc8aW5maWxlLm1hZT4nLCAnLW9tYWUnLCAnPG91dGZpbGUubWFlPic=

> <r_lp_tautomer_probability>
1

> <r_epik_Ionization_Penalty>
0.254999

> <r_epik_Ionization_Penalty_Charging>
0.254956

> <r_epik_Ionization_Penalty_Neutral>
4.33524e-05

> <r_epik_State_Penalty>
0.230978

> <r_epik_Charging_Adjusted_Penalty>
0.485934

> <i_epik_Tot_Q>
2

> <i_epik_Tot_abs_Q>
2

> <r_epik_Metal_State_Penalty>
3.47007

> <b_epik_Metal_Only>
0

> <s_lp_Force_Field>
OPLS_2005

> <r_lp_Energy>
40.6185

> <b_lp_Chiralities_Consistent>
1

> <s_lp_Variant>
AV-unprocessed.smi:2822-6

> <Gold.Version>
5.8.1

> <Gold.Id.Protein>
6NUR|6NUR_protein|mol2

> <Gold.PLP.Fitness>
46.1889

> <Gold.PLP.PLP>
-34.7525

> <Gold.PLP.part.hbond>
-3.0000

> <Gold.PLP.part.metal>
0.0000

> <Gold.PLP.part.buried>
-0.7687

> <Gold.PLP.part.nonpolar>
-32.2664

> <Gold.PLP.part.repulsive>
1.0305

> <Gold.PLP.ligand.clash>
0.0000

> <Gold.PLP.ligand.torsion>
0.2819

> <Gold.PLP.Chemscore.Hbond>
4.0000

> <Gold.PLP.Chemscore.CHOScore>
0.0000

> <Gold.PLP.Chemscore.Metal>
0.0000

> <Gold.Chemscore.Hbonds>
donor molecule, donor type, donor heavy atom, donor atom, acceptor molecule, acceptor atom, score
      L1  H     4    41       P1  8028  2.00
      L1  H     8    23       P1  7948  1.00
      L1  H    12    40       P1  7921  1.00

> <Gold.PLP.Chemscore.Internal.Correction>
0.0003

> <Gold.Rescore>
     Score         DG    S(hbond)    S(metal)    S(lipo)     H(rot)  DE(clash)    DE(int)     intcor
     22.21     -23.25       2.72        0.00     100.53       1.20       0.70       0.34       ----

> <Gold.Chemscore.Fitness>
22.2105

> <Gold.Chemscore.DG>
-23.2538

> <Gold.Chemscore.ZeroCoef>
-5.4800

> <Gold.Chemscore.Hbond>
2.7169

> <Gold.Chemscore.Metal>
0.0000

> <Gold.Chemscore.Lipo>
100.5261

> <Gold.Chemscore.Internal_Hbond>
0.0000

> <Gold.Chemscore.DEClash>
0.7017

> <Gold.Chemscore.DEInternal>
0.3416

> <Gold.Chemscore.Rot>
1.1962

> <Gold.Chemscore.Internal.Correction>
   9.000000E+99

> <Gold.Chemscore.Hbonds>
donor molecule, donor type, donor heavy atom, donor atom, acceptor molecule, acceptor atom, score
      L1  H     4    41       P1  8028  0.92
      L1  H     8    23       P1  7948  0.99
      L1  H    12    40       P1  7921  0.64

> <Gold.Chemscore.Hbond.Weighted>
-9.0745

> <Gold.Chemscore.Metal.Weighted>
-0.0000

> <Gold.Chemscore.Lipo.Weighted>
-11.7616

> <Gold.Chemscore.Internal_Hbond.Weighted>
0.0000

> <Gold.Chemscore.DEClash.Weighted>
0.7017

> <Gold.Chemscore.DEInternal.Weighted>
0.3416

> <Gold.Chemscore.Rot.Weighted>
3.0623

> <Gold.Chemscore.Internal.Correction.Weighted>
   9.000000E+99

> <Gold.Protein.RotatedTorsions>
[ 6907 6896 6895 6894 ] final  102.99 input  -60.11 | X-H torsion
[ 7974 7965 7964 7962 ] final  -93.97 input  175.53 | X-H torsion
[ 8008 7997 7996 7995 ] final  -73.41 input   59.86 | X-H torsion
[ 10167 10162 10161 10158 ] final  142.88 input  -65.29 | X-H torsion
[ 10718 10713 10712 10709 ] final  -55.17 input   66.30 | X-H torsion
[ 10763 10752 10751 10750 ] final -100.74 input  -60.55 | X-H torsion
[ 11005 11000 10999 10996 ] final   -2.21 input  -57.11 | X-H torsion

> <Gold.Protein.ActiveResidues>
 VAL166  LYS551  ARG553  GLY616  TRP617  ASP618  TYR619  PRO620  LYS621  CYS622 
 ASP623  PHE694  ASN695  SER759  ASP760  ASP761  ALA762  ILE779  LEU786  VAL792 
 PHE793  MET794  SER795  GLU796  ALA797  LYS798  CYS799  TRP800  GLU811  SER814 

> <Gold.Protein.RotatedAtoms>
  152.5308  133.9892  159.7842 H   0  0  0  0  0  0  0  0  0  0  0  0  # atno 6907 bound_to 6896
  151.0131  133.5938  159.2687 H   0  0  0  0  0  0  0  0  0  0  0  0  # atno 6908 bound_to 6896
  151.3005  135.0774  159.9290 H   0  0  0  0  0  0  0  0  0  0  0  0  # atno 6909 bound_to 6896
  145.3795  140.9516  143.2402 H   0  0  0  0  0  0  0  0  0  0  0  0  # atno 7974 bound_to 7965
  154.5245  140.0779  156.8233 H   0  0  0  0  0  0  0  0  0  0  0  0  # atno 8008 bound_to 7997
  155.3505  140.3412  155.4221 H   0  0  0  0  0  0  0  0  0  0  0  0  # atno 8009 bound_to 7997
  156.1717  140.1622  156.8423 H   0  0  0  0  0  0  0  0  0  0  0  0  # atno 8010 bound_to 7997
  139.4983  144.6077  151.6341 H   0  0  0  0  0  0  0  0  0  0  0  0  # atno 10167 bound_to 10162
  156.1390  130.4155  150.0135 H   0  0  0  0  0  0  0  0  0  0  0  0  # atno 10718 bound_to 10713
  154.7603  135.4923  153.9452 H   0  0  0  0  0  0  0  0  0  0  0  0  # atno 10763 bound_to 10752
  153.1244  135.6739  153.9290 H   0  0  0  0  0  0  0  0  0  0  0  0  # atno 10764 bound_to 10752
  153.9012  135.3109  155.3427 H   0  0  0  0  0  0  0  0  0  0  0  0  # atno 10765 bound_to 10752
  140.6559  133.9363  155.8407 H   0  0  0  0  0  0  0  0  0  0  0  0  # atno 11005 bound_to 11000
  144.8518  139.5310  143.6853 LP  0  0  0  0  0  0  0  0  0  0  0  0  # atno 17320 bound_to 7965
  146.2848  139.6975  142.9203 LP  0  0  0  0  0  0  0  0  0  0  0  0  # atno 17321 bound_to 7965
  140.5743  144.0055  150.6233 LP  0  0  0  0  0  0  0  0  0  0  0  0  # atno 17342 bound_to 10162
  140.3183  143.3154  152.0810 LP  0  0  0  0  0  0  0  0  0  0  0  0  # atno 17343 bound_to 10162
  156.8026  130.9296  151.3645 LP  0  0  0  0  0  0  0  0  0  0  0  0  # atno 17370 bound_to 10713
  157.6559  130.8924  149.9727 LP  0  0  0  0  0  0  0  0  0  0  0  0  # atno 17371 bound_to 10713
  141.0502  134.0496  157.3793 LP  0  0  0  0  0  0  0  0  0  0  0  0  # atno 17394 bound_to 11000
  139.9029  135.0171  156.7355 LP  0  0  0  0  0  0  0  0  0  0  0  0  # atno 17395 bound_to 11000

$$$$
