#       Name:                AV-unprocessed.smi:1794
#       Creating user name   scv26
#       Creation time:       Fri Mar 27 08:48:08 2020


#       File generated by GOLD software.
#

@<TRIPOS>MOLECULE
AV-unprocessed.smi:1794
    61    63     1
SMALL
NO_CHARGES


@<TRIPOS>ATOM
      1 ****        -2.3888  -1.3159  -0.5306 C.3            1 S1                 0.0000
      2 ****        -1.9136  -0.6518  -1.8466 C.3            1 S1                 0.0000
      3 ****        -2.4253   0.8139  -1.8588 C.3            1 S1                 0.0000
      4 ****        -0.3571  -0.6102  -1.8882 C.3            1 S1                 0.0000
      5 ****         0.2313   0.1217  -0.7696 N.am           1 S1                 0.0000
      6 ****         1.5472   0.2574  -0.5629 C.2            1 S1                 0.0000
      7 ****         2.4034  -0.2118  -1.3121 O.2            1 S1                 0.0000
      8 ****         1.7955   0.9437   0.5649 N.am           1 S1                 0.0000
      9 ****         3.0585   1.2263   1.1577 C.ar           1 S1                 0.0000
     10 ****         4.2102   1.4582   0.3624 C.ar           1 S1                 0.0000
     11 ****         5.4503   1.7117   0.9783 C.ar           1 S1                 0.0000
     12 ****         5.5202   1.7345   2.3816 C.ar           1 S1                 0.0000
     13 ****         4.4032   1.5308   3.1101 N.pl3          1 S1                 1.0000
     14 ****         3.1785   1.2962   2.5761 C.ar           1 S1                 0.0000
     15 ****         2.0948   1.1122   3.4648 N.3            1 S1                 0.0000
     16 ****         2.3297   0.9564   4.8955 C.3            1 S1                 0.0000
     17 ****         0.9585   1.1349   5.5415 C.3            1 S1                 0.0000
     18 ****         0.3107   2.1883   4.6479 C.3            1 S1                 0.0000
     19 ****         0.8690   1.8764   3.2552 C.3            1 S1                 0.0000
     20 ****        -2.4191  -1.4046  -3.0551 N.4            1 S1                 1.0000
     21 ****        -2.0948  -2.8609  -3.0850 C.3            1 S1                 0.0000
     22 ****        -2.5004  -3.4861  -4.4292 C.3            1 S1                 0.0000
     23 ****        -3.8907  -3.2919  -4.6390 O.3            1 S1                 0.0000
     24 ****        -4.2168  -1.9125  -4.7136 C.3            1 S1                 0.0000
     25 ****        -3.8608  -1.2143  -3.3896 C.3            1 S1                 0.0000
     26 ****        -2.1189  -0.7156   0.3388 H              1 S1                 0.0000
     27 ****        -1.9408  -2.2984  -0.3821 H              1 S1                 0.0000
     28 ****        -3.4717  -1.4358  -0.5040 H              1 S1                 0.0000
     29 ****        -1.9826   1.4143  -1.0640 H              1 S1                 0.0000
     30 ****        -3.5014   0.8764  -1.6972 H              1 S1                 0.0000
     31 ****        -2.1941   1.3091  -2.8027 H              1 S1                 0.0000
     32 ****         0.0681  -1.6122  -1.8561 H              1 S1                 0.0000
     33 ****        -0.0207  -0.1566  -2.8224 H              1 S1                 0.0000
     34 ****        -0.4066   0.5369  -0.1065 H              1 S1                 0.0000
     35 ****         0.9898   1.1855   1.1227 H              1 S1                 0.0000
     36 ****         4.1609   1.4495  -0.7158 H              1 S1                 0.0000
     37 ****         6.3345   1.8834   0.3817 H              1 S1                 0.0000
     38 ****         6.4268   1.9160   2.9406 H              1 S1                 0.0000
     39 ****         2.7622  -0.0178   5.1250 H              1 S1                 0.0000
     40 ****         3.0084   1.7296   5.2578 H              1 S1                 0.0000
     41 ****         0.3946   0.2027   5.4860 H              1 S1                 0.0000
     42 ****         1.0158   1.4359   6.5879 H              1 S1                 0.0000
     43 ****        -0.7789   2.1655   4.6832 H              1 S1                 0.0000
     44 ****         0.6359   3.1819   4.9597 H              1 S1                 0.0000
     45 ****         1.0456   2.7894   2.6852 H              1 S1                 0.0000
     46 ****         0.1608   1.2603   2.7005 H              1 S1                 0.0000
     47 ****        -1.0326  -3.0430  -2.9410 H              1 S1                 0.0000
     48 ****        -2.6203  -3.3804  -2.2831 H              1 S1                 0.0000
     49 ****        -1.9265  -3.0565  -5.2518 H              1 S1                 0.0000
     50 ****        -2.2938  -4.5565  -4.4218 H              1 S1                 0.0000
     51 ****        -3.6941  -1.4476  -5.5513 H              1 S1                 0.0000
     52 ****        -5.2840  -1.8143  -4.9129 H              1 S1                 0.0000
     53 ****        -4.4865  -1.6043  -2.5864 H              1 S1                 0.0000
     54 ****        -4.1102  -0.1623  -3.5142 H              1 S1                 0.0000
     55 ****        -1.9198  -1.0012  -3.8353 H              1 S1                 0.0000
     56 ****         4.4849   1.5634   4.1264 H              1 S1                 0.0000
     57 ****         2.1292  -0.7257  -2.1250 LP             1 S1                 0.0000
     58 ****         3.3734  -0.0792  -1.1081 LP             1 S1                 0.0000
     59 ****         1.9463   0.1884   3.1120 LP             1 S1                 0.0000
     60 ****        -4.3947  -3.7046  -3.8804 LP             1 S1                 0.0000
     61 ****        -4.1553  -3.7353  -5.4954 LP             1 S1                 0.0000
@<TRIPOS>BOND
    1    1    2 1     
    2    1   26 1     
    3    1   27 1     
    4    1   28 1     
    5    2    3 1     
    6    2    4 1     
    7    2   20 1     
    8    3   29 1     
    9    3   30 1     
   10    3   31 1     
   11    4    5 1     
   12    4   32 1     
   13    4   33 1     
   14    5    6 am    
   15    5   34 1     
   16    6    7 2     
   17    6    8 am    
   18    8    9 1     
   19    8   35 1     
   20    9   14 ar    
   21    9   10 ar    
   22   10   11 ar    
   23   10   36 1     
   24   11   12 ar    
   25   11   37 1     
   26   12   13 ar    
   27   12   38 1     
   28   13   14 ar    
   29   13   56 1     
   30   14   15 1     
   31   15   19 1     
   32   15   16 1     
   33   16   17 1     
   34   16   39 1     
   35   16   40 1     
   36   17   18 1     
   37   17   41 1     
   38   17   42 1     
   39   18   19 1     
   40   18   43 1     
   41   18   44 1     
   42   19   45 1     
   43   19   46 1     
   44   20   25 1     
   45   20   21 1     
   46   20   55 1     
   47   21   22 1     
   48   21   47 1     
   49   21   48 1     
   50   22   23 1     
   51   22   49 1     
   52   22   50 1     
   53   23   24 1     
   54   24   25 1     
   55   24   51 1     
   56   24   52 1     
   57   25   53 1     
   58   25   54 1     
   59    7   57 1     
   60    7   58 1     
   61   15   59 1     
   62   23   60 1     
   63   23   61 1     
@<TRIPOS>SUBSTRUCTURE
      1 S1             1
@<TRIPOS>SET
LONE_PAIRS      STATIC     ATOMS    <user>   **** ""
5 57 58 59 60 61
DONOR_HYDROGENS      STATIC     ATOMS    <user>   **** ""
4 34 35 56 55
ATOM$BLUE        STATIC     ATOMS    COLORGROUP SYSTEM
5 57 58 59 60 61
ATOM$RED        STATIC     ATOMS    COLORGROUP SYSTEM
4 34 35 56 55
