AV-unprocessed.smi:1087|AV-procd|sdf|4726|dock7
  -GOLD-   22720 3253D 1   1.00000     0.00000
 Structure written by MMmdl.
 47 48  0  0  0  0  0  0  0  0  2 V2000
  151.9964  142.8729  159.1206 C   0  0  0  0  0  0  0  0  0  0  0  0
  150.6880  142.3357  159.0339 O   0  0  0  0  0  0  0  0  0  0  0  0
  150.2024  142.2967  157.7025 C   0  0  0  0  0  0  0  0  0  0  0  0
  148.6679  142.2269  157.7351 C   0  0  0  0  0  0  0  0  0  0  0  0
  148.0779  142.0555  156.3830 N   0  3  2  0  0  0  0  0  0  0  0  0
  146.6122  141.8211  156.4371 C   0  0  0  0  0  0  0  0  0  0  0  0
  146.0047  141.7870  155.0245 C   0  0  0  0  0  0  0  0  0  0  0  0
  146.6705  140.7174  154.1334 C   0  0  2  0  0  0  0  0  0  0  0  0
  146.3140  139.2569  154.5013 C   0  0  0  0  0  0  0  0  0  0  0  0
  145.2609  138.7125  153.6496 N   0  0  0  0  0  0  0  0  0  0  0  0
  144.3290  137.8270  154.0346 C   0  0  0  0  0  0  0  0  0  0  0  0
  144.2848  137.3385  155.1643 O   0  0  0  0  0  0  0  0  0  0  0  0
  143.2902  137.4327  152.9766 C   0  0  0  0  0  0  0  0  0  0  0  0
  141.9256  137.3685  153.5239 N   0  0  0  0  0  0  0  0  0  0  0  0
  141.0641  138.4453  153.2552 C   0  0  0  0  0  0  0  0  0  0  0  0
  139.8048  138.4503  153.7155 C   0  0  0  0  0  0  0  0  0  0  0  0
  139.3927  137.2813  154.5031 C   0  0  0  0  0  0  0  0  0  0  0  0
  140.1742  136.2961  154.7463 N   0  0  0  0  0  0  0  0  0  0  0  0
  141.4951  136.2918  154.2597 C   0  0  0  0  0  0  0  0  0  0  0  0
  142.2502  135.3456  154.4849 O   0  0  0  0  0  0  0  0  0  0  0  0
  148.1917  140.9594  154.1374 C   0  0  0  0  0  0  0  0  0  0  0  0
  148.7699  141.0247  155.5639 C   0  0  0  0  0  0  0  0  0  0  0  0
  152.3207  142.8799  160.1611 H   0  0  0  0  0  0  0  0  0  0  0  0
  152.0265  143.8991  158.7518 H   0  0  0  0  0  0  0  0  0  0  0  0
  152.7077  142.2743  158.5502 H   0  0  0  0  0  0  0  0  0  0  0  0
  150.5544  143.1596  157.1371 H   0  0  0  0  0  0  0  0  0  0  0  0
  150.5919  141.4089  157.2020 H   0  0  0  0  0  0  0  0  0  0  0  0
  148.3360  141.4161  158.3852 H   0  0  0  0  0  0  0  0  0  0  0  0
  148.2991  143.1498  158.1854 H   0  0  0  0  0  0  0  0  0  0  0  0
  146.4079  140.8912  156.9689 H   0  0  0  0  0  0  0  0  0  0  0  0
  146.1344  142.6192  157.0064 H   0  0  0  0  0  0  0  0  0  0  0  0
  144.9267  141.6396  155.0808 H   0  0  0  0  0  0  0  0  0  0  0  0
  146.1393  142.7662  154.5630 H   0  0  0  0  0  0  0  0  0  0  0  0
  146.3182  140.8770  153.1131 H   0  0  0  0  0  0  0  0  0  0  0  0
  147.1935  138.6258  154.3687 H   0  0  0  0  0  0  0  0  0  0  0  0
  146.0439  139.1686  155.5540 H   0  0  0  0  0  0  0  0  0  0  0  0
  145.2231  139.0529  152.6994 H   0  0  0  0  0  0  0  0  0  0  0  0
  143.3215  138.1343  152.1406 H   0  0  0  0  0  0  0  0  0  0  0  0
  143.5835  136.4700  152.5556 H   0  0  0  0  0  0  0  0  0  0  0  0
  141.4834  139.2424  152.6588 H   0  0  0  0  0  0  0  0  0  0  0  0
  139.0910  139.2420  153.5427 H   0  0  0  0  0  0  0  0  0  0  0  0
  138.3640  137.3051  154.8720 H   0  0  0  0  0  0  0  0  0  0  0  0
  148.6996  140.1839  153.5630 H   0  0  0  0  0  0  0  0  0  0  0  0
  148.4053  141.8996  153.6270 H   0  0  0  0  0  0  0  0  0  0  0  0
  149.8334  141.2499  155.4964 H   0  0  0  0  0  0  0  0  0  0  0  0
  148.6903  140.0534  156.0535 H   0  0  0  0  0  0  0  0  0  0  0  0
  148.1993  142.9395  155.9090 H   0  0  0  0  0  0  0  0  0  0  0  0
  1  2  1  0  0  0  0
  1 23  1  0  0  0  0
  1 24  1  0  0  0  0
  1 25  1  0  0  0  0
  2  3  1  0  0  0  0
  3  4  1  0  0  0  0
  3 26  1  0  0  0  0
  3 27  1  0  0  0  0
  4  5  1  0  0  0  0
  4 28  1  0  0  0  0
  4 29  1  0  0  0  0
  5 22  1  0  0  0  0
  5  6  1  0  0  0  0
  5 47  1  0  0  0  0
  6  7  1  0  0  0  0
  6 30  1  0  0  0  0
  6 31  1  0  0  0  0
  7  8  1  0  0  0  0
  7 32  1  0  0  0  0
  7 33  1  0  0  0  0
  8  9  1  0  0  0  0
  8 21  1  0  0  0  0
  8 34  1  0  0  0  0
  9 10  1  0  0  0  0
  9 35  1  0  0  0  0
  9 36  1  0  0  0  0
 10 11  1  0  0  0  0
 10 37  1  0  0  0  0
 11 12  2  0  0  0  0
 11 13  1  0  0  0  0
 13 14  1  0  0  0  0
 13 38  1  0  0  0  0
 13 39  1  0  0  0  0
 14 19  1  0  0  0  0
 14 15  1  0  0  0  0
 15 16  2  0  0  0  0
 15 40  1  0  0  0  0
 16 17  1  0  0  0  0
 16 41  1  0  0  0  0
 17 18  2  0  0  0  0
 17 42  1  0  0  0  0
 18 19  1  0  0  0  0
 19 20  2  0  0  0  0
 21 22  1  0  0  0  0
 21 43  1  0  0  0  0
 21 44  1  0  0  0  0
 22 45  1  0  0  0  0
 22 46  1  0  0  0  0
M  CHG  1   5   1
M  END
> <s_m_source_file>
AV-unprocessed.smi

> <i_m_source_file_index>
1087

> <i_lp_mmshare_version>
43012

> <i_f3d_flags>
0

> <s_epik_input>
W0NIM11PW0NIMl1bQ0gyXU4xW0NIMl1bQ0gyXVtDSF0oW0NIMl1bQ0gyXTEpW0NIMl1bTkhdQyg9TylbQ0gyXW4yW2NIXVtjSF1bY0hdbmMyPU8=

> <s_epik_cmdline>
J2VwaWtfcHl0aG9uJywgJy1waCcsICc3LjAnLCAnLXRuJywgJzgnLCAnLW1hJywgJzIwMCcsICctbWV0YWxfYmluZGluZycsICctaW1hZScsICc8aW5maWxlLm1hZT4nLCAnLW9tYWUnLCAnPG91dGZpbGUubWFlPic=

> <r_lp_tautomer_probability>
1

> <r_epik_Ionization_Penalty>
0.00982698

> <r_epik_Ionization_Penalty_Charging>
0.00982062

> <r_epik_Ionization_Penalty_Neutral>
6.35787e-06

> <r_epik_State_Penalty>
0.00747828

> <r_epik_Charging_Adjusted_Penalty>
0.0172989

> <i_epik_Tot_Q>
1

> <i_epik_Tot_abs_Q>
1

> <r_epik_Metal_State_Penalty>
0.00747829

> <b_epik_Metal_Only>
0

> <s_lp_Force_Field>
OPLS_2005

> <r_lp_Energy>
23.2089

> <b_lp_Chiralities_Consistent>
1

> <s_lp_Variant>
AV-unprocessed.smi:1087-2

> <Gold.Version>
5.8.1

> <Gold.Id.Protein>
6NUR|6NUR_protein|mol2

> <Gold.PLP.Fitness>
46.1882

> <Gold.PLP.PLP>
-33.3901

> <Gold.PLP.part.hbond>
-3.6224

> <Gold.PLP.part.metal>
0.0000

> <Gold.PLP.part.buried>
-3.7306

> <Gold.PLP.part.nonpolar>
-25.7923

> <Gold.PLP.part.repulsive>
0.2260

> <Gold.PLP.ligand.clash>
0.0000

> <Gold.PLP.ligand.torsion>
1.4158

> <Gold.PLP.Chemscore.Hbond>
3.1521

> <Gold.PLP.Chemscore.CHOScore>
1.9959

> <Gold.PLP.Chemscore.Metal>
0.0000

> <Gold.Chemscore.Hbonds>
donor molecule, donor type, donor heavy atom, donor atom, acceptor molecule, acceptor atom, score
      L1  H     5    47       P1  8028  2.00
      L1  H    10    37       P1 10175  0.18
      P1  H 11000 11005       L1    18  0.99
      L1  C    15    40       P1 10160  1.00
      L1  C    15    40       P1 10175  1.00

> <Gold.PLP.Chemscore.Internal.Correction>
0.1860

> <Gold.Rescore>
     Score         DG    S(hbond)    S(metal)    S(lipo)     H(rot)  DE(clash)    DE(int)     intcor
     11.86     -14.72       2.19        0.00      70.05       2.45       0.24       2.62       ----

> <Gold.Chemscore.Fitness>
11.8637

> <Gold.Chemscore.DG>
-14.7183

> <Gold.Chemscore.ZeroCoef>
-5.4800

> <Gold.Chemscore.Hbond>
2.1864

> <Gold.Chemscore.Metal>
0.0000

> <Gold.Chemscore.Lipo>
70.0514

> <Gold.Chemscore.Internal_Hbond>
0.0000

> <Gold.Chemscore.DEClash>
0.2389

> <Gold.Chemscore.DEInternal>
2.6157

> <Gold.Chemscore.Rot>
2.4454

> <Gold.Chemscore.Internal.Correction>
   9.000000E+99

> <Gold.Chemscore.Hbonds>
donor molecule, donor type, donor heavy atom, donor atom, acceptor molecule, acceptor atom, score
      L1  H     5    47       P1  8028  0.84
      L1  H    10    37       P1 10175  0.18
      P1  H 11000 11005       L1    18  0.44

> <Gold.Chemscore.Hbond.Weighted>
-7.3025

> <Gold.Chemscore.Metal.Weighted>
-0.0000

> <Gold.Chemscore.Lipo.Weighted>
-8.1960

> <Gold.Chemscore.Internal_Hbond.Weighted>
0.0000

> <Gold.Chemscore.DEClash.Weighted>
0.2389

> <Gold.Chemscore.DEInternal.Weighted>
2.6157

> <Gold.Chemscore.Rot.Weighted>
6.2603

> <Gold.Chemscore.Internal.Correction.Weighted>
   9.000000E+99

> <Gold.Protein.RotatedTorsions>
[ 6907 6896 6895 6894 ] final  173.10 input  -60.11 | X-H torsion
[ 7974 7965 7964 7962 ] final  -61.10 input  175.53 | X-H torsion
[ 8008 7997 7996 7995 ] final -122.25 input   59.86 | X-H torsion
[ 10167 10162 10161 10158 ] final -138.18 input  -65.29 | X-H torsion
[ 10718 10713 10712 10709 ] final -102.29 input   66.30 | X-H torsion
[ 10763 10752 10751 10750 ] final -124.28 input  -60.55 | X-H torsion
[ 11005 11000 10999 10996 ] final   57.87 input  -57.11 | X-H torsion

> <Gold.Protein.ActiveResidues>
 VAL166  LYS551  ARG553  GLY616  TRP617  ASP618  TYR619  PRO620  LYS621  CYS622 
 ASP623  PHE694  ASN695  SER759  ASP760  ASP761  ALA762  ILE779  LEU786  VAL792 
 PHE793  MET794  SER795  GLU796  ALA797  LYS798  CYS799  TRP800  GLU811  SER814 

> <Gold.Protein.RotatedAtoms>
  151.7736  133.3343  159.3451 H   0  0  0  0  0  0  0  0  0  0  0  0  # atno 6907 bound_to 6896
  150.7452  134.5995  159.6039 H   0  0  0  0  0  0  0  0  0  0  0  0  # atno 6908 bound_to 6896
  152.3324  134.7244  160.0337 H   0  0  0  0  0  0  0  0  0  0  0  0  # atno 6909 bound_to 6896
  145.8075  140.8618  143.0199 H   0  0  0  0  0  0  0  0  0  0  0  0  # atno 7974 bound_to 7965
  155.1612  140.0406  157.2843 H   0  0  0  0  0  0  0  0  0  0  0  0  # atno 8008 bound_to 7997
  154.6335  140.2530  155.7379 H   0  0  0  0  0  0  0  0  0  0  0  0  # atno 8009 bound_to 7997
  156.2496  140.2870  156.0697 H   0  0  0  0  0  0  0  0  0  0  0  0  # atno 8010 bound_to 7997
  139.8504  143.7206  152.2658 H   0  0  0  0  0  0  0  0  0  0  0  0  # atno 10167 bound_to 10162
  156.0224  130.5413  150.7087 H   0  0  0  0  0  0  0  0  0  0  0  0  # atno 10718 bound_to 10713
  154.8721  135.4069  154.3080 H   0  0  0  0  0  0  0  0  0  0  0  0  # atno 10763 bound_to 10752
  153.3929  135.7015  153.6487 H   0  0  0  0  0  0  0  0  0  0  0  0  # atno 10764 bound_to 10752
  153.5262  135.3677  155.2626 H   0  0  0  0  0  0  0  0  0  0  0  0  # atno 10765 bound_to 10752
  140.0420  134.5860  155.9370 H   0  0  0  0  0  0  0  0  0  0  0  0  # atno 11005 bound_to 11000
  144.6761  140.0348  143.7482 LP  0  0  0  0  0  0  0  0  0  0  0  0  # atno 17320 bound_to 7965
  145.9812  139.2943  143.1041 LP  0  0  0  0  0  0  0  0  0  0  0  0  # atno 17321 bound_to 7965
  139.7471  144.7544  151.0563 LP  0  0  0  0  0  0  0  0  0  0  0  0  # atno 17342 bound_to 10162
  140.7788  143.4903  150.9902 LP  0  0  0  0  0  0  0  0  0  0  0  0  # atno 17343 bound_to 10162
  157.4731  131.0895  151.0621 LP  0  0  0  0  0  0  0  0  0  0  0  0  # atno 17370 bound_to 10713
  157.1075  130.6008  149.5474 LP  0  0  0  0  0  0  0  0  0  0  0  0  # atno 17371 bound_to 10713
  141.1887  133.6563  156.5338 LP  0  0  0  0  0  0  0  0  0  0  0  0  # atno 17394 bound_to 11000
  140.4055  134.7319  157.4805 LP  0  0  0  0  0  0  0  0  0  0  0  0  # atno 17395 bound_to 11000

$$$$
