AV-unprocessed.smi:3308|AV-procd|sdf|12710|dock8
  -GOLD-   2272019 43D 1   1.00000     0.00000
 Structure written by MMmdl.
 41 42  0  0  0  0  0  0  0  0  2 V2000
  149.8866  138.3363  154.8473 C   0  0  0  0  0  0  0  0  0  0  0  0
  148.7275  139.2263  154.3730 C   0  0  2  0  0  0  0  0  0  0  0  0
  148.2383  138.7594  153.0555 N   0  3  0  0  0  0  0  0  0  0  0  0
  146.7727  138.5866  152.9583 C   0  0  0  0  0  0  0  0  0  0  0  0
  146.3640  137.7463  151.7407 C   0  0  0  0  0  0  0  0  0  0  0  0
  146.7888  138.0447  150.6233 O   0  0  0  0  0  0  0  0  0  0  0  0
  145.5383  136.6986  151.9395 N   0  0  0  0  0  0  0  0  0  0  0  0
  145.0846  135.8115  150.8701 C   0  0  0  0  0  0  0  0  0  0  0  0
  144.4164  134.6281  151.5703 C   0  0  0  0  0  0  0  0  0  0  0  0
  143.9572  135.1956  152.9063 C   0  0  0  0  0  0  0  0  0  0  0  0
  144.9835  136.2829  153.2276 C   0  0  0  0  0  0  0  0  0  0  0  0
  149.0956  140.7332  154.3448 C   0  0  1  0  0  0  0  0  0  0  0  0
  147.9339  141.6594  153.9252 C   0  0  0  0  0  0  0  0  0  0  0  0
  149.6987  141.1546  155.6053 N   0  0  0  0  0  0  0  0  0  0  0  0
  150.9935  141.5785  155.8244 C   0  0  0  0  0  0  0  0  0  0  0  0
  151.1256  141.8221  157.1613 C   0  0  0  0  0  0  0  0  0  0  0  0
  149.8451  141.5029  157.6915 C   0  0  0  0  0  0  0  0  0  0  0  0
  148.9976  141.0943  156.7616 N   0  0  0  0  0  0  0  0  0  0  0  0
  150.2693  138.6697  155.8124 H   0  0  0  0  0  0  0  0  0  0  0  0
  150.7163  138.3369  154.1403 H   0  0  0  0  0  0  0  0  0  0  0  0
  149.5597  137.3027  154.9657 H   0  0  0  0  0  0  0  0  0  0  0  0
  147.9282  139.0988  155.1056 H   0  0  0  0  0  0  0  0  0  0  0  0
  148.5244  139.4317  152.3574 H   0  0  0  0  0  0  0  0  0  0  0  0
  146.4136  138.1116  153.8720 H   0  0  0  0  0  0  0  0  0  0  0  0
  146.2968  139.5649  152.8837 H   0  0  0  0  0  0  0  0  0  0  0  0
  144.3646  136.3452  150.2478 H   0  0  0  0  0  0  0  0  0  0  0  0
  145.9056  135.4811  150.2316 H   0  0  0  0  0  0  0  0  0  0  0  0
  143.5996  134.1988  150.9896 H   0  0  0  0  0  0  0  0  0  0  0  0
  145.1528  133.8420  151.7425 H   0  0  0  0  0  0  0  0  0  0  0  0
  142.9706  135.6463  152.7904 H   0  0  0  0  0  0  0  0  0  0  0  0
  143.8876  134.4369  153.6861 H   0  0  0  0  0  0  0  0  0  0  0  0
  145.7842  135.8781  153.8481 H   0  0  0  0  0  0  0  0  0  0  0  0
  144.5186  137.1103  153.7654 H   0  0  0  0  0  0  0  0  0  0  0  0
  149.8730  140.8573  153.5891 H   0  0  0  0  0  0  0  0  0  0  0  0
  147.5980  141.4455  152.9108 H   0  0  0  0  0  0  0  0  0  0  0  0
  148.2460  142.7042  153.9435 H   0  0  0  0  0  0  0  0  0  0  0  0
  147.0719  141.5623  154.5860 H   0  0  0  0  0  0  0  0  0  0  0  0
  151.7072  141.6708  155.0189 H   0  0  0  0  0  0  0  0  0  0  0  0
  152.0045  142.1724  157.6820 H   0  0  0  0  0  0  0  0  0  0  0  0
  149.5105  141.5498  158.7172 H   0  0  0  0  0  0  0  0  0  0  0  0
  148.6742  137.8741  152.8405 H   0  0  0  0  0  0  0  0  0  0  0  0
  1  2  1  0  0  0  0
  1 19  1  0  0  0  0
  1 20  1  0  0  0  0
  1 21  1  0  0  0  0
  2  3  1  0  0  0  0
  2 12  1  0  0  0  0
  2 22  1  0  0  0  0
  3  4  1  0  0  0  0
  3 23  1  0  0  0  0
  3 41  1  0  0  0  0
  4  5  1  0  0  0  0
  4 24  1  0  0  0  0
  4 25  1  0  0  0  0
  5  6  2  0  0  0  0
  5  7  1  0  0  0  0
  7 11  1  0  0  0  0
  7  8  1  0  0  0  0
  8  9  1  0  0  0  0
  8 26  1  0  0  0  0
  8 27  1  0  0  0  0
  9 10  1  0  0  0  0
  9 28  1  0  0  0  0
  9 29  1  0  0  0  0
 10 11  1  0  0  0  0
 10 30  1  0  0  0  0
 10 31  1  0  0  0  0
 11 32  1  0  0  0  0
 11 33  1  0  0  0  0
 12 13  1  0  0  0  0
 12 14  1  0  0  0  0
 12 34  1  0  0  0  0
 13 35  1  0  0  0  0
 13 36  1  0  0  0  0
 13 37  1  0  0  0  0
 14 18  1  0  0  0  0
 14 15  1  0  0  0  0
 15 16  2  0  0  0  0
 15 38  1  0  0  0  0
 16 17  1  0  0  0  0
 16 39  1  0  0  0  0
 17 18  2  0  0  0  0
 17 40  1  0  0  0  0
M  CHG  1   3   1
M  END
> <s_m_source_file>
AV-unprocessed.smi

> <i_m_source_file_index>
3308

> <i_lp_mmshare_version>
43012

> <i_f3d_flags>
0

> <s_epik_input>
bjFbY0hdW2NIXVtjSF1uMVtDQEBIXShbQ0gzXSlbQ0BIXShbQ0gzXSlbTkhdW0NIMl1DKD1PKU4yW0NIMl1bQ0gyXVtDSDJdW0NIMl0y

> <s_epik_cmdline>
J2VwaWtfcHl0aG9uJywgJy1waCcsICc3LjAnLCAnLXRuJywgJzgnLCAnLW1hJywgJzIwMCcsICctbWV0YWxfYmluZGluZycsICctaW1hZScsICc8aW5maWxlLm1hZT4nLCAnLW9tYWUnLCAnPG91dGZpbGUubWFlPic=

> <r_lp_tautomer_probability>
1

> <r_epik_Ionization_Penalty>
0.141739

> <r_epik_Ionization_Penalty_Charging>
0.141731

> <r_epik_Ionization_Penalty_Neutral>
8.82171e-06

> <r_epik_State_Penalty>
0.131043

> <r_epik_Charging_Adjusted_Penalty>
0.272773

> <i_epik_Tot_Q>
1

> <i_epik_Tot_abs_Q>
1

> <r_epik_Metal_State_Penalty>
0.131385

> <b_epik_Metal_Only>
0

> <s_lp_Force_Field>
OPLS_2005

> <r_lp_Energy>
34.1001

> <b_lp_Chiralities_Consistent>
1

> <s_lp_Variant>
AV-unprocessed.smi:3308-3

> <Gold.Version>
5.8.1

> <Gold.Id.Protein>
6NUR|6NUR_protein|mol2

> <Gold.PLP.Fitness>
43.6090

> <Gold.PLP.PLP>
-33.2651

> <Gold.PLP.part.hbond>
-2.7056

> <Gold.PLP.part.metal>
0.0000

> <Gold.PLP.part.buried>
-2.6147

> <Gold.PLP.part.nonpolar>
-30.0517

> <Gold.PLP.part.repulsive>
1.3437

> <Gold.PLP.ligand.clash>
0.0000

> <Gold.PLP.ligand.torsion>
0.8645

> <Gold.PLP.Chemscore.Hbond>
3.9672

> <Gold.PLP.Chemscore.CHOScore>
0.0000

> <Gold.PLP.Chemscore.Metal>
0.0000

> <Gold.Chemscore.Hbonds>
donor molecule, donor type, donor heavy atom, donor atom, acceptor molecule, acceptor atom, score
      L1  H     3    23       P1  7957  1.00
      L1  H     3    41       P1  7948  2.00
      P1  H  7954  7966       L1     6  1.00

> <Gold.PLP.Chemscore.Internal.Correction>
0.1712

> <Gold.Rescore>
     Score         DG    S(hbond)    S(metal)    S(lipo)     H(rot)  DE(clash)    DE(int)     intcor
     15.79     -18.19       2.84        0.00      66.55       1.78       1.32       1.08       ----

> <Gold.Chemscore.Fitness>
15.7878

> <Gold.Chemscore.DG>
-18.1865

> <Gold.Chemscore.ZeroCoef>
-5.4800

> <Gold.Chemscore.Hbond>
2.8403

> <Gold.Chemscore.Metal>
0.0000

> <Gold.Chemscore.Lipo>
66.5461

> <Gold.Chemscore.Internal_Hbond>
0.0000

> <Gold.Chemscore.DEClash>
1.3217

> <Gold.Chemscore.DEInternal>
1.0770

> <Gold.Chemscore.Rot>
1.7836

> <Gold.Chemscore.Internal.Correction>
   9.000000E+99

> <Gold.Chemscore.Hbonds>
donor molecule, donor type, donor heavy atom, donor atom, acceptor molecule, acceptor atom, score
      L1  H     3    23       P1  7957  0.97
      L1  H     3    41       P1  7948  0.98
      P1  H  7954  7966       L1     6  0.93

> <Gold.Chemscore.Hbond.Weighted>
-9.4866

> <Gold.Chemscore.Metal.Weighted>
-0.0000

> <Gold.Chemscore.Lipo.Weighted>
-7.7859

> <Gold.Chemscore.Internal_Hbond.Weighted>
0.0000

> <Gold.Chemscore.DEClash.Weighted>
1.3217

> <Gold.Chemscore.DEInternal.Weighted>
1.0770

> <Gold.Chemscore.Rot.Weighted>
4.5660

> <Gold.Chemscore.Internal.Correction.Weighted>
   9.000000E+99

> <Gold.Protein.RotatedTorsions>
[ 6907 6896 6895 6894 ] final -176.10 input  -60.11 | X-H torsion
[ 7974 7965 7964 7962 ] final  -36.79 input  175.53 | X-H torsion
[ 8008 7997 7996 7995 ] final  -47.65 input   59.86 | X-H torsion
[ 10167 10162 10161 10158 ] final  -19.72 input  -65.29 | X-H torsion
[ 10718 10713 10712 10709 ] final  116.32 input   66.30 | X-H torsion
[ 10763 10752 10751 10750 ] final -132.23 input  -60.55 | X-H torsion
[ 11005 11000 10999 10996 ] final   15.78 input  -57.11 | X-H torsion

> <Gold.Protein.ActiveResidues>
 VAL166  LYS551  ARG553  GLY616  TRP617  ASP618  TYR619  PRO620  LYS621  CYS622 
 ASP623  PHE694  ASN695  SER759  ASP760  ASP761  ALA762  ILE779  LEU786  VAL792 
 PHE793  MET794  SER795  GLU796  ALA797  LYS798  CYS799  TRP800  GLU811  SER814 

> <Gold.Protein.RotatedAtoms>
  151.5993  133.3358  159.3043 H   0  0  0  0  0  0  0  0  0  0  0  0  # atno 6907 bound_to 6896
  150.8217  134.7431  159.6789 H   0  0  0  0  0  0  0  0  0  0  0  0  # atno 6908 bound_to 6896
  152.4309  134.5784  159.9992 H   0  0  0  0  0  0  0  0  0  0  0  0  # atno 6909 bound_to 6896
  146.0631  140.6320  142.8987 H   0  0  0  0  0  0  0  0  0  0  0  0  # atno 7974 bound_to 7965
  154.4019  140.1341  156.4210 H   0  0  0  0  0  0  0  0  0  0  0  0  # atno 8008 bound_to 7997
  155.7642  140.3485  155.5193 H   0  0  0  0  0  0  0  0  0  0  0  0  # atno 8009 bound_to 7997
  155.8829  140.0990  157.1463 H   0  0  0  0  0  0  0  0  0  0  0  0  # atno 8010 bound_to 7997
  140.7270  143.4792  151.0141 H   0  0  0  0  0  0  0  0  0  0  0  0  # atno 10167 bound_to 10162
  157.6168  131.1024  150.7455 H   0  0  0  0  0  0  0  0  0  0  0  0  # atno 10718 bound_to 10713
  154.8745  135.3804  154.4376 H   0  0  0  0  0  0  0  0  0  0  0  0  # atno 10763 bound_to 10752
  153.5064  135.7030  153.5809 H   0  0  0  0  0  0  0  0  0  0  0  0  # atno 10764 bound_to 10752
  153.4118  135.3923  155.2021 H   0  0  0  0  0  0  0  0  0  0  0  0  # atno 10765 bound_to 10752
  140.4545  134.1190  155.7707 H   0  0  0  0  0  0  0  0  0  0  0  0  # atno 11005 bound_to 11000
  144.7186  140.4298  143.7025 LP  0  0  0  0  0  0  0  0  0  0  0  0  # atno 17320 bound_to 7965
  145.6525  139.1567  143.2854 LP  0  0  0  0  0  0  0  0  0  0  0  0  # atno 17321 bound_to 7965
  139.8489  143.7464  152.3178 LP  0  0  0  0  0  0  0  0  0  0  0  0  # atno 17342 bound_to 10162
  139.7639  144.7498  151.0323 LP  0  0  0  0  0  0  0  0  0  0  0  0  # atno 17343 bound_to 10162
  156.7821  130.4862  149.5399 LP  0  0  0  0  0  0  0  0  0  0  0  0  # atno 17370 bound_to 10713
  156.1294  130.6167  151.0311 LP  0  0  0  0  0  0  0  0  0  0  0  0  # atno 17371 bound_to 10713
  141.1649  133.8722  157.1743 LP  0  0  0  0  0  0  0  0  0  0  0  0  # atno 17394 bound_to 11000
  139.9985  135.0037  157.0137 LP  0  0  0  0  0  0  0  0  0  0  0  0  # atno 17395 bound_to 11000

$$$$
