AV-unprocessed.smi:1762|AV-procd|sdf|7099|dock7
  -GOLD-   22720 8313D 1   1.00000     0.00000
 Structure written by MMmdl.
 52 53  0  0  0  0  0  0  0  0  1 V2000
  153.5384  142.1397  161.0120 C   0  0  0  0  0  0  0  0  0  0  0  0
  152.4367  142.7270  160.1226 C   0  0  2  0  0  0  0  0  0  0  0  0
  152.2071  141.8890  158.8516 C   0  0  0  0  0  0  0  0  0  0  0  0
  151.2130  142.4847  157.9525 N   0  0  0  0  0  0  0  0  0  0  0  0
  150.9277  141.6396  156.7588 C   0  0  2  0  0  0  0  0  0  0  0  0
  149.4311  141.6236  156.3669 C   0  0  0  0  0  0  0  0  0  0  0  0
  148.5973  142.2004  157.0660 O   0  0  0  0  0  0  0  0  0  0  0  0
  149.1137  140.9856  155.2289 N   0  0  0  0  0  0  0  0  0  0  0  0
  147.7715  140.8959  154.6675 C   0  0  0  0  0  0  0  0  0  0  0  0
  147.4608  142.0985  153.7607 C   0  0  0  0  0  0  0  0  0  0  0  0
  146.2468  142.8760  154.2319 C   0  0  0  0  0  0  0  0  0  0  0  0
  145.6846  143.8891  153.4260 C   0  0  0  0  0  0  0  0  0  0  0  0
  144.5608  144.5855  153.9105 C   0  0  0  0  0  0  0  0  0  0  0  0
  144.0459  144.2450  155.1764 C   0  0  0  0  0  0  0  0  0  0  0  0
  144.6811  143.2193  155.9045 C   0  0  0  0  0  0  0  0  0  0  0  0
  145.7593  142.5450  155.4491 N   0  0  0  0  0  0  0  0  0  0  0  0
  151.4996  140.1833  156.8291 C   0  0  0  0  0  0  0  0  0  0  0  0
  151.7432  139.5483  155.4447 C   0  0  0  0  0  0  0  0  0  0  0  0
  150.6750  139.2315  157.7178 C   0  0  0  0  0  0  0  0  0  0  0  0
  151.6347  143.8620  157.6393 C   0  0  0  0  0  0  0  0  0  0  0  0
  151.9118  144.7186  158.8909 C   0  0  1  0  0  0  0  0  0  0  0  0
  150.6321  145.1574  159.6243 C   0  0  0  0  0  0  0  0  0  0  0  0
  152.8213  144.0489  159.7606 O   0  0  0  0  0  0  0  0  0  0  0  0
  153.2851  141.1296  161.3348 H   0  0  0  0  0  0  0  0  0  0  0  0
  153.6824  142.7472  161.9057 H   0  0  0  0  0  0  0  0  0  0  0  0
  154.4907  142.0937  160.4831 H   0  0  0  0  0  0  0  0  0  0  0  0
  151.5154  142.7631  160.7047 H   0  0  0  0  0  0  0  0  0  0  0  0
  153.1524  141.7543  158.3226 H   0  0  0  0  0  0  0  0  0  0  0  0
  151.8898  140.9021  159.1816 H   0  0  0  0  0  0  0  0  0  0  0  0
  151.4406  142.1116  155.9177 H   0  0  0  0  0  0  0  0  0  0  0  0
  149.8575  140.5422  154.7095 H   0  0  0  0  0  0  0  0  0  0  0  0
  147.7044  139.9695  154.0963 H   0  0  0  0  0  0  0  0  0  0  0  0
  147.0349  140.8200  155.4694 H   0  0  0  0  0  0  0  0  0  0  0  0
  148.3181  142.7719  153.7202 H   0  0  0  0  0  0  0  0  0  0  0  0
  147.2901  141.7612  152.7373 H   0  0  0  0  0  0  0  0  0  0  0  0
  146.1043  144.1288  152.4599 H   0  0  0  0  0  0  0  0  0  0  0  0
  144.1026  145.3671  153.3225 H   0  0  0  0  0  0  0  0  0  0  0  0
  143.1855  144.7580  155.5799 H   0  0  0  0  0  0  0  0  0  0  0  0
  144.3138  142.9334  156.8791 H   0  0  0  0  0  0  0  0  0  0  0  0
  152.4946  140.2408  157.2672 H   0  0  0  0  0  0  0  0  0  0  0  0
  150.8107  139.3178  154.9283 H   0  0  0  0  0  0  0  0  0  0  0  0
  152.2975  138.6140  155.5384 H   0  0  0  0  0  0  0  0  0  0  0  0
  152.3271  140.2102  154.8046 H   0  0  0  0  0  0  0  0  0  0  0  0
  149.6825  139.0476  157.3078 H   0  0  0  0  0  0  0  0  0  0  0  0
  150.5505  139.6289  158.7251 H   0  0  0  0  0  0  0  0  0  0  0  0
  151.1706  138.2650  157.8128 H   0  0  0  0  0  0  0  0  0  0  0  0
  152.5375  143.8311  157.0266 H   0  0  0  0  0  0  0  0  0  0  0  0
  150.8862  144.3925  157.0518 H   0  0  0  0  0  0  0  0  0  0  0  0
  152.4167  145.6292  158.5672 H   0  0  0  0  0  0  0  0  0  0  0  0
  150.0085  145.7760  158.9786 H   0  0  0  0  0  0  0  0  0  0  0  0
  150.8733  145.7442  160.5108 H   0  0  0  0  0  0  0  0  0  0  0  0
  150.0273  144.3073  159.9395 H   0  0  0  0  0  0  0  0  0  0  0  0
  1  2  1  0  0  0  0
  1 24  1  0  0  0  0
  1 25  1  0  0  0  0
  1 26  1  0  0  0  0
  2 23  1  0  0  0  0
  2  3  1  0  0  0  0
  2 27  1  0  0  0  0
  3  4  1  0  0  0  0
  3 28  1  0  0  0  0
  3 29  1  0  0  0  0
  4  5  1  0  0  0  0
  4 20  1  0  0  0  0
  5  6  1  0  0  0  0
  5 17  1  0  0  0  0
  5 30  1  0  0  0  0
  6  7  2  0  0  0  0
  6  8  1  0  0  0  0
  8  9  1  0  0  0  0
  8 31  1  0  0  0  0
  9 10  1  0  0  0  0
  9 32  1  0  0  0  0
  9 33  1  0  0  0  0
 10 11  1  0  0  0  0
 10 34  1  0  0  0  0
 10 35  1  0  0  0  0
 11 16  1  0  0  0  0
 11 12  2  0  0  0  0
 12 13  1  0  0  0  0
 12 36  1  0  0  0  0
 13 14  2  0  0  0  0
 13 37  1  0  0  0  0
 14 15  1  0  0  0  0
 14 38  1  0  0  0  0
 15 16  2  0  0  0  0
 15 39  1  0  0  0  0
 17 18  1  0  0  0  0
 17 19  1  0  0  0  0
 17 40  1  0  0  0  0
 18 41  1  0  0  0  0
 18 42  1  0  0  0  0
 18 43  1  0  0  0  0
 19 44  1  0  0  0  0
 19 45  1  0  0  0  0
 19 46  1  0  0  0  0
 20 21  1  0  0  0  0
 20 47  1  0  0  0  0
 20 48  1  0  0  0  0
 21 22  1  0  0  0  0
 21 23  1  0  0  0  0
 21 49  1  0  0  0  0
 22 50  1  0  0  0  0
 22 51  1  0  0  0  0
 22 52  1  0  0  0  0
M  END
> <s_m_source_file>
AV-unprocessed.smi

> <i_m_source_file_index>
1762

> <i_lp_mmshare_version>
43012

> <i_f3d_flags>
0

> <s_epik_input>
W0NIM11bQ0BASF0xW0NIMl1OKFtDSDJdW0NASF0oTzEpW0NIM10pW0NAQEhdKFtDSF0oW0NIM10pW0NIM10pQyg9TylbTkhdW0NIMl1bQ0gyXWMyW2NIXVtjSF1bY0hdW2NIXW4y

> <s_epik_cmdline>
J2VwaWtfcHl0aG9uJywgJy1waCcsICc3LjAnLCAnLXRuJywgJzgnLCAnLW1hJywgJzIwMCcsICctbWV0YWxfYmluZGluZycsICctaW1hZScsICc8aW5maWxlLm1hZT4nLCAnLW9tYWUnLCAnPG91dGZpbGUubWFlPic=

> <r_epik_Ionization_Penalty>
0.0399736

> <r_epik_Ionization_Penalty_Charging>
0

> <r_epik_Ionization_Penalty_Neutral>
0.0399736

> <r_epik_State_Penalty>
0.0317634

> <r_epik_Charging_Adjusted_Penalty>
0.0317634

> <i_epik_Tot_Q>
0

> <i_epik_Tot_abs_Q>
0

> <r_epik_Metal_State_Penalty>
0.0307795

> <b_epik_Metal_Only>
0

> <s_lp_Force_Field>
OPLS_2005

> <r_lp_Energy>
28.4472

> <b_lp_Chiralities_Consistent>
1

> <s_lp_Variant>
AV-unprocessed.smi:1762-1

> <Gold.Version>
5.8.1

> <Gold.Id.Protein>
6NUR|6NUR_protein|mol2

> <Gold.PLP.Fitness>
44.8868

> <Gold.PLP.PLP>
-49.2340

> <Gold.PLP.part.hbond>
0.0000

> <Gold.PLP.part.metal>
0.0000

> <Gold.PLP.part.buried>
-7.2667

> <Gold.PLP.part.nonpolar>
-43.7202

> <Gold.PLP.part.repulsive>
1.6442

> <Gold.PLP.ligand.clash>
0.4116

> <Gold.PLP.ligand.torsion>
2.1456

> <Gold.PLP.Chemscore.Hbond>
0.0000

> <Gold.PLP.Chemscore.CHOScore>
0.0000

> <Gold.PLP.Chemscore.Metal>
0.0000

> <Gold.PLP.Chemscore.Internal.Correction>
0.3557

> <Gold.Rescore>
     Score         DG    S(hbond)    S(metal)    S(lipo)     H(rot)  DE(clash)    DE(int)     intcor
     13.22     -16.48       0.00        0.00     128.97       1.60       1.04       2.21       ----

> <Gold.Chemscore.Fitness>
13.2236

> <Gold.Chemscore.DG>
-16.4759

> <Gold.Chemscore.ZeroCoef>
-5.4800

> <Gold.Chemscore.Hbond>
0.0000

> <Gold.Chemscore.Metal>
0.0000

> <Gold.Chemscore.Lipo>
128.9742

> <Gold.Chemscore.Internal_Hbond>
0.0000

> <Gold.Chemscore.DEClash>
1.0391

> <Gold.Chemscore.DEInternal>
2.2132

> <Gold.Chemscore.Rot>
1.5993

> <Gold.Chemscore.Internal.Correction>
   9.000000E+99

> <Gold.Chemscore.Hbond.Weighted>
-0.0000

> <Gold.Chemscore.Metal.Weighted>
-0.0000

> <Gold.Chemscore.Lipo.Weighted>
-15.0900

> <Gold.Chemscore.Internal_Hbond.Weighted>
0.0000

> <Gold.Chemscore.DEClash.Weighted>
1.0391

> <Gold.Chemscore.DEInternal.Weighted>
2.2132

> <Gold.Chemscore.Rot.Weighted>
4.0941

> <Gold.Chemscore.Internal.Correction.Weighted>
   9.000000E+99

> <Gold.Protein.RotatedTorsions>
[ 6907 6896 6895 6894 ] final -132.82 input  -60.11 | X-H torsion
[ 7974 7965 7964 7962 ] final  -25.86 input  175.53 | X-H torsion
[ 8008 7997 7996 7995 ] final  -37.65 input   59.86 | X-H torsion
[ 10167 10162 10161 10158 ] final  163.91 input  -65.29 | X-H torsion
[ 10718 10713 10712 10709 ] final  -60.85 input   66.30 | X-H torsion
[ 10763 10752 10751 10750 ] final  147.15 input  -60.55 | X-H torsion
[ 11005 11000 10999 10996 ] final  -74.88 input  -57.11 | X-H torsion

> <Gold.Protein.ActiveResidues>
 VAL166  LYS551  ARG553  GLY616  TRP617  ASP618  TYR619  PRO620  LYS621  CYS622 
 ASP623  PHE694  ASN695  SER759  ASP760  ASP761  ALA762  ILE779  LEU786  VAL792 
 PHE793  MET794  SER795  GLU796  ALA797  LYS798  CYS799  TRP800  GLU811  SER814 

> <Gold.Protein.RotatedAtoms>
  150.9668  133.6386  159.2744 H   0  0  0  0  0  0  0  0  0  0  0  0  # atno 6907 bound_to 6896
  151.3689  135.0917  159.9468 H   0  0  0  0  0  0  0  0  0  0  0  0  # atno 6908 bound_to 6896
  152.5168  133.9226  159.7596 H   0  0  0  0  0  0  0  0  0  0  0  0  # atno 6909 bound_to 6896
  146.1464  140.4942  142.8630 H   0  0  0  0  0  0  0  0  0  0  0  0  # atno 7974 bound_to 7965
  154.4050  140.1598  156.2572 H   0  0  0  0  0  0  0  0  0  0  0  0  # atno 8008 bound_to 7997
  155.9068  140.3430  155.6045 H   0  0  0  0  0  0  0  0  0  0  0  0  # atno 8009 bound_to 7997
  155.7383  140.0789  157.2248 H   0  0  0  0  0  0  0  0  0  0  0  0  # atno 8010 bound_to 7997
  139.4881  144.4289  151.9095 H   0  0  0  0  0  0  0  0  0  0  0  0  # atno 10167 bound_to 10162
  156.0962  130.4192  150.0912 H   0  0  0  0  0  0  0  0  0  0  0  0  # atno 10718 bound_to 10713
  154.0336  135.2895  155.3365 H   0  0  0  0  0  0  0  0  0  0  0  0  # atno 10763 bound_to 10752
  154.6973  135.5203  153.8479 H   0  0  0  0  0  0  0  0  0  0  0  0  # atno 10764 bound_to 10752
  153.0629  135.6620  154.0546 H   0  0  0  0  0  0  0  0  0  0  0  0  # atno 10765 bound_to 10752
  141.1640  133.6927  156.7432 H   0  0  0  0  0  0  0  0  0  0  0  0  # atno 11005 bound_to 11000
  144.7851  140.5920  143.6579 LP  0  0  0  0  0  0  0  0  0  0  0  0  # atno 17320 bound_to 7965
  145.4928  139.1487  143.3700 LP  0  0  0  0  0  0  0  0  0  0  0  0  # atno 17321 bound_to 7965
  140.3736  144.2824  150.5917 LP  0  0  0  0  0  0  0  0  0  0  0  0  # atno 17342 bound_to 10162
  140.5297  143.2246  151.8259 LP  0  0  0  0  0  0  0  0  0  0  0  0  # atno 17343 bound_to 10162
  156.8910  130.9588  151.3588 LP  0  0  0  0  0  0  0  0  0  0  0  0  # atno 17370 bound_to 10713
  157.6123  130.8592  149.8972 LP  0  0  0  0  0  0  0  0  0  0  0  0  # atno 17371 bound_to 10713
  140.2659  134.8430  157.3802 LP  0  0  0  0  0  0  0  0  0  0  0  0  # atno 17394 bound_to 11000
  140.1567  134.4780  155.7923 LP  0  0  0  0  0  0  0  0  0  0  0  0  # atno 17395 bound_to 11000

$$$$
