#       Name:                AV-unprocessed.smi:2060
#       Creating user name   scv26
#       Creation time:       Fri Mar 27 11:02:43 2020


#       File generated by GOLD software.
#

@<TRIPOS>MOLECULE
AV-unprocessed.smi:2060
    53    54     1
SMALL
NO_CHARGES


@<TRIPOS>ATOM
      1 ****        -0.7592  -1.4700   4.0022 C.3            1 S1                 0.0000
      2 ****        -1.1016  -2.0064   2.6008 C.3            1 S1                 0.0000
      3 ****        -0.7394  -1.0754   1.4033 C.3            1 S1                 0.0000
      4 ****        -1.4484   0.2917   1.5895 C.3            1 S1                 0.0000
      5 ****         0.7990  -0.8109   1.3936 C.3            1 S1                 0.0000
      6 ****         1.2878  -0.2016   0.1552 N.am           1 S1                 0.0000
      7 ****         1.4846   1.1096  -0.0461 C.2            1 S1                 0.0000
      8 ****         1.2570   1.9678   0.8056 O.2            1 S1                 0.0000
      9 ****         1.9453   1.3455  -1.2856 N.am           1 S1                 0.0000
     10 ****         2.2683   2.5907  -1.8838 C.2            1 S1                 0.0000
     11 ****         2.2365   3.8672  -1.2503 C.2            1 S1                 0.0000
     12 ****         2.6351   4.7131  -2.2467 C.2            1 S1                 0.0000
     13 ****         2.8365   6.1888  -2.3050 C.3            1 S1                 0.0000
     14 ****         2.8880   4.0161  -3.3870 O.3            1 S1                 0.0000
     15 ****         2.6517   2.6579  -3.1452 N.2            1 S1                 0.0000
     16 ****        -1.1660  -1.6906   0.0916 N.4            1 S1                 1.0000
     17 ****        -0.5338  -2.9977  -0.2456 C.3            1 S1                 0.0000
     18 ****        -0.8771  -3.4055  -1.6875 C.3            1 S1                 0.0000
     19 ****        -2.2877  -3.4844  -1.8345 O.3            1 S1                 0.0000
     20 ****        -2.9122  -2.2306  -1.5968 C.3            1 S1                 0.0000
     21 ****        -2.6338  -1.7717  -0.1552 C.3            1 S1                 0.0000
     22 ****        -1.0549  -2.1907   4.7649 H              1 S1                 0.0000
     23 ****        -1.2809  -0.5392   4.2231 H              1 S1                 0.0000
     24 ****         0.3101  -1.2982   4.1227 H              1 S1                 0.0000
     25 ****        -0.5959  -2.9655   2.4942 H              1 S1                 0.0000
     26 ****        -2.1677  -2.2303   2.5889 H              1 S1                 0.0000
     27 ****        -0.9884   0.8817   2.3826 H              1 S1                 0.0000
     28 ****        -2.4977   0.1773   1.8617 H              1 S1                 0.0000
     29 ****        -1.4054   0.8953   0.6822 H              1 S1                 0.0000
     30 ****         1.0940  -0.1978   2.2466 H              1 S1                 0.0000
     31 ****         1.3444  -1.7449   1.5275 H              1 S1                 0.0000
     32 ****         1.5168  -0.8326  -0.5990 H              1 S1                 0.0000
     33 ****         2.0749   0.5392  -1.8788 H              1 S1                 0.0000
     34 ****         1.9726   4.1361  -0.2385 H              1 S1                 0.0000
     35 ****         2.3497   6.6817  -1.4635 H              1 S1                 0.0000
     36 ****         2.4207   6.6020  -3.2242 H              1 S1                 0.0000
     37 ****         3.8981   6.4340  -2.2729 H              1 S1                 0.0000
     38 ****         0.5497  -2.9548  -0.1527 H              1 S1                 0.0000
     39 ****        -0.8836  -3.7743   0.4349 H              1 S1                 0.0000
     40 ****        -0.4598  -2.6969  -2.4047 H              1 S1                 0.0000
     41 ****        -0.4453  -4.3804  -1.9150 H              1 S1                 0.0000
     42 ****        -2.5562  -1.4912  -2.3161 H              1 S1                 0.0000
     43 ****        -3.9855  -2.3362  -1.7558 H              1 S1                 0.0000
     44 ****        -3.0972  -2.4676   0.5445 H              1 S1                 0.0000
     45 ****        -3.1206  -0.8078  -0.0205 H              1 S1                 0.0000
     46 ****        -0.8238  -1.0445  -0.6052 H              1 S1                 0.0000
     47 ****         0.9065   1.7008   1.7033 LP             1 S1                 0.0000
     48 ****         1.4224   2.9324   0.6002 LP             1 S1                 0.0000
     49 ****         3.8414   4.1488  -3.6579 LP             1 S1                 0.0000
     50 ****         2.2860   4.3373  -4.1181 LP             1 S1                 0.0000
     51 ****         2.7521   1.9003  -3.7901 LP             1 S1                 0.0000
     52 ****        -2.6446  -4.1529  -1.1820 LP             1 S1                 0.0000
     53 ****        -2.5004  -3.7809  -2.7655 LP             1 S1                 0.0000
@<TRIPOS>BOND
    1    1    2 1     
    2    1   22 1     
    3    1   23 1     
    4    1   24 1     
    5    2    3 1     
    6    2   25 1     
    7    2   26 1     
    8    3    4 1     
    9    3    5 1     
   10    3   16 1     
   11    4   27 1     
   12    4   28 1     
   13    4   29 1     
   14    5    6 1     
   15    5   30 1     
   16    5   31 1     
   17    6    7 am    
   18    6   32 1     
   19    7    8 2     
   20    7    9 am    
   21    9   10 1     
   22    9   33 1     
   23   10   15 2     
   24   10   11 1     
   25   11   12 2     
   26   11   34 1     
   27   12   13 1     
   28   12   14 1     
   29   13   35 1     
   30   13   36 1     
   31   13   37 1     
   32   14   15 1     
   33   16   21 1     
   34   16   17 1     
   35   16   46 1     
   36   17   18 1     
   37   17   38 1     
   38   17   39 1     
   39   18   19 1     
   40   18   40 1     
   41   18   41 1     
   42   19   20 1     
   43   20   21 1     
   44   20   42 1     
   45   20   43 1     
   46   21   44 1     
   47   21   45 1     
   48    8   47 1     
   49    8   48 1     
   50   14   49 1     
   51   14   50 1     
   52   15   51 1     
   53   19   52 1     
   54   19   53 1     
@<TRIPOS>SUBSTRUCTURE
      1 S1             1
@<TRIPOS>SET
LONE_PAIRS      STATIC     ATOMS    <user>   **** ""
7 47 48 49 50 51 52 53
DONOR_HYDROGENS      STATIC     ATOMS    <user>   **** ""
3 32 33 46
ATOM$BLUE        STATIC     ATOMS    COLORGROUP SYSTEM
7 47 48 49 50 51 52 53
ATOM$RED        STATIC     ATOMS    COLORGROUP SYSTEM
3 32 33 46
