#       Name:                AV-unprocessed.smi:109
#       Creating user name   scv26
#       Creation time:       Thu Mar 26 18:09:43 2020


#       File generated by GOLD software.
#

@<TRIPOS>MOLECULE
AV-unprocessed.smi:109
    71    74     1
SMALL
NO_CHARGES


@<TRIPOS>ATOM
      1 ****        -1.8881   2.6882  -4.0459 O.3            1 S1                 0.0000
      2 ****        -1.5062   2.1925  -2.7810 C.3            1 S1                 0.0000
      3 ****        -2.7565   1.9279  -1.9248 C.3            1 S1                 0.0000
      4 ****        -2.4371   1.4469  -0.4896 C.3            1 S1                 0.0000
      5 ****        -1.7064   0.1794  -0.5627 N.pl3          1 S1                 0.0000
      6 ****        -0.3929   0.0788  -0.2587 C.ar           1 S1                 0.0000
      7 ****         0.3278   1.1541   0.1497 N.ar           1 S1                 0.0000
      8 ****         1.6216   1.0156   0.4480 C.ar           1 S1                 0.0000
      9 ****         2.3711  -0.0871   0.4094 N.ar           1 S1                 0.0000
     10 ****         1.6591  -1.1763  -0.0043 C.ar           1 S1                 0.0000
     11 ****         0.2792  -1.1670  -0.3576 C.ar           1 S1                 0.0000
     12 ****        -0.1199  -2.4389  -0.7393 N.2            1 S1                 0.0000
     13 ****         0.9632  -3.1561  -0.6179 C.2            1 S1                 0.0000
     14 ****         2.0793  -2.4882  -0.1616 N.pl3          1 S1                 0.0000
     15 ****         3.4402  -3.0968   0.0506 C.3            1 S1                 0.0000
     16 ****         4.2260  -2.8349  -1.0675 O.3            1 S1                 0.0000
     17 ****         5.0093  -1.6704  -0.8480 C.3            1 S1                 0.0000
     18 ****         6.2615  -1.7128  -1.7380 C.3            1 S1                 0.0000
     19 ****         5.9505  -1.2675  -3.0407 O.3            1 S1                 0.0000
     20 ****         5.3343  -1.7380   0.6538 C.3            1 S1                 0.0000
     21 ****         5.3893  -0.4343   1.1972 O.3            1 S1                 0.0000
     22 ****         4.1825  -2.5357   1.2748 C.3            1 S1                 0.0000
     23 ****         4.6902  -3.5788   2.0823 O.3            1 S1                 0.0000
     24 ****        -3.6930   1.2697   0.4111 C.3            1 S1                 0.0000
     25 ****        -4.5665   2.5463   0.4990 C.3            1 S1                 0.0000
     26 ****        -5.7766   2.3689   1.4306 C.3            1 S1                 0.0000
     27 ****        -5.3435   1.9345   2.8357 C.3            1 S1                 0.0000
     28 ****        -4.5054   0.6526   2.7685 C.3            1 S1                 0.0000
     29 ****        -3.2916   0.8317   1.8435 C.3            1 S1                 0.0000
     30 ****         3.2357  -4.1660   0.1240 H              1 S1                 0.0000
     31 ****         4.4116  -0.7873  -1.0746 H              1 S1                 0.0000
     32 ****         6.2884  -2.2435   0.8135 H              1 S1                 0.0000
     33 ****         3.5141  -1.9313   1.8881 H              1 S1                 0.0000
     34 ****        -2.4128   2.0324  -4.4795 H              1 S1                 0.0000
     35 ****        -0.9251   1.2817  -2.9269 H              1 S1                 0.0000
     36 ****        -0.8558   2.9209  -2.2957 H              1 S1                 0.0000
     37 ****        -3.3167   2.8607  -1.8888 H              1 S1                 0.0000
     38 ****        -3.3993   1.2004  -2.4228 H              1 S1                 0.0000
     39 ****        -1.8308   2.2221  -0.0223 H              1 S1                 0.0000
     40 ****        -2.2521  -0.6154  -0.8631 H              1 S1                 0.0000
     41 ****         2.1277   1.9153   0.7652 H              1 S1                 0.0000
     42 ****         0.9750  -4.2100  -0.8554 H              1 S1                 0.0000
     43 ****         7.0248  -1.0436  -1.3397 H              1 S1                 0.0000
     44 ****         6.6931  -2.7137  -1.7707 H              1 S1                 0.0000
     45 ****         6.7384  -1.2895  -3.5621 H              1 S1                 0.0000
     46 ****         4.5527  -0.0167   1.0540 H              1 S1                 0.0000
     47 ****         5.2719  -4.1078   1.5580 H              1 S1                 0.0000
     48 ****        -4.3090   0.4793  -0.0211 H              1 S1                 0.0000
     49 ****        -3.9599   3.3844   0.8445 H              1 S1                 0.0000
     50 ****        -4.9500   2.8220  -0.4821 H              1 S1                 0.0000
     51 ****        -6.3397   3.3009   1.4883 H              1 S1                 0.0000
     52 ****        -6.4546   1.6247   1.0109 H              1 S1                 0.0000
     53 ****        -4.7627   2.7302   3.3041 H              1 S1                 0.0000
     54 ****        -6.2195   1.7764   3.4653 H              1 S1                 0.0000
     55 ****        -4.1717   0.3753   3.7688 H              1 S1                 0.0000
     56 ****        -5.1222  -0.1716   2.4081 H              1 S1                 0.0000
     57 ****        -2.7392  -0.1079   1.8201 H              1 S1                 0.0000
     58 ****        -2.6151   1.5706   2.2752 H              1 S1                 0.0000
     59 ****        -1.0732   2.8832  -4.5918 LP             1 S1                 0.0000
     60 ****        -2.4217   3.5263  -3.9326 LP             1 S1                 0.0000
     61 ****        -0.1102   2.0498   0.2271 LP             1 S1                 0.0000
     62 ****         3.3403  -0.1130   0.6546 LP             1 S1                 0.0000
     63 ****        -1.0265  -2.7369  -1.0380 LP             1 S1                 0.0000
     64 ****         3.6352  -2.6919  -1.8615 LP             1 S1                 0.0000
     65 ****         4.8302  -3.6133  -1.2375 LP             1 S1                 0.0000
     66 ****         5.5978  -0.3325  -3.0021 LP             1 S1                 0.0000
     67 ****         5.2610  -1.8674  -3.4464 LP             1 S1                 0.0000
     68 ****         6.1107   0.0903   0.7450 LP             1 S1                 0.0000
     69 ****         5.5785  -0.4845   2.1778 LP             1 S1                 0.0000
     70 ****         3.9358  -4.1411   2.4207 LP             1 S1                 0.0000
     71 ****         5.1914  -3.1925   2.8567 LP             1 S1                 0.0000
@<TRIPOS>BOND
    1    1    2 1     
    2    1   34 1     
    3    2    3 1     
    4    2   35 1     
    5    2   36 1     
    6    3    4 1     
    7    3   37 1     
    8    3   38 1     
    9    4    5 1     
   10    4   24 1     
   11    4   39 1     
   12    5    6 1     
   13    5   40 1     
   14    6   11 ar    
   15    6    7 ar    
   16    7    8 ar    
   17    8    9 ar    
   18    8   41 1     
   19    9   10 ar    
   20   10   14 1     
   21   10   11 ar    
   22   11   12 1     
   23   12   13 2     
   24   13   14 1     
   25   13   42 1     
   26   14   15 1     
   27   15   30 1     
   28   15   22 1     
   29   15   16 1     
   30   16   17 1     
   31   17   31 1     
   32   17   18 1     
   33   17   20 1     
   34   18   19 1     
   35   18   43 1     
   36   18   44 1     
   37   19   45 1     
   38   20   32 1     
   39   20   21 1     
   40   20   22 1     
   41   21   46 1     
   42   22   33 1     
   43   22   23 1     
   44   23   47 1     
   45   24   29 1     
   46   24   25 1     
   47   24   48 1     
   48   25   26 1     
   49   25   49 1     
   50   25   50 1     
   51   26   27 1     
   52   26   51 1     
   53   26   52 1     
   54   27   28 1     
   55   27   53 1     
   56   27   54 1     
   57   28   29 1     
   58   28   55 1     
   59   28   56 1     
   60   29   57 1     
   61   29   58 1     
   62    1   59 1     
   63    1   60 1     
   64    7   61 1     
   65    9   62 1     
   66   12   63 1     
   67   16   64 1     
   68   16   65 1     
   69   19   66 1     
   70   19   67 1     
   71   21   68 1     
   72   21   69 1     
   73   23   70 1     
   74   23   71 1     
@<TRIPOS>SUBSTRUCTURE
      1 S1             1
@<TRIPOS>SET
LONE_PAIRS      STATIC     ATOMS    <user>   **** ""
13 59 60 61 62 63 64 65 66 67 68 69 70 71
DONOR_HYDROGENS      STATIC     ATOMS    <user>   **** ""
5 34 40 45 46 47
ATOM$BLUE        STATIC     ATOMS    COLORGROUP SYSTEM
13 59 60 61 62 63 64 65 66 67 68 69 70 71
ATOM$RED        STATIC     ATOMS    COLORGROUP SYSTEM
5 34 40 45 46 47
