AV-unprocessed.smi:109|AV-procd|sdf|1035|dock2
  -GOLD-   2262018 53D 1   1.00000     0.00000
 Structure written by MMmdl.
 58 61  0  0  0  0  0  0  0  0  1 V2000
  141.2128  134.9675  159.3967 O   0  0  0  0  0  0  0  0  0  0  0  0
  142.4880  135.0041  160.0005 C   0  0  0  0  0  0  0  0  0  0  0  0
  142.8286  136.4464  160.4123 C   0  0  0  0  0  0  0  0  0  0  0  0
  144.3437  136.7686  160.4205 C   0  0  2  0  0  0  0  0  0  0  0  0
  144.9088  136.5002  159.0962 N   0  0  0  0  0  0  0  0  0  0  0  0
  144.4293  137.0829  157.9743 C   0  0  0  0  0  0  0  0  0  0  0  0
  143.6691  138.2068  158.0258 N   0  0  0  0  0  0  0  0  0  0  0  0
  143.2085  138.7543  156.8980 C   0  0  0  0  0  0  0  0  0  0  0  0
  143.3863  138.3456  155.6402 N   0  0  0  0  0  0  0  0  0  0  0  0
  144.1468  137.2128  155.5777 C   0  0  0  0  0  0  0  0  0  0  0  0
  144.7055  136.5320  156.6962 C   0  0  0  0  0  0  0  0  0  0  0  0
  145.4389  135.4370  156.2636 N   0  0  0  0  0  0  0  0  0  0  0  0
  145.3275  135.4779  154.9639 C   0  0  0  0  0  0  0  0  0  0  0  0
  144.5364  136.4912  154.4622 N   0  0  0  0  0  0  0  0  0  0  0  0
  144.2538  136.8058  153.0164 C   0  0  2  0  0  0  0  0  0  0  0  0
  143.7083  135.6774  152.4054 O   0  0  0  0  0  0  0  0  0  0  0  0
  144.7585  134.8919  151.8583 C   0  0  1  0  0  0  0  0  0  0  0  0
  144.2147  133.8179  150.9014 C   0  0  0  0  0  0  0  0  0  0  0  0
  142.9863  133.3227  151.3897 O   0  0  0  0  0  0  0  0  0  0  0  0
  145.6386  135.9751  151.2235 C   0  0  1  0  0  0  0  0  0  0  0  0
  145.1333  136.3536  149.9524 O   0  0  0  0  0  0  0  0  0  0  0  0
  145.5640  137.1060  152.2537 C   0  0  1  0  0  0  0  0  0  0  0  0
  145.5813  138.3933  151.6666 O   0  0  0  0  0  0  0  0  0  0  0  0
  145.1413  135.9663  161.4899 C   0  0  0  0  0  0  0  0  0  0  0  0
  146.5607  136.5315  161.7505 C   0  0  0  0  0  0  0  0  0  0  0  0
  147.3404  135.7055  162.7873 C   0  0  0  0  0  0  0  0  0  0  0  0
  147.4323  134.2306  162.3788 C   0  0  0  0  0  0  0  0  0  0  0  0
  146.0342  133.6490  162.1399 C   0  0  0  0  0  0  0  0  0  0  0  0
  145.2617  134.4711  161.0966 C   0  0  0  0  0  0  0  0  0  0  0  0
  143.5415  137.6311  153.0518 H   0  0  0  0  0  0  0  0  0  0  0  0
  145.3180  134.4204  152.6696 H   0  0  0  0  0  0  0  0  0  0  0  0
  146.6626  135.6258  151.0872 H   0  0  0  0  0  0  0  0  0  0  0  0
  146.4193  137.0206  152.9239 H   0  0  0  0  0  0  0  0  0  0  0  0
  140.5611  134.8863  160.0762 H   0  0  0  0  0  0  0  0  0  0  0  0
  142.4819  134.3364  160.8620 H   0  0  0  0  0  0  0  0  0  0  0  0
  143.2245  134.6225  159.2930 H   0  0  0  0  0  0  0  0  0  0  0  0
  142.3153  137.0985  159.7079 H   0  0  0  0  0  0  0  0  0  0  0  0
  142.4033  136.6589  161.3941 H   0  0  0  0  0  0  0  0  0  0  0  0
  144.4582  137.8220  160.6763 H   0  0  0  0  0  0  0  0  0  0  0  0
  145.7459  135.9355  159.0932 H   0  0  0  0  0  0  0  0  0  0  0  0
  142.6110  139.6454  157.0207 H   0  0  0  0  0  0  0  0  0  0  0  0
  145.8246  134.7573  154.3305 H   0  0  0  0  0  0  0  0  0  0  0  0
  144.0901  134.2077  149.8908 H   0  0  0  0  0  0  0  0  0  0  0  0
  144.9075  132.9777  150.8458 H   0  0  0  0  0  0  0  0  0  0  0  0
  142.2868  133.8305  151.0069 H   0  0  0  0  0  0  0  0  0  0  0  0
  145.5699  135.8370  149.2920 H   0  0  0  0  0  0  0  0  0  0  0  0
  145.0846  138.3589  150.8631 H   0  0  0  0  0  0  0  0  0  0  0  0
  144.5887  136.0212  162.4295 H   0  0  0  0  0  0  0  0  0  0  0  0
  147.1208  136.5676  160.8150 H   0  0  0  0  0  0  0  0  0  0  0  0
  146.5116  137.5529  162.1236 H   0  0  0  0  0  0  0  0  0  0  0  0
  148.3420  136.1178  162.9126 H   0  0  0  0  0  0  0  0  0  0  0  0
  146.8505  135.7850  163.7587 H   0  0  0  0  0  0  0  0  0  0  0  0
  148.0306  134.1365  161.4717 H   0  0  0  0  0  0  0  0  0  0  0  0
  147.9470  133.6599  163.1523 H   0  0  0  0  0  0  0  0  0  0  0  0
  146.1155  132.6129  161.8100 H   0  0  0  0  0  0  0  0  0  0  0  0
  145.4773  133.6331  163.0778 H   0  0  0  0  0  0  0  0  0  0  0  0
  144.2765  134.0213  160.9723 H   0  0  0  0  0  0  0  0  0  0  0  0
  145.7585  134.3861  160.1292 H   0  0  0  0  0  0  0  0  0  0  0  0
  1  2  1  0  0  0  0
  1 34  1  0  0  0  0
  2  3  1  0  0  0  0
  2 35  1  0  0  0  0
  2 36  1  0  0  0  0
  3  4  1  0  0  0  0
  3 37  1  0  0  0  0
  3 38  1  0  0  0  0
  4  5  1  0  0  0  0
  4 24  1  0  0  0  0
  4 39  1  0  0  0  0
  5  6  1  0  0  0  0
  5 40  1  0  0  0  0
  6 11  1  0  0  0  0
  6  7  2  0  0  0  0
  7  8  1  0  0  0  0
  8  9  2  0  0  0  0
  8 41  1  0  0  0  0
  9 10  1  0  0  0  0
 10 14  1  0  0  0  0
 10 11  2  0  0  0  0
 11 12  1  0  0  0  0
 12 13  2  0  0  0  0
 13 14  1  0  0  0  0
 13 42  1  0  0  0  0
 14 15  1  0  0  0  0
 15 30  1  0  0  0  0
 15 22  1  0  0  0  0
 15 16  1  0  0  0  0
 16 17  1  0  0  0  0
 17 31  1  0  0  0  0
 17 18  1  0  0  0  0
 17 20  1  0  0  0  0
 18 19  1  0  0  0  0
 18 43  1  0  0  0  0
 18 44  1  0  0  0  0
 19 45  1  0  0  0  0
 20 32  1  0  0  0  0
 20 21  1  0  0  0  0
 20 22  1  0  0  0  0
 21 46  1  0  0  0  0
 22 33  1  0  0  0  0
 22 23  1  0  0  0  0
 23 47  1  0  0  0  0
 24 29  1  0  0  0  0
 24 25  1  0  0  0  0
 24 48  1  0  0  0  0
 25 26  1  0  0  0  0
 25 49  1  0  0  0  0
 25 50  1  0  0  0  0
 26 27  1  0  0  0  0
 26 51  1  0  0  0  0
 26 52  1  0  0  0  0
 27 28  1  0  0  0  0
 27 53  1  0  0  0  0
 27 54  1  0  0  0  0
 28 29  1  0  0  0  0
 28 55  1  0  0  0  0
 28 56  1  0  0  0  0
 29 57  1  0  0  0  0
 29 58  1  0  0  0  0
M  END
> <s_m_source_file>
AV-unprocessed.smi

> <i_m_source_file_index>
109

> <i_lp_mmshare_version>
43012

> <i_f3d_flags>
0

> <s_epik_input>
W0NIMl0xW0NIMl1bQ0gyXVtDSDJdW0NIMl1bQ0hdMVtDQEhdKFtDSDJdW0NIMl1bT0hdKVtOSF1jKG5bY0hdbjIpYyhjMjMpbltjSF1uM1tDQEBIXTRPW0NASF0oW0NIMl1bT0hdKVtDQEBIXShbT0hdKVtDQEhdNFtPSF0=

> <s_epik_cmdline>
J2VwaWtfcHl0aG9uJywgJy1waCcsICc3LjAnLCAnLXRuJywgJzgnLCAnLW1hJywgJzIwMCcsICctbWV0YWxfYmluZGluZycsICctaW1hZScsICc8aW5maWxlLm1hZT4nLCAnLW9tYWUnLCAnPG91dGZpbGUubWFlPic=

> <r_lp_tautomer_probability>
1

> <r_epik_Ionization_Penalty>
0.000793976

> <r_epik_Ionization_Penalty_Charging>
0

> <r_epik_Ionization_Penalty_Neutral>
0.000793976

> <r_epik_State_Penalty>
-0

> <r_epik_Charging_Adjusted_Penalty>
0

> <i_epik_Tot_Q>
0

> <i_epik_Tot_abs_Q>
0

> <r_epik_Metal_State_Penalty>
-0

> <b_epik_Metal_Only>
0

> <s_epik_Chemistry_Notes>
This compound contains an acetal/aminal-like group ( X-CH(R)-Y where X, Y are N, S, or O) that may be acid/base labile, releasing an aldehyde.

> <s_lp_Force_Field>
OPLS_2005

> <r_lp_Energy>
57.9127

> <b_lp_Chiralities_Consistent>
1

> <s_lp_Variant>
AV-unprocessed.smi:109-5

> <Gold.Version>
5.8.1

> <Gold.Id.Protein>
6NUR|6NUR_protein|mol2

> <Gold.PLP.Fitness>
46.3275

> <Gold.PLP.PLP>
-35.7502

> <Gold.PLP.part.hbond>
-6.0000

> <Gold.PLP.part.metal>
0.0000

> <Gold.PLP.part.buried>
-7.8921

> <Gold.PLP.part.nonpolar>
-22.8429

> <Gold.PLP.part.repulsive>
0.2244

> <Gold.PLP.ligand.clash>
0.0000

> <Gold.PLP.ligand.torsion>
0.7622

> <Gold.PLP.Chemscore.Hbond>
4.0000

> <Gold.PLP.Chemscore.CHOScore>
0.0000

> <Gold.PLP.Chemscore.Metal>
0.0000

> <Gold.Chemscore.Hbonds>
donor molecule, donor type, donor heavy atom, donor atom, acceptor molecule, acceptor atom, score
      L1  H    19    45       P1 10186  1.00
      L1  H    21    46       P1  7921  1.00
      L1  H    23    47       P1 10171  1.00
      P1  H 11000 11005       L1     1  1.00

> <Gold.PLP.Chemscore.Internal.Correction>
0.1016

> <Gold.Rescore>
     Score         DG    S(hbond)    S(metal)    S(lipo)     H(rot)  DE(clash)    DE(int)     intcor
     12.00     -12.89       3.93        0.00      70.77       5.47       0.00       0.89       ----

> <Gold.Chemscore.Fitness>
11.9973

> <Gold.Chemscore.DG>
-12.8900

> <Gold.Chemscore.ZeroCoef>
-5.4800

> <Gold.Chemscore.Hbond>
3.9291

> <Gold.Chemscore.Metal>
0.0000

> <Gold.Chemscore.Lipo>
70.7723

> <Gold.Chemscore.Internal_Hbond>
0.0000

> <Gold.Chemscore.DEClash>
0.0000

> <Gold.Chemscore.DEInternal>
0.8927

> <Gold.Chemscore.Rot>
5.4662

> <Gold.Chemscore.Internal.Correction>
   9.000000E+99

> <Gold.Chemscore.Hbonds>
donor molecule, donor type, donor heavy atom, donor atom, acceptor molecule, acceptor atom, score
      L1  H    19    45       P1 10186  0.47
      L1  H    21    46       P1  7921  0.95
      L1  H    23    47       P1 10171  0.99
      P1  H 11000 11005       L1     1  0.94

> <Gold.Chemscore.Hbond.Weighted>
-13.1231

> <Gold.Chemscore.Metal.Weighted>
-0.0000

> <Gold.Chemscore.Lipo.Weighted>
-8.2804

> <Gold.Chemscore.Internal_Hbond.Weighted>
0.0000

> <Gold.Chemscore.DEClash.Weighted>
0.0000

> <Gold.Chemscore.DEInternal.Weighted>
0.8927

> <Gold.Chemscore.Rot.Weighted>
13.9935

> <Gold.Chemscore.Internal.Correction.Weighted>
   9.000000E+99

> <Gold.Protein.RotatedTorsions>
[ 6907 6896 6895 6894 ] final   38.49 input  -60.11 | X-H torsion
[ 7974 7965 7964 7962 ] final  -51.06 input  175.53 | X-H torsion
[ 8008 7997 7996 7995 ] final  165.86 input   59.86 | X-H torsion
[ 10167 10162 10161 10158 ] final -113.05 input  -65.29 | X-H torsion
[ 10718 10713 10712 10709 ] final   88.75 input   66.30 | X-H torsion
[ 10763 10752 10751 10750 ] final  159.54 input  -60.55 | X-H torsion
[ 11005 11000 10999 10996 ] final -151.77 input  -57.11 | X-H torsion

> <Gold.Protein.ActiveResidues>
 VAL166  LYS551  ARG553  GLY616  TRP617  ASP618  TYR619  PRO620  LYS621  CYS622 
 ASP623  PHE694  ASN695  SER759  ASP760  ASP761  ALA762  ILE779  LEU786  VAL792 
 PHE793  MET794  SER795  GLU796  ALA797  LYS798  CYS799  TRP800  GLU811  SER814 

> <Gold.Protein.RotatedAtoms>
  152.1571  134.8942  160.0543 H   0  0  0  0  0  0  0  0  0  0  0  0  # atno 6907 bound_to 6896
  151.9951  133.3800  159.4168 H   0  0  0  0  0  0  0  0  0  0  0  0  # atno 6908 bound_to 6896
  150.6883  134.3816  159.5080 H   0  0  0  0  0  0  0  0  0  0  0  0  # atno 6909 bound_to 6896
  145.9231  140.7816  142.9637 H   0  0  0  0  0  0  0  0  0  0  0  0  # atno 7974 bound_to 7965
  156.1766  140.1659  156.8351 H   0  0  0  0  0  0  0  0  0  0  0  0  # atno 8008 bound_to 7997
  154.5314  140.0756  156.8384 H   0  0  0  0  0  0  0  0  0  0  0  0  # atno 8009 bound_to 7997
  155.3400  140.3384  155.4241 H   0  0  0  0  0  0  0  0  0  0  0  0  # atno 8010 bound_to 7997
  140.1161  143.4484  152.1721 H   0  0  0  0  0  0  0  0  0  0  0  0  # atno 10167 bound_to 10162
  157.6951  131.0307  150.3321 H   0  0  0  0  0  0  0  0  0  0  0  0  # atno 10718 bound_to 10713
  154.2333  135.2777  155.2881 H   0  0  0  0  0  0  0  0  0  0  0  0  # atno 10763 bound_to 10752
  154.5605  135.5648  153.7007 H   0  0  0  0  0  0  0  0  0  0  0  0  # atno 10764 bound_to 10752
  153.0015  135.6297  154.2476 H   0  0  0  0  0  0  0  0  0  0  0  0  # atno 10765 bound_to 10752
  140.7260  134.3674  157.5175 H   0  0  0  0  0  0  0  0  0  0  0  0  # atno 11005 bound_to 11000
  144.6755  140.2007  143.7387 LP  0  0  0  0  0  0  0  0  0  0  0  0  # atno 17320 bound_to 7965
  145.8524  139.2182  143.1764 LP  0  0  0  0  0  0  0  0  0  0  0  0  # atno 17321 bound_to 7965
  139.5593  144.7395  151.4201 LP  0  0  0  0  0  0  0  0  0  0  0  0  # atno 17342 bound_to 10162
  140.6898  143.7887  150.7239 LP  0  0  0  0  0  0  0  0  0  0  0  0  # atno 17343 bound_to 10162
  156.3794  130.3877  149.7114 LP  0  0  0  0  0  0  0  0  0  0  0  0  # atno 17370 bound_to 10713
  156.4501  130.7902  151.2924 LP  0  0  0  0  0  0  0  0  0  0  0  0  # atno 17371 bound_to 10713
  139.8837  134.8986  156.2749 LP  0  0  0  0  0  0  0  0  0  0  0  0  # atno 17394 bound_to 11000
  140.9962  133.7178  156.0890 LP  0  0  0  0  0  0  0  0  0  0  0  0  # atno 17395 bound_to 11000

$$$$
