AV-unprocessed.smi:249|AV-procd|sdf|1929|dock1
  -GOLD-   2262021 43D 1   1.00000     0.00000
 Structure written by MMmdl.
 64 67  0  0  0  0  0  0  0  0  2 V2000
  150.2734  144.9688  159.6923 C   0  0  0  0  0  0  0  0  0  0  0  0
  151.6945  144.4050  159.5278 C   0  0  0  0  0  0  0  0  0  0  0  0
  151.7360  142.9155  159.4537 N   0  3  1  0  0  0  0  0  0  0  0  0
  151.4737  142.4277  158.0681 C   0  0  0  0  0  0  0  0  0  0  0  0
  151.3932  140.8970  157.9962 C   0  0  0  0  0  0  0  0  0  0  0  0
  152.6882  140.2694  158.5267 C   0  0  2  0  0  0  0  0  0  0  0  0
  152.6854  138.8052  158.4298 N   0  0  0  0  0  0  0  0  0  0  0  0
  152.3363  137.9949  159.5961 C   0  0  0  0  0  0  0  0  0  0  0  0
  152.3361  138.3054  157.2165 C   0  0  0  0  0  0  0  0  0  0  0  0
  152.8063  138.8959  156.0857 N   0  0  0  0  0  0  0  0  0  0  0  0
  152.4911  138.4001  154.8859 C   0  0  0  0  0  0  0  0  0  0  0  0
  151.7299  137.3444  154.5940 N   0  0  0  0  0  0  0  0  0  0  0  0
  151.2385  136.7566  155.7224 C   0  0  0  0  0  0  0  0  0  0  0  0
  151.4978  137.1653  157.0616 C   0  0  0  0  0  0  0  0  0  0  0  0
  150.8420  136.3216  157.9496 N   0  0  0  0  0  0  0  0  0  0  0  0
  150.2414  135.4559  157.1801 C   0  0  0  0  0  0  0  0  0  0  0  0
  150.3988  135.6588  155.8268 N   0  0  0  0  0  0  0  0  0  0  0  0
  149.8512  134.8328  154.7592 C   0  0  0  0  0  0  0  0  0  0  0  0
  149.1662  133.5196  155.2367 C   0  0  1  0  0  0  0  0  0  0  0  0
  148.0296  133.1560  154.2515 C   0  0  0  0  0  0  0  0  0  0  0  0
  148.5446  132.5481  153.0845 O   0  0  0  0  0  0  0  0  0  0  0  0
  150.1371  132.3092  155.3988 C   0  0  1  0  0  0  0  0  0  0  0  0
  151.0165  132.2976  156.6412 C   0  0  0  0  0  0  0  0  0  0  0  0
  150.0760  131.7845  157.7259 C   0  0  0  0  0  0  0  0  0  0  0  0
  149.1691  130.9189  157.0517 O   0  0  0  0  0  0  0  0  0  0  0  0
  149.3918  130.9879  155.6460 C   0  0  0  0  0  0  0  0  0  0  0  0
  152.9294  140.7686  159.9580 C   0  0  0  0  0  0  0  0  0  0  0  0
  152.9854  142.3110  160.0250 C   0  0  2  0  0  0  0  0  0  0  0  0
  153.2525  142.7278  161.4869 C   0  0  0  0  0  0  0  0  0  0  0  0
  150.3115  146.0389  159.8967 H   0  0  0  0  0  0  0  0  0  0  0  0
  149.7544  144.4947  160.5258 H   0  0  0  0  0  0  0  0  0  0  0  0
  149.6674  144.8429  158.7959 H   0  0  0  0  0  0  0  0  0  0  0  0
  152.1769  144.8354  158.6488 H   0  0  0  0  0  0  0  0  0  0  0  0
  152.2520  144.7605  160.3910 H   0  0  0  0  0  0  0  0  0  0  0  0
  150.5325  142.8242  157.6914 H   0  0  0  0  0  0  0  0  0  0  0  0
  152.2571  142.7913  157.4008 H   0  0  0  0  0  0  0  0  0  0  0  0
  150.5346  140.5514  158.5732 H   0  0  0  0  0  0  0  0  0  0  0  0
  151.2207  140.5883  156.9643 H   0  0  0  0  0  0  0  0  0  0  0  0
  153.5036  140.6584  157.9174 H   0  0  0  0  0  0  0  0  0  0  0  0
  152.5498  136.9412  159.4113 H   0  0  0  0  0  0  0  0  0  0  0  0
  151.2770  138.0904  159.8366 H   0  0  0  0  0  0  0  0  0  0  0  0
  152.9137  138.2903  160.4711 H   0  0  0  0  0  0  0  0  0  0  0  0
  152.9091  138.9232  154.0385 H   0  0  0  0  0  0  0  0  0  0  0  0
  149.6493  134.6468  157.5825 H   0  0  0  0  0  0  0  0  0  0  0  0
  149.1408  135.4662  154.2275 H   0  0  0  0  0  0  0  0  0  0  0  0
  150.6390  134.6062  154.0395 H   0  0  0  0  0  0  0  0  0  0  0  0
  148.6993  133.6939  156.2054 H   0  0  0  0  0  0  0  0  0  0  0  0
  147.3121  132.4833  154.7226 H   0  0  0  0  0  0  0  0  0  0  0  0
  147.4698  134.0336  153.9330 H   0  0  0  0  0  0  0  0  0  0  0  0
  148.4301  133.1429  152.3591 H   0  0  0  0  0  0  0  0  0  0  0  0
  150.7610  132.2401  154.5068 H   0  0  0  0  0  0  0  0  0  0  0  0
  151.8214  131.5749  156.4995 H   0  0  0  0  0  0  0  0  0  0  0  0
  151.4964  133.2401  156.8837 H   0  0  0  0  0  0  0  0  0  0  0  0
  150.6072  131.2646  158.5232 H   0  0  0  0  0  0  0  0  0  0  0  0
  149.5140  132.6065  158.1706 H   0  0  0  0  0  0  0  0  0  0  0  0
  148.4539  130.8868  155.1021 H   0  0  0  0  0  0  0  0  0  0  0  0
  150.0233  130.1451  155.3606 H   0  0  0  0  0  0  0  0  0  0  0  0
  152.1420  140.4140  160.6236 H   0  0  0  0  0  0  0  0  0  0  0  0
  153.8642  140.3472  160.3307 H   0  0  0  0  0  0  0  0  0  0  0  0
  153.8285  142.6477  159.4191 H   0  0  0  0  0  0  0  0  0  0  0  0
  154.0658  142.1413  161.9158 H   0  0  0  0  0  0  0  0  0  0  0  0
  152.3733  142.5740  162.1132 H   0  0  0  0  0  0  0  0  0  0  0  0
  153.5588  143.7695  161.5740 H   0  0  0  0  0  0  0  0  0  0  0  0
  150.9753  142.5806  160.0277 H   0  0  0  0  0  0  0  0  0  0  0  0
  1  2  1  0  0  0  0
  1 30  1  0  0  0  0
  1 31  1  0  0  0  0
  1 32  1  0  0  0  0
  2  3  1  0  0  0  0
  2 33  1  0  0  0  0
  2 34  1  0  0  0  0
  3 28  1  0  0  0  0
  3  4  1  0  0  0  0
  3 64  1  0  0  0  0
  4  5  1  0  0  0  0
  4 35  1  0  0  0  0
  4 36  1  0  0  0  0
  5  6  1  0  0  0  0
  5 37  1  0  0  0  0
  5 38  1  0  0  0  0
  6  7  1  0  0  0  0
  6 27  1  0  0  0  0
  6 39  1  0  0  0  0
  7  8  1  0  0  0  0
  7  9  1  0  0  0  0
  8 40  1  0  0  0  0
  8 41  1  0  0  0  0
  8 42  1  0  0  0  0
  9 14  1  0  0  0  0
  9 10  2  0  0  0  0
 10 11  1  0  0  0  0
 11 12  2  0  0  0  0
 11 43  1  0  0  0  0
 12 13  1  0  0  0  0
 13 17  1  0  0  0  0
 13 14  2  0  0  0  0
 14 15  1  0  0  0  0
 15 16  2  0  0  0  0
 16 17  1  0  0  0  0
 16 44  1  0  0  0  0
 17 18  1  0  0  0  0
 18 19  1  0  0  0  0
 18 45  1  0  0  0  0
 18 46  1  0  0  0  0
 19 20  1  0  0  0  0
 19 22  1  0  0  0  0
 19 47  1  0  0  0  0
 20 21  1  0  0  0  0
 20 48  1  0  0  0  0
 20 49  1  0  0  0  0
 21 50  1  0  0  0  0
 22 26  1  0  0  0  0
 22 23  1  0  0  0  0
 22 51  1  0  0  0  0
 23 24  1  0  0  0  0
 23 52  1  0  0  0  0
 23 53  1  0  0  0  0
 24 25  1  0  0  0  0
 24 54  1  0  0  0  0
 24 55  1  0  0  0  0
 25 26  1  0  0  0  0
 26 56  1  0  0  0  0
 26 57  1  0  0  0  0
 27 28  1  0  0  0  0
 27 58  1  0  0  0  0
 27 59  1  0  0  0  0
 28 29  1  0  0  0  0
 28 60  1  0  0  0  0
 29 61  1  0  0  0  0
 29 62  1  0  0  0  0
 29 63  1  0  0  0  0
M  CHG  1   3   1
M  END
> <s_m_source_file>
AV-unprocessed.smi

> <i_m_source_file_index>
249

> <i_lp_mmshare_version>
43012

> <i_f3d_flags>
0

> <s_epik_input>
W0NIM11bQ0gyXU4xW0NIMl1bQ0gyXVtDQEhdKFtDSDJdW0NASF0xW0NIM10pTihbQ0gzXSljKG5bY0hdbjIpYyhjMjMpbltjSF1uM1tDSDJdW0NASF0oW0NIMl1bT0hdKVtDQEBIXTRbQ0gyXVtDSDJdT1tDSDJdNA==

> <s_epik_cmdline>
J2VwaWtfcHl0aG9uJywgJy1waCcsICc3LjAnLCAnLXRuJywgJzgnLCAnLW1hJywgJzIwMCcsICctbWV0YWxfYmluZGluZycsICctaW1hZScsICc8aW5maWxlLm1hZT4nLCAnLW9tYWUnLCAnPG91dGZpbGUubWFlPic=

> <r_lp_tautomer_probability>
1

> <r_epik_Ionization_Penalty>
0.00294688

> <r_epik_Ionization_Penalty_Charging>
0.00169971

> <r_epik_Ionization_Penalty_Neutral>
0.00124717

> <r_epik_State_Penalty>
-0

> <r_epik_Charging_Adjusted_Penalty>
0.00169971

> <i_epik_Tot_Q>
1

> <i_epik_Tot_abs_Q>
1

> <r_epik_Metal_State_Penalty>
-0

> <b_epik_Metal_Only>
0

> <s_lp_Force_Field>
OPLS_2005

> <r_lp_Energy>
57.6505

> <b_lp_Chiralities_Consistent>
1

> <s_lp_Variant>
AV-unprocessed.smi:249-32

> <Gold.Version>
5.8.1

> <Gold.Id.Protein>
6NUR|6NUR_protein|mol2

> <Gold.PLP.Fitness>
51.9335

> <Gold.PLP.PLP>
-49.3542

> <Gold.PLP.part.hbond>
-3.6470

> <Gold.PLP.part.metal>
0.0000

> <Gold.PLP.part.buried>
-6.8551

> <Gold.PLP.part.nonpolar>
-41.0080

> <Gold.PLP.part.repulsive>
0.2008

> <Gold.PLP.ligand.clash>
0.0000

> <Gold.PLP.ligand.torsion>
1.8677

> <Gold.PLP.Chemscore.Hbond>
1.7212

> <Gold.PLP.Chemscore.CHOScore>
0.0000

> <Gold.PLP.Chemscore.Metal>
0.0000

> <Gold.Chemscore.Hbonds>
donor molecule, donor type, donor heavy atom, donor atom, acceptor molecule, acceptor atom, score
      P1  H  6896  6907       L1    15  0.20
      P1  H  7997  8008       L1    10  1.00
      P1  H 10752 10765       L1    12  0.45

> <Gold.PLP.Chemscore.Internal.Correction>
1.1511

> <Gold.Rescore>
     Score         DG    S(hbond)    S(metal)    S(lipo)     H(rot)  DE(clash)    DE(int)     intcor
     12.64     -16.09       1.05        0.00     118.61       2.65       0.02       3.43       ----

> <Gold.Chemscore.Fitness>
12.6354

> <Gold.Chemscore.DG>
-16.0862

> <Gold.Chemscore.ZeroCoef>
-5.4800

> <Gold.Chemscore.Hbond>
1.0529

> <Gold.Chemscore.Metal>
0.0000

> <Gold.Chemscore.Lipo>
118.6101

> <Gold.Chemscore.Internal_Hbond>
0.0000

> <Gold.Chemscore.DEClash>
0.0171

> <Gold.Chemscore.DEInternal>
3.4336

> <Gold.Chemscore.Rot>
2.6515

> <Gold.Chemscore.Internal.Correction>
   9.000000E+99

> <Gold.Chemscore.Hbonds>
donor molecule, donor type, donor heavy atom, donor atom, acceptor molecule, acceptor atom, score
      P1  H  6896  6907       L1    15  0.02
      P1  H  7997  8008       L1    10  0.90
      P1  H 10752 10765       L1    12  0.04

> <Gold.Chemscore.Hbond.Weighted>
-3.5167

> <Gold.Chemscore.Metal.Weighted>
-0.0000

> <Gold.Chemscore.Lipo.Weighted>
-13.8774

> <Gold.Chemscore.Internal_Hbond.Weighted>
0.0000

> <Gold.Chemscore.DEClash.Weighted>
0.0171

> <Gold.Chemscore.DEInternal.Weighted>
3.4336

> <Gold.Chemscore.Rot.Weighted>
6.7880

> <Gold.Chemscore.Internal.Correction.Weighted>
   9.000000E+99

> <Gold.Protein.RotatedTorsions>
[ 6907 6896 6895 6894 ] final  -43.03 input  -60.11 | X-H torsion
[ 7974 7965 7964 7962 ] final   49.79 input  175.53 | X-H torsion
[ 8008 7997 7996 7995 ] final  -42.66 input   59.86 | X-H torsion
[ 10167 10162 10161 10158 ] final  102.05 input  -65.29 | X-H torsion
[ 10718 10713 10712 10709 ] final  -57.57 input   66.30 | X-H torsion
[ 10763 10752 10751 10750 ] final  145.08 input  -60.55 | X-H torsion
[ 11005 11000 10999 10996 ] final  -23.82 input  -57.11 | X-H torsion

> <Gold.Protein.ActiveResidues>
 VAL166  LYS551  ARG553  GLY616  TRP617  ASP618  TYR619  PRO620  LYS621  CYS622 
 ASP623  PHE694  ASN695  SER759  ASP760  ASP761  ALA762  ILE779  LEU786  VAL792 
 PHE793  MET794  SER795  GLU796  ALA797  LYS798  CYS799  TRP800  GLU811  SER814 

> <Gold.Protein.RotatedAtoms>
  150.9485  134.8887  159.7656 H   0  0  0  0  0  0  0  0  0  0  0  0  # atno 6907 bound_to 6896
  152.5110  134.3840  159.9371 H   0  0  0  0  0  0  0  0  0  0  0  0  # atno 6908 bound_to 6896
  151.3857  133.3765  159.2750 H   0  0  0  0  0  0  0  0  0  0  0  0  # atno 6909 bound_to 6896
  146.0075  139.4506  142.9977 H   0  0  0  0  0  0  0  0  0  0  0  0  # atno 7974 bound_to 7965
  154.3998  140.1468  156.3392 H   0  0  0  0  0  0  0  0  0  0  0  0  # atno 8008 bound_to 7997
  155.8372  140.3463  155.5588 H   0  0  0  0  0  0  0  0  0  0  0  0  # atno 8009 bound_to 7997
  155.8125  140.0886  157.1886 H   0  0  0  0  0  0  0  0  0  0  0  0  # atno 8010 bound_to 7997
  139.7384  144.7018  151.0613 H   0  0  0  0  0  0  0  0  0  0  0  0  # atno 10167 bound_to 10162
  156.1200  130.4167  150.0459 H   0  0  0  0  0  0  0  0  0  0  0  0  # atno 10718 bound_to 10713
  153.9996  135.2924  155.3404 H   0  0  0  0  0  0  0  0  0  0  0  0  # atno 10763 bound_to 10752
  154.7167  135.5126  153.8752 H   0  0  0  0  0  0  0  0  0  0  0  0  # atno 10764 bound_to 10752
  153.0772  135.6667  154.0239 H   0  0  0  0  0  0  0  0  0  0  0  0  # atno 10765 bound_to 10752
  140.8787  133.7669  156.0275 H   0  0  0  0  0  0  0  0  0  0  0  0  # atno 11005 bound_to 11000
  145.7393  141.0014  143.1309 LP  0  0  0  0  0  0  0  0  0  0  0  0  # atno 17320 bound_to 7965
  144.6941  139.9080  143.7462 LP  0  0  0  0  0  0  0  0  0  0  0  0  # atno 17321 bound_to 7965
  140.7782  143.4955  150.9838 LP  0  0  0  0  0  0  0  0  0  0  0  0  # atno 17342 bound_to 10162
  139.8643  143.7274  152.3171 LP  0  0  0  0  0  0  0  0  0  0  0  0  # atno 17343 bound_to 10162
  156.8400  130.9422  151.3632 LP  0  0  0  0  0  0  0  0  0  0  0  0  # atno 17370 bound_to 10713
  157.6384  130.8785  149.9401 LP  0  0  0  0  0  0  0  0  0  0  0  0  # atno 17371 bound_to 10713
  140.8487  134.2980  157.5284 LP  0  0  0  0  0  0  0  0  0  0  0  0  # atno 17394 bound_to 11000
  139.8718  134.9456  156.3914 LP  0  0  0  0  0  0  0  0  0  0  0  0  # atno 17395 bound_to 11000

$$$$
