AV-unprocessed.smi:1715|AV-procd|sdf|6912|dock9
  -GOLD-   22720 8113D 1   1.00000     0.00000
 Structure written by MMmdl.
 41 42  0  0  0  0  0  0  0  0  2 V2000
  149.1081  135.5109  155.2010 C   0  0  0  0  0  0  0  0  0  0  0  0
  149.1555  136.9195  155.8196 C   0  0  2  0  0  0  0  0  0  0  0  0
  148.1116  137.8880  155.2294 C   0  0  0  0  0  0  0  0  0  0  0  0
  148.4931  138.3240  153.8647 N   0  3  1  0  0  0  0  0  0  0  0  0
  147.4741  139.2111  153.2505 C   0  0  0  0  0  0  0  0  0  0  0  0
  146.1773  138.4589  152.8938 C   0  0  0  0  0  0  0  0  0  0  0  0
  146.4554  137.1162  152.3972 N   0  0  0  0  0  0  0  0  0  0  0  0
  145.5225  136.1972  152.1097 C   0  0  0  0  0  0  0  0  0  0  0  0
  144.3145  136.3926  152.2447 O   0  0  0  0  0  0  0  0  0  0  0  0
  146.0775  135.0576  151.6656 N   0  0  0  0  0  0  0  0  0  0  0  0
  145.4098  133.8689  151.2764 C   0  0  0  0  0  0  0  0  0  0  0  0
  146.0420  132.6090  151.0933 C   0  0  0  0  0  0  0  0  0  0  0  0
  145.1705  131.6787  150.7306 N   0  0  0  0  0  0  0  0  0  0  0  0
  143.9882  132.3330  150.6795 N   0  0  0  0  0  0  0  0  0  0  0  0
  144.0853  133.6678  151.0052 C   0  0  0  0  0  0  0  0  0  0  0  0
  149.8567  138.9066  153.8754 C   0  0  0  0  0  0  0  0  0  0  0  0
  150.8689  137.8962  154.4447 C   0  0  1  0  0  0  0  0  0  0  0  0
  152.2768  138.4921  154.5547 C   0  0  0  0  0  0  0  0  0  0  0  0
  150.4588  137.4975  155.7501 O   0  0  0  0  0  0  0  0  0  0  0  0
  143.1330  131.8597  150.4238 H   0  0  0  0  0  0  0  0  0  0  0  0
  148.1421  135.0402  155.3864 H   0  0  0  0  0  0  0  0  0  0  0  0
  149.8743  134.8694  155.6369 H   0  0  0  0  0  0  0  0  0  0  0  0
  149.2586  135.5261  154.1220 H   0  0  0  0  0  0  0  0  0  0  0  0
  148.9348  136.8028  156.8811 H   0  0  0  0  0  0  0  0  0  0  0  0
  147.1306  137.4115  155.2136 H   0  0  0  0  0  0  0  0  0  0  0  0
  148.0247  138.7668  155.8707 H   0  0  0  0  0  0  0  0  0  0  0  0
  147.2201  140.0049  153.9546 H   0  0  0  0  0  0  0  0  0  0  0  0
  147.9000  139.7022  152.3740 H   0  0  0  0  0  0  0  0  0  0  0  0
  145.5060  138.3883  153.7500 H   0  0  0  0  0  0  0  0  0  0  0  0
  145.6350  139.0012  152.1187 H   0  0  0  0  0  0  0  0  0  0  0  0
  147.4249  136.8720  152.2551 H   0  0  0  0  0  0  0  0  0  0  0  0
  147.0845  135.0362  151.5980 H   0  0  0  0  0  0  0  0  0  0  0  0
  147.0827  132.3440  151.2086 H   0  0  0  0  0  0  0  0  0  0  0  0
  143.2283  134.3249  151.0118 H   0  0  0  0  0  0  0  0  0  0  0  0
  150.1597  139.1859  152.8669 H   0  0  0  0  0  0  0  0  0  0  0  0
  149.8578  139.8203  154.4721 H   0  0  0  0  0  0  0  0  0  0  0  0
  150.9223  137.0245  153.7922 H   0  0  0  0  0  0  0  0  0  0  0  0
  152.6486  138.8062  153.5791 H   0  0  0  0  0  0  0  0  0  0  0  0
  152.9787  137.7611  154.9570 H   0  0  0  0  0  0  0  0  0  0  0  0
  152.2879  139.3613  155.2130 H   0  0  0  0  0  0  0  0  0  0  0  0
  148.5295  137.4881  153.2989 H   0  0  0  0  0  0  0  0  0  0  0  0
  1  2  1  0  0  0  0
  1 21  1  0  0  0  0
  1 22  1  0  0  0  0
  1 23  1  0  0  0  0
  2 19  1  0  0  0  0
  2  3  1  0  0  0  0
  2 24  1  0  0  0  0
  3  4  1  0  0  0  0
  3 25  1  0  0  0  0
  3 26  1  0  0  0  0
  4  5  1  0  0  0  0
  4 16  1  0  0  0  0
  4 41  1  0  0  0  0
  5  6  1  0  0  0  0
  5 27  1  0  0  0  0
  5 28  1  0  0  0  0
  6  7  1  0  0  0  0
  6 29  1  0  0  0  0
  6 30  1  0  0  0  0
  7  8  1  0  0  0  0
  7 31  1  0  0  0  0
  8  9  2  0  0  0  0
  8 10  1  0  0  0  0
 10 11  1  0  0  0  0
 10 32  1  0  0  0  0
 11 15  2  0  0  0  0
 11 12  1  0  0  0  0
 12 13  2  0  0  0  0
 12 33  1  0  0  0  0
 13 14  1  0  0  0  0
 14 20  1  0  0  0  0
 14 15  1  0  0  0  0
 15 34  1  0  0  0  0
 16 17  1  0  0  0  0
 16 35  1  0  0  0  0
 16 36  1  0  0  0  0
 17 18  1  0  0  0  0
 17 19  1  0  0  0  0
 17 37  1  0  0  0  0
 18 38  1  0  0  0  0
 18 39  1  0  0  0  0
 18 40  1  0  0  0  0
M  CHG  1   4   1
M  END
> <s_m_source_file>
AV-unprocessed.smi

> <i_m_source_file_index>
1715

> <i_lp_mmshare_version>
43012

> <i_f3d_flags>
0

> <s_epik_input>
W0NIM11bQ0BASF0xW0NIMl1OKFtDSDJdW0NASF0oTzEpW0NIM10pW0NIMl1bQ0gyXVtOSF1DKD1PKVtOSF1jMltjSF1uW25IXVtjSF0y

> <s_epik_cmdline>
J2VwaWtfcHl0aG9uJywgJy1waCcsICc3LjAnLCAnLXRuJywgJzgnLCAnLW1hJywgJzIwMCcsICctbWV0YWxfYmluZGluZycsICctaW1hZScsICc8aW5maWxlLm1hZT4nLCAnLW9tYWUnLCAnPG91dGZpbGUubWFlPic=

> <r_lp_tautomer_probability>
0.5

> <r_epik_Ionization_Penalty>
0.646007

> <r_epik_Ionization_Penalty_Charging>
0.645968

> <r_epik_Ionization_Penalty_Neutral>
3.91671e-05

> <r_epik_State_Penalty>
0.664063

> <r_epik_Charging_Adjusted_Penalty>
1.31003

> <i_epik_Tot_Q>
1

> <i_epik_Tot_abs_Q>
1

> <r_epik_Metal_State_Penalty>
0.664064

> <b_epik_Metal_Only>
0

> <s_lp_Force_Field>
OPLS_2005

> <r_lp_Energy>
20.2841

> <b_lp_Chiralities_Consistent>
1

> <s_lp_Variant>
AV-unprocessed.smi:1715-4

> <Gold.Version>
5.8.1

> <Gold.Id.Protein>
6NUR|6NUR_protein|mol2

> <Gold.PLP.Fitness>
44.6639

> <Gold.PLP.PLP>
-27.7445

> <Gold.PLP.part.hbond>
-3.0000

> <Gold.PLP.part.metal>
0.0000

> <Gold.PLP.part.buried>
-3.9381

> <Gold.PLP.part.nonpolar>
-22.3360

> <Gold.PLP.part.repulsive>
1.1105

> <Gold.PLP.ligand.clash>
0.0000

> <Gold.PLP.ligand.torsion>
0.2636

> <Gold.PLP.Chemscore.Hbond>
3.8143

> <Gold.PLP.Chemscore.CHOScore>
1.9980

> <Gold.PLP.Chemscore.Metal>
0.0000

> <Gold.Chemscore.Hbonds>
donor molecule, donor type, donor heavy atom, donor atom, acceptor molecule, acceptor atom, score
      L1  H     4    41       P1  7948  2.00
      L1  H     7    31       P1  7948  1.00
      L1  H    10    32       P1  7948  0.56
      L1  C    12    33       P1 10747  0.87
      L1  C    15    34       P1 10186  0.70

> <Gold.PLP.Chemscore.Internal.Correction>
0.0097

> <Gold.Rescore>
     Score         DG    S(hbond)    S(metal)    S(lipo)     H(rot)  DE(clash)    DE(int)     intcor
     16.35     -17.80       2.70        0.00      64.65       1.67       0.11       1.34       ----

> <Gold.Chemscore.Fitness>
16.3532

> <Gold.Chemscore.DG>
-17.8016

> <Gold.Chemscore.ZeroCoef>
-5.4800

> <Gold.Chemscore.Hbond>
2.7022

> <Gold.Chemscore.Metal>
0.0000

> <Gold.Chemscore.Lipo>
64.6493

> <Gold.Chemscore.Internal_Hbond>
0.0000

> <Gold.Chemscore.DEClash>
0.1092

> <Gold.Chemscore.DEInternal>
1.3392

> <Gold.Chemscore.Rot>
1.6671

> <Gold.Chemscore.Internal.Correction>
   9.000000E+99

> <Gold.Chemscore.Hbonds>
donor molecule, donor type, donor heavy atom, donor atom, acceptor molecule, acceptor atom, score
      L1  H     4    41       P1  7948  0.99
      L1  H     7    31       P1  7948  1.00
      L1  H    10    32       P1  7948  0.49

> <Gold.Chemscore.Hbond.Weighted>
-9.0254

> <Gold.Chemscore.Metal.Weighted>
-0.0000

> <Gold.Chemscore.Lipo.Weighted>
-7.5640

> <Gold.Chemscore.Internal_Hbond.Weighted>
0.0000

> <Gold.Chemscore.DEClash.Weighted>
0.1092

> <Gold.Chemscore.DEInternal.Weighted>
1.3392

> <Gold.Chemscore.Rot.Weighted>
4.2677

> <Gold.Chemscore.Internal.Correction.Weighted>
   9.000000E+99

> <Gold.Protein.RotatedTorsions>
[ 6907 6896 6895 6894 ] final    2.48 input  -60.11 | X-H torsion
[ 7974 7965 7964 7962 ] final  -97.13 input  175.53 | X-H torsion
[ 8008 7997 7996 7995 ] final -137.26 input   59.86 | X-H torsion
[ 10167 10162 10161 10158 ] final  103.89 input  -65.29 | X-H torsion
[ 10718 10713 10712 10709 ] final  -99.41 input   66.30 | X-H torsion
[ 10763 10752 10751 10750 ] final   85.76 input  -60.55 | X-H torsion
[ 11005 11000 10999 10996 ] final   57.05 input  -57.11 | X-H torsion

> <Gold.Protein.ActiveResidues>
 VAL166  LYS551  ARG553  GLY616  TRP617  ASP618  TYR619  PRO620  LYS621  CYS622 
 ASP623  PHE694  ASN695  SER759  ASP760  ASP761  ALA762  ILE779  LEU786  VAL792 
 PHE793  MET794  SER795  GLU796  ALA797  LYS798  CYS799  TRP800  GLU811  SER814 

> <Gold.Protein.RotatedAtoms>
  151.6096  135.1041  160.0077 H   0  0  0  0  0  0  0  0  0  0  0  0  # atno 6907 bound_to 6896
  152.4215  133.7120  159.6495 H   0  0  0  0  0  0  0  0  0  0  0  0  # atno 6908 bound_to 6896
  150.8103  133.8361  159.3207 H   0  0  0  0  0  0  0  0  0  0  0  0  # atno 6909 bound_to 6896
  145.3378  140.9454  143.2625 H   0  0  0  0  0  0  0  0  0  0  0  0  # atno 7974 bound_to 7965
  155.4088  140.0511  157.3033 H   0  0  0  0  0  0  0  0  0  0  0  0  # atno 8008 bound_to 7997
  154.4956  140.2137  155.9414 H   0  0  0  0  0  0  0  0  0  0  0  0  # atno 8009 bound_to 7997
  156.1401  140.3156  155.8487 H   0  0  0  0  0  0  0  0  0  0  0  0  # atno 8010 bound_to 7997
  139.7224  144.7055  151.0852 H   0  0  0  0  0  0  0  0  0  0  0  0  # atno 10167 bound_to 10162
  156.0133  130.5281  150.6665 H   0  0  0  0  0  0  0  0  0  0  0  0  # atno 10718 bound_to 10713
  153.1506  135.4605  154.9630 H   0  0  0  0  0  0  0  0  0  0  0  0  # atno 10763 bound_to 10752
  154.7821  135.3192  154.7969 H   0  0  0  0  0  0  0  0  0  0  0  0  # atno 10764 bound_to 10752
  153.8475  135.6924  153.4850 H   0  0  0  0  0  0  0  0  0  0  0  0  # atno 10765 bound_to 10752
  140.0482  134.5775  155.9296 H   0  0  0  0  0  0  0  0  0  0  0  0  # atno 11005 bound_to 11000
  144.8814  139.4899  143.6721 LP  0  0  0  0  0  0  0  0  0  0  0  0  # atno 17320 bound_to 7965
  146.3020  139.7456  142.9084 LP  0  0  0  0  0  0  0  0  0  0  0  0  # atno 17321 bound_to 7965
  140.7756  143.5149  150.9607 LP  0  0  0  0  0  0  0  0  0  0  0  0  # atno 17342 bound_to 10162
  139.8836  143.7041  152.3154 LP  0  0  0  0  0  0  0  0  0  0  0  0  # atno 17343 bound_to 10162
  157.4397  131.0859  151.0956 LP  0  0  0  0  0  0  0  0  0  0  0  0  # atno 17370 bound_to 10713
  157.1504  130.6181  149.5580 LP  0  0  0  0  0  0  0  0  0  0  0  0  # atno 17371 bound_to 10713
  141.1917  133.6573  156.5470 LP  0  0  0  0  0  0  0  0  0  0  0  0  # atno 17394 bound_to 11000
  140.3959  134.7399  157.4750 LP  0  0  0  0  0  0  0  0  0  0  0  0  # atno 17395 bound_to 11000

$$$$
