AV-unprocessed.smi:1005|AV-procd|sdf|4378|dock3
  -GOLD-   22720 2293D 1   1.00000     0.00000
 Structure written by MMmdl.
 58 60  0  0  0  0  0  0  0  0  4 V2000
  152.6789  141.7730  160.3078 C   0  0  0  0  0  0  0  0  0  0  0  0
  152.1046  141.2620  158.9975 C   0  0  0  0  0  0  0  0  0  0  0  0
  151.1929  142.0827  158.2954 C   0  0  0  0  0  0  0  0  0  0  0  0
  150.6865  141.5891  157.0991 C   0  0  0  0  0  0  0  0  0  0  0  0
  149.7836  142.1431  156.1888 N   0  3  0  0  0  0  0  0  0  0  0  0
  149.5921  141.2783  155.1544 C   0  0  0  0  0  0  0  0  0  0  0  0
  150.3653  140.1823  155.3879 N   0  0  0  0  0  0  0  0  0  0  0  0
  150.5376  138.9581  154.5943 C   0  0  0  0  0  0  0  0  0  0  0  0
  149.3196  138.0160  154.6726 C   0  0  2  0  0  0  0  0  0  0  0  0
  148.4405  138.4770  155.6807 O   0  0  0  0  0  0  0  0  0  0  0  0
  149.7365  136.5692  155.0024 C   0  0  0  0  0  0  0  0  0  0  0  0
  149.0837  135.5692  154.1184 N   0  3  1  0  0  0  0  0  0  0  0  0
  149.7648  134.2512  154.1034 C   0  0  0  0  0  0  0  0  0  0  0  0
  149.0521  133.2925  153.1366 C   0  0  0  0  0  0  0  0  0  0  0  0
  147.6842  133.1729  153.5077 O   0  0  0  0  0  0  0  0  0  0  0  0
  146.9874  134.4116  153.4305 C   0  0  1  0  0  0  0  0  0  0  0  0
  145.5092  134.1257  153.7641 C   0  0  0  0  0  0  0  0  0  0  0  0
  144.7332  133.5973  152.6118 N   0  3  0  0  0  0  0  0  0  0  0  0
  145.4753  132.5474  151.8789 C   0  0  0  0  0  0  0  0  0  0  0  0
  144.2459  134.6545  151.6952 C   0  0  0  0  0  0  0  0  0  0  0  0
  147.6412  135.4024  154.4177 C   0  0  0  0  0  0  0  0  0  0  0  0
  151.0587  140.3281  156.5942 C   0  0  0  0  0  0  0  0  0  0  0  0
  151.9523  139.5048  157.2748 C   0  0  0  0  0  0  0  0  0  0  0  0
  152.4772  139.9882  158.4947 C   0  0  0  0  0  0  0  0  0  0  0  0
  153.4541  139.1121  159.2607 C   0  0  0  0  0  0  0  0  0  0  0  0
  152.3178  142.7758  160.5379 H   0  0  0  0  0  0  0  0  0  0  0  0
  153.7672  141.8152  160.2594 H   0  0  0  0  0  0  0  0  0  0  0  0
  152.3930  141.1186  161.1317 H   0  0  0  0  0  0  0  0  0  0  0  0
  150.9028  143.0522  158.6736 H   0  0  0  0  0  0  0  0  0  0  0  0
  148.9468  141.4363  154.3021 H   0  0  0  0  0  0  0  0  0  0  0  0
  150.7451  139.2445  153.5624 H   0  0  0  0  0  0  0  0  0  0  0  0
  151.4329  138.4538  154.9609 H   0  0  0  0  0  0  0  0  0  0  0  0
  148.7904  138.0495  153.7212 H   0  0  0  0  0  0  0  0  0  0  0  0
  147.7500  137.8406  155.7905 H   0  0  0  0  0  0  0  0  0  0  0  0
  150.8199  136.4579  154.9340 H   0  0  0  0  0  0  0  0  0  0  0  0
  149.4759  136.3641  156.0420 H   0  0  0  0  0  0  0  0  0  0  0  0
  150.8050  134.3588  153.7981 H   0  0  0  0  0  0  0  0  0  0  0  0
  149.7695  133.8281  155.1092 H   0  0  0  0  0  0  0  0  0  0  0  0
  149.1354  133.6430  152.1066 H   0  0  0  0  0  0  0  0  0  0  0  0
  149.5160  132.3067  153.1750 H   0  0  0  0  0  0  0  0  0  0  0  0
  147.0733  134.7886  152.4107 H   0  0  0  0  0  0  0  0  0  0  0  0
  145.4393  133.4212  154.5944 H   0  0  0  0  0  0  0  0  0  0  0  0
  145.0531  135.0527  154.1157 H   0  0  0  0  0  0  0  0  0  0  0  0
  146.3889  132.9496  151.4389 H   0  0  0  0  0  0  0  0  0  0  0  0
  144.8650  132.1295  151.0771 H   0  0  0  0  0  0  0  0  0  0  0  0
  145.7472  131.7272  152.5441 H   0  0  0  0  0  0  0  0  0  0  0  0
  145.0777  135.2158  151.2673 H   0  0  0  0  0  0  0  0  0  0  0  0
  143.5858  135.3555  152.2047 H   0  0  0  0  0  0  0  0  0  0  0  0
  143.6764  134.2168  150.8743 H   0  0  0  0  0  0  0  0  0  0  0  0
  147.5222  135.0498  155.4438 H   0  0  0  0  0  0  0  0  0  0  0  0
  147.1432  136.3706  154.3519 H   0  0  0  0  0  0  0  0  0  0  0  0
  152.2355  138.5354  156.8926 H   0  0  0  0  0  0  0  0  0  0  0  0
  153.6143  138.1581  158.7574 H   0  0  0  0  0  0  0  0  0  0  0  0
  153.0769  138.9001  160.2615 H   0  0  0  0  0  0  0  0  0  0  0  0
  154.4211  139.6071  159.3522 H   0  0  0  0  0  0  0  0  0  0  0  0
  143.9168  133.1409  152.9933 H   0  0  0  0  0  0  0  0  0  0  0  0
  149.1385  135.9436  153.1815 H   0  0  0  0  0  0  0  0  0  0  0  0
  149.3282  143.0436  156.2668 H   0  0  0  0  0  0  0  0  0  0  0  0
  1  2  1  0  0  0  0
  1 26  1  0  0  0  0
  1 27  1  0  0  0  0
  1 28  1  0  0  0  0
  2 24  1  0  0  0  0
  2  3  2  0  0  0  0
  3  4  1  0  0  0  0
  3 29  1  0  0  0  0
  4 22  2  0  0  0  0
  4  5  1  0  0  0  0
  5  6  2  0  0  0  0
  5 58  1  0  0  0  0
  6  7  1  0  0  0  0
  6 30  1  0  0  0  0
  7  8  1  0  0  0  0
  7 22  1  0  0  0  0
  8  9  1  0  0  0  0
  8 31  1  0  0  0  0
  8 32  1  0  0  0  0
  9 10  1  0  0  0  0
  9 11  1  0  0  0  0
  9 33  1  0  0  0  0
 10 34  1  0  0  0  0
 11 12  1  0  0  0  0
 11 35  1  0  0  0  0
 11 36  1  0  0  0  0
 12 21  1  0  0  0  0
 12 13  1  0  0  0  0
 12 57  1  0  0  0  0
 13 14  1  0  0  0  0
 13 37  1  0  0  0  0
 13 38  1  0  0  0  0
 14 15  1  0  0  0  0
 14 39  1  0  0  0  0
 14 40  1  0  0  0  0
 15 16  1  0  0  0  0
 16 17  1  0  0  0  0
 16 21  1  0  0  0  0
 16 41  1  0  0  0  0
 17 18  1  0  0  0  0
 17 42  1  0  0  0  0
 17 43  1  0  0  0  0
 18 19  1  0  0  0  0
 18 20  1  0  0  0  0
 18 56  1  0  0  0  0
 19 44  1  0  0  0  0
 19 45  1  0  0  0  0
 19 46  1  0  0  0  0
 20 47  1  0  0  0  0
 20 48  1  0  0  0  0
 20 49  1  0  0  0  0
 21 50  1  0  0  0  0
 21 51  1  0  0  0  0
 22 23  1  0  0  0  0
 23 24  2  0  0  0  0
 23 52  1  0  0  0  0
 24 25  1  0  0  0  0
 25 53  1  0  0  0  0
 25 54  1  0  0  0  0
 25 55  1  0  0  0  0
M  CHG  1   5   1
M  CHG  1  12   1
M  CHG  1  18   1
M  END
> <s_m_source_file>
AV-unprocessed.smi

> <i_m_source_file_index>
1005

> <i_lp_mmshare_version>
43012

> <i_f3d_flags>
0

> <s_epik_input>
W0NIM11jKFtjSF0xKWMoW0NIM10pW2NIXWMoYzEyKW4oW2NIXW4yKVtDSDJdW0NASF0oW09IXSlbQ0gyXU4zW0NIMl1bQ0gyXU9bQ0BIXShbQ0gyXTMpW0NIMl1OKFtDSDNdKVtDSDNd

> <s_epik_cmdline>
J2VwaWtfcHl0aG9uJywgJy1waCcsICc3LjAnLCAnLXRuJywgJzgnLCAnLW1hJywgJzIwMCcsICctbWV0YWxfYmluZGluZycsICctaW1hZScsICc8aW5maWxlLm1hZT4nLCAnLW9tYWUnLCAnPG91dGZpbGUubWFlPic=

> <r_epik_Ionization_Penalty>
2.30802

> <r_epik_Ionization_Penalty_Charging>
2.30798

> <r_epik_Ionization_Penalty_Neutral>
3.4851e-05

> <r_epik_State_Penalty>
2.52618

> <r_epik_Charging_Adjusted_Penalty>
4.83416

> <i_epik_Tot_Q>
3

> <i_epik_Tot_abs_Q>
3

> <r_epik_Metal_State_Penalty>
6.53149

> <b_epik_Metal_Only>
0

> <s_lp_Force_Field>
OPLS_2005

> <r_lp_Energy>
43.2014

> <b_lp_Chiralities_Consistent>
1

> <s_lp_Variant>
AV-unprocessed.smi:1005-17

> <Gold.Version>
5.8.1

> <Gold.Id.Protein>
6NUR|6NUR_protein|mol2

> <Gold.PLP.Fitness>
56.7927

> <Gold.PLP.PLP>
-42.6873

> <Gold.PLP.part.hbond>
-2.9671

> <Gold.PLP.part.metal>
0.0000

> <Gold.PLP.part.buried>
-4.4400

> <Gold.PLP.part.nonpolar>
-36.0811

> <Gold.PLP.part.repulsive>
0.2478

> <Gold.PLP.ligand.clash>
0.0000

> <Gold.PLP.ligand.torsion>
2.0281

> <Gold.PLP.Chemscore.Hbond>
6.0000

> <Gold.PLP.Chemscore.CHOScore>
0.0000

> <Gold.PLP.Chemscore.Metal>
0.0000

> <Gold.Chemscore.Hbonds>
donor molecule, donor type, donor heavy atom, donor atom, acceptor molecule, acceptor atom, score
      L1  H     5    58       P1  8028  2.00
      L1  H    12    57       P1  7948  1.04

> <Gold.PLP.Chemscore.Internal.Correction>
0.1616

> <Gold.Rescore>
     Score         DG    S(hbond)    S(metal)    S(lipo)     H(rot)  DE(clash)    DE(int)     intcor
     16.32     -19.91       2.91        0.00      96.33       2.56       0.00       3.58       ----

> <Gold.Chemscore.Fitness>
16.3237

> <Gold.Chemscore.DG>
-19.9084

> <Gold.Chemscore.ZeroCoef>
-5.4800

> <Gold.Chemscore.Hbond>
2.9051

> <Gold.Chemscore.Metal>
0.0000

> <Gold.Chemscore.Lipo>
96.3289

> <Gold.Chemscore.Internal_Hbond>
0.0000

> <Gold.Chemscore.DEClash>
0.0029

> <Gold.Chemscore.DEInternal>
3.5819

> <Gold.Chemscore.Rot>
2.5566

> <Gold.Chemscore.Internal.Correction>
   9.000000E+99

> <Gold.Chemscore.Hbonds>
donor molecule, donor type, donor heavy atom, donor atom, acceptor molecule, acceptor atom, score
      L1  H     5    58       P1  8028  0.98
      L1  H    12    57       P1  7948  0.41

> <Gold.Chemscore.Hbond.Weighted>
-9.7029

> <Gold.Chemscore.Metal.Weighted>
-0.0000

> <Gold.Chemscore.Lipo.Weighted>
-11.2705

> <Gold.Chemscore.Internal_Hbond.Weighted>
0.0000

> <Gold.Chemscore.DEClash.Weighted>
0.0029

> <Gold.Chemscore.DEInternal.Weighted>
3.5819

> <Gold.Chemscore.Rot.Weighted>
6.5450

> <Gold.Chemscore.Internal.Correction.Weighted>
   9.000000E+99

> <Gold.Protein.RotatedTorsions>
[ 6907 6896 6895 6894 ] final  -77.62 input  -60.11 | X-H torsion
[ 7974 7965 7964 7962 ] final  152.56 input  175.53 | X-H torsion
[ 8008 7997 7996 7995 ] final -124.17 input   59.86 | X-H torsion
[ 10167 10162 10161 10158 ] final   52.12 input  -65.29 | X-H torsion
[ 10718 10713 10712 10709 ] final  -66.55 input   66.30 | X-H torsion
[ 10763 10752 10751 10750 ] final -137.05 input  -60.55 | X-H torsion
[ 11005 11000 10999 10996 ] final -110.49 input  -57.11 | X-H torsion

> <Gold.Protein.ActiveResidues>
 VAL166  LYS551  ARG553  GLY616  TRP617  ASP618  TYR619  PRO620  LYS621  CYS622 
 ASP623  PHE694  ASN695  SER759  ASP760  ASP761  ALA762  ILE779  LEU786  VAL792 
 PHE793  MET794  SER795  GLU796  ALA797  LYS798  CYS799  TRP800  GLU811  SER814 

> <Gold.Protein.RotatedAtoms>
  150.6994  134.4396  159.5285 H   0  0  0  0  0  0  0  0  0  0  0  0  # atno 6907 bound_to 6896
  152.2108  134.8500  160.0506 H   0  0  0  0  0  0  0  0  0  0  0  0  # atno 6908 bound_to 6896
  151.9386  133.3596  159.3994 H   0  0  0  0  0  0  0  0  0  0  0  0  # atno 6909 bound_to 6896
  144.8214  139.6684  143.6099 H   0  0  0  0  0  0  0  0  0  0  0  0  # atno 7974 bound_to 7965
  155.1925  140.0413  157.2903 H   0  0  0  0  0  0  0  0  0  0  0  0  # atno 8008 bound_to 7997
  154.6129  140.2481  155.7618 H   0  0  0  0  0  0  0  0  0  0  0  0  # atno 8009 bound_to 7997
  156.2390  140.2911  156.0400 H   0  0  0  0  0  0  0  0  0  0  0  0  # atno 8010 bound_to 7997
  140.2547  144.3440  150.6337 H   0  0  0  0  0  0  0  0  0  0  0  0  # atno 10167 bound_to 10162
  156.0606  130.4264  150.1725 H   0  0  0  0  0  0  0  0  0  0  0  0  # atno 10718 bound_to 10713
  154.8670  135.3654  154.5161 H   0  0  0  0  0  0  0  0  0  0  0  0  # atno 10763 bound_to 10752
  153.5793  135.7018  153.5475 H   0  0  0  0  0  0  0  0  0  0  0  0  # atno 10764 bound_to 10752
  153.3471  135.4082  155.1580 H   0  0  0  0  0  0  0  0  0  0  0  0  # atno 10765 bound_to 10752
  141.0789  133.9254  157.2331 H   0  0  0  0  0  0  0  0  0  0  0  0  # atno 11005 bound_to 11000
  146.2519  139.6219  142.9421 LP  0  0  0  0  0  0  0  0  0  0  0  0  # atno 17320 bound_to 7965
  145.5097  141.0436  143.2495 LP  0  0  0  0  0  0  0  0  0  0  0  0  # atno 17321 bound_to 7965
  140.6013  143.2167  151.7067 LP  0  0  0  0  0  0  0  0  0  0  0  0  # atno 17342 bound_to 10162
  139.5035  144.3788  152.0396 LP  0  0  0  0  0  0  0  0  0  0  0  0  # atno 17343 bound_to 10162
  156.9794  130.9859  151.3441 LP  0  0  0  0  0  0  0  0  0  0  0  0  # atno 17370 bound_to 10713
  157.5611  130.8247  149.8268 LP  0  0  0  0  0  0  0  0  0  0  0  0  # atno 17371 bound_to 10713
  139.9602  135.0156  156.9239 LP  0  0  0  0  0  0  0  0  0  0  0  0  # atno 17394 bound_to 11000
  140.5513  134.0624  155.7370 LP  0  0  0  0  0  0  0  0  0  0  0  0  # atno 17395 bound_to 11000

$$$$
