AV-unprocessed.smi:3303|AV-procd|sdf|12676|dock10
  -GOLD-   2272019 13D 1   1.00000     0.00000
 Structure written by MMmdl.
 44 45  0  0  0  0  0  0  0  0  2 V2000
  151.5498  138.1410  154.7545 C   0  0  0  0  0  0  0  0  0  0  0  0
  150.5572  139.2571  154.3902 C   0  0  1  0  0  0  0  0  0  0  0  0
  149.1190  138.7277  154.2326 C   0  0  0  0  0  0  0  0  0  0  0  0
  148.2169  139.7812  153.7581 N   0  0  0  0  0  0  0  0  0  0  0  0
  146.9076  139.1675  153.5508 C   0  0  0  0  0  0  0  0  0  0  0  0
  148.1565  140.8973  154.7189 C   0  0  2  0  0  0  0  0  0  0  0  0
  147.1987  142.0109  154.2492 C   0  0  0  0  0  0  0  0  0  0  0  0
  149.5706  141.4911  154.9200 C   0  0  0  0  0  0  0  0  0  0  0  0
  150.5955  140.4420  155.3739 C   0  0  1  0  0  0  0  0  0  0  0  0
  150.3160  140.0153  156.7654 N   0  3  0  0  0  0  0  0  0  0  0  0
  150.2169  141.1149  157.7456 C   0  0  0  0  0  0  0  0  0  0  0  0
  151.6015  141.6952  158.0627 C   0  0  0  0  0  0  0  0  0  0  0  0
  151.5153  142.9752  158.8718 C   0  0  0  0  0  0  0  0  0  0  0  0
  152.1864  143.0945  160.1075 C   0  0  0  0  0  0  0  0  0  0  0  0
  152.0770  144.3073  160.8154 C   0  0  0  0  0  0  0  0  0  0  0  0
  151.3058  145.3479  160.2629 C   0  0  0  0  0  0  0  0  0  0  0  0
  150.6766  145.1296  159.0209 C   0  0  0  0  0  0  0  0  0  0  0  0
  150.7767  143.9711  158.3331 N   0  0  0  0  0  0  0  0  0  0  0  0
  151.2942  137.6644  155.7011 H   0  0  0  0  0  0  0  0  0  0  0  0
  152.5645  138.5309  154.8395 H   0  0  0  0  0  0  0  0  0  0  0  0
  151.5603  137.3643  153.9894 H   0  0  0  0  0  0  0  0  0  0  0  0
  150.8679  139.6368  153.4149 H   0  0  0  0  0  0  0  0  0  0  0  0
  149.1218  137.9094  153.5108 H   0  0  0  0  0  0  0  0  0  0  0  0
  148.7556  138.3156  155.1754 H   0  0  0  0  0  0  0  0  0  0  0  0
  146.2153  139.8562  153.0680 H   0  0  0  0  0  0  0  0  0  0  0  0
  146.4684  138.8398  154.4943 H   0  0  0  0  0  0  0  0  0  0  0  0
  146.9882  138.2998  152.8950 H   0  0  0  0  0  0  0  0  0  0  0  0
  147.7948  140.5163  155.6753 H   0  0  0  0  0  0  0  0  0  0  0  0
  147.2681  142.8825  154.9006 H   0  0  0  0  0  0  0  0  0  0  0  0
  146.1561  141.6945  154.2696 H   0  0  0  0  0  0  0  0  0  0  0  0
  147.4342  142.3392  153.2361 H   0  0  0  0  0  0  0  0  0  0  0  0
  149.9092  141.9357  153.9825 H   0  0  0  0  0  0  0  0  0  0  0  0
  149.5374  142.3075  155.6429 H   0  0  0  0  0  0  0  0  0  0  0  0
  151.5870  140.8965  155.3327 H   0  0  0  0  0  0  0  0  0  0  0  0
  149.4456  139.5029  156.7715 H   0  0  0  0  0  0  0  0  0  0  0  0
  149.5707  141.8974  157.3450 H   0  0  0  0  0  0  0  0  0  0  0  0
  149.7477  140.7395  158.6562 H   0  0  0  0  0  0  0  0  0  0  0  0
  152.1950  140.9669  158.6177 H   0  0  0  0  0  0  0  0  0  0  0  0
  152.1445  141.8921  157.1372 H   0  0  0  0  0  0  0  0  0  0  0  0
  152.7716  142.2787  160.5062 H   0  0  0  0  0  0  0  0  0  0  0  0
  152.5748  144.4367  161.7652 H   0  0  0  0  0  0  0  0  0  0  0  0
  151.1982  146.2909  160.7784 H   0  0  0  0  0  0  0  0  0  0  0  0
  150.0779  145.9057  158.5678 H   0  0  0  0  0  0  0  0  0  0  0  0
  151.0555  139.3926  157.0573 H   0  0  0  0  0  0  0  0  0  0  0  0
  1  2  1  0  0  0  0
  1 19  1  0  0  0  0
  1 20  1  0  0  0  0
  1 21  1  0  0  0  0
  2  9  1  0  0  0  0
  2  3  1  0  0  0  0
  2 22  1  0  0  0  0
  3  4  1  0  0  0  0
  3 23  1  0  0  0  0
  3 24  1  0  0  0  0
  4  5  1  0  0  0  0
  4  6  1  0  0  0  0
  5 25  1  0  0  0  0
  5 26  1  0  0  0  0
  5 27  1  0  0  0  0
  6  7  1  0  0  0  0
  6  8  1  0  0  0  0
  6 28  1  0  0  0  0
  7 29  1  0  0  0  0
  7 30  1  0  0  0  0
  7 31  1  0  0  0  0
  8  9  1  0  0  0  0
  8 32  1  0  0  0  0
  8 33  1  0  0  0  0
  9 10  1  0  0  0  0
  9 34  1  0  0  0  0
 10 11  1  0  0  0  0
 10 35  1  0  0  0  0
 10 44  1  0  0  0  0
 11 12  1  0  0  0  0
 11 36  1  0  0  0  0
 11 37  1  0  0  0  0
 12 13  1  0  0  0  0
 12 38  1  0  0  0  0
 12 39  1  0  0  0  0
 13 18  1  0  0  0  0
 13 14  2  0  0  0  0
 14 15  1  0  0  0  0
 14 40  1  0  0  0  0
 15 16  2  0  0  0  0
 15 41  1  0  0  0  0
 16 17  1  0  0  0  0
 16 42  1  0  0  0  0
 17 18  2  0  0  0  0
 17 43  1  0  0  0  0
M  CHG  1  10   1
M  END
> <s_m_source_file>
AV-unprocessed.smi

> <i_m_source_file_index>
3303

> <i_lp_mmshare_version>
43012

> <i_f3d_flags>
0

> <s_epik_input>
W0NIM11bQ0BASF0xW0NIMl1OKFtDSDNdKVtDQEBIXShbQ0gzXSlbQ0gyXVtDQEhdMVtOSF1bQ0gyXVtDSDJdYzJbY0hdW2NIXVtjSF1bY0hdbjI=

> <s_epik_cmdline>
J2VwaWtfcHl0aG9uJywgJy1waCcsICc3LjAnLCAnLXRuJywgJzgnLCAnLW1hJywgJzIwMCcsICctbWV0YWxfYmluZGluZycsICctaW1hZScsICc8aW5maWxlLm1hZT4nLCAnLW9tYWUnLCAnPG91dGZpbGUubWFlPic=

> <r_epik_Ionization_Penalty>
1.37325

> <r_epik_Ionization_Penalty_Charging>
0.000251572

> <r_epik_Ionization_Penalty_Neutral>
1.373

> <r_epik_State_Penalty>
1.46343

> <r_epik_Charging_Adjusted_Penalty>
1.46368

> <i_epik_Tot_Q>
1

> <i_epik_Tot_abs_Q>
1

> <r_epik_Metal_State_Penalty>
1.46331

> <b_epik_Metal_Only>
0

> <s_lp_Force_Field>
OPLS_2005

> <r_lp_Energy>
25.9316

> <b_lp_Chiralities_Consistent>
1

> <s_lp_Variant>
AV-unprocessed.smi:3303-20

> <Gold.Version>
5.8.1

> <Gold.Id.Protein>
6NUR|6NUR_protein|mol2

> <Gold.PLP.Fitness>
43.3691

> <Gold.PLP.PLP>
-40.5748

> <Gold.PLP.part.hbond>
0.0000

> <Gold.PLP.part.metal>
0.0000

> <Gold.PLP.part.buried>
-4.9330

> <Gold.PLP.part.nonpolar>
-37.0924

> <Gold.PLP.part.repulsive>
1.0879

> <Gold.PLP.ligand.clash>
0.0000

> <Gold.PLP.ligand.torsion>
0.1060

> <Gold.PLP.Chemscore.Hbond>
0.0000

> <Gold.PLP.Chemscore.CHOScore>
0.9989

> <Gold.PLP.Chemscore.Metal>
0.0000

> <Gold.Chemscore.Hbonds>
donor molecule, donor type, donor heavy atom, donor atom, acceptor molecule, acceptor atom, score
      L1  C    17    43       P1  8029  1.00

> <Gold.PLP.Chemscore.Internal.Correction>
0.0095

> <Gold.Rescore>
     Score         DG    S(hbond)    S(metal)    S(lipo)     H(rot)  DE(clash)    DE(int)     intcor
     16.13     -16.34       0.00        0.00     121.93       1.33       0.07       0.14       ----

> <Gold.Chemscore.Fitness>
16.1323

> <Gold.Chemscore.DG>
-16.3419

> <Gold.Chemscore.ZeroCoef>
-5.4800

> <Gold.Chemscore.Hbond>
0.0000

> <Gold.Chemscore.Metal>
0.0000

> <Gold.Chemscore.Lipo>
121.9335

> <Gold.Chemscore.Internal_Hbond>
0.0000

> <Gold.Chemscore.DEClash>
0.0710

> <Gold.Chemscore.DEInternal>
0.1386

> <Gold.Chemscore.Rot>
1.3298

> <Gold.Chemscore.Internal.Correction>
   9.000000E+99

> <Gold.Chemscore.Hbond.Weighted>
-0.0000

> <Gold.Chemscore.Metal.Weighted>
-0.0000

> <Gold.Chemscore.Lipo.Weighted>
-14.2662

> <Gold.Chemscore.Internal_Hbond.Weighted>
0.0000

> <Gold.Chemscore.DEClash.Weighted>
0.0710

> <Gold.Chemscore.DEInternal.Weighted>
0.1386

> <Gold.Chemscore.Rot.Weighted>
3.4043

> <Gold.Chemscore.Internal.Correction.Weighted>
   9.000000E+99

> <Gold.Protein.RotatedTorsions>
[ 6907 6896 6895 6894 ] final  162.31 input  -60.11 | X-H torsion
[ 7974 7965 7964 7962 ] final   40.00 input  175.53 | X-H torsion
[ 8008 7997 7996 7995 ] final  -25.02 input   59.86 | X-H torsion
[ 10167 10162 10161 10158 ] final -119.49 input  -65.29 | X-H torsion
[ 10718 10713 10712 10709 ] final  143.54 input   66.30 | X-H torsion
[ 10763 10752 10751 10750 ] final  -33.50 input  -60.55 | X-H torsion
[ 11005 11000 10999 10996 ] final   65.54 input  -57.11 | X-H torsion

> <Gold.Protein.ActiveResidues>
 VAL166  LYS551  ARG553  GLY616  TRP617  ASP618  TYR619  PRO620  LYS621  CYS622 
 ASP623  PHE694  ASN695  SER759  ASP760  ASP761  ALA762  ILE779  LEU786  VAL792 
 PHE793  MET794  SER795  GLU796  ALA797  LYS798  CYS799  TRP800  GLU811  SER814 

> <Gold.Protein.RotatedAtoms>
  151.9424  133.3642  159.3969 H   0  0  0  0  0  0  0  0  0  0  0  0  # atno 6907 bound_to 6896
  150.6996  134.4425  159.5308 H   0  0  0  0  0  0  0  0  0  0  0  0  # atno 6908 bound_to 6896
  152.2085  134.8523  160.0551 H   0  0  0  0  0  0  0  0  0  0  0  0  # atno 6909 bound_to 6896
  146.0940  139.5585  142.9457 H   0  0  0  0  0  0  0  0  0  0  0  0  # atno 7974 bound_to 7965
  154.4498  140.1938  156.0555 H   0  0  0  0  0  0  0  0  0  0  0  0  # atno 8008 bound_to 7997
  156.0622  140.3295  155.7448 H   0  0  0  0  0  0  0  0  0  0  0  0  # atno 8009 bound_to 7997
  155.5394  140.0585  157.2864 H   0  0  0  0  0  0  0  0  0  0  0  0  # atno 8010 bound_to 7997
  140.0461  143.5105  152.2105 H   0  0  0  0  0  0  0  0  0  0  0  0  # atno 10167 bound_to 10162
  157.3677  131.0974  151.0857 H   0  0  0  0  0  0  0  0  0  0  0  0  # atno 10718 bound_to 10713
  153.8313  135.6866  153.4814 H   0  0  0  0  0  0  0  0  0  0  0  0  # atno 10763 bound_to 10752
  153.1509  135.4618  154.9634 H   0  0  0  0  0  0  0  0  0  0  0  0  # atno 10764 bound_to 10752
  154.7885  135.3293  154.7776 H   0  0  0  0  0  0  0  0  0  0  0  0  # atno 10765 bound_to 10752
  139.9888  134.6625  156.0128 H   0  0  0  0  0  0  0  0  0  0  0  0  # atno 11005 bound_to 11000
  145.5985  141.0359  143.2031 LP  0  0  0  0  0  0  0  0  0  0  0  0  # atno 17320 bound_to 7965
  144.7381  139.7527  143.7321 LP  0  0  0  0  0  0  0  0  0  0  0  0  # atno 17321 bound_to 7965
  139.5983  144.7574  151.3234 LP  0  0  0  0  0  0  0  0  0  0  0  0  # atno 17342 bound_to 10162
  140.7238  143.7061  150.7806 LP  0  0  0  0  0  0  0  0  0  0  0  0  # atno 17343 bound_to 10162
  157.1973  130.6379  149.5726 LP  0  0  0  0  0  0  0  0  0  0  0  0  # atno 17370 bound_to 10713
  155.9749  130.4702  150.6423 LP  0  0  0  0  0  0  0  0  0  0  0  0  # atno 17371 bound_to 10713
  141.1548  133.6544  156.4126 LP  0  0  0  0  0  0  0  0  0  0  0  0  # atno 17394 bound_to 11000
  140.4950  134.6540  157.5226 LP  0  0  0  0  0  0  0  0  0  0  0  0  # atno 17395 bound_to 11000

$$$$
