#       Name:                AV-unprocessed.smi:1826
#       Creating user name   scv26
#       Creation time:       Fri Mar 27 09:09:55 2020


#       File generated by GOLD software.
#

@<TRIPOS>MOLECULE
AV-unprocessed.smi:1826
    44    46     1
SMALL
NO_CHARGES


@<TRIPOS>ATOM
      1 ****        -1.6369   1.9834  -4.7807 O.3            1 S1                 0.0000
      2 ****        -1.3266   0.9919  -3.8234 C.3            1 S1                 0.0000
      3 ****        -1.5136   1.4524  -2.4130 C.2            1 S1                 0.0000
      4 ****        -1.9899   2.6660  -2.0127 N.pl3          1 S1                 1.0000
      5 ****        -2.0037   2.7342  -0.6195 C.ar           1 S1                 0.0000
      6 ****        -2.3940   3.7573   0.2389 C.ar           1 S1                 0.0000
      7 ****        -2.2764   3.5029   1.6212 C.ar           1 S1                 0.0000
      8 ****        -1.7881   2.2704   2.1019 C.ar           1 S1                 0.0000
      9 ****        -1.3975   1.2401   1.2215 C.ar           1 S1                 0.0000
     10 ****        -1.5159   1.4999  -0.1436 C.ar           1 S1                 0.0000
     11 ****        -1.2300   0.7408  -1.2843 N.pl3          1 S1                 0.0000
     12 ****        -0.6853  -0.6195  -1.1310 C.3            1 S1                 0.0000
     13 ****         0.8646  -0.7045  -1.1196 C.3            1 S1                 0.0000
     14 ****         1.4879   0.5547  -1.3053 O.3            1 S1                 0.0000
     15 ****         1.3782  -1.4315   0.1153 C.ar           1 S1                 0.0000
     16 ****         1.5397  -2.8327   0.0884 C.ar           1 S1                 0.0000
     17 ****         2.0059  -3.5177   1.2274 C.ar           1 S1                 0.0000
     18 ****         2.3175  -2.8104   2.4084 C.ar           1 S1                 0.0000
     19 ****         2.8117  -3.5536   3.6408 C.3            1 S1                 0.0000
     20 ****         3.5698  -2.7653   4.4037 F              1 S1                 0.0000
     21 ****         1.7641  -3.9626   4.3553 F              1 S1                 0.0000
     22 ****         3.5359  -4.6174   3.2921 F              1 S1                 0.0000
     23 ****         2.1451  -1.4097   2.4384 C.ar           1 S1                 0.0000
     24 ****         1.6804  -0.7244   1.2995 C.ar           1 S1                 0.0000
     25 ****        -1.4881   1.6258  -5.6429 H              1 S1                 0.0000
     26 ****        -1.9556   0.1193  -4.0010 H              1 S1                 0.0000
     27 ****        -0.2911   0.6805  -3.9618 H              1 S1                 0.0000
     28 ****        -2.7670   4.7024  -0.1280 H              1 S1                 0.0000
     29 ****        -2.5655   4.2685   2.3264 H              1 S1                 0.0000
     30 ****        -1.7107   2.1115   3.1678 H              1 S1                 0.0000
     31 ****        -1.0246   0.3009   1.6016 H              1 S1                 0.0000
     32 ****        -1.1181  -1.0684  -0.2364 H              1 S1                 0.0000
     33 ****        -1.0738  -1.2145  -1.9581 H              1 S1                 0.0000
     34 ****         1.1660  -1.2954  -1.9857 H              1 S1                 0.0000
     35 ****         2.4169   0.4154  -1.4104 H              1 S1                 0.0000
     36 ****         1.3039  -3.3894  -0.8068 H              1 S1                 0.0000
     37 ****         2.1208  -4.5912   1.1911 H              1 S1                 0.0000
     38 ****         2.3667  -0.8528   3.3368 H              1 S1                 0.0000
     39 ****         1.5531   0.3474   1.3432 H              1 S1                 0.0000
     40 ****        -2.2772   3.3936  -2.6548 H              1 S1                 0.0000
     41 ****        -1.0511   2.7819  -4.6412 LP             1 S1                 0.0000
     42 ****        -2.5954   2.2530  -4.6883 LP             1 S1                 0.0000
     43 ****         1.3215   1.1348  -0.5079 LP             1 S1                 0.0000
     44 ****         1.1183   0.9973  -2.1223 LP             1 S1                 0.0000
@<TRIPOS>BOND
    1    1    2 1     
    2    1   25 1     
    3    2    3 1     
    4    2   26 1     
    5    2   27 1     
    6    3   11 1     
    7    3    4 2     
    8    4    5 1     
    9    4   40 1     
   10    5   10 ar    
   11    5    6 ar    
   12    6    7 ar    
   13    6   28 1     
   14    7    8 ar    
   15    7   29 1     
   16    8    9 ar    
   17    8   30 1     
   18    9   10 ar    
   19    9   31 1     
   20   10   11 1     
   21   11   12 1     
   22   12   13 1     
   23   12   32 1     
   24   12   33 1     
   25   13   14 1     
   26   13   15 1     
   27   13   34 1     
   28   14   35 1     
   29   15   24 ar    
   30   15   16 ar    
   31   16   17 ar    
   32   16   36 1     
   33   17   18 ar    
   34   17   37 1     
   35   18   19 1     
   36   18   23 ar    
   37   19   20 1     
   38   19   21 1     
   39   19   22 1     
   40   23   24 ar    
   41   23   38 1     
   42   24   39 1     
   43    1   41 1     
   44    1   42 1     
   45   14   43 1     
   46   14   44 1     
@<TRIPOS>SUBSTRUCTURE
      1 S1             1
@<TRIPOS>SET
LONE_PAIRS      STATIC     ATOMS    <user>   **** ""
4 41 42 43 44
DONOR_HYDROGENS      STATIC     ATOMS    <user>   **** ""
3 25 40 35
ATOM$BLUE        STATIC     ATOMS    COLORGROUP SYSTEM
4 41 42 43 44
ATOM$RED        STATIC     ATOMS    COLORGROUP SYSTEM
3 25 40 35
