AV-unprocessed.smi:794|AV-procd|sdf|3758|dock4
  -GOLD-   22720 1193D 1   1.00000     0.00000
 Structure written by MMmdl.
 41 43  0  0  0  0  0  0  0  0  1 V2000
  147.2442  136.8837  163.1940 C   0  0  0  0  0  0  0  0  0  0  0  0
  147.5472  136.2499  161.8709 C   0  0  0  0  0  0  0  0  0  0  0  0
  148.0052  137.0428  160.8143 N   0  0  0  0  0  0  0  0  0  0  0  0
  148.2318  136.3292  159.7068 C   0  0  0  0  0  0  0  0  0  0  0  0
  148.7043  136.8745  158.4843 N   0  0  0  0  0  0  0  0  0  0  0  0
  148.2588  137.9636  157.8336 C   0  0  0  0  0  0  0  0  0  0  0  0
  147.3365  138.6891  158.2069 O   0  0  0  0  0  0  0  0  0  0  0  0
  148.9482  138.1695  156.7029 N   0  0  0  0  0  0  0  0  0  0  0  0
  148.7003  139.2617  155.7641 C   0  0  2  0  0  0  0  0  0  0  0  0
  149.7248  139.3206  154.6028 C   0  0  2  0  0  0  0  0  0  0  0  0
  151.1769  139.3050  155.1277 C   0  0  0  0  0  0  0  0  0  0  0  0
  151.3100  140.6888  155.7900 C   0  0  0  0  0  0  0  0  0  0  0  0
  149.9291  141.3235  155.5339 C   0  0  1  0  0  0  0  0  0  0  0  0
  149.5922  140.7700  154.1539 C   0  0  0  0  0  0  0  0  0  0  0  0
  148.8762  140.6465  156.4422 C   0  0  1  0  0  0  0  0  0  0  0  0
  147.5664  141.4521  156.5403 C   0  0  0  0  0  0  0  0  0  0  0  0
  147.8028  142.6887  157.1795 O   0  0  0  0  0  0  0  0  0  0  0  0
  147.8905  134.6173  159.8905 S   0  0  0  0  0  0  0  0  0  0  0  0
  147.4302  134.9175  161.5482 C   0  0  0  0  0  0  0  0  0  0  0  0
  146.9787  133.8026  162.4320 C   0  0  0  0  0  0  0  0  0  0  0  0
  146.2522  136.6018  163.5474 H   0  0  0  0  0  0  0  0  0  0  0  0
  147.2745  137.9723  163.1370 H   0  0  0  0  0  0  0  0  0  0  0  0
  147.9646  136.5731  163.9507 H   0  0  0  0  0  0  0  0  0  0  0  0
  149.4708  136.3776  158.0554 H   0  0  0  0  0  0  0  0  0  0  0  0
  149.6931  137.5289  156.4709 H   0  0  0  0  0  0  0  0  0  0  0  0
  147.6922  139.1670  155.3548 H   0  0  0  0  0  0  0  0  0  0  0  0
  149.5384  138.5835  153.8210 H   0  0  0  0  0  0  0  0  0  0  0  0
  151.3834  138.4866  155.8176 H   0  0  0  0  0  0  0  0  0  0  0  0
  151.8801  139.2137  154.2989 H   0  0  0  0  0  0  0  0  0  0  0  0
  151.5471  140.6216  156.8523 H   0  0  0  0  0  0  0  0  0  0  0  0
  152.0994  141.2677  155.3089 H   0  0  0  0  0  0  0  0  0  0  0  0
  149.9381  142.4119  155.6028 H   0  0  0  0  0  0  0  0  0  0  0  0
  150.3133  141.0537  153.3851 H   0  0  0  0  0  0  0  0  0  0  0  0
  148.5893  141.0266  153.8094 H   0  0  0  0  0  0  0  0  0  0  0  0
  149.2868  140.5477  157.4491 H   0  0  0  0  0  0  0  0  0  0  0  0
  147.1702  141.6523  155.5444 H   0  0  0  0  0  0  0  0  0  0  0  0
  146.7989  140.9048  157.0877 H   0  0  0  0  0  0  0  0  0  0  0  0
  148.3766  143.2046  156.6338 H   0  0  0  0  0  0  0  0  0  0  0  0
  147.5865  133.7556  163.3357 H   0  0  0  0  0  0  0  0  0  0  0  0
  147.0558  132.8403  161.9258 H   0  0  0  0  0  0  0  0  0  0  0  0
  145.9396  133.9431  162.7303 H   0  0  0  0  0  0  0  0  0  0  0  0
  1  2  1  0  0  0  0
  1 21  1  0  0  0  0
  1 22  1  0  0  0  0
  1 23  1  0  0  0  0
  2 19  2  0  0  0  0
  2  3  1  0  0  0  0
  3  4  2  0  0  0  0
  4  5  1  0  0  0  0
  4 18  1  0  0  0  0
  5  6  1  0  0  0  0
  5 24  1  0  0  0  0
  6  7  2  0  0  0  0
  6  8  1  0  0  0  0
  8  9  1  0  0  0  0
  8 25  1  0  0  0  0
  9 15  1  0  0  0  0
  9 10  1  0  0  0  0
  9 26  1  0  0  0  0
 10 14  1  0  0  0  0
 10 11  1  0  0  0  0
 10 27  1  0  0  0  0
 11 12  1  0  0  0  0
 11 28  1  0  0  0  0
 11 29  1  0  0  0  0
 12 13  1  0  0  0  0
 12 30  1  0  0  0  0
 12 31  1  0  0  0  0
 13 14  1  0  0  0  0
 13 15  1  0  0  0  0
 13 32  1  0  0  0  0
 14 33  1  0  0  0  0
 14 34  1  0  0  0  0
 15 16  1  0  0  0  0
 15 35  1  0  0  0  0
 16 17  1  0  0  0  0
 16 36  1  0  0  0  0
 16 37  1  0  0  0  0
 17 38  1  0  0  0  0
 18 19  1  0  0  0  0
 19 20  1  0  0  0  0
 20 39  1  0  0  0  0
 20 40  1  0  0  0  0
 20 41  1  0  0  0  0
M  END
> <s_m_source_file>
AV-unprocessed.smi

> <i_m_source_file_index>
794

> <i_lp_mmshare_version>
43012

> <i_f3d_flags>
0

> <s_epik_input>
W0NIM11jMW5jKHNjMVtDSDNdKVtOSF1DKD1PKVtOSF1bQ0BIXShbQ0BASF0yMylbQ0BIXShbQ0gyXVtPSF0pW0NAQEhdKFtDSDJdMylbQ0gyXVtDSDJdMg==

> <s_epik_cmdline>
J2VwaWtfcHl0aG9uJywgJy1waCcsICc3LjAnLCAnLXRuJywgJzgnLCAnLW1hJywgJzIwMCcsICctbWV0YWxfYmluZGluZycsICctaW1hZScsICc8aW5maWxlLm1hZT4nLCAnLW9tYWUnLCAnPG91dGZpbGUubWFlPic=

> <r_lp_tautomer_probability>
0.999

> <r_epik_Ionization_Penalty>
0.000713029

> <r_epik_Ionization_Penalty_Charging>
0

> <r_epik_Ionization_Penalty_Neutral>
0.000713029

> <r_epik_State_Penalty>
0.000177984

> <r_epik_Charging_Adjusted_Penalty>
0.000177984

> <i_epik_Tot_Q>
0

> <i_epik_Tot_abs_Q>
0

> <r_epik_Metal_State_Penalty>
-0

> <b_epik_Metal_Only>
0

> <s_lp_Force_Field>
OPLS_2005

> <r_lp_Energy>
47.0696

> <b_lp_Chiralities_Consistent>
1

> <s_lp_Variant>
AV-unprocessed.smi:794-3

> <Gold.Version>
5.8.1

> <Gold.Id.Protein>
6NUR|6NUR_protein|mol2

> <Gold.PLP.Fitness>
43.4780

> <Gold.PLP.PLP>
-37.0065

> <Gold.PLP.part.hbond>
-4.9217

> <Gold.PLP.part.metal>
0.0000

> <Gold.PLP.part.buried>
-1.1452

> <Gold.PLP.part.nonpolar>
-30.7393

> <Gold.PLP.part.repulsive>
0.1509

> <Gold.PLP.ligand.clash>
0.0000

> <Gold.PLP.ligand.torsion>
0.4274

> <Gold.PLP.Chemscore.Hbond>
2.4360

> <Gold.PLP.Chemscore.CHOScore>
0.0000

> <Gold.PLP.Chemscore.Metal>
0.0000

> <Gold.Chemscore.Hbonds>
donor molecule, donor type, donor heavy atom, donor atom, acceptor molecule, acceptor atom, score
      L1  H    17    38       P1  8028  1.00
      P1  H  6931  6943       L1     3  0.76
      P1  H  6934  6947       L1     3  0.56

> <Gold.PLP.Chemscore.Internal.Correction>
0.0183

> <Gold.Rescore>
     Score         DG    S(hbond)    S(metal)    S(lipo)     H(rot)  DE(clash)    DE(int)     intcor
     14.74     -16.48       1.62        0.00      86.84       1.78       1.25       0.49       ----

> <Gold.Chemscore.Fitness>
14.7385

> <Gold.Chemscore.DG>
-16.4780

> <Gold.Chemscore.ZeroCoef>
-5.4800

> <Gold.Chemscore.Hbond>
1.6151

> <Gold.Chemscore.Metal>
0.0000

> <Gold.Chemscore.Lipo>
86.8374

> <Gold.Chemscore.Internal_Hbond>
0.0000

> <Gold.Chemscore.DEClash>
1.2461

> <Gold.Chemscore.DEInternal>
0.4935

> <Gold.Chemscore.Rot>
1.7798

> <Gold.Chemscore.Internal.Correction>
   9.000000E+99

> <Gold.Chemscore.Hbonds>
donor molecule, donor type, donor heavy atom, donor atom, acceptor molecule, acceptor atom, score
      L1  H    17    38       P1  8028  0.49
      P1  H  6931  6943       L1     3  0.11
      P1  H  6934  6947       L1     3  0.44

> <Gold.Chemscore.Hbond.Weighted>
-5.3943

> <Gold.Chemscore.Metal.Weighted>
-0.0000

> <Gold.Chemscore.Lipo.Weighted>
-10.1600

> <Gold.Chemscore.Internal_Hbond.Weighted>
0.0000

> <Gold.Chemscore.DEClash.Weighted>
1.2461

> <Gold.Chemscore.DEInternal.Weighted>
0.4935

> <Gold.Chemscore.Rot.Weighted>
4.5562

> <Gold.Chemscore.Internal.Correction.Weighted>
   9.000000E+99

> <Gold.Protein.RotatedTorsions>
[ 6907 6896 6895 6894 ] final -143.39 input  -60.11 | X-H torsion
[ 7974 7965 7964 7962 ] final   75.68 input  175.53 | X-H torsion
[ 8008 7997 7996 7995 ] final -150.74 input   59.86 | X-H torsion
[ 10167 10162 10161 10158 ] final    4.79 input  -65.29 | X-H torsion
[ 10718 10713 10712 10709 ] final   76.44 input   66.30 | X-H torsion
[ 10763 10752 10751 10750 ] final   27.00 input  -60.55 | X-H torsion
[ 11005 11000 10999 10996 ] final -112.37 input  -57.11 | X-H torsion

> <Gold.Protein.ActiveResidues>
 VAL166  LYS551  ARG553  GLY616  TRP617  ASP618  TYR619  PRO620  LYS621  CYS622 
 ASP623  PHE694  ASN695  SER759  ASP760  ASP761  ALA762  ILE779  LEU786  VAL792 
 PHE793  MET794  SER795  GLU796  ALA797  LYS798  CYS799  TRP800  GLU811  SER814 

> <Gold.Protein.RotatedAtoms>
  151.0998  133.5252  159.2610 H   0  0  0  0  0  0  0  0  0  0  0  0  # atno 6907 bound_to 6896
  151.2087  135.0472  159.8912 H   0  0  0  0  0  0  0  0  0  0  0  0  # atno 6908 bound_to 6896
  152.5442  134.0817  159.8292 H   0  0  0  0  0  0  0  0  0  0  0  0  # atno 6909 bound_to 6896
  145.7125  139.2619  143.1642 H   0  0  0  0  0  0  0  0  0  0  0  0  # atno 7974 bound_to 7965
  155.6284  140.0689  157.2656 H   0  0  0  0  0  0  0  0  0  0  0  0  # atno 8008 bound_to 7997
  154.4212  140.1772  156.1495 H   0  0  0  0  0  0  0  0  0  0  0  0  # atno 8009 bound_to 7997
  155.9953  140.3341  155.6796 H   0  0  0  0  0  0  0  0  0  0  0  0  # atno 8010 bound_to 7997
  140.6516  143.7530  150.7584 H   0  0  0  0  0  0  0  0  0  0  0  0  # atno 10167 bound_to 10162
  157.6674  130.9774  150.1498 H   0  0  0  0  0  0  0  0  0  0  0  0  # atno 10718 bound_to 10713
  153.0584  135.6547  154.0520 H   0  0  0  0  0  0  0  0  0  0  0  0  # atno 10763 bound_to 10752
  154.0194  135.2921  155.3384 H   0  0  0  0  0  0  0  0  0  0  0  0  # atno 10764 bound_to 10752
  154.6911  135.5282  153.8461 H   0  0  0  0  0  0  0  0  0  0  0  0  # atno 10765 bound_to 10752
  141.0679  133.9428  157.2543 H   0  0  0  0  0  0  0  0  0  0  0  0  # atno 11005 bound_to 11000
  146.0700  140.7880  142.9693 LP  0  0  0  0  0  0  0  0  0  0  0  0  # atno 17320 bound_to 7965
  144.6938  140.3327  143.7213 LP  0  0  0  0  0  0  0  0  0  0  0  0  # atno 17321 bound_to 7965
  140.1182  143.4636  152.2329 LP  0  0  0  0  0  0  0  0  0  0  0  0  # atno 17342 bound_to 10162
  139.5732  144.7474  151.3835 LP  0  0  0  0  0  0  0  0  0  0  0  0  # atno 17343 bound_to 10162
  156.2300  130.3681  149.8456 LP  0  0  0  0  0  0  0  0  0  0  0  0  # atno 17370 bound_to 10713
  156.6285  130.8656  151.3490 LP  0  0  0  0  0  0  0  0  0  0  0  0  # atno 17371 bound_to 10713
  139.9494  135.0178  156.8950 LP  0  0  0  0  0  0  0  0  0  0  0  0  # atno 17394 bound_to 11000
  140.5735  134.0420  155.7438 LP  0  0  0  0  0  0  0  0  0  0  0  0  # atno 17395 bound_to 11000

$$$$
