AV-unprocessed.smi:1762|AV-procd|sdf|7105|dock1
  -GOLD-   22720 8323D 1   1.00000     0.00000
 Structure written by MMmdl.
 53 54  0  0  0  0  0  0  0  0  2 V2000
  151.5215  136.1692  156.5727 C   0  0  0  0  0  0  0  0  0  0  0  0
  150.1395  136.3245  155.9278 C   0  0  2  0  0  0  0  0  0  0  0  0
  149.9787  137.6787  155.2124 C   0  0  0  0  0  0  0  0  0  0  0  0
  148.6324  137.8736  154.6630 N   0  0  0  0  0  0  0  0  0  0  0  0
  148.4899  139.1498  153.9067 C   0  0  2  0  0  0  0  0  0  0  0  0
  149.0886  140.3668  154.6511 C   0  0  0  0  0  0  0  0  0  0  0  0
  149.7342  141.2178  154.0379 O   0  0  0  0  0  0  0  0  0  0  0  0
  148.8417  140.4495  155.9684 N   0  0  0  0  0  0  0  0  0  0  0  0
  149.2961  141.5302  156.8346 C   0  0  0  0  0  0  0  0  0  0  0  0
  150.8122  141.7555  156.7070 C   0  0  0  0  0  0  0  0  0  0  0  0
  151.3263  142.7788  157.7003 C   0  0  0  0  0  0  0  0  0  0  0  0
  152.2238  142.4337  158.7341 C   0  0  0  0  0  0  0  0  0  0  0  0
  152.6606  143.4326  159.6291 C   0  0  0  0  0  0  0  0  0  0  0  0
  152.1907  144.7532  159.4721 C   0  0  0  0  0  0  0  0  0  0  0  0
  151.2935  145.0417  158.4234 C   0  0  0  0  0  0  0  0  0  0  0  0
  150.8981  144.0572  157.5865 N   0  3  0  0  0  0  0  0  0  0  0  0
  147.0399  139.4667  153.4069 C   0  0  0  0  0  0  0  0  0  0  0  0
  146.4995  138.4389  152.3918 C   0  0  0  0  0  0  0  0  0  0  0  0
  146.8662  140.8984  152.8628 C   0  0  0  0  0  0  0  0  0  0  0  0
  147.6551  137.7015  155.7533 C   0  0  0  0  0  0  0  0  0  0  0  0
  147.8140  136.3715  156.5170 C   0  0  1  0  0  0  0  0  0  0  0  0
  147.3142  135.1506  155.7247 C   0  0  0  0  0  0  0  0  0  0  0  0
  149.1608  136.2074  156.9543 O   0  0  0  0  0  0  0  0  0  0  0  0
  152.3126  136.2279  155.8249 H   0  0  0  0  0  0  0  0  0  0  0  0
  151.6104  135.2054  157.0744 H   0  0  0  0  0  0  0  0  0  0  0  0
  151.7018  136.9484  157.3138 H   0  0  0  0  0  0  0  0  0  0  0  0
  150.0093  135.5159  155.2079 H   0  0  0  0  0  0  0  0  0  0  0  0
  150.2199  138.4910  155.9004 H   0  0  0  0  0  0  0  0  0  0  0  0
  150.7267  137.7041  154.4230 H   0  0  0  0  0  0  0  0  0  0  0  0
  149.0909  139.0396  153.0014 H   0  0  0  0  0  0  0  0  0  0  0  0
  148.3005  139.7122  156.3968 H   0  0  0  0  0  0  0  0  0  0  0  0
  148.7581  142.4369  156.5566 H   0  0  0  0  0  0  0  0  0  0  0  0
  149.0264  141.3138  157.8701 H   0  0  0  0  0  0  0  0  0  0  0  0
  151.3489  140.8180  156.8607 H   0  0  0  0  0  0  0  0  0  0  0  0
  151.0582  142.0858  155.6969 H   0  0  0  0  0  0  0  0  0  0  0  0
  152.5734  141.4167  158.8416 H   0  0  0  0  0  0  0  0  0  0  0  0
  153.3480  143.1889  160.4262 H   0  0  0  0  0  0  0  0  0  0  0  0
  152.5141  145.5329  160.1464 H   0  0  0  0  0  0  0  0  0  0  0  0
  150.8844  146.0226  158.2298 H   0  0  0  0  0  0  0  0  0  0  0  0
  146.3677  139.3685  154.2578 H   0  0  0  0  0  0  0  0  0  0  0  0
  147.0107  138.5023  151.4308 H   0  0  0  0  0  0  0  0  0  0  0  0
  145.4383  138.6024  152.2021 H   0  0  0  0  0  0  0  0  0  0  0  0
  146.6105  137.4203  152.7650 H   0  0  0  0  0  0  0  0  0  0  0  0
  147.4360  141.0591  151.9481 H   0  0  0  0  0  0  0  0  0  0  0  0
  147.1851  141.6456  153.5896 H   0  0  0  0  0  0  0  0  0  0  0  0
  145.8201  141.1004  152.6318 H   0  0  0  0  0  0  0  0  0  0  0  0
  147.7564  138.5269  156.4602 H   0  0  0  0  0  0  0  0  0  0  0  0
  146.6292  137.7373  155.3886 H   0  0  0  0  0  0  0  0  0  0  0  0
  147.2078  136.4305  157.4214 H   0  0  0  0  0  0  0  0  0  0  0  0
  146.2461  135.2315  155.5214 H   0  0  0  0  0  0  0  0  0  0  0  0
  147.4744  134.2306  156.2868 H   0  0  0  0  0  0  0  0  0  0  0  0
  147.8194  135.0492  154.7645 H   0  0  0  0  0  0  0  0  0  0  0  0
  150.2485  144.2887  156.8345 H   0  0  0  0  0  0  0  0  0  0  0  0
  1  2  1  0  0  0  0
  1 24  1  0  0  0  0
  1 25  1  0  0  0  0
  1 26  1  0  0  0  0
  2 23  1  0  0  0  0
  2  3  1  0  0  0  0
  2 27  1  0  0  0  0
  3  4  1  0  0  0  0
  3 28  1  0  0  0  0
  3 29  1  0  0  0  0
  4  5  1  0  0  0  0
  4 20  1  0  0  0  0
  5  6  1  0  0  0  0
  5 17  1  0  0  0  0
  5 30  1  0  0  0  0
  6  7  2  0  0  0  0
  6  8  1  0  0  0  0
  8  9  1  0  0  0  0
  8 31  1  0  0  0  0
  9 10  1  0  0  0  0
  9 32  1  0  0  0  0
  9 33  1  0  0  0  0
 10 11  1  0  0  0  0
 10 34  1  0  0  0  0
 10 35  1  0  0  0  0
 11 16  1  0  0  0  0
 11 12  2  0  0  0  0
 12 13  1  0  0  0  0
 12 36  1  0  0  0  0
 13 14  2  0  0  0  0
 13 37  1  0  0  0  0
 14 15  1  0  0  0  0
 14 38  1  0  0  0  0
 15 16  2  0  0  0  0
 15 39  1  0  0  0  0
 16 53  1  0  0  0  0
 17 18  1  0  0  0  0
 17 19  1  0  0  0  0
 17 40  1  0  0  0  0
 18 41  1  0  0  0  0
 18 42  1  0  0  0  0
 18 43  1  0  0  0  0
 19 44  1  0  0  0  0
 19 45  1  0  0  0  0
 19 46  1  0  0  0  0
 20 21  1  0  0  0  0
 20 47  1  0  0  0  0
 20 48  1  0  0  0  0
 21 22  1  0  0  0  0
 21 23  1  0  0  0  0
 21 49  1  0  0  0  0
 22 50  1  0  0  0  0
 22 51  1  0  0  0  0
 22 52  1  0  0  0  0
M  CHG  1  16   1
M  END
> <s_m_source_file>
AV-unprocessed.smi

> <i_m_source_file_index>
1762

> <i_lp_mmshare_version>
43012

> <i_f3d_flags>
0

> <s_epik_input>
W0NIM11bQ0BASF0xW0NIMl1OKFtDSDJdW0NASF0oTzEpW0NIM10pW0NAQEhdKFtDSF0oW0NIM10pW0NIM10pQyg9TylbTkhdW0NIMl1bQ0gyXWMyW2NIXVtjSF1bY0hdW2NIXW4y

> <s_epik_cmdline>
J2VwaWtfcHl0aG9uJywgJy1waCcsICc3LjAnLCAnLXRuJywgJzgnLCAnLW1hJywgJzIwMCcsICctbWV0YWxfYmluZGluZycsICctaW1hZScsICc8aW5maWxlLm1hZT4nLCAnLW9tYWUnLCAnPG91dGZpbGUubWFlPic=

> <r_epik_Ionization_Penalty>
1.86475

> <r_epik_Ionization_Penalty_Charging>
1.85347

> <r_epik_Ionization_Penalty_Neutral>
0.0112771

> <r_epik_State_Penalty>
1.99714

> <r_epik_Charging_Adjusted_Penalty>
3.85061

> <i_epik_Tot_Q>
1

> <i_epik_Tot_abs_Q>
1

> <r_epik_Metal_State_Penalty>
2.02271

> <b_epik_Metal_Only>
0

> <s_lp_Force_Field>
OPLS_2005

> <r_lp_Energy>
35.8241

> <b_lp_Chiralities_Consistent>
1

> <s_lp_Variant>
AV-unprocessed.smi:1762-7

> <Gold.Version>
5.8.1

> <Gold.Id.Protein>
6NUR|6NUR_protein|mol2

> <Gold.PLP.Fitness>
44.5688

> <Gold.PLP.PLP>
-37.1029

> <Gold.PLP.part.hbond>
-3.0000

> <Gold.PLP.part.metal>
0.0000

> <Gold.PLP.part.buried>
-3.2085

> <Gold.PLP.part.nonpolar>
-31.9846

> <Gold.PLP.part.repulsive>
0.5173

> <Gold.PLP.ligand.clash>
0.0000

> <Gold.PLP.ligand.torsion>
1.0064

> <Gold.PLP.Chemscore.Hbond>
3.0294

> <Gold.PLP.Chemscore.CHOScore>
0.0000

> <Gold.PLP.Chemscore.Metal>
0.0000

> <Gold.Chemscore.Hbonds>
donor molecule, donor type, donor heavy atom, donor atom, acceptor molecule, acceptor atom, score
      L1  H    16    53       P1  8028  2.00
      P1  H  7989  7998       L1     7  0.35
      P1  H  8011  8017       L1     7  0.67

> <Gold.PLP.Chemscore.Internal.Correction>
0.3905

> <Gold.Rescore>
     Score         DG    S(hbond)    S(metal)    S(lipo)     H(rot)  DE(clash)    DE(int)     intcor
     17.12     -20.13       1.84        0.00     110.36       1.72       0.14       2.87       ----

> <Gold.Chemscore.Fitness>
17.1250

> <Gold.Chemscore.DG>
-20.1341

> <Gold.Chemscore.ZeroCoef>
-5.4800

> <Gold.Chemscore.Hbond>
1.8379

> <Gold.Chemscore.Metal>
0.0000

> <Gold.Chemscore.Lipo>
110.3592

> <Gold.Chemscore.Internal_Hbond>
0.0000

> <Gold.Chemscore.DEClash>
0.1427

> <Gold.Chemscore.DEInternal>
2.8663

> <Gold.Chemscore.Rot>
1.7174

> <Gold.Chemscore.Internal.Correction>
   9.000000E+99

> <Gold.Chemscore.Hbonds>
donor molecule, donor type, donor heavy atom, donor atom, acceptor molecule, acceptor atom, score
      L1  H    16    53       P1  8028  0.94
      P1  H  7989  7998       L1     7  0.35
      P1  H  8011  8017       L1     7  0.65

> <Gold.Chemscore.Hbond.Weighted>
-6.1386

> <Gold.Chemscore.Metal.Weighted>
-0.0000

> <Gold.Chemscore.Lipo.Weighted>
-12.9120

> <Gold.Chemscore.Internal_Hbond.Weighted>
0.0000

> <Gold.Chemscore.DEClash.Weighted>
0.1427

> <Gold.Chemscore.DEInternal.Weighted>
2.8663

> <Gold.Chemscore.Rot.Weighted>
4.3966

> <Gold.Chemscore.Internal.Correction.Weighted>
   9.000000E+99

> <Gold.Protein.RotatedTorsions>
[ 6907 6896 6895 6894 ] final   -5.59 input  -60.11 | X-H torsion
[ 7974 7965 7964 7962 ] final  160.51 input  175.53 | X-H torsion
[ 8008 7997 7996 7995 ] final   48.54 input   59.86 | X-H torsion
[ 10167 10162 10161 10158 ] final   45.99 input  -65.29 | X-H torsion
[ 10718 10713 10712 10709 ] final  157.75 input   66.30 | X-H torsion
[ 10763 10752 10751 10750 ] final  -79.48 input  -60.55 | X-H torsion
[ 11005 11000 10999 10996 ] final -111.85 input  -57.11 | X-H torsion

> <Gold.Protein.ActiveResidues>
 VAL166  LYS551  ARG553  GLY616  TRP617  ASP618  TYR619  PRO620  LYS621  CYS622 
 ASP623  PHE694  ASN695  SER759  ASP760  ASP761  ALA762  ILE779  LEU786  VAL792 
 PHE793  MET794  SER795  GLU796  ALA797  LYS798  CYS799  TRP800  GLU811  SER814 

> <Gold.Protein.RotatedAtoms>
  151.4791  135.1051  159.9772 H   0  0  0  0  0  0  0  0  0  0  0  0  # atno 6907 bound_to 6896
  152.4786  133.8195  159.7056 H   0  0  0  0  0  0  0  0  0  0  0  0  # atno 6908 bound_to 6896
  150.8842  133.7269  159.2950 H   0  0  0  0  0  0  0  0  0  0  0  0  # atno 6909 bound_to 6896
  144.7733  139.7767  143.6288 H   0  0  0  0  0  0  0  0  0  0  0  0  # atno 7974 bound_to 7965
  155.3873  140.3431  155.4249 H   0  0  0  0  0  0  0  0  0  0  0  0  # atno 8008 bound_to 7997
  156.1577  140.1591  156.8698 H   0  0  0  0  0  0  0  0  0  0  0  0  # atno 8009 bound_to 7997
  154.5110  140.0790  156.7972 H   0  0  0  0  0  0  0  0  0  0  0  0  # atno 8010 bound_to 7997
  140.3185  144.2735  150.6187 H   0  0  0  0  0  0  0  0  0  0  0  0  # atno 10167 bound_to 10162
  157.1872  131.0646  151.2099 H   0  0  0  0  0  0  0  0  0  0  0  0  # atno 10718 bound_to 10713
  154.5392  135.5694  153.6825 H   0  0  0  0  0  0  0  0  0  0  0  0  # atno 10763 bound_to 10752
  152.9959  135.6223  154.2525 H   0  0  0  0  0  0  0  0  0  0  0  0  # atno 10764 bound_to 10752
  154.2455  135.2861  155.2817 H   0  0  0  0  0  0  0  0  0  0  0  0  # atno 10765 bound_to 10752
  141.0710  133.9380  157.2485 H   0  0  0  0  0  0  0  0  0  0  0  0  # atno 11005 bound_to 11000
  146.1895  139.5128  142.9814 LP  0  0  0  0  0  0  0  0  0  0  0  0  # atno 17320 bound_to 7965
  145.6259  141.0313  143.1889 LP  0  0  0  0  0  0  0  0  0  0  0  0  # atno 17321 bound_to 7965
  140.5505  143.2207  151.7935 LP  0  0  0  0  0  0  0  0  0  0  0  0  # atno 17342 bound_to 10162
  139.4879  144.4482  151.9684 LP  0  0  0  0  0  0  0  0  0  0  0  0  # atno 17343 bound_to 10162
  157.3895  130.7274  149.6687 LP  0  0  0  0  0  0  0  0  0  0  0  0  # atno 17370 bound_to 10713
  155.9716  130.4150  150.4161 LP  0  0  0  0  0  0  0  0  0  0  0  0  # atno 17371 bound_to 10713
  139.9523  135.0173  156.9029 LP  0  0  0  0  0  0  0  0  0  0  0  0  # atno 17394 bound_to 11000
  140.5674  134.0476  155.7419 LP  0  0  0  0  0  0  0  0  0  0  0  0  # atno 17395 bound_to 11000

$$$$
