AV-unprocessed.smi:2748|AV-procd|sdf|10581|dock3
  -GOLD-   2272015 33D 1   1.00000     0.00000
 Structure written by MMmdl.
 30 32  0  0  0  0  0  0  0  0  1 V2000
  151.5345  136.2719  155.0868 O   0  0  0  0  0  0  0  0  0  0  0  0
  151.7897  136.9812  156.0581 C   0  0  0  0  0  0  0  0  0  0  0  0
  151.2494  136.6683  157.3091 N   0  0  0  0  0  0  0  0  0  0  0  0
  151.4570  137.3876  158.4864 C   0  0  0  0  0  0  0  0  0  0  0  0
  150.9363  137.0107  159.5364 O   0  0  0  0  0  0  0  0  0  0  0  0
  152.2791  138.5341  158.3950 N   0  0  0  0  0  0  0  0  0  0  0  0
  152.5270  139.2858  159.6004 C   0  0  0  0  0  0  0  0  0  0  0  0
  153.2941  140.5976  159.3442 C   0  0  2  0  0  0  0  0  0  0  0  0
  153.3954  141.4860  160.6128 C   0  0  0  0  0  0  0  0  0  0  0  0
  152.7082  142.7297  160.1700 C   0  0  0  0  0  0  0  0  0  0  0  0
  152.4831  143.9096  160.8995 C   0  0  0  0  0  0  0  0  0  0  0  0
  151.7944  144.9614  160.2556 C   0  0  0  0  0  0  0  0  0  0  0  0
  151.3520  144.8160  158.9185 C   0  0  0  0  0  0  0  0  0  0  0  0
  151.5922  143.6175  158.2090 C   0  0  0  0  0  0  0  0  0  0  0  0
  152.2787  142.5797  158.8635 C   0  0  0  0  0  0  0  0  0  0  0  0
  152.6011  141.3611  158.3372 O   0  0  0  0  0  0  0  0  0  0  0  0
  152.8450  138.8766  157.1766 C   0  0  0  0  0  0  0  0  0  0  0  0
  152.6406  138.1703  156.0386 C   0  0  0  0  0  0  0  0  0  0  0  0
  153.3825  138.6594  154.5573 Cl  0  0  0  0  0  0  0  0  0  0  0  0
  150.6620  135.8491  157.3661 H   0  0  0  0  0  0  0  0  0  0  0  0
  151.5504  139.4844  160.0456 H   0  0  0  0  0  0  0  0  0  0  0  0
  153.0489  138.6255  160.2964 H   0  0  0  0  0  0  0  0  0  0  0  0
  154.2989  140.3857  158.9762 H   0  0  0  0  0  0  0  0  0  0  0  0
  152.8839  141.0555  161.4744 H   0  0  0  0  0  0  0  0  0  0  0  0
  154.4311  141.6951  160.8824 H   0  0  0  0  0  0  0  0  0  0  0  0
  152.8245  144.0088  161.9193 H   0  0  0  0  0  0  0  0  0  0  0  0
  151.6038  145.8823  160.7868 H   0  0  0  0  0  0  0  0  0  0  0  0
  150.8272  145.6278  158.4367 H   0  0  0  0  0  0  0  0  0  0  0  0
  151.2571  143.5019  157.1888 H   0  0  0  0  0  0  0  0  0  0  0  0
  153.4844  139.7467  157.1287 H   0  0  0  0  0  0  0  0  0  0  0  0
  1  2  2  0  0  0  0
  2 18  1  0  0  0  0
  2  3  1  0  0  0  0
  3 20  1  0  0  0  0
  3  4  1  0  0  0  0
  4  5  2  0  0  0  0
  4  6  1  0  0  0  0
  6  7  1  0  0  0  0
  6 17  1  0  0  0  0
  7  8  1  0  0  0  0
  7 21  1  0  0  0  0
  7 22  1  0  0  0  0
  8 16  1  0  0  0  0
  8  9  1  0  0  0  0
  8 23  1  0  0  0  0
  9 10  1  0  0  0  0
  9 24  1  0  0  0  0
  9 25  1  0  0  0  0
 10 15  2  0  0  0  0
 10 11  1  0  0  0  0
 11 12  2  0  0  0  0
 11 26  1  0  0  0  0
 12 13  1  0  0  0  0
 12 27  1  0  0  0  0
 13 14  2  0  0  0  0
 13 28  1  0  0  0  0
 14 15  1  0  0  0  0
 14 29  1  0  0  0  0
 15 16  1  0  0  0  0
 17 18  2  0  0  0  0
 17 30  1  0  0  0  0
 18 19  1  0  0  0  0
M  END
> <s_m_source_file>
AV-unprocessed.smi

> <i_m_source_file_index>
2748

> <i_lp_mmshare_version>
43012

> <i_f3d_flags>
0

> <s_epik_input>
Tz1jMVtuSF1jKD1PKW4oW2NIXWMxQ2wpW0NIMl1bQ0BIXShbQ0gyXTIpT2MoYzIzKVtjSF1bY0hdW2NIXVtjSF0z

> <s_epik_cmdline>
J2VwaWtfcHl0aG9uJywgJy1waCcsICc3LjAnLCAnLXRuJywgJzgnLCAnLW1hJywgJzIwMCcsICctbWV0YWxfYmluZGluZycsICctaW1hZScsICc8aW5maWxlLm1hZT4nLCAnLW9tYWUnLCAnPG91dGZpbGUubWFlPic=

> <r_lp_tautomer_probability>
0.999537

> <r_epik_Ionization_Penalty>
0.0203523

> <r_epik_Ionization_Penalty_Charging>
0.0203523

> <r_epik_Ionization_Penalty_Neutral>
0

> <r_epik_State_Penalty>
0.0163078

> <r_epik_Charging_Adjusted_Penalty>
0.0366602

> <i_epik_Tot_Q>
0

> <i_epik_Tot_abs_Q>
0

> <r_epik_Metal_State_Penalty>
1.99317

> <b_epik_Metal_Only>
0

> <s_lp_Force_Field>
OPLS_2005

> <r_lp_Energy>
20.6728

> <b_lp_Chiralities_Consistent>
1

> <s_lp_Variant>
AV-unprocessed.smi:2748-1

> <Gold.Version>
5.8.1

> <Gold.Id.Protein>
6NUR|6NUR_protein|mol2

> <Gold.PLP.Fitness>
45.1479

> <Gold.PLP.PLP>
-39.3142

> <Gold.PLP.part.hbond>
-2.0000

> <Gold.PLP.part.metal>
0.0000

> <Gold.PLP.part.buried>
-4.3636

> <Gold.PLP.part.nonpolar>
-32.7144

> <Gold.PLP.part.repulsive>
0.2455

> <Gold.PLP.ligand.clash>
0.0000

> <Gold.PLP.ligand.torsion>
0.0842

> <Gold.PLP.Chemscore.Hbond>
2.0000

> <Gold.PLP.Chemscore.CHOScore>
0.0000

> <Gold.PLP.Chemscore.Metal>
0.0000

> <Gold.Chemscore.Hbonds>
donor molecule, donor type, donor heavy atom, donor atom, acceptor molecule, acceptor atom, score
      P1  H  6896  6907       L1     5  1.00
      P1  H 10752 10764       L1     1  1.00

> <Gold.PLP.Chemscore.Internal.Correction>
0.0020

> <Gold.Rescore>
     Score         DG    S(hbond)    S(metal)    S(lipo)     H(rot)  DE(clash)    DE(int)     intcor
     19.62     -21.19       1.77        0.00     112.35       1.31       0.20       1.37       ----

> <Gold.Chemscore.Fitness>
19.6151

> <Gold.Chemscore.DG>
-21.1873

> <Gold.Chemscore.ZeroCoef>
-5.4800

> <Gold.Chemscore.Hbond>
1.7733

> <Gold.Chemscore.Metal>
0.0000

> <Gold.Chemscore.Lipo>
112.3540

> <Gold.Chemscore.Internal_Hbond>
0.0000

> <Gold.Chemscore.DEClash>
0.1979

> <Gold.Chemscore.DEInternal>
1.3742

> <Gold.Chemscore.Rot>
1.3129

> <Gold.Chemscore.Internal.Correction>
   9.000000E+99

> <Gold.Chemscore.Hbonds>
donor molecule, donor type, donor heavy atom, donor atom, acceptor molecule, acceptor atom, score
      P1  H  6896  6907       L1     5  0.84
      P1  H 10752 10764       L1     1  0.81

> <Gold.Chemscore.Hbond.Weighted>
-5.9228

> <Gold.Chemscore.Metal.Weighted>
-0.0000

> <Gold.Chemscore.Lipo.Weighted>
-13.1454

> <Gold.Chemscore.Internal_Hbond.Weighted>
0.0000

> <Gold.Chemscore.DEClash.Weighted>
0.1979

> <Gold.Chemscore.DEInternal.Weighted>
1.3742

> <Gold.Chemscore.Rot.Weighted>
3.3610

> <Gold.Chemscore.Internal.Correction.Weighted>
   9.000000E+99

> <Gold.Protein.RotatedTorsions>
[ 6907 6896 6895 6894 ] final  -25.92 input  -60.11 | X-H torsion
[ 7974 7965 7964 7962 ] final -102.15 input  175.53 | X-H torsion
[ 8008 7997 7996 7995 ] final  117.79 input   59.86 | X-H torsion
[ 10167 10162 10161 10158 ] final  -65.63 input  -65.29 | X-H torsion
[ 10718 10713 10712 10709 ] final  130.61 input   66.30 | X-H torsion
[ 10763 10752 10751 10750 ] final  -72.76 input  -60.55 | X-H torsion
[ 11005 11000 10999 10996 ] final  -43.27 input  -57.11 | X-H torsion

> <Gold.Protein.ActiveResidues>
 VAL166  LYS551  ARG553  GLY616  TRP617  ASP618  TYR619  PRO620  LYS621  CYS622 
 ASP623  PHE694  ASN695  SER759  ASP760  ASP761  ALA762  ILE779  LEU786  VAL792 
 PHE793  MET794  SER795  GLU796  ALA797  LYS798  CYS799  TRP800  GLU811  SER814 

> <Gold.Protein.RotatedAtoms>
  151.1684  135.0306  159.8740 H   0  0  0  0  0  0  0  0  0  0  0  0  # atno 6907 bound_to 6896
  152.5449  134.1199  159.8404 H   0  0  0  0  0  0  0  0  0  0  0  0  # atno 6908 bound_to 6896
  151.1302  133.4996  159.2632 H   0  0  0  0  0  0  0  0  0  0  0  0  # atno 6909 bound_to 6896
  145.2724  140.9302  143.2978 H   0  0  0  0  0  0  0  0  0  0  0  0  # atno 7974 bound_to 7965
  156.2513  140.2888  156.0734 H   0  0  0  0  0  0  0  0  0  0  0  0  # atno 8008 bound_to 7997
  155.1646  140.0400  157.2867 H   0  0  0  0  0  0  0  0  0  0  0  0  # atno 8009 bound_to 7997
  154.6369  140.2513  155.7374 H   0  0  0  0  0  0  0  0  0  0  0  0  # atno 8010 bound_to 7997
  140.5716  143.2318  151.6527 H   0  0  0  0  0  0  0  0  0  0  0  0  # atno 10167 bound_to 10162
  157.5046  131.1095  150.9379 H   0  0  0  0  0  0  0  0  0  0  0  0  # atno 10718 bound_to 10713
  154.4501  135.5919  153.6186 H   0  0  0  0  0  0  0  0  0  0  0  0  # atno 10763 bound_to 10752
  152.9813  135.6019  154.3615 H   0  0  0  0  0  0  0  0  0  0  0  0  # atno 10764 bound_to 10752
  154.3475  135.2841  155.2369 H   0  0  0  0  0  0  0  0  0  0  0  0  # atno 10765 bound_to 10752
  141.0372  133.6795  156.2710 H   0  0  0  0  0  0  0  0  0  0  0  0  # atno 11005 bound_to 11000
  144.9323  139.4284  143.6489 LP  0  0  0  0  0  0  0  0  0  0  0  0  # atno 17320 bound_to 7965
  146.3242  139.8241  142.8921 LP  0  0  0  0  0  0  0  0  0  0  0  0  # atno 17321 bound_to 7965
  139.5120  144.3489  152.0671 LP  0  0  0  0  0  0  0  0  0  0  0  0  # atno 17342 bound_to 10162
  140.2627  144.4049  150.6179 LP  0  0  0  0  0  0  0  0  0  0  0  0  # atno 17343 bound_to 10162
  157.0039  130.5610  149.5314 LP  0  0  0  0  0  0  0  0  0  0  0  0  # atno 17370 bound_to 10713
  156.0250  130.5344  150.8382 LP  0  0  0  0  0  0  0  0  0  0  0  0  # atno 17371 bound_to 10713
  140.6300  134.5274  157.5558 LP  0  0  0  0  0  0  0  0  0  0  0  0  # atno 17394 bound_to 11000
  139.9249  134.8075  156.1097 LP  0  0  0  0  0  0  0  0  0  0  0  0  # atno 17395 bound_to 11000

$$$$
