AV-unprocessed.smi:1786|AV-procd|sdf|7203|dock3
  -GOLD-   22720 8443D 1   1.00000     0.00000
 Structure written by MMmdl.
 44 45  0  0  0  0  0  0  0  0  2 V2000
  147.2749  131.8552  153.7503 C   0  0  0  0  0  0  0  0  0  0  0  0
  147.9156  133.0399  152.9951 C   0  0  1  0  0  0  0  0  0  0  0  0
  147.2934  133.2517  151.5988 C   0  0  0  0  0  0  0  0  0  0  0  0
  145.8841  133.8562  151.6799 C   0  0  0  0  0  0  0  0  0  0  0  0
  145.9125  135.1464  152.5083 C   0  0  0  0  0  0  0  0  0  0  0  0
  146.5369  134.9055  153.8925 C   0  0  0  0  0  0  0  0  0  0  0  0
  147.8987  134.3169  153.7705 N   0  3  1  0  0  0  0  0  0  0  0  0
  148.6339  134.2429  155.0592 C   0  0  0  0  0  0  0  0  0  0  0  0
  148.9784  135.6383  155.6132 C   0  0  0  0  0  0  0  0  0  0  0  0
  148.1139  136.0005  156.7301 N   0  0  0  0  0  0  0  0  0  0  0  0
  148.2868  135.5962  157.9977 C   0  0  0  0  0  0  0  0  0  0  0  0
  149.1978  134.8428  158.3435 O   0  0  0  0  0  0  0  0  0  0  0  0
  147.2574  136.1069  159.0159 C   0  0  0  0  0  0  0  0  0  0  0  0
  147.1734  135.2735  160.2268 N   0  0  0  0  0  0  0  0  0  0  0  0
  146.9445  133.8950  160.0438 C   0  0  0  0  0  0  0  0  0  0  0  0
  146.8510  133.0473  161.0803 C   0  0  0  0  0  0  0  0  0  0  0  0
  146.9910  133.5818  162.4141 C   0  0  0  0  0  0  0  0  0  0  0  0
  147.2141  134.8978  162.6005 C   0  0  0  0  0  0  0  0  0  0  0  0
  147.3200  135.8277  161.4701 C   0  0  0  0  0  0  0  0  0  0  0  0
  147.5282  137.0308  161.6299 O   0  0  0  0  0  0  0  0  0  0  0  0
  147.3331  130.9444  153.1540 H   0  0  0  0  0  0  0  0  0  0  0  0
  146.2232  132.0257  153.9767 H   0  0  0  0  0  0  0  0  0  0  0  0
  147.7865  131.6502  154.6904 H   0  0  0  0  0  0  0  0  0  0  0  0
  148.9631  132.7818  152.8319 H   0  0  0  0  0  0  0  0  0  0  0  0
  147.9325  133.9203  151.0203 H   0  0  0  0  0  0  0  0  0  0  0  0
  147.2662  132.3105  151.0484 H   0  0  0  0  0  0  0  0  0  0  0  0
  145.5061  134.0625  150.6781 H   0  0  0  0  0  0  0  0  0  0  0  0
  145.1934  133.1418  152.1284 H   0  0  0  0  0  0  0  0  0  0  0  0
  146.4847  135.9086  151.9777 H   0  0  0  0  0  0  0  0  0  0  0  0
  144.9018  135.5404  152.6187 H   0  0  0  0  0  0  0  0  0  0  0  0
  146.5841  135.8569  154.4214 H   0  0  0  0  0  0  0  0  0  0  0  0
  145.8975  134.2546  154.4895 H   0  0  0  0  0  0  0  0  0  0  0  0
  148.0562  133.6705  155.7864 H   0  0  0  0  0  0  0  0  0  0  0  0
  149.5650  133.6958  154.9047 H   0  0  0  0  0  0  0  0  0  0  0  0
  150.0238  135.6785  155.9248 H   0  0  0  0  0  0  0  0  0  0  0  0
  148.8541  136.4022  154.8467 H   0  0  0  0  0  0  0  0  0  0  0  0
  147.3383  136.6158  156.5297 H   0  0  0  0  0  0  0  0  0  0  0  0
  147.4946  137.1370  159.2891 H   0  0  0  0  0  0  0  0  0  0  0  0
  146.2877  136.1604  158.5193 H   0  0  0  0  0  0  0  0  0  0  0  0
  146.8576  133.5744  159.0159 H   0  0  0  0  0  0  0  0  0  0  0  0
  146.6791  131.9929  160.9207 H   0  0  0  0  0  0  0  0  0  0  0  0
  146.9176  132.9229  163.2667 H   0  0  0  0  0  0  0  0  0  0  0  0
  147.3174  135.2795  163.6056 H   0  0  0  0  0  0  0  0  0  0  0  0
  148.4264  134.9655  153.2037 H   0  0  0  0  0  0  0  0  0  0  0  0
  1  2  1  0  0  0  0
  1 21  1  0  0  0  0
  1 22  1  0  0  0  0
  1 23  1  0  0  0  0
  2  7  1  0  0  0  0
  2  3  1  0  0  0  0
  2 24  1  0  0  0  0
  3  4  1  0  0  0  0
  3 25  1  0  0  0  0
  3 26  1  0  0  0  0
  4  5  1  0  0  0  0
  4 27  1  0  0  0  0
  4 28  1  0  0  0  0
  5  6  1  0  0  0  0
  5 29  1  0  0  0  0
  5 30  1  0  0  0  0
  6  7  1  0  0  0  0
  6 31  1  0  0  0  0
  6 32  1  0  0  0  0
  7  8  1  0  0  0  0
  7 44  1  0  0  0  0
  8  9  1  0  0  0  0
  8 33  1  0  0  0  0
  8 34  1  0  0  0  0
  9 10  1  0  0  0  0
  9 35  1  0  0  0  0
  9 36  1  0  0  0  0
 10 11  1  0  0  0  0
 10 37  1  0  0  0  0
 11 12  2  0  0  0  0
 11 13  1  0  0  0  0
 13 14  1  0  0  0  0
 13 38  1  0  0  0  0
 13 39  1  0  0  0  0
 14 19  1  0  0  0  0
 14 15  1  0  0  0  0
 15 16  2  0  0  0  0
 15 40  1  0  0  0  0
 16 17  1  0  0  0  0
 16 41  1  0  0  0  0
 17 18  2  0  0  0  0
 17 42  1  0  0  0  0
 18 19  1  0  0  0  0
 18 43  1  0  0  0  0
 19 20  2  0  0  0  0
M  CHG  1   7   1
M  END
> <s_m_source_file>
AV-unprocessed.smi

> <i_m_source_file_index>
1786

> <i_lp_mmshare_version>
43012

> <i_f3d_flags>
0

> <s_epik_input>
W0NIM11bQ0BASF0xW0NIMl1bQ0gyXVtDSDJdW0NIMl1OMVtDSDJdW0NIMl1bTkhdQyg9TylbQ0gyXW4yW2NIXVtjSF1bY0hdW2NIXWMyPU8=

> <s_epik_cmdline>
J2VwaWtfcHl0aG9uJywgJy1waCcsICc3LjAnLCAnLXRuJywgJzgnLCAnLW1hJywgJzIwMCcsICctbWV0YWxfYmluZGluZycsICctaW1hZScsICc8aW5maWxlLm1hZT4nLCAnLW9tYWUnLCAnPG91dGZpbGUubWFlPic=

> <r_lp_tautomer_probability>
1

> <r_epik_Ionization_Penalty>
0.00237247

> <r_epik_Ionization_Penalty_Charging>
0.00237238

> <r_epik_Ionization_Penalty_Neutral>
8.2065e-08

> <r_epik_State_Penalty>
0.00163922

> <r_epik_Charging_Adjusted_Penalty>
0.0040116

> <i_epik_Tot_Q>
1

> <i_epik_Tot_abs_Q>
1

> <r_epik_Metal_State_Penalty>
-0

> <b_epik_Metal_Only>
0

> <s_lp_Force_Field>
OPLS_2005

> <r_lp_Energy>
28.482

> <b_lp_Chiralities_Consistent>
1

> <s_lp_Variant>
AV-unprocessed.smi:1786-2

> <Gold.Version>
5.8.1

> <Gold.Id.Protein>
6NUR|6NUR_protein|mol2

> <Gold.PLP.Fitness>
45.6159

> <Gold.PLP.PLP>
-33.0792

> <Gold.PLP.part.hbond>
-4.0000

> <Gold.PLP.part.metal>
0.0000

> <Gold.PLP.part.buried>
-3.2552

> <Gold.PLP.part.nonpolar>
-25.8380

> <Gold.PLP.part.repulsive>
0.0000

> <Gold.PLP.ligand.clash>
0.0000

> <Gold.PLP.ligand.torsion>
0.8959

> <Gold.PLP.Chemscore.Hbond>
4.7440

> <Gold.PLP.Chemscore.CHOScore>
0.0000

> <Gold.PLP.Chemscore.Metal>
0.0000

> <Gold.Chemscore.Hbonds>
donor molecule, donor type, donor heavy atom, donor atom, acceptor molecule, acceptor atom, score
      L1  H     7    44       P1  7948  2.00
      P1  H  6896  6909       L1    12  1.00
      P1  H  6931  6943       L1    20  1.00
      P1  H  6934  6947       L1    20  0.62

> <Gold.PLP.Chemscore.Internal.Correction>
0.0965

> <Gold.Rescore>
     Score         DG    S(hbond)    S(metal)    S(lipo)     H(rot)  DE(clash)    DE(int)     intcor
     18.94     -20.51       3.63        0.00      65.49       1.86       0.01       1.56       ----

> <Gold.Chemscore.Fitness>
18.9382

> <Gold.Chemscore.DG>
-20.5147

> <Gold.Chemscore.ZeroCoef>
-5.4800

> <Gold.Chemscore.Hbond>
3.6320

> <Gold.Chemscore.Metal>
0.0000

> <Gold.Chemscore.Lipo>
65.4865

> <Gold.Chemscore.Internal_Hbond>
0.0000

> <Gold.Chemscore.DEClash>
0.0121

> <Gold.Chemscore.DEInternal>
1.5643

> <Gold.Chemscore.Rot>
1.8586

> <Gold.Chemscore.Internal.Correction>
   9.000000E+99

> <Gold.Chemscore.Hbonds>
donor molecule, donor type, donor heavy atom, donor atom, acceptor molecule, acceptor atom, score
      L1  H     7    44       P1  7948  0.78
      P1  H  6896  6909       L1    12  1.00
      P1  H  6931  6943       L1    20  0.95
      P1  H  6934  6947       L1    20  0.62

> <Gold.Chemscore.Hbond.Weighted>
-12.1309

> <Gold.Chemscore.Metal.Weighted>
-0.0000

> <Gold.Chemscore.Lipo.Weighted>
-7.6619

> <Gold.Chemscore.Internal_Hbond.Weighted>
0.0000

> <Gold.Chemscore.DEClash.Weighted>
0.0121

> <Gold.Chemscore.DEInternal.Weighted>
1.5643

> <Gold.Chemscore.Rot.Weighted>
4.7581

> <Gold.Chemscore.Internal.Correction.Weighted>
   9.000000E+99

> <Gold.Protein.RotatedTorsions>
[ 6907 6896 6895 6894 ] final   41.03 input  -60.11 | X-H torsion
[ 7974 7965 7964 7962 ] final  -38.99 input  175.53 | X-H torsion
[ 8008 7997 7996 7995 ] final  111.80 input   59.86 | X-H torsion
[ 10167 10162 10161 10158 ] final -111.84 input  -65.29 | X-H torsion
[ 10718 10713 10712 10709 ] final  -77.21 input   66.30 | X-H torsion
[ 10763 10752 10751 10750 ] final  -37.78 input  -60.55 | X-H torsion
[ 11005 11000 10999 10996 ] final -151.08 input  -57.11 | X-H torsion

> <Gold.Protein.ActiveResidues>
 VAL166  LYS551  ARG553  GLY616  TRP617  ASP618  TYR619  PRO620  LYS621  CYS622 
 ASP623  PHE694  ASN695  SER759  ASP760  ASP761  ALA762  ILE779  LEU786  VAL792 
 PHE793  MET794  SER795  GLU796  ALA797  LYS798  CYS799  TRP800  GLU811  SER814 

> <Gold.Protein.RotatedAtoms>
  152.1901  134.8679  160.0518 H   0  0  0  0  0  0  0  0  0  0  0  0  # atno 6907 bound_to 6896
  151.9571  133.3679  159.4030 H   0  0  0  0  0  0  0  0  0  0  0  0  # atno 6908 bound_to 6896
  150.6933  134.4203  159.5246 H   0  0  0  0  0  0  0  0  0  0  0  0  # atno 6909 bound_to 6896
  146.0437  140.6575  142.9075 H   0  0  0  0  0  0  0  0  0  0  0  0  # atno 7974 bound_to 7965
  156.2148  140.3012  155.9815 H   0  0  0  0  0  0  0  0  0  0  0  0  # atno 8008 bound_to 7997
  155.2632  140.0430  157.3016 H   0  0  0  0  0  0  0  0  0  0  0  0  # atno 8009 bound_to 7997
  154.5752  140.2359  155.8141 H   0  0  0  0  0  0  0  0  0  0  0  0  # atno 8010 bound_to 7997
  140.1292  143.4376  152.1639 H   0  0  0  0  0  0  0  0  0  0  0  0  # atno 10167 bound_to 10162
  156.0152  130.4485  150.3310 H   0  0  0  0  0  0  0  0  0  0  0  0  # atno 10718 bound_to 10713
  153.9019  135.6801  153.4755 H   0  0  0  0  0  0  0  0  0  0  0  0  # atno 10763 bound_to 10752
  153.1125  135.4777  154.9056 H   0  0  0  0  0  0  0  0  0  0  0  0  # atno 10764 bound_to 10752
  154.7571  135.3200  154.8404 H   0  0  0  0  0  0  0  0  0  0  0  0  # atno 10765 bound_to 10752
  140.7334  134.3595  157.5162 H   0  0  0  0  0  0  0  0  0  0  0  0  # atno 11005 bound_to 11000
  144.7087  140.3954  143.7098 LP  0  0  0  0  0  0  0  0  0  0  0  0  # atno 17320 bound_to 7965
  145.6842  139.1625  143.2683 LP  0  0  0  0  0  0  0  0  0  0  0  0  # atno 17321 bound_to 7965
  139.5528  144.7351  151.4382 LP  0  0  0  0  0  0  0  0  0  0  0  0  # atno 17342 bound_to 10162
  140.6827  143.8045  150.7143 LP  0  0  0  0  0  0  0  0  0  0  0  0  # atno 17343 bound_to 10162
  157.1408  131.0296  151.2928 LP  0  0  0  0  0  0  0  0  0  0  0  0  # atno 17370 bound_to 10713
  157.4473  130.7578  149.7121 LP  0  0  0  0  0  0  0  0  0  0  0  0  # atno 17371 bound_to 10713
  139.8821  134.9033  156.2853 LP  0  0  0  0  0  0  0  0  0  0  0  0  # atno 17394 bound_to 11000
  140.9901  133.7214  156.0800 LP  0  0  0  0  0  0  0  0  0  0  0  0  # atno 17395 bound_to 11000

$$$$
