AV-unprocessed.smi:1517|AV-procd|sdf|6122|dock3
  -GOLD-   22720 6253D 1   1.00000     0.00000
 Structure written by MMmdl.
 41 43  0  0  0  0  0  0  0  0  1 V2000
  154.1809  136.3002  157.1812 O   0  0  0  0  0  0  0  0  0  0  0  0
  155.0491  137.1948  157.8410 C   0  0  0  0  0  0  0  0  0  0  0  0
  154.3871  137.7107  159.1264 C   0  0  0  0  0  0  0  0  0  0  0  0
  153.6180  138.9212  158.9018 N   0  0  0  0  0  0  0  0  0  0  0  0
  153.3910  140.0382  159.6973 C   0  0  0  0  0  0  0  0  0  0  0  0
  153.8999  140.1917  160.9183 N   0  0  0  0  0  0  0  0  0  0  0  0
  153.4045  141.4271  161.2902 C   0  0  0  0  0  0  0  0  0  0  0  0
  153.5821  142.1666  162.4814 C   0  0  0  0  0  0  0  0  0  0  0  0
  152.9686  143.4270  162.6376 C   0  0  0  0  0  0  0  0  0  0  0  0
  152.1699  143.9650  161.6078 C   0  0  0  0  0  0  0  0  0  0  0  0
  151.9798  143.2455  160.4124 C   0  0  0  0  0  0  0  0  0  0  0  0
  152.5946  141.9884  160.2607 C   0  0  0  0  0  0  0  0  0  0  0  0
  152.6163  141.0489  159.2344 N   0  0  0  0  0  0  0  0  0  0  0  0
  151.9448  141.1677  157.9463 C   0  0  0  0  0  0  0  0  0  0  0  0
  150.8402  140.1075  157.7676 C   0  0  2  0  0  0  0  0  0  0  0  0
  151.4616  138.8460  157.6259 O   0  0  0  0  0  0  0  0  0  0  0  0
  149.9049  140.4290  156.6066 C   0  0  0  0  0  0  0  0  0  0  0  0
  149.9006  139.6210  155.4474 C   0  0  0  0  0  0  0  0  0  0  0  0
  149.0389  139.9191  154.3743 C   0  0  0  0  0  0  0  0  0  0  0  0
  148.1809  141.0323  154.4484 C   0  0  0  0  0  0  0  0  0  0  0  0
  147.3547  141.3212  153.4154 F   0  0  0  0  0  0  0  0  0  0  0  0
  148.1881  141.8491  155.5945 C   0  0  0  0  0  0  0  0  0  0  0  0
  149.0457  141.5501  156.6709 C   0  0  0  0  0  0  0  0  0  0  0  0
  149.0425  142.3509  157.7638 F   0  0  0  0  0  0  0  0  0  0  0  0
  153.3658  136.2696  157.6583 H   0  0  0  0  0  0  0  0  0  0  0  0
  155.9541  136.6415  158.0928 H   0  0  0  0  0  0  0  0  0  0  0  0
  155.3451  138.0066  157.1751 H   0  0  0  0  0  0  0  0  0  0  0  0
  153.7598  136.9455  159.5849 H   0  0  0  0  0  0  0  0  0  0  0  0
  155.1621  137.9536  159.8541 H   0  0  0  0  0  0  0  0  0  0  0  0
  153.1605  138.9474  158.0020 H   0  0  0  0  0  0  0  0  0  0  0  0
  154.1921  141.7636  163.2762 H   0  0  0  0  0  0  0  0  0  0  0  0
  153.1113  143.9836  163.5521 H   0  0  0  0  0  0  0  0  0  0  0  0
  151.7036  144.9311  161.7357 H   0  0  0  0  0  0  0  0  0  0  0  0
  151.3700  143.6554  159.6209 H   0  0  0  0  0  0  0  0  0  0  0  0
  151.5424  142.1739  157.8243 H   0  0  0  0  0  0  0  0  0  0  0  0
  152.7018  141.0497  157.1696 H   0  0  0  0  0  0  0  0  0  0  0  0
  150.2545  140.0481  158.6854 H   0  0  0  0  0  0  0  0  0  0  0  0
  152.3228  138.9757  157.2585 H   0  0  0  0  0  0  0  0  0  0  0  0
  150.5590  138.7676  155.3756 H   0  0  0  0  0  0  0  0  0  0  0  0
  149.0389  139.2956  153.4925 H   0  0  0  0  0  0  0  0  0  0  0  0
  147.5343  142.7071  155.6490 H   0  0  0  0  0  0  0  0  0  0  0  0
  1  2  1  0  0  0  0
  1 25  1  0  0  0  0
  2  3  1  0  0  0  0
  2 26  1  0  0  0  0
  2 27  1  0  0  0  0
  3  4  1  0  0  0  0
  3 28  1  0  0  0  0
  3 29  1  0  0  0  0
  4  5  1  0  0  0  0
  4 30  1  0  0  0  0
  5 13  1  0  0  0  0
  5  6  2  0  0  0  0
  6  7  1  0  0  0  0
  7 12  2  0  0  0  0
  7  8  1  0  0  0  0
  8  9  2  0  0  0  0
  8 31  1  0  0  0  0
  9 10  1  0  0  0  0
  9 32  1  0  0  0  0
 10 11  2  0  0  0  0
 10 33  1  0  0  0  0
 11 12  1  0  0  0  0
 11 34  1  0  0  0  0
 12 13  1  0  0  0  0
 13 14  1  0  0  0  0
 14 15  1  0  0  0  0
 14 35  1  0  0  0  0
 14 36  1  0  0  0  0
 15 16  1  0  0  0  0
 15 17  1  0  0  0  0
 15 37  1  0  0  0  0
 16 38  1  0  0  0  0
 17 23  1  0  0  0  0
 17 18  2  0  0  0  0
 18 19  1  0  0  0  0
 18 39  1  0  0  0  0
 19 20  2  0  0  0  0
 19 40  1  0  0  0  0
 20 21  1  0  0  0  0
 20 22  1  0  0  0  0
 22 23  2  0  0  0  0
 22 41  1  0  0  0  0
 23 24  1  0  0  0  0
M  END
> <s_m_source_file>
AV-unprocessed.smi

> <i_m_source_file_index>
1517

> <i_lp_mmshare_version>
43012

> <i_f3d_flags>
0

> <s_epik_input>
W09IXVtDSDJdW0NIMl1bTkhdYyhuMSluKGMoYzEyKVtjSF1bY0hdW2NIXVtjSF0yKVtDSDJdW0NASF0oW09IXSljM1tjSF1bY0hdYyhGKVtjSF1jM0Y=

> <s_epik_cmdline>
J2VwaWtfcHl0aG9uJywgJy1waCcsICc3LjAnLCAnLXRuJywgJzgnLCAnLW1hJywgJzIwMCcsICctbWV0YWxfYmluZGluZycsICctaW1hZScsICc8aW5maWxlLm1hZT4nLCAnLW9tYWUnLCAnPG91dGZpbGUubWFlPic=

> <r_epik_Ionization_Penalty>
1.30972

> <r_epik_Ionization_Penalty_Charging>
0

> <r_epik_Ionization_Penalty_Neutral>
1.30972

> <r_epik_State_Penalty>
1.38438

> <r_epik_Charging_Adjusted_Penalty>
1.38438

> <i_epik_Tot_Q>
0

> <i_epik_Tot_abs_Q>
0

> <r_epik_Metal_State_Penalty>
0.00551145

> <b_epik_Metal_Only>
0

> <s_lp_Force_Field>
OPLS_2005

> <r_lp_Energy>
9.55996

> <b_lp_Chiralities_Consistent>
1

> <s_lp_Variant>
AV-unprocessed.smi:1517-3

> <Gold.Version>
5.8.1

> <Gold.Id.Protein>
6NUR|6NUR_protein|mol2

> <Gold.PLP.Fitness>
46.7285

> <Gold.PLP.PLP>
-44.9229

> <Gold.PLP.part.hbond>
-1.0000

> <Gold.PLP.part.metal>
0.0000

> <Gold.PLP.part.buried>
-5.2239

> <Gold.PLP.part.nonpolar>
-38.6637

> <Gold.PLP.part.repulsive>
0.0972

> <Gold.PLP.ligand.clash>
0.0000

> <Gold.PLP.ligand.torsion>
0.6214

> <Gold.PLP.Chemscore.Hbond>
1.0000

> <Gold.PLP.Chemscore.CHOScore>
0.0000

> <Gold.PLP.Chemscore.Metal>
0.0000

> <Gold.Chemscore.Hbonds>
donor molecule, donor type, donor heavy atom, donor atom, acceptor molecule, acceptor atom, score
      P1  H 10752 10763       L1     1  0.94

> <Gold.PLP.Chemscore.Internal.Correction>
0.0485

> <Gold.Rescore>
     Score         DG    S(hbond)    S(metal)    S(lipo)     H(rot)  DE(clash)    DE(int)     intcor
     10.92     -13.97       0.99        0.00     114.90       3.22       0.69       2.36       ----

> <Gold.Chemscore.Fitness>
10.9242

> <Gold.Chemscore.DG>
-13.9734

> <Gold.Chemscore.ZeroCoef>
-5.4800

> <Gold.Chemscore.Hbond>
0.9855

> <Gold.Chemscore.Metal>
0.0000

> <Gold.Chemscore.Lipo>
114.9000

> <Gold.Chemscore.Internal_Hbond>
0.0000

> <Gold.Chemscore.DEClash>
0.6870

> <Gold.Chemscore.DEInternal>
2.3622

> <Gold.Chemscore.Rot>
3.2194

> <Gold.Chemscore.Internal.Correction>
   9.000000E+99

> <Gold.Chemscore.Hbonds>
donor molecule, donor type, donor heavy atom, donor atom, acceptor molecule, acceptor atom, score
      P1  H 10752 10763       L1     1  0.78

> <Gold.Chemscore.Hbond.Weighted>
-3.2917

> <Gold.Chemscore.Metal.Weighted>
-0.0000

> <Gold.Chemscore.Lipo.Weighted>
-13.4433

> <Gold.Chemscore.Internal_Hbond.Weighted>
0.0000

> <Gold.Chemscore.DEClash.Weighted>
0.6870

> <Gold.Chemscore.DEInternal.Weighted>
2.3622

> <Gold.Chemscore.Rot.Weighted>
8.2416

> <Gold.Chemscore.Internal.Correction.Weighted>
   9.000000E+99

> <Gold.Protein.RotatedTorsions>
[ 6907 6896 6895 6894 ] final  -77.87 input  -60.11 | X-H torsion
[ 7974 7965 7964 7962 ] final  -98.01 input  175.53 | X-H torsion
[ 8008 7997 7996 7995 ] final  117.46 input   59.86 | X-H torsion
[ 10167 10162 10161 10158 ] final  119.75 input  -65.29 | X-H torsion
[ 10718 10713 10712 10709 ] final -164.74 input   66.30 | X-H torsion
[ 10763 10752 10751 10750 ] final  153.58 input  -60.55 | X-H torsion
[ 11005 11000 10999 10996 ] final -130.99 input  -57.11 | X-H torsion

> <Gold.Protein.ActiveResidues>
 VAL166  LYS551  ARG553  GLY616  TRP617  ASP618  TYR619  PRO620  LYS621  CYS622 
 ASP623  PHE694  ASN695  SER759  ASP760  ASP761  ALA762  ILE779  LEU786  VAL792 
 PHE793  MET794  SER795  GLU796  ALA797  LYS798  CYS799  TRP800  GLU811  SER814 

> <Gold.Protein.RotatedAtoms>
  150.6987  134.4358  159.5269 H   0  0  0  0  0  0  0  0  0  0  0  0  # atno 6907 bound_to 6896
  152.2077  134.8528  160.0510 H   0  0  0  0  0  0  0  0  0  0  0  0  # atno 6908 bound_to 6896
  151.9424  133.3607  159.4007 H   0  0  0  0  0  0  0  0  0  0  0  0  # atno 6909 bound_to 6896
  145.3262  140.9432  143.2687 H   0  0  0  0  0  0  0  0  0  0  0  0  # atno 7974 bound_to 7965
  156.2495  140.2896  156.0682 H   0  0  0  0  0  0  0  0  0  0  0  0  # atno 8008 bound_to 7997
  155.1700  140.0401  157.2878 H   0  0  0  0  0  0  0  0  0  0  0  0  # atno 8009 bound_to 7997
  154.6332  140.2504  155.7416 H   0  0  0  0  0  0  0  0  0  0  0  0  # atno 8010 bound_to 7997
  139.6026  144.7061  151.3027 H   0  0  0  0  0  0  0  0  0  0  0  0  # atno 10167 bound_to 10162
  156.6434  130.8978  151.3000 H   0  0  0  0  0  0  0  0  0  0  0  0  # atno 10718 bound_to 10713
  154.1385  135.2822  155.3167 H   0  0  0  0  0  0  0  0  0  0  0  0  # atno 10763 bound_to 10752
  154.6304  135.5437  153.7677 H   0  0  0  0  0  0  0  0  0  0  0  0  # atno 10764 bound_to 10752
  153.0258  135.6461  154.1533 H   0  0  0  0  0  0  0  0  0  0  0  0  # atno 10765 bound_to 10752
  140.9297  134.1335  157.4245 H   0  0  0  0  0  0  0  0  0  0  0  0  # atno 11005 bound_to 11000
  144.8900  139.4787  143.6682 LP  0  0  0  0  0  0  0  0  0  0  0  0  # atno 17320 bound_to 7965
  146.3063  139.7592  142.9053 LP  0  0  0  0  0  0  0  0  0  0  0  0  # atno 17321 bound_to 7965
  140.7261  143.6999  150.7853 LP  0  0  0  0  0  0  0  0  0  0  0  0  # atno 17342 bound_to 10162
  140.0579  143.5184  152.2642 LP  0  0  0  0  0  0  0  0  0  0  0  0  # atno 17343 bound_to 10162
  157.7164  130.9502  150.1270 LP  0  0  0  0  0  0  0  0  0  0  0  0  # atno 17370 bound_to 10713
  156.2141  130.3669  149.8635 LP  0  0  0  0  0  0  0  0  0  0  0  0  # atno 17371 bound_to 10713
  139.8793  135.0001  156.5990 LP  0  0  0  0  0  0  0  0  0  0  0  0  # atno 17394 bound_to 11000
  140.7878  133.8607  155.8621 LP  0  0  0  0  0  0  0  0  0  0  0  0  # atno 17395 bound_to 11000

$$$$
