#       Name:                AV-unprocessed.smi:1824
#       Creating user name   scv26
#       Creation time:       Fri Mar 27 09:08:15 2020


#       File generated by GOLD software.
#

@<TRIPOS>MOLECULE
AV-unprocessed.smi:1824
    50    52     1
SMALL
NO_CHARGES


@<TRIPOS>ATOM
      1 ****        -1.7160   3.6764   1.4687 C.3            1 S1                 0.0000
      2 ****        -2.6618   2.4878   1.7113 C.3            1 S1                 0.0000
      3 ****        -2.0002   1.1192   1.4515 C.3            1 S1                 0.0000
      4 ****        -1.8201   0.8390   0.0277 N.3            1 S1                 0.0000
      5 ****        -1.2223  -0.4742  -0.2206 C.3            1 S1                 0.0000
      6 ****         0.2537  -0.6226   0.1997 C.3            1 S1                 0.0000
      7 ****         1.0374   0.2186  -0.6236 O.3            1 S1                 0.0000
      8 ****         0.7359  -2.0794   0.0562 C.3            1 S1                 0.0000
      9 ****         2.1351  -2.2631   0.4691 N.pl3          1 S1                 0.0000
     10 ****         2.6515  -2.4877   1.7077 C.2            1 S1                 0.0000
     11 ****         4.0032  -2.5906   1.5780 N.pl3          1 S1                 1.0000
     12 ****         4.3569  -2.4269   0.2369 C.ar           1 S1                 0.0000
     13 ****         5.6006  -2.4464  -0.3861 C.ar           1 S1                 0.0000
     14 ****         5.6154  -2.2409  -1.7813 C.ar           1 S1                 0.0000
     15 ****         6.7997  -2.2493  -2.4376 F              1 S1                 0.0000
     16 ****         4.4229  -2.0258  -2.5041 C.ar           1 S1                 0.0000
     17 ****         4.4820  -1.8301  -3.8426 F              1 S1                 0.0000
     18 ****         3.1677  -2.0099  -1.8611 C.ar           1 S1                 0.0000
     19 ****         3.1616  -2.2151  -0.4819 C.ar           1 S1                 0.0000
     20 ****        -3.1101   0.9562  -0.6409 C.3            1 S1                 0.0000
     21 ****        -3.7409   2.3455  -0.4395 C.3            1 S1                 0.0000
     22 ****        -5.1333   2.4436  -1.0717 C.3            1 S1                 0.0000
     23 ****        -3.8684   2.6082   0.9565 O.3            1 S1                 0.0000
     24 ****        -0.8548   3.6284   2.1354 H              1 S1                 0.0000
     25 ****        -2.2253   4.6221   1.6545 H              1 S1                 0.0000
     26 ****        -1.3356   3.6966   0.4478 H              1 S1                 0.0000
     27 ****        -2.9534   2.5238   2.7612 H              1 S1                 0.0000
     28 ****        -1.0460   1.0891   1.9754 H              1 S1                 0.0000
     29 ****        -2.6202   0.3397   1.8970 H              1 S1                 0.0000
     30 ****        -1.8180  -1.2364   0.2841 H              1 S1                 0.0000
     31 ****        -1.2912  -0.7054  -1.2848 H              1 S1                 0.0000
     32 ****         0.3952  -0.3175   1.2357 H              1 S1                 0.0000
     33 ****         0.7057   1.1007  -0.5458 H              1 S1                 0.0000
     34 ****         0.1304  -2.7317   0.6869 H              1 S1                 0.0000
     35 ****         0.6098  -2.4417  -0.9645 H              1 S1                 0.0000
     36 ****         2.0901  -2.5702   2.6273 H              1 S1                 0.0000
     37 ****         6.5161  -2.6090   0.1634 H              1 S1                 0.0000
     38 ****         2.2626  -1.8377  -2.4240 H              1 S1                 0.0000
     39 ****        -2.9893   0.7717  -1.7090 H              1 S1                 0.0000
     40 ****        -3.7900   0.1884  -0.2676 H              1 S1                 0.0000
     41 ****        -3.1038   3.1045  -0.8946 H              1 S1                 0.0000
     42 ****        -5.0907   2.2598  -2.1455 H              1 S1                 0.0000
     43 ****        -5.5602   3.4354  -0.9211 H              1 S1                 0.0000
     44 ****        -5.8174   1.7165  -0.6336 H              1 S1                 0.0000
     45 ****         4.6353  -2.7591   2.3503 H              1 S1                 0.0000
     46 ****        -1.1769   1.5091  -0.3427 LP             1 S1                 0.0000
     47 ****         0.9741  -0.0842  -1.5746 LP             1 S1                 0.0000
     48 ****         1.9919   0.1885  -0.3271 LP             1 S1                 0.0000
     49 ****        -4.2095   3.5418   1.0656 LP             1 S1                 0.0000
     50 ****        -4.5342   1.9639   1.3328 LP             1 S1                 0.0000
@<TRIPOS>BOND
    1    1    2 1     
    2    1   24 1     
    3    1   25 1     
    4    1   26 1     
    5    2   23 1     
    6    2    3 1     
    7    2   27 1     
    8    3    4 1     
    9    3   28 1     
   10    3   29 1     
   11    4    5 1     
   12    4   20 1     
   13    5    6 1     
   14    5   30 1     
   15    5   31 1     
   16    6    7 1     
   17    6    8 1     
   18    6   32 1     
   19    7   33 1     
   20    8    9 1     
   21    8   34 1     
   22    8   35 1     
   23    9   19 1     
   24    9   10 1     
   25   10   11 2     
   26   10   36 1     
   27   11   12 1     
   28   11   45 1     
   29   12   19 ar    
   30   12   13 ar    
   31   13   14 ar    
   32   13   37 1     
   33   14   15 1     
   34   14   16 ar    
   35   16   17 1     
   36   16   18 ar    
   37   18   19 ar    
   38   18   38 1     
   39   20   21 1     
   40   20   39 1     
   41   20   40 1     
   42   21   22 1     
   43   21   23 1     
   44   21   41 1     
   45   22   42 1     
   46   22   43 1     
   47   22   44 1     
   48    4   46 1     
   49    7   47 1     
   50    7   48 1     
   51   23   49 1     
   52   23   50 1     
@<TRIPOS>SUBSTRUCTURE
      1 S1             1
@<TRIPOS>SET
LONE_PAIRS      STATIC     ATOMS    <user>   **** ""
5 46 47 48 49 50
DONOR_HYDROGENS      STATIC     ATOMS    <user>   **** ""
2 33 45
ATOM$BLUE        STATIC     ATOMS    COLORGROUP SYSTEM
5 46 47 48 49 50
ATOM$RED        STATIC     ATOMS    COLORGROUP SYSTEM
2 33 45
