#       Name:                AV-unprocessed.smi:3218
#       Creating user name   scv26
#       Creation time:       Fri Mar 27 18:13:28 2020


#       File generated by GOLD software.
#

@<TRIPOS>MOLECULE
AV-unprocessed.smi:3218
    41    42     1
SMALL
NO_CHARGES


@<TRIPOS>ATOM
      1 ****        -1.9790   2.5431   5.1345 C.3            1 S1                 0.0000
      2 ****        -1.8537   2.5341   3.6379 C.2            1 S1                 0.0000
      3 ****        -0.8138   3.0975   2.8451 C.2            1 S1                 0.0000
      4 ****        -1.0001   2.9152   1.5476 N.2            1 S1                 0.0000
      5 ****        -2.1625   2.2336   1.4665 N.pl3          1 S1                 0.0000
      6 ****        -2.6866   1.8496   0.1683 C.3            1 S1                 0.0000
      7 ****        -2.0976   0.5196  -0.3284 C.3            1 S1                 0.0000
      8 ****        -0.6584   0.6405  -0.6377 N.4            1 S1                 1.0000
      9 ****        -0.0305  -0.6170  -1.0850 C.3            1 S1                 0.0000
     10 ****         1.4642  -0.4116  -1.3769 C.3            1 S1                 0.0000
     11 ****         2.1004  -1.6474  -1.8253 N.am           1 S1                 0.0000
     12 ****         2.5024  -1.8177  -3.2115 C.3            1 S1                 0.0000
     13 ****         2.9435  -3.2843  -3.3212 C.3            1 S1                 0.0000
     14 ****         3.0951  -3.7839  -1.8802 C.3            1 S1                 0.0000
     15 ****         2.4252  -2.6955  -1.0590 C.2            1 S1                 0.0000
     16 ****         2.2233  -2.7980   0.1499 O.2            1 S1                 0.0000
     17 ****        -2.6988   1.9894   2.7130 C.2            1 S1                 0.0000
     18 ****        -1.4525   3.3877   5.5795 H              1 S1                 0.0000
     19 ****        -1.5651   1.6369   5.5771 H              1 S1                 0.0000
     20 ****        -3.0195   2.6111   5.4528 H              1 S1                 0.0000
     21 ****         0.0670   3.6298   3.1730 H              1 S1                 0.0000
     22 ****        -3.7703   1.7624   0.2545 H              1 S1                 0.0000
     23 ****        -2.4952   2.6511  -0.5471 H              1 S1                 0.0000
     24 ****        -2.2490  -0.2594   0.4202 H              1 S1                 0.0000
     25 ****        -2.6241   0.2028  -1.2294 H              1 S1                 0.0000
     26 ****        -0.5413   1.3364  -1.3602 H              1 S1                 0.0000
     27 ****        -0.1668  -1.3744  -0.3120 H              1 S1                 0.0000
     28 ****        -0.5400  -0.9740  -1.9809 H              1 S1                 0.0000
     29 ****         1.5927   0.3573  -2.1401 H              1 S1                 0.0000
     30 ****         1.9769  -0.0480  -0.4848 H              1 S1                 0.0000
     31 ****         1.6838  -1.5898  -3.8952 H              1 S1                 0.0000
     32 ****         3.3308  -1.1434  -3.4326 H              1 S1                 0.0000
     33 ****         2.1793  -3.8681  -3.8359 H              1 S1                 0.0000
     34 ****         3.8696  -3.3853  -3.8879 H              1 S1                 0.0000
     35 ****         2.6162  -4.7515  -1.7265 H              1 S1                 0.0000
     36 ****         4.1444  -3.8616  -1.5935 H              1 S1                 0.0000
     37 ****        -3.6281   1.4530   2.8381 H              1 S1                 0.0000
     38 ****        -0.1822   0.9594   0.1947 H              1 S1                 0.0000
     39 ****        -0.4121   3.2149   0.7963 LP             1 S1                 0.0000
     40 ****         1.7779  -2.0537   0.6474 LP             1 S1                 0.0000
     41 ****         2.5045  -3.6259   0.6353 LP             1 S1                 0.0000
@<TRIPOS>BOND
    1    1    2 1     
    2    1   18 1     
    3    1   19 1     
    4    1   20 1     
    5    2   17 2     
    6    2    3 1     
    7    3    4 2     
    8    3   21 1     
    9    4    5 1     
   10    5    6 1     
   11    5   17 1     
   12    6    7 1     
   13    6   22 1     
   14    6   23 1     
   15    7    8 1     
   16    7   24 1     
   17    7   25 1     
   18    8    9 1     
   19    8   26 1     
   20    8   38 1     
   21    9   10 1     
   22    9   27 1     
   23    9   28 1     
   24   10   11 1     
   25   10   29 1     
   26   10   30 1     
   27   11   15 am    
   28   11   12 1     
   29   12   13 1     
   30   12   31 1     
   31   12   32 1     
   32   13   14 1     
   33   13   33 1     
   34   13   34 1     
   35   14   15 1     
   36   14   35 1     
   37   14   36 1     
   38   15   16 2     
   39   17   37 1     
   40    4   39 1     
   41   16   40 1     
   42   16   41 1     
@<TRIPOS>SUBSTRUCTURE
      1 S1             1
@<TRIPOS>SET
LONE_PAIRS      STATIC     ATOMS    <user>   **** ""
3 39 40 41
DONOR_HYDROGENS      STATIC     ATOMS    <user>   **** ""
2 26 38
ATOM$BLUE        STATIC     ATOMS    COLORGROUP SYSTEM
3 39 40 41
ATOM$RED        STATIC     ATOMS    COLORGROUP SYSTEM
2 26 38
