AV-unprocessed.smi:261|AV-procd|sdf|1983|dock8
  -GOLD-   2262021163D 1   1.00000     0.00000
 Structure written by MMmdl.
 51 54  0  0  0  0  0  0  0  0  1 V2000
  145.0325  132.6444  149.8214 C   0  0  0  0  0  0  0  0  0  0  0  0
  145.7261  132.9719  151.0140 O   0  0  0  0  0  0  0  0  0  0  0  0
  145.4027  134.2587  151.5191 C   0  0  1  0  0  0  0  0  0  0  0  0
  143.8992  134.3982  151.7214 C   0  0  0  0  0  0  0  0  0  0  0  0
  143.7910  135.5467  152.7339 C   0  0  1  0  0  0  0  0  0  0  0  0
  142.4903  135.4776  153.5464 C   0  0  0  0  0  0  0  0  0  0  0  0
  142.2705  134.3551  154.2344 N   0  0  0  0  0  0  0  0  0  0  0  0
  141.7030  136.4224  153.5685 O   0  0  0  0  0  0  0  0  0  0  0  0
  144.9778  135.3962  153.5809 N   0  0  0  0  0  0  0  0  0  0  0  0
  145.4747  136.5499  154.0791 C   0  0  0  0  0  0  0  0  0  0  0  0
  145.3865  136.7377  155.4181 N   0  0  0  0  0  0  0  0  0  0  0  0
  145.8498  137.8658  155.9654 C   0  0  0  0  0  0  0  0  0  0  0  0
  146.4217  138.9124  155.3651 N   0  0  0  0  0  0  0  0  0  0  0  0
  146.5083  138.7248  154.0168 C   0  0  0  0  0  0  0  0  0  0  0  0
  146.0658  137.5807  153.2961 C   0  0  0  0  0  0  0  0  0  0  0  0
  146.3181  137.7456  151.9392 N   0  0  0  0  0  0  0  0  0  0  0  0
  146.8772  138.9223  151.8618 C   0  0  0  0  0  0  0  0  0  0  0  0
  147.0299  139.5793  153.0618 N   0  0  0  0  0  0  0  0  0  0  0  0
  147.6107  140.8961  153.2599 C   0  0  0  0  0  0  0  0  0  0  0  0
  147.3663  141.4430  154.6826 C   0  0  2  0  0  0  0  0  0  0  0  0
  147.1722  142.8409  154.5874 O   0  0  0  0  0  0  0  0  0  0  0  0
  148.5514  141.1949  155.6379 C   0  0  2  0  0  0  0  0  0  0  0  0
  148.5312  142.0322  156.9191 C   0  0  0  0  0  0  0  0  0  0  0  0
  149.9921  142.0913  157.3341 C   0  0  0  0  0  0  0  0  0  0  0  0
  150.7501  141.7058  156.0618 C   0  0  0  0  0  0  0  0  0  0  0  0
  149.7599  141.6470  155.0444 O   0  0  0  0  0  0  0  0  0  0  0  0
  145.9440  134.5173  152.9285 C   0  0  0  0  0  0  0  0  0  0  0  0
  145.7395  135.0406  150.8354 H   0  0  0  0  0  0  0  0  0  0  0  0
  143.8311  136.4965  152.1960 H   0  0  0  0  0  0  0  0  0  0  0  0
  145.3055  131.6373  149.5072 H   0  0  0  0  0  0  0  0  0  0  0  0
  145.2857  133.3271  149.0098 H   0  0  0  0  0  0  0  0  0  0  0  0
  143.9528  132.6671  149.9743 H   0  0  0  0  0  0  0  0  0  0  0  0
  143.3722  134.6071  150.7896 H   0  0  0  0  0  0  0  0  0  0  0  0
  143.4946  133.4725  152.1357 H   0  0  0  0  0  0  0  0  0  0  0  0
  141.4303  134.2568  154.7854 H   0  0  0  0  0  0  0  0  0  0  0  0
  142.9478  133.6072  154.1999 H   0  0  0  0  0  0  0  0  0  0  0  0
  145.7459  137.9411  157.0378 H   0  0  0  0  0  0  0  0  0  0  0  0
  147.1960  139.3473  150.9209 H   0  0  0  0  0  0  0  0  0  0  0  0
  148.6786  140.8179  153.0555 H   0  0  0  0  0  0  0  0  0  0  0  0
  147.2022  141.5793  152.5139 H   0  0  0  0  0  0  0  0  0  0  0  0
  146.4632  140.9890  155.0928 H   0  0  0  0  0  0  0  0  0  0  0  0
  147.7929  143.2695  155.1566 H   0  0  0  0  0  0  0  0  0  0  0  0
  148.6364  140.1363  155.8928 H   0  0  0  0  0  0  0  0  0  0  0  0
  148.1749  143.0405  156.7031 H   0  0  0  0  0  0  0  0  0  0  0  0
  147.8910  141.6065  157.6927 H   0  0  0  0  0  0  0  0  0  0  0  0
  150.2609  143.0886  157.6841 H   0  0  0  0  0  0  0  0  0  0  0  0
  150.2058  141.3829  158.1352 H   0  0  0  0  0  0  0  0  0  0  0  0
  151.5307  142.4224  155.8058 H   0  0  0  0  0  0  0  0  0  0  0  0
  151.2118  140.7235  156.1722 H   0  0  0  0  0  0  0  0  0  0  0  0
  145.9745  133.5879  153.4984 H   0  0  0  0  0  0  0  0  0  0  0  0
  146.9597  134.9158  152.9050 H   0  0  0  0  0  0  0  0  0  0  0  0
  1  2  1  0  0  0  0
  1 30  1  0  0  0  0
  1 31  1  0  0  0  0
  1 32  1  0  0  0  0
  2  3  1  0  0  0  0
  3 28  1  0  0  0  0
  3 27  1  0  0  0  0
  3  4  1  0  0  0  0
  4  5  1  0  0  0  0
  4 33  1  0  0  0  0
  4 34  1  0  0  0  0
  5 29  1  0  0  0  0
  5  6  1  0  0  0  0
  5  9  1  0  0  0  0
  6  7  1  0  0  0  0
  6  8  2  0  0  0  0
  7 35  1  0  0  0  0
  7 36  1  0  0  0  0
  9 10  1  0  0  0  0
  9 27  1  0  0  0  0
 10 15  1  0  0  0  0
 10 11  2  0  0  0  0
 11 12  1  0  0  0  0
 12 13  2  0  0  0  0
 12 37  1  0  0  0  0
 13 14  1  0  0  0  0
 14 18  1  0  0  0  0
 14 15  2  0  0  0  0
 15 16  1  0  0  0  0
 16 17  2  0  0  0  0
 17 18  1  0  0  0  0
 17 38  1  0  0  0  0
 18 19  1  0  0  0  0
 19 20  1  0  0  0  0
 19 39  1  0  0  0  0
 19 40  1  0  0  0  0
 20 21  1  0  0  0  0
 20 22  1  0  0  0  0
 20 41  1  0  0  0  0
 21 42  1  0  0  0  0
 22 26  1  0  0  0  0
 22 23  1  0  0  0  0
 22 43  1  0  0  0  0
 23 24  1  0  0  0  0
 23 44  1  0  0  0  0
 23 45  1  0  0  0  0
 24 25  1  0  0  0  0
 24 46  1  0  0  0  0
 24 47  1  0  0  0  0
 25 26  1  0  0  0  0
 25 48  1  0  0  0  0
 25 49  1  0  0  0  0
 27 50  1  0  0  0  0
 27 51  1  0  0  0  0
M  END
> <s_m_source_file>
AV-unprocessed.smi

> <i_m_source_file_index>
261

> <i_lp_mmshare_version>
43012

> <i_f3d_flags>
0

> <s_epik_input>
W0NIM11PW0NASF0xW0NIMl1bQ0BASF0oQyg9TylbTkgyXSlOKFtDSDJdMSljKG5bY0hdbjIpYyhjMjMpbltjSF1uM1tDSDJdW0NASF0oW09IXSlbQ0BASF00W0NIMl1bQ0gyXVtDSDJdTzQ=

> <s_epik_cmdline>
J2VwaWtfcHl0aG9uJywgJy1waCcsICc3LjAnLCAnLXRuJywgJzgnLCAnLW1hJywgJzIwMCcsICctbWV0YWxfYmluZGluZycsICctaW1hZScsICc8aW5maWxlLm1hZT4nLCAnLW9tYWUnLCAnPG91dGZpbGUubWFlPic=

> <r_lp_tautomer_probability>
1

> <r_epik_Ionization_Penalty>
0.000713824

> <r_epik_Ionization_Penalty_Charging>
0

> <r_epik_Ionization_Penalty_Neutral>
0.000713824

> <r_epik_State_Penalty>
0.000402132

> <r_epik_Charging_Adjusted_Penalty>
0.000402132

> <i_epik_Tot_Q>
0

> <i_epik_Tot_abs_Q>
0

> <r_epik_Metal_State_Penalty>
-0

> <b_epik_Metal_Only>
0

> <s_lp_Force_Field>
OPLS_2005

> <r_lp_Energy>
45.6621

> <b_lp_Chiralities_Consistent>
1

> <s_lp_Variant>
AV-unprocessed.smi:261-1

> <Gold.Version>
5.8.1

> <Gold.Id.Protein>
6NUR|6NUR_protein|mol2

> <Gold.PLP.Fitness>
44.2070

> <Gold.PLP.PLP>
-36.1771

> <Gold.PLP.part.hbond>
-4.0000

> <Gold.PLP.part.metal>
0.0000

> <Gold.PLP.part.buried>
-3.9969

> <Gold.PLP.part.nonpolar>
-27.7547

> <Gold.PLP.part.repulsive>
1.0455

> <Gold.PLP.ligand.clash>
0.0000

> <Gold.PLP.ligand.torsion>
0.8683

> <Gold.PLP.Chemscore.Hbond>
2.7035

> <Gold.PLP.Chemscore.CHOScore>
0.4912

> <Gold.PLP.Chemscore.Metal>
0.0000

> <Gold.Chemscore.Hbonds>
donor molecule, donor type, donor heavy atom, donor atom, acceptor molecule, acceptor atom, score
      L1  H     7    35       P1 11000  0.68
      L1  H     7    36       P1 10957  0.51
      L1  H    21    42       P1  8028  1.00
      L1  C    17    38       P1  7957  0.59

> <Gold.PLP.Chemscore.Internal.Correction>
0.1825

> <Gold.Rescore>
     Score         DG    S(hbond)    S(metal)    S(lipo)     H(rot)  DE(clash)    DE(int)     intcor
      9.63     -12.66       2.62        0.00      64.73       3.57       0.44       2.59       ----

> <Gold.Chemscore.Fitness>
9.6273

> <Gold.Chemscore.DG>
-12.6613

> <Gold.Chemscore.ZeroCoef>
-5.4800

> <Gold.Chemscore.Hbond>
2.6220

> <Gold.Chemscore.Metal>
0.0000

> <Gold.Chemscore.Lipo>
64.7288

> <Gold.Chemscore.Internal_Hbond>
0.0000

> <Gold.Chemscore.DEClash>
0.4443

> <Gold.Chemscore.DEInternal>
2.5898

> <Gold.Chemscore.Rot>
3.5740

> <Gold.Chemscore.Internal.Correction>
   9.000000E+99

> <Gold.Chemscore.Hbonds>
donor molecule, donor type, donor heavy atom, donor atom, acceptor molecule, acceptor atom, score
      L1  H     7    35       P1 11000  0.64
      L1  H     7    36       P1 10957  0.51
      L1  H    21    42       P1  8028  0.53

> <Gold.Chemscore.Hbond.Weighted>
-8.7575

> <Gold.Chemscore.Metal.Weighted>
-0.0000

> <Gold.Chemscore.Lipo.Weighted>
-7.5733

> <Gold.Chemscore.Internal_Hbond.Weighted>
0.0000

> <Gold.Chemscore.DEClash.Weighted>
0.4443

> <Gold.Chemscore.DEInternal.Weighted>
2.5898

> <Gold.Chemscore.Rot.Weighted>
9.1495

> <Gold.Chemscore.Internal.Correction.Weighted>
   9.000000E+99

> <Gold.Protein.RotatedTorsions>
[ 6907 6896 6895 6894 ] final  -35.68 input  -60.11 | X-H torsion
[ 7974 7965 7964 7962 ] final  116.96 input  175.53 | X-H torsion
[ 8008 7997 7996 7995 ] final -138.44 input   59.86 | X-H torsion
[ 10167 10162 10161 10158 ] final  138.66 input  -65.29 | X-H torsion
[ 10718 10713 10712 10709 ] final  154.58 input   66.30 | X-H torsion
[ 10763 10752 10751 10750 ] final -164.27 input  -60.55 | X-H torsion
[ 11005 11000 10999 10996 ] final  167.11 input  -57.11 | X-H torsion

> <Gold.Protein.ActiveResidues>
 VAL166  LYS551  ARG553  GLY616  TRP617  ASP618  TYR619  PRO620  LYS621  CYS622 
 ASP623  PHE694  ASN695  SER759  ASP760  ASP761  ALA762  ILE779  LEU786  VAL792 
 PHE793  MET794  SER795  GLU796  ALA797  LYS798  CYS799  TRP800  GLU811  SER814 

> <Gold.Protein.RotatedAtoms>
  151.0368  134.9578  159.8140 H   0  0  0  0  0  0  0  0  0  0  0  0  # atno 6907 bound_to 6896
  152.5356  134.2710  159.8981 H   0  0  0  0  0  0  0  0  0  0  0  0  # atno 6908 bound_to 6896
  151.2721  133.4208  159.2656 H   0  0  0  0  0  0  0  0  0  0  0  0  # atno 6909 bound_to 6896
  145.1733  139.3090  143.4456 H   0  0  0  0  0  0  0  0  0  0  0  0  # atno 7974 bound_to 7965
  155.4283  140.0523  157.3020 H   0  0  0  0  0  0  0  0  0  0  0  0  # atno 8008 bound_to 7997
  154.4871  140.2105  155.9589 H   0  0  0  0  0  0  0  0  0  0  0  0  # atno 8009 bound_to 7997
  156.1290  140.3175  155.8326 H   0  0  0  0  0  0  0  0  0  0  0  0  # atno 8010 bound_to 7997
  139.5103  144.6340  151.5744 H   0  0  0  0  0  0  0  0  0  0  0  0  # atno 10167 bound_to 10162
  157.2298  131.0736  151.1860 H   0  0  0  0  0  0  0  0  0  0  0  0  # atno 10718 bound_to 10713
  154.7044  135.2994  154.9292 H   0  0  0  0  0  0  0  0  0  0  0  0  # atno 10763 bound_to 10752
  154.0213  135.6682  153.4777 H   0  0  0  0  0  0  0  0  0  0  0  0  # atno 10764 bound_to 10752
  153.0706  135.5063  154.8207 H   0  0  0  0  0  0  0  0  0  0  0  0  # atno 10765 bound_to 10752
  140.2734  134.7808  157.3695 H   0  0  0  0  0  0  0  0  0  0  0  0  # atno 11005 bound_to 11000
  146.3465  140.1886  142.8589 LP  0  0  0  0  0  0  0  0  0  0  0  0  # atno 17320 bound_to 7965
  145.0211  140.8794  143.5166 LP  0  0  0  0  0  0  0  0  0  0  0  0  # atno 17321 bound_to 7965
  140.6083  143.9484  150.6434 LP  0  0  0  0  0  0  0  0  0  0  0  0  # atno 17342 bound_to 10162
  140.2718  143.3450  152.1231 LP  0  0  0  0  0  0  0  0  0  0  0  0  # atno 17343 bound_to 10162
  157.3490  130.7072  149.6429 LP  0  0  0  0  0  0  0  0  0  0  0  0  # atno 17370 bound_to 10713
  155.9676  130.4258  150.4669 LP  0  0  0  0  0  0  0  0  0  0  0  0  # atno 17371 bound_to 10713
  140.1352  134.5044  155.8074 LP  0  0  0  0  0  0  0  0  0  0  0  0  # atno 17394 bound_to 11000
  141.2174  133.6804  156.7110 LP  0  0  0  0  0  0  0  0  0  0  0  0  # atno 17395 bound_to 11000

$$$$
