AV-unprocessed.smi:1613|AV-procd|sdf|6479|dock2
  -GOLD-   22720 7143D 1   1.00000     0.00000
 Structure written by MMmdl.
 53 55  0  0  0  0  0  0  0  0  2 V2000
  153.0411  139.7006  156.7539 O   0  0  0  0  0  0  0  0  0  0  0  0
  151.9142  139.9625  157.1713 C   0  0  0  0  0  0  0  0  0  0  0  0
  151.7179  140.3249  158.6542 C   0  0  0  0  0  0  0  0  0  0  0  0
  152.3423  141.5994  159.0595 N   0  0  0  0  0  0  0  0  0  0  0  0
  151.8104  142.7829  158.5198 C   0  0  0  0  0  0  0  0  0  0  0  0
  152.3421  143.9764  158.8209 C   0  0  0  0  0  0  0  0  0  0  0  0
  153.4935  143.9674  159.7327 C   0  0  0  0  0  0  0  0  0  0  0  0
  153.9797  142.8910  160.2270 N   0  0  0  0  0  0  0  0  0  0  0  0
  153.4186  141.6394  159.9125 C   0  0  0  0  0  0  0  0  0  0  0  0
  153.8877  140.6006  160.3776 O   0  0  0  0  0  0  0  0  0  0  0  0
  150.8279  139.9760  156.3825 N   0  0  0  0  0  0  0  0  0  0  0  0
  150.7968  139.7895  154.9352 C   0  0  2  0  0  0  0  0  0  0  0  0
  149.3485  139.7386  154.4084 C   0  0  0  0  0  0  0  0  0  0  0  0
  148.5960  138.5059  154.9415 C   0  0  0  0  0  0  0  0  0  0  0  0
  149.3210  137.2512  154.6141 N   0  3  2  0  0  0  0  0  0  0  0  0
  148.5743  136.0071  154.9432 C   0  0  0  0  0  0  0  0  0  0  0  0
  149.1105  134.7173  154.2647 C   0  0  0  0  0  0  0  0  0  0  0  0
  147.9595  133.9049  153.6355 C   0  0  0  0  0  0  0  0  0  0  0  0
  148.4698  132.6266  152.9511 C   0  0  0  0  0  0  0  0  0  0  0  0
  149.2594  131.7479  153.9320 C   0  0  0  0  0  0  0  0  0  0  0  0
  150.4069  132.5369  154.5785 C   0  0  0  0  0  0  0  0  0  0  0  0
  149.8924  133.8197  155.2518 C   0  0  0  0  0  0  0  0  0  0  0  0
  150.7279  137.2478  155.0979 C   0  0  0  0  0  0  0  0  0  0  0  0
  151.5026  138.4717  154.5711 C   0  0  0  0  0  0  0  0  0  0  0  0
  150.6462  140.3455  158.8571 H   0  0  0  0  0  0  0  0  0  0  0  0
  152.1072  139.5093  159.2664 H   0  0  0  0  0  0  0  0  0  0  0  0
  150.9663  142.6566  157.8574 H   0  0  0  0  0  0  0  0  0  0  0  0
  151.9844  144.9216  158.4405 H   0  0  0  0  0  0  0  0  0  0  0  0
  153.9146  144.9489  159.9648 H   0  0  0  0  0  0  0  0  0  0  0  0
  149.9461  140.1872  156.8269 H   0  0  0  0  0  0  0  0  0  0  0  0
  151.3281  140.6190  154.4654 H   0  0  0  0  0  0  0  0  0  0  0  0
  148.8092  140.6478  154.6765 H   0  0  0  0  0  0  0  0  0  0  0  0
  149.3624  139.7083  153.3183 H   0  0  0  0  0  0  0  0  0  0  0  0
  148.4693  138.5942  156.0204 H   0  0  0  0  0  0  0  0  0  0  0  0
  147.5974  138.4726  154.5049 H   0  0  0  0  0  0  0  0  0  0  0  0
  148.5587  135.8836  156.0268 H   0  0  0  0  0  0  0  0  0  0  0  0
  147.5329  136.1739  154.6644 H   0  0  0  0  0  0  0  0  0  0  0  0
  149.7832  134.9844  153.4508 H   0  0  0  0  0  0  0  0  0  0  0  0
  147.2306  133.6408  154.4028 H   0  0  0  0  0  0  0  0  0  0  0  0
  147.4297  134.5154  152.9033 H   0  0  0  0  0  0  0  0  0  0  0  0
  147.6305  132.0634  152.5419 H   0  0  0  0  0  0  0  0  0  0  0  0
  149.1044  132.8921  152.1050 H   0  0  0  0  0  0  0  0  0  0  0  0
  148.5903  131.3736  154.7079 H   0  0  0  0  0  0  0  0  0  0  0  0
  149.6535  130.8729  153.4146 H   0  0  0  0  0  0  0  0  0  0  0  0
  150.9185  131.9126  155.3116 H   0  0  0  0  0  0  0  0  0  0  0  0
  151.1486  132.7903  153.8212 H   0  0  0  0  0  0  0  0  0  0  0  0
  150.7374  134.3577  155.6790 H   0  0  0  0  0  0  0  0  0  0  0  0
  149.2499  133.5488  156.0909 H   0  0  0  0  0  0  0  0  0  0  0  0
  150.7558  137.2336  156.1875 H   0  0  0  0  0  0  0  0  0  0  0  0
  151.2255  136.3372  154.7627 H   0  0  0  0  0  0  0  0  0  0  0  0
  151.5968  138.3999  153.4869 H   0  0  0  0  0  0  0  0  0  0  0  0
  152.5199  138.4667  154.9647 H   0  0  0  0  0  0  0  0  0  0  0  0
  149.3943  137.2467  153.6067 H   0  0  0  0  0  0  0  0  0  0  0  0
  1  2  2  0  0  0  0
  2  3  1  0  0  0  0
  2 11  1  0  0  0  0
  3  4  1  0  0  0  0
  3 25  1  0  0  0  0
  3 26  1  0  0  0  0
  4  9  1  0  0  0  0
  4  5  1  0  0  0  0
  5  6  2  0  0  0  0
  5 27  1  0  0  0  0
  6  7  1  0  0  0  0
  6 28  1  0  0  0  0
  7  8  2  0  0  0  0
  7 29  1  0  0  0  0
  8  9  1  0  0  0  0
  9 10  2  0  0  0  0
 11 12  1  0  0  0  0
 11 30  1  0  0  0  0
 12 24  1  0  0  0  0
 12 13  1  0  0  0  0
 12 31  1  0  0  0  0
 13 14  1  0  0  0  0
 13 32  1  0  0  0  0
 13 33  1  0  0  0  0
 14 15  1  0  0  0  0
 14 34  1  0  0  0  0
 14 35  1  0  0  0  0
 15 16  1  0  0  0  0
 15 23  1  0  0  0  0
 15 53  1  0  0  0  0
 16 17  1  0  0  0  0
 16 36  1  0  0  0  0
 16 37  1  0  0  0  0
 17 22  1  0  0  0  0
 17 18  1  0  0  0  0
 17 38  1  0  0  0  0
 18 19  1  0  0  0  0
 18 39  1  0  0  0  0
 18 40  1  0  0  0  0
 19 20  1  0  0  0  0
 19 41  1  0  0  0  0
 19 42  1  0  0  0  0
 20 21  1  0  0  0  0
 20 43  1  0  0  0  0
 20 44  1  0  0  0  0
 21 22  1  0  0  0  0
 21 45  1  0  0  0  0
 21 46  1  0  0  0  0
 22 47  1  0  0  0  0
 22 48  1  0  0  0  0
 23 24  1  0  0  0  0
 23 49  1  0  0  0  0
 23 50  1  0  0  0  0
 24 51  1  0  0  0  0
 24 52  1  0  0  0  0
M  CHG  1  15   1
M  END
> <s_m_source_file>
AV-unprocessed.smi

> <i_m_source_file_index>
1613

> <i_lp_mmshare_version>
43012

> <i_f3d_flags>
0

> <s_epik_input>
Tz1jMW5bY0hdW2NIXVtjSF1uMVtDSDJdQyg9TylbTkhdW0NIXTJbQ0gyXVtDSDJdTihbQ0gyXVtDSDJdMilbQ0gyXVtDSF0zW0NIMl1bQ0gyXVtDSDJdW0NIMl1bQ0gyXTM=

> <s_epik_cmdline>
J2VwaWtfcHl0aG9uJywgJy1waCcsICc3LjAnLCAnLXRuJywgJzgnLCAnLW1hJywgJzIwMCcsICctbWV0YWxfYmluZGluZycsICctaW1hZScsICc8aW5maWxlLm1hZT4nLCAnLW9tYWUnLCAnPG91dGZpbGUubWFlPic=

> <r_lp_tautomer_probability>
1

> <r_epik_Ionization_Penalty>
0.00530026

> <r_epik_Ionization_Penalty_Charging>
0.00529416

> <r_epik_Ionization_Penalty_Neutral>
6.10215e-06

> <r_epik_State_Penalty>
0.00386377

> <r_epik_Charging_Adjusted_Penalty>
0.00915793

> <i_epik_Tot_Q>
1

> <i_epik_Tot_abs_Q>
1

> <r_epik_Metal_State_Penalty>
-0

> <b_epik_Metal_Only>
0

> <s_lp_Force_Field>
OPLS_2005

> <r_lp_Energy>
26.8521

> <b_lp_Chiralities_Consistent>
1

> <s_lp_Variant>
AV-unprocessed.smi:1613-2

> <Gold.Version>
5.8.1

> <Gold.Id.Protein>
6NUR|6NUR_protein|mol2

> <Gold.PLP.Fitness>
55.9458

> <Gold.PLP.PLP>
-47.6815

> <Gold.PLP.part.hbond>
-2.0000

> <Gold.PLP.part.metal>
0.0000

> <Gold.PLP.part.buried>
-3.1955

> <Gold.PLP.part.nonpolar>
-42.2432

> <Gold.PLP.part.repulsive>
0.0812

> <Gold.PLP.ligand.clash>
0.0000

> <Gold.PLP.ligand.torsion>
0.8604

> <Gold.PLP.Chemscore.Hbond>
3.0000

> <Gold.PLP.Chemscore.CHOScore>
0.2979

> <Gold.PLP.Chemscore.Metal>
0.0000

> <Gold.Chemscore.Hbonds>
donor molecule, donor type, donor heavy atom, donor atom, acceptor molecule, acceptor atom, score
      L1  H    15    53       P1  7948  1.84
      P1  H  7997  8010       L1     1  0.65

> <Gold.PLP.Chemscore.Internal.Correction>
0.0913

> <Gold.Rescore>
     Score         DG    S(hbond)    S(metal)    S(lipo)     H(rot)  DE(clash)    DE(int)     intcor
     17.75     -19.21       1.90        0.00     103.39       1.84       0.13       1.34       ----

> <Gold.Chemscore.Fitness>
17.7491

> <Gold.Chemscore.DG>
-19.2135

> <Gold.Chemscore.ZeroCoef>
-5.4800

> <Gold.Chemscore.Hbond>
1.9018

> <Gold.Chemscore.Metal>
0.0000

> <Gold.Chemscore.Lipo>
103.3867

> <Gold.Chemscore.Internal_Hbond>
0.0000

> <Gold.Chemscore.DEClash>
0.1251

> <Gold.Chemscore.DEInternal>
1.3393

> <Gold.Chemscore.Rot>
1.8417

> <Gold.Chemscore.Internal.Correction>
   9.000000E+99

> <Gold.Chemscore.Hbonds>
donor molecule, donor type, donor heavy atom, donor atom, acceptor molecule, acceptor atom, score
      L1  H    15    53       P1  7948  0.79
      P1  H  7997  8010       L1     1  0.65

> <Gold.Chemscore.Hbond.Weighted>
-6.3520

> <Gold.Chemscore.Metal.Weighted>
-0.0000

> <Gold.Chemscore.Lipo.Weighted>
-12.0962

> <Gold.Chemscore.Internal_Hbond.Weighted>
0.0000

> <Gold.Chemscore.DEClash.Weighted>
0.1251

> <Gold.Chemscore.DEInternal.Weighted>
1.3393

> <Gold.Chemscore.Rot.Weighted>
4.7147

> <Gold.Chemscore.Internal.Correction.Weighted>
   9.000000E+99

> <Gold.Protein.RotatedTorsions>
[ 6907 6896 6895 6894 ] final -144.14 input  -60.11 | X-H torsion
[ 7974 7965 7964 7962 ] final -154.74 input  175.53 | X-H torsion
[ 8008 7997 7996 7995 ] final   70.01 input   59.86 | X-H torsion
[ 10167 10162 10161 10158 ] final  166.24 input  -65.29 | X-H torsion
[ 10718 10713 10712 10709 ] final  -12.90 input   66.30 | X-H torsion
[ 10763 10752 10751 10750 ] final  -36.42 input  -60.55 | X-H torsion
[ 11005 11000 10999 10996 ] final  149.36 input  -57.11 | X-H torsion

> <Gold.Protein.ActiveResidues>
 VAL166  LYS551  ARG553  GLY616  TRP617  ASP618  TYR619  PRO620  LYS621  CYS622 
 ASP623  PHE694  ASN695  SER759  ASP760  ASP761  ALA762  ILE779  LEU786  VAL792 
 PHE793  MET794  SER795  GLU796  ALA797  LYS798  CYS799  TRP800  GLU811  SER814 

> <Gold.Protein.RotatedAtoms>
  151.1100  133.5180  159.2605 H   0  0  0  0  0  0  0  0  0  0  0  0  # atno 6907 bound_to 6896
  151.1978  135.0429  159.8869 H   0  0  0  0  0  0  0  0  0  0  0  0  # atno 6908 bound_to 6896
  152.5449  134.0932  159.8339 H   0  0  0  0  0  0  0  0  0  0  0  0  # atno 6909 bound_to 6896
  144.7674  140.4346  143.5932 H   0  0  0  0  0  0  0  0  0  0  0  0  # atno 7974 bound_to 7965
  155.7323  140.3491  155.5065 H   0  0  0  0  0  0  0  0  0  0  0  0  # atno 8008 bound_to 7997
  155.9171  140.1060  157.1257 H   0  0  0  0  0  0  0  0  0  0  0  0  # atno 8009 bound_to 7997
  154.4064  140.1257  156.4618 H   0  0  0  0  0  0  0  0  0  0  0  0  # atno 8010 bound_to 7997
  139.4921  144.4048  151.9368 H   0  0  0  0  0  0  0  0  0  0  0  0  # atno 10167 bound_to 10162
  156.6379  130.4920  149.6105 H   0  0  0  0  0  0  0  0  0  0  0  0  # atno 10718 bound_to 10713
  153.8795  135.6823  153.4768 H   0  0  0  0  0  0  0  0  0  0  0  0  # atno 10763 bound_to 10752
  153.1242  135.4726  154.9242 H   0  0  0  0  0  0  0  0  0  0  0  0  # atno 10764 bound_to 10752
  154.7675  135.3229  154.8207 H   0  0  0  0  0  0  0  0  0  0  0  0  # atno 10765 bound_to 10752
  140.1038  134.8966  157.1836 H   0  0  0  0  0  0  0  0  0  0  0  0  # atno 11005 bound_to 11000
  145.6427  139.1552  143.2906 LP  0  0  0  0  0  0  0  0  0  0  0  0  # atno 17320 bound_to 7965
  146.1793  140.6522  142.9196 LP  0  0  0  0  0  0  0  0  0  0  0  0  # atno 17321 bound_to 7965
  140.3488  144.3114  150.5953 LP  0  0  0  0  0  0  0  0  0  0  0  0  # atno 17342 bound_to 10162
  140.5503  143.2207  151.7938 LP  0  0  0  0  0  0  0  0  0  0  0  0  # atno 17343 bound_to 10162
  156.2182  130.6721  151.1341 LP  0  0  0  0  0  0  0  0  0  0  0  0  # atno 17370 bound_to 10713
  157.7180  131.0698  150.6251 LP  0  0  0  0  0  0  0  0  0  0  0  0  # atno 17371 bound_to 10713
  140.3183  134.2945  155.7251 LP  0  0  0  0  0  0  0  0  0  0  0  0  # atno 17394 bound_to 11000
  141.2113  133.7694  156.9875 LP  0  0  0  0  0  0  0  0  0  0  0  0  # atno 17395 bound_to 11000

$$$$
