AV-unprocessed.smi:1095|AV-procd|sdf|4747|dock8
  -GOLD-   22720 3283D 1   1.00000     0.00000
 Structure written by MMmdl.
 50 51  0  0  0  0  0  0  0  0  1 V2000
  151.3257  145.4407  160.0715 C   0  0  0  0  0  0  0  0  0  0  0  0
  152.1464  145.0834  158.8243 C   0  0  0  0  0  0  0  0  0  0  0  0
  152.4840  143.5835  158.7014 C   0  0  2  0  0  0  0  0  0  0  0  0
  151.2163  142.7597  158.4024 C   0  0  0  0  0  0  0  0  0  0  0  0
  151.5282  141.2614  158.2628 C   0  0  0  0  0  0  0  0  0  0  0  0
  152.2193  140.7027  159.5206 C   0  0  1  0  0  0  0  0  0  0  0  0
  152.5046  139.1940  159.3655 C   0  0  0  0  0  0  0  0  0  0  0  0
  153.4822  138.7312  160.3440 N   0  0  0  0  0  0  0  0  0  0  0  0
  153.8403  137.4542  160.5492 C   0  0  0  0  0  0  0  0  0  0  0  0
  153.2976  136.4943  160.0026 O   0  0  0  0  0  0  0  0  0  0  0  0
  155.0282  137.2306  161.4828 C   0  0  0  0  0  0  0  0  0  0  0  0
  154.7837  135.9819  162.2934 C   0  0  0  0  0  0  0  0  0  0  0  0
  154.8775  134.6258  161.8586 C   0  0  0  0  0  0  0  0  0  0  0  0
  155.2385  134.1021  160.4979 C   0  0  0  0  0  0  0  0  0  0  0  0
  154.5790  133.7664  162.8182 N   0  0  0  0  0  0  0  0  0  0  0  0
  154.2878  134.5320  163.8884 N   0  0  0  0  0  0  0  0  0  0  0  0
  153.9083  133.8957  165.1348 C   0  0  0  0  0  0  0  0  0  0  0  0
  154.3966  135.8791  163.6028 C   0  0  0  0  0  0  0  0  0  0  0  0
  154.1103  136.9361  164.6203 C   0  0  0  0  0  0  0  0  0  0  0  0
  153.4876  141.5275  159.8319 C   0  0  0  0  0  0  0  0  0  0  0  0
  153.1794  143.0277  159.9615 C   0  0  0  0  0  0  0  0  0  0  0  0
  151.1864  146.5195  160.1434 H   0  0  0  0  0  0  0  0  0  0  0  0
  151.8270  145.1106  160.9818 H   0  0  0  0  0  0  0  0  0  0  0  0
  150.3353  144.9867  160.0474 H   0  0  0  0  0  0  0  0  0  0  0  0
  151.6193  145.4204  157.9311 H   0  0  0  0  0  0  0  0  0  0  0  0
  153.0750  145.6543  158.8588 H   0  0  0  0  0  0  0  0  0  0  0  0
  153.1628  143.4614  157.8559 H   0  0  0  0  0  0  0  0  0  0  0  0
  150.4847  142.9059  159.1982 H   0  0  0  0  0  0  0  0  0  0  0  0
  150.7472  143.1166  157.4847 H   0  0  0  0  0  0  0  0  0  0  0  0
  150.6033  140.7158  158.0728 H   0  0  0  0  0  0  0  0  0  0  0  0
  152.1637  141.1025  157.3905 H   0  0  0  0  0  0  0  0  0  0  0  0
  151.5301  140.8238  160.3580 H   0  0  0  0  0  0  0  0  0  0  0  0
  151.5871  138.6272  159.5254 H   0  0  0  0  0  0  0  0  0  0  0  0
  152.8251  138.9716  158.3463 H   0  0  0  0  0  0  0  0  0  0  0  0
  153.9885  139.4455  160.8472 H   0  0  0  0  0  0  0  0  0  0  0  0
  155.9442  137.1572  160.8955 H   0  0  0  0  0  0  0  0  0  0  0  0
  155.1509  138.1066  162.1209 H   0  0  0  0  0  0  0  0  0  0  0  0
  155.9295  134.7714  159.9867 H   0  0  0  0  0  0  0  0  0  0  0  0
  154.3507  134.0015  159.8734 H   0  0  0  0  0  0  0  0  0  0  0  0
  155.7161  133.1234  160.5592 H   0  0  0  0  0  0  0  0  0  0  0  0
  152.8525  134.0819  165.3326 H   0  0  0  0  0  0  0  0  0  0  0  0
  154.5024  134.3043  165.9526 H   0  0  0  0  0  0  0  0  0  0  0  0
  154.0747  132.8187  165.0841 H   0  0  0  0  0  0  0  0  0  0  0  0
  154.0062  137.9155  164.1537 H   0  0  0  0  0  0  0  0  0  0  0  0
  154.9158  136.9951  165.3524 H   0  0  0  0  0  0  0  0  0  0  0  0
  153.1825  136.7252  165.1523 H   0  0  0  0  0  0  0  0  0  0  0  0
  153.9480  141.1871  160.7594 H   0  0  0  0  0  0  0  0  0  0  0  0
  154.2288  141.3736  159.0467 H   0  0  0  0  0  0  0  0  0  0  0  0
  154.1109  143.5608  160.1498 H   0  0  0  0  0  0  0  0  0  0  0  0
  152.5480  143.1933  160.8356 H   0  0  0  0  0  0  0  0  0  0  0  0
  1  2  1  0  0  0  0
  1 22  1  0  0  0  0
  1 23  1  0  0  0  0
  1 24  1  0  0  0  0
  2  3  1  0  0  0  0
  2 25  1  0  0  0  0
  2 26  1  0  0  0  0
  3 21  1  0  0  0  0
  3  4  1  0  0  0  0
  3 27  1  0  0  0  0
  4  5  1  0  0  0  0
  4 28  1  0  0  0  0
  4 29  1  0  0  0  0
  5  6  1  0  0  0  0
  5 30  1  0  0  0  0
  5 31  1  0  0  0  0
  6  7  1  0  0  0  0
  6 20  1  0  0  0  0
  6 32  1  0  0  0  0
  7  8  1  0  0  0  0
  7 33  1  0  0  0  0
  7 34  1  0  0  0  0
  8  9  1  0  0  0  0
  8 35  1  0  0  0  0
  9 10  2  0  0  0  0
  9 11  1  0  0  0  0
 11 12  1  0  0  0  0
 11 36  1  0  0  0  0
 11 37  1  0  0  0  0
 12 18  2  0  0  0  0
 12 13  1  0  0  0  0
 13 14  1  0  0  0  0
 13 15  2  0  0  0  0
 14 38  1  0  0  0  0
 14 39  1  0  0  0  0
 14 40  1  0  0  0  0
 15 16  1  0  0  0  0
 16 17  1  0  0  0  0
 16 18  1  0  0  0  0
 17 41  1  0  0  0  0
 17 42  1  0  0  0  0
 17 43  1  0  0  0  0
 18 19  1  0  0  0  0
 19 44  1  0  0  0  0
 19 45  1  0  0  0  0
 19 46  1  0  0  0  0
 20 21  1  0  0  0  0
 20 47  1  0  0  0  0
 20 48  1  0  0  0  0
 21 49  1  0  0  0  0
 21 50  1  0  0  0  0
M  END
> <s_m_source_file>
AV-unprocessed.smi

> <i_m_source_file_index>
1095

> <i_lp_mmshare_version>
43012

> <i_f3d_flags>
0

> <s_epik_input>
W0NIM11bQ0gyXVtDQEBIXTFbQ0gyXVtDSDJdW0NASF0oW0NIMl1bQ0gyXTEpW0NIMl1bTkhdQyg9TylbQ0gyXWMyYyhbQ0gzXSlubihbQ0gzXSljMltDSDNd

> <s_epik_cmdline>
J2VwaWtfcHl0aG9uJywgJy1waCcsICc3LjAnLCAnLXRuJywgJzgnLCAnLW1hJywgJzIwMCcsICctbWV0YWxfYmluZGluZycsICctaW1hZScsICc8aW5maWxlLm1hZT4nLCAnLW9tYWUnLCAnPG91dGZpbGUubWFlPic=

> <r_lp_tautomer_probability>
1

> <r_epik_Ionization_Penalty>
0.00317479

> <r_epik_Ionization_Penalty_Charging>
0

> <r_epik_Ionization_Penalty_Neutral>
0.00317479

> <r_epik_State_Penalty>
0.00223767

> <r_epik_Charging_Adjusted_Penalty>
0.00223767

> <i_epik_Tot_Q>
0

> <i_epik_Tot_abs_Q>
0

> <r_epik_Metal_State_Penalty>
-0

> <b_epik_Metal_Only>
0

> <s_lp_Force_Field>
OPLS_2005

> <r_lp_Energy>
5.54232

> <b_lp_Chiralities_Consistent>
1

> <s_lp_Variant>
AV-unprocessed.smi:1095-1

> <Gold.Version>
5.8.1

> <Gold.Id.Protein>
6NUR|6NUR_protein|mol2

> <Gold.PLP.Fitness>
50.4928

> <Gold.PLP.PLP>
-48.9365

> <Gold.PLP.part.hbond>
-1.0000

> <Gold.PLP.part.metal>
0.0000

> <Gold.PLP.part.buried>
-5.1516

> <Gold.PLP.part.nonpolar>
-43.4956

> <Gold.PLP.part.repulsive>
0.0484

> <Gold.PLP.ligand.clash>
0.0000

> <Gold.PLP.ligand.torsion>
0.7354

> <Gold.PLP.Chemscore.Hbond>
1.0000

> <Gold.PLP.Chemscore.CHOScore>
0.0000

> <Gold.PLP.Chemscore.Metal>
0.0000

> <Gold.Chemscore.Hbonds>
donor molecule, donor type, donor heavy atom, donor atom, acceptor molecule, acceptor atom, score
      P1  H  6896  6909       L1    10  1.00

> <Gold.PLP.Chemscore.Internal.Correction>
0.0271

> <Gold.Rescore>
     Score         DG    S(hbond)    S(metal)    S(lipo)     H(rot)  DE(clash)    DE(int)     intcor
     20.65     -21.43       1.00        0.00     139.22       1.43       0.06       0.73       ----

> <Gold.Chemscore.Fitness>
20.6494

> <Gold.Chemscore.DG>
-21.4328

> <Gold.Chemscore.ZeroCoef>
-5.4800

> <Gold.Chemscore.Hbond>
0.9983

> <Gold.Chemscore.Metal>
0.0000

> <Gold.Chemscore.Lipo>
139.2181

> <Gold.Chemscore.Internal_Hbond>
0.0000

> <Gold.Chemscore.DEClash>
0.0574

> <Gold.Chemscore.DEInternal>
0.7260

> <Gold.Chemscore.Rot>
1.4336

> <Gold.Chemscore.Internal.Correction>
   9.000000E+99

> <Gold.Chemscore.Hbonds>
donor molecule, donor type, donor heavy atom, donor atom, acceptor molecule, acceptor atom, score
      P1  H  6896  6909       L1    10  1.00

> <Gold.Chemscore.Hbond.Weighted>
-3.3342

> <Gold.Chemscore.Metal.Weighted>
-0.0000

> <Gold.Chemscore.Lipo.Weighted>
-16.2885

> <Gold.Chemscore.Internal_Hbond.Weighted>
0.0000

> <Gold.Chemscore.DEClash.Weighted>
0.0574

> <Gold.Chemscore.DEInternal.Weighted>
0.7260

> <Gold.Chemscore.Rot.Weighted>
3.6700

> <Gold.Chemscore.Internal.Correction.Weighted>
   9.000000E+99

> <Gold.Protein.RotatedTorsions>
[ 6907 6896 6895 6894 ] final  164.33 input  -60.11 | X-H torsion
[ 7974 7965 7964 7962 ] final -146.35 input  175.53 | X-H torsion
[ 8008 7997 7996 7995 ] final  -12.01 input   59.86 | X-H torsion
[ 10167 10162 10161 10158 ] final   83.55 input  -65.29 | X-H torsion
[ 10718 10713 10712 10709 ] final    8.04 input   66.30 | X-H torsion
[ 10763 10752 10751 10750 ] final  -24.72 input  -60.55 | X-H torsion
[ 11005 11000 10999 10996 ] final   -4.56 input  -57.11 | X-H torsion

> <Gold.Protein.ActiveResidues>
 VAL166  LYS551  ARG553  GLY616  TRP617  ASP618  TYR619  PRO620  LYS621  CYS622 
 ASP623  PHE694  ASN695  SER759  ASP760  ASP761  ALA762  ILE779  LEU786  VAL792 
 PHE793  MET794  SER795  GLU796  ALA797  LYS798  CYS799  TRP800  GLU811  SER814 

> <Gold.Protein.RotatedAtoms>
  151.9115  133.3562  159.3865 H   0  0  0  0  0  0  0  0  0  0  0  0  # atno 6907 bound_to 6896
  150.7057  134.4727  159.5442 H   0  0  0  0  0  0  0  0  0  0  0  0  # atno 6908 bound_to 6896
  152.2334  134.8300  160.0521 H   0  0  0  0  0  0  0  0  0  0  0  0  # atno 6909 bound_to 6896
  144.8165  140.5467  143.5607 H   0  0  0  0  0  0  0  0  0  0  0  0  # atno 7974 bound_to 7965
  154.5415  140.2287  155.8634 H   0  0  0  0  0  0  0  0  0  0  0  0  # atno 8008 bound_to 7997
  156.1862  140.3088  155.9206 H   0  0  0  0  0  0  0  0  0  0  0  0  # atno 8009 bound_to 7997
  155.3249  140.0442  157.3031 H   0  0  0  0  0  0  0  0  0  0  0  0  # atno 8010 bound_to 7997
  139.9172  144.6235  150.8476 H   0  0  0  0  0  0  0  0  0  0  0  0  # atno 10167 bound_to 10162
  156.9458  130.5878  149.5654 H   0  0  0  0  0  0  0  0  0  0  0  0  # atno 10718 bound_to 10713
  153.6883  135.6963  153.5097 H   0  0  0  0  0  0  0  0  0  0  0  0  # atno 10763 bound_to 10752
  153.2433  135.4299  155.0720 H   0  0  0  0  0  0  0  0  0  0  0  0  # atno 10764 bound_to 10752
  154.8380  135.3513  154.6425 H   0  0  0  0  0  0  0  0  0  0  0  0  # atno 10765 bound_to 10752
  140.6816  133.9148  155.8559 H   0  0  0  0  0  0  0  0  0  0  0  0  # atno 11005 bound_to 11000
  145.5202  139.1477  143.3557 LP  0  0  0  0  0  0  0  0  0  0  0  0  # atno 17320 bound_to 7965
  146.2469  140.5342  142.8910 LP  0  0  0  0  0  0  0  0  0  0  0  0  # atno 17321 bound_to 7965
  140.7671  143.3322  151.2385 LP  0  0  0  0  0  0  0  0  0  0  0  0  # atno 17342 bound_to 10162
  139.6892  143.9721  152.2850 LP  0  0  0  0  0  0  0  0  0  0  0  0  # atno 17343 bound_to 10162
  156.0384  130.5469  150.8711 LP  0  0  0  0  0  0  0  0  0  0  0  0  # atno 17370 bound_to 10713
  157.5755  131.0946  150.9352 LP  0  0  0  0  0  0  0  0  0  0  0  0  # atno 17371 bound_to 10713
  141.0313  134.0753  157.4011 LP  0  0  0  0  0  0  0  0  0  0  0  0  # atno 17394 bound_to 11000
  139.8950  135.0139  156.6979 LP  0  0  0  0  0  0  0  0  0  0  0  0  # atno 17395 bound_to 11000

$$$$
