AV-unprocessed.smi:2775|AV-procd|sdf|10702|dock4
  -GOLD-   2272015143D 1   1.00000     0.00000
 Structure written by MMmdl.
 43 46  0  0  0  0  0  0  0  0  2 V2000
  150.2961  145.2331  159.6972 C   0  0  0  0  0  0  0  0  0  0  0  0
  150.9376  144.0009  159.0887 C   0  0  0  0  0  0  0  0  0  0  0  0
  150.6794  143.7346  157.7897 N   0  3  0  0  0  0  0  0  0  0  0  0
  151.1878  142.6650  157.1438 C   0  0  0  0  0  0  0  0  0  0  0  0
  152.0326  141.7676  157.8255 C   0  0  0  0  0  0  0  0  0  0  0  0
  152.3467  142.0040  159.1887 C   0  0  0  0  0  0  0  0  0  0  0  0
  153.1796  141.1551  159.9709 N   0  0  0  0  0  0  0  0  0  0  0  0
  153.9203  140.0899  159.6093 C   0  0  0  0  0  0  0  0  0  0  0  0
  154.0549  139.6809  158.4589 O   0  0  0  0  0  0  0  0  0  0  0  0
  154.5444  139.4914  160.6383 N   0  0  0  0  0  0  0  0  0  0  0  0
  155.4184  138.3192  160.5890 C   0  0  2  0  0  0  0  0  0  0  0  0
  154.9846  137.3173  159.5170 C   0  0  1  0  0  0  0  0  0  0  0  0
  155.5504  136.8884  158.2117 C   0  0  0  0  0  0  0  0  0  0  0  0
  155.3413  135.3625  158.3862 C   0  0  0  0  0  0  0  0  0  0  0  0
  154.9419  135.1742  159.7657 O   0  0  0  0  0  0  0  0  0  0  0  0
  155.5385  136.2563  160.4547 C   0  0  2  0  0  0  0  0  0  0  0  0
  155.0113  137.1700  161.5710 C   0  0  0  0  0  0  0  0  0  0  0  0
  153.6017  136.9846  162.1631 C   0  0  0  0  0  0  0  0  0  0  0  0
  154.2647  136.3581  163.3942 C   0  0  0  0  0  0  0  0  0  0  0  0
  155.5686  137.0584  162.9957 C   0  0  0  0  0  0  0  0  0  0  0  0
  151.7798  143.1359  159.8262 C   0  0  0  0  0  0  0  0  0  0  0  0
  152.1111  143.4627  161.4952 Cl  0  0  0  0  0  0  0  0  0  0  0  0
  151.0617  145.9225  160.0551 H   0  0  0  0  0  0  0  0  0  0  0  0
  149.6623  144.9542  160.5395 H   0  0  0  0  0  0  0  0  0  0  0  0
  149.6782  145.7611  158.9697 H   0  0  0  0  0  0  0  0  0  0  0  0
  150.9013  142.5565  156.1078 H   0  0  0  0  0  0  0  0  0  0  0  0
  152.4101  140.9151  157.2839 H   0  0  0  0  0  0  0  0  0  0  0  0
  153.2240  141.3944  160.9510 H   0  0  0  0  0  0  0  0  0  0  0  0
  154.4056  139.8990  161.5520 H   0  0  0  0  0  0  0  0  0  0  0  0
  156.4894  138.5386  160.5672 H   0  0  0  0  0  0  0  0  0  0  0  0
  153.8897  137.2876  159.4658 H   0  0  0  0  0  0  0  0  0  0  0  0
  155.0046  137.2926  157.3588 H   0  0  0  0  0  0  0  0  0  0  0  0
  156.6056  137.1487  158.1188 H   0  0  0  0  0  0  0  0  0  0  0  0
  154.5652  134.9778  157.7240 H   0  0  0  0  0  0  0  0  0  0  0  0
  156.2639  134.8186  158.1795 H   0  0  0  0  0  0  0  0  0  0  0  0
  156.6314  136.1874  160.4489 H   0  0  0  0  0  0  0  0  0  0  0  0
  153.1008  137.9251  162.3955 H   0  0  0  0  0  0  0  0  0  0  0  0
  152.9527  136.3082  161.6061 H   0  0  0  0  0  0  0  0  0  0  0  0
  153.8479  136.6785  164.3495 H   0  0  0  0  0  0  0  0  0  0  0  0
  154.3332  135.2712  163.3265 H   0  0  0  0  0  0  0  0  0  0  0  0
  156.4632  136.4424  163.0905 H   0  0  0  0  0  0  0  0  0  0  0  0
  155.6896  138.0226  163.4892 H   0  0  0  0  0  0  0  0  0  0  0  0
  150.0686  144.3690  157.2743 H   0  0  0  0  0  0  0  0  0  0  0  0
  1  2  1  0  0  0  0
  1 23  1  0  0  0  0
  1 24  1  0  0  0  0
  1 25  1  0  0  0  0
  2 21  1  0  0  0  0
  2  3  2  0  0  0  0
  3  4  1  0  0  0  0
  3 43  1  0  0  0  0
  4  5  2  0  0  0  0
  4 26  1  0  0  0  0
  5  6  1  0  0  0  0
  5 27  1  0  0  0  0
  6  7  1  0  0  0  0
  6 21  2  0  0  0  0
  7  8  1  0  0  0  0
  7 28  1  0  0  0  0
  8  9  2  0  0  0  0
  8 10  1  0  0  0  0
 10 11  1  0  0  0  0
 10 29  1  0  0  0  0
 11 17  1  0  0  0  0
 11 12  1  0  0  0  0
 11 30  1  0  0  0  0
 12 16  1  0  0  0  0
 12 13  1  0  0  0  0
 12 31  1  0  0  0  0
 13 14  1  0  0  0  0
 13 32  1  0  0  0  0
 13 33  1  0  0  0  0
 14 15  1  0  0  0  0
 14 34  1  0  0  0  0
 14 35  1  0  0  0  0
 15 16  1  0  0  0  0
 16 17  1  0  0  0  0
 16 36  1  0  0  0  0
 17 20  1  0  0  0  0
 17 18  1  0  0  0  0
 18 19  1  0  0  0  0
 18 37  1  0  0  0  0
 18 38  1  0  0  0  0
 19 20  1  0  0  0  0
 19 39  1  0  0  0  0
 19 40  1  0  0  0  0
 20 41  1  0  0  0  0
 20 42  1  0  0  0  0
 21 22  1  0  0  0  0
M  CHG  1   3   1
M  END
> <s_m_source_file>
AV-unprocessed.smi

> <i_m_source_file_index>
2775

> <i_lp_mmshare_version>
43012

> <i_f3d_flags>
0

> <s_epik_input>
W0NIM11jMW5bY0hdW2NIXWMoYzFDbClbTkhdQyg9TylbTkhdW0NAQEhdMltDQEhdKFtDSDJdW0NIMl1PMylbQ0BASF0zQzI0W0NIMl1bQ0gyXVtDSDJdNA==

> <s_epik_cmdline>
J2VwaWtfcHl0aG9uJywgJy1waCcsICc3LjAnLCAnLXRuJywgJzgnLCAnLW1hJywgJzIwMCcsICctbWV0YWxfYmluZGluZycsICctaW1hZScsICc8aW5maWxlLm1hZT4nLCAnLW9tYWUnLCAnPG91dGZpbGUubWFlPic=

> <r_epik_Ionization_Penalty>
2.4104

> <r_epik_Ionization_Penalty_Charging>
2.41038

> <r_epik_Ionization_Penalty_Neutral>
1.9872e-05

> <r_epik_State_Penalty>
2.56896

> <r_epik_Charging_Adjusted_Penalty>
4.97934

> <i_epik_Tot_Q>
1

> <i_epik_Tot_abs_Q>
1

> <r_epik_Metal_State_Penalty>
2.57906

> <b_epik_Metal_Only>
0

> <s_lp_Force_Field>
OPLS_2005

> <r_lp_Energy>
84.5881

> <b_lp_Chiralities_Consistent>
1

> <s_lp_Variant>
AV-unprocessed.smi:2775-15

> <Gold.Version>
5.8.1

> <Gold.Id.Protein>
6NUR|6NUR_protein|mol2

> <Gold.PLP.Fitness>
48.5122

> <Gold.PLP.PLP>
-36.9169

> <Gold.PLP.part.hbond>
-3.0000

> <Gold.PLP.part.metal>
0.0000

> <Gold.PLP.part.buried>
-5.6490

> <Gold.PLP.part.nonpolar>
-28.3599

> <Gold.PLP.part.repulsive>
0.1360

> <Gold.PLP.ligand.clash>
0.0000

> <Gold.PLP.ligand.torsion>
0.2126

> <Gold.PLP.Chemscore.Hbond>
3.9000

> <Gold.PLP.Chemscore.CHOScore>
0.0000

> <Gold.PLP.Chemscore.Metal>
0.0000

> <Gold.Chemscore.Hbonds>
donor molecule, donor type, donor heavy atom, donor atom, acceptor molecule, acceptor atom, score
      L1  H     3    43       P1  8028  2.00
      P1  H  7997  8010       L1     9  0.96

> <Gold.PLP.Chemscore.Internal.Correction>
0.3206

> <Gold.Rescore>
     Score         DG    S(hbond)    S(metal)    S(lipo)     H(rot)  DE(clash)    DE(int)     intcor
     19.94     -23.49       2.11        0.00     115.53       1.00       0.75       2.80       ----

> <Gold.Chemscore.Fitness>
19.9438

> <Gold.Chemscore.DG>
-23.4908

> <Gold.Chemscore.ZeroCoef>
-5.4800

> <Gold.Chemscore.Hbond>
2.1120

> <Gold.Chemscore.Metal>
0.0000

> <Gold.Chemscore.Lipo>
115.5284

> <Gold.Chemscore.Internal_Hbond>
0.0000

> <Gold.Chemscore.DEClash>
0.7504

> <Gold.Chemscore.DEInternal>
2.7967

> <Gold.Chemscore.Rot>
1.0000

> <Gold.Chemscore.Internal.Correction>
   9.000000E+99

> <Gold.Chemscore.Hbonds>
donor molecule, donor type, donor heavy atom, donor atom, acceptor molecule, acceptor atom, score
      L1  H     3    43       P1  8028  0.51
      P1  H  7997  8010       L1     9  0.91

> <Gold.Chemscore.Hbond.Weighted>
-7.0540

> <Gold.Chemscore.Metal.Weighted>
-0.0000

> <Gold.Chemscore.Lipo.Weighted>
-13.5168

> <Gold.Chemscore.Internal_Hbond.Weighted>
0.0000

> <Gold.Chemscore.DEClash.Weighted>
0.7504

> <Gold.Chemscore.DEInternal.Weighted>
2.7967

> <Gold.Chemscore.Rot.Weighted>
2.5600

> <Gold.Chemscore.Internal.Correction.Weighted>
   9.000000E+99

> <Gold.Protein.RotatedTorsions>
[ 6907 6896 6895 6894 ] final -178.55 input  -60.11 | X-H torsion
[ 7974 7965 7964 7962 ] final -121.76 input  175.53 | X-H torsion
[ 8008 7997 7996 7995 ] final    8.25 input   59.86 | X-H torsion
[ 10167 10162 10161 10158 ] final  151.59 input  -65.29 | X-H torsion
[ 10718 10713 10712 10709 ] final   97.38 input   66.30 | X-H torsion
[ 10763 10752 10751 10750 ] final   -1.23 input  -60.55 | X-H torsion
[ 11005 11000 10999 10996 ] final   87.43 input  -57.11 | X-H torsion

> <Gold.Protein.ActiveResidues>
 VAL166  LYS551  ARG553  GLY616  TRP617  ASP618  TYR619  PRO620  LYS621  CYS622 
 ASP623  PHE694  ASN695  SER759  ASP760  ASP761  ALA762  ILE779  LEU786  VAL792 
 PHE793  MET794  SER795  GLU796  ALA797  LYS798  CYS799  TRP800  GLU811  SER814 

> <Gold.Protein.RotatedAtoms>
  151.6391  133.3327  159.3125 H   0  0  0  0  0  0  0  0  0  0  0  0  # atno 6907 bound_to 6896
  150.8017  134.7119  159.6618 H   0  0  0  0  0  0  0  0  0  0  0  0  # atno 6908 bound_to 6896
  152.4110  134.6129  160.0082 H   0  0  0  0  0  0  0  0  0  0  0  0  # atno 6909 bound_to 6896
  145.0368  140.8112  143.4290 H   0  0  0  0  0  0  0  0  0  0  0  0  # atno 7974 bound_to 7965
  154.7644  140.2790  155.6188 H   0  0  0  0  0  0  0  0  0  0  0  0  # atno 8008 bound_to 7997
  156.2922  140.2653  156.2358 H   0  0  0  0  0  0  0  0  0  0  0  0  # atno 8009 bound_to 7997
  154.9977  140.0373  157.2336 H   0  0  0  0  0  0  0  0  0  0  0  0  # atno 8010 bound_to 7997
  139.4839  144.5428  151.7535 H   0  0  0  0  0  0  0  0  0  0  0  0  # atno 10167 bound_to 10162
  157.6913  131.0607  150.4634 H   0  0  0  0  0  0  0  0  0  0  0  0  # atno 10718 bound_to 10713
  153.3422  135.6981  153.6857 H   0  0  0  0  0  0  0  0  0  0  0  0  # atno 10763 bound_to 10752
  153.5618  135.3533  155.2803 H   0  0  0  0  0  0  0  0  0  0  0  0  # atno 10764 bound_to 10752
  154.8638  135.4251  154.2638 H   0  0  0  0  0  0  0  0  0  0  0  0  # atno 10765 bound_to 10752
  139.8920  134.8421  156.2858 H   0  0  0  0  0  0  0  0  0  0  0  0  # atno 11005 bound_to 11000
  145.1699  139.2410  143.5347 LP  0  0  0  0  0  0  0  0  0  0  0  0  # atno 17320 bound_to 7965
  146.3505  140.1447  142.8593 LP  0  0  0  0  0  0  0  0  0  0  0  0  # atno 17321 bound_to 7965
  140.4970  144.1226  150.5962 LP  0  0  0  0  0  0  0  0  0  0  0  0  # atno 17342 bound_to 10162
  140.4106  143.2659  151.9838 LP  0  0  0  0  0  0  0  0  0  0  0  0  # atno 17343 bound_to 10162
  156.4977  130.4110  149.6371 LP  0  0  0  0  0  0  0  0  0  0  0  0  # atno 17370 bound_to 10713
  156.3357  130.7355  151.2292 LP  0  0  0  0  0  0  0  0  0  0  0  0  # atno 17371 bound_to 10713
  141.0008  133.7152  156.0958 LP  0  0  0  0  0  0  0  0  0  0  0  0  # atno 17394 bound_to 11000
  140.7500  134.4056  157.5543 LP  0  0  0  0  0  0  0  0  0  0  0  0  # atno 17395 bound_to 11000

$$$$
