AV-unprocessed.smi:69|AV-procd|sdf|656|dock7
  -GOLD-   2262016553D 1   1.00000     0.00000
 Structure written by MMmdl.
 32 34  0  0  0  0  0  0  0  0  1 V2000
  152.9491  139.2921  158.8155 N   0  0  0  0  0  0  0  0  0  0  0  0
  152.5337  139.4245  157.5483 C   0  0  0  0  0  0  0  0  0  0  0  0
  153.3072  138.9153  156.5605 N   0  0  0  0  0  0  0  0  0  0  0  0
  152.9116  139.0297  155.2880 C   0  0  0  0  0  0  0  0  0  0  0  0
  151.8062  139.6037  154.8039 N   0  0  0  0  0  0  0  0  0  0  0  0
  151.0313  140.1183  155.8035 C   0  0  0  0  0  0  0  0  0  0  0  0
  151.3220  140.0697  157.1941 C   0  0  0  0  0  0  0  0  0  0  0  0
  150.3064  140.6891  157.9099 N   0  0  0  0  0  0  0  0  0  0  0  0
  149.4631  141.0760  156.9898 C   0  0  0  0  0  0  0  0  0  0  0  0
  149.8288  140.7818  155.6917 N   0  0  0  0  0  0  0  0  0  0  0  0
  149.1033  141.0573  154.4101 C   0  0  1  0  0  0  0  0  0  0  0  0
  148.8379  139.8358  153.7881 O   0  0  0  0  0  0  0  0  0  0  0  0
  147.5206  139.4111  154.1215 C   0  0  2  0  0  0  0  0  0  0  0  0
  147.0260  138.3119  153.1654 C   0  0  0  0  0  0  0  0  0  0  0  0
  147.3814  138.6319  151.8370 O   0  0  0  0  0  0  0  0  0  0  0  0
  146.7474  140.7340  154.0733 C   0  0  2  0  0  0  0  0  0  0  0  0
  146.4248  141.0724  152.7338 O   0  0  0  0  0  0  0  0  0  0  0  0
  147.7386  141.7108  154.7060 C   0  0  2  0  0  0  0  0  0  0  0  0
  147.6187  143.0243  154.1918 O   0  0  0  0  0  0  0  0  0  0  0  0
  149.7927  141.6636  153.8208 H   0  0  0  0  0  0  0  0  0  0  0  0
  147.5076  139.0448  155.1500 H   0  0  0  0  0  0  0  0  0  0  0  0
  145.8187  140.6810  154.6424 H   0  0  0  0  0  0  0  0  0  0  0  0
  147.5747  141.7392  155.7846 H   0  0  0  0  0  0  0  0  0  0  0  0
  152.3875  139.6623  159.5688 H   0  0  0  0  0  0  0  0  0  0  0  0
  153.8172  138.8167  159.0154 H   0  0  0  0  0  0  0  0  0  0  0  0
  153.5757  138.5999  154.5527 H   0  0  0  0  0  0  0  0  0  0  0  0
  148.5462  141.5894  157.2417 H   0  0  0  0  0  0  0  0  0  0  0  0
  147.5001  137.3609  153.4099 H   0  0  0  0  0  0  0  0  0  0  0  0
  145.9478  138.1695  153.2441 H   0  0  0  0  0  0  0  0  0  0  0  0
  148.2513  139.0008  151.8395 H   0  0  0  0  0  0  0  0  0  0  0  0
  145.6426  140.6009  152.4895 H   0  0  0  0  0  0  0  0  0  0  0  0
  148.2501  143.5738  154.6312 H   0  0  0  0  0  0  0  0  0  0  0  0
  1  2  1  0  0  0  0
  1 24  1  0  0  0  0
  1 25  1  0  0  0  0
  2  7  1  0  0  0  0
  2  3  2  0  0  0  0
  3  4  1  0  0  0  0
  4  5  2  0  0  0  0
  4 26  1  0  0  0  0
  5  6  1  0  0  0  0
  6 10  1  0  0  0  0
  6  7  2  0  0  0  0
  7  8  1  0  0  0  0
  8  9  2  0  0  0  0
  9 10  1  0  0  0  0
  9 27  1  0  0  0  0
 10 11  1  0  0  0  0
 11 20  1  0  0  0  0
 11 18  1  0  0  0  0
 11 12  1  0  0  0  0
 12 13  1  0  0  0  0
 13 21  1  0  0  0  0
 13 14  1  0  0  0  0
 13 16  1  0  0  0  0
 14 15  1  0  0  0  0
 14 28  1  0  0  0  0
 14 29  1  0  0  0  0
 15 30  1  0  0  0  0
 16 22  1  0  0  0  0
 16 17  1  0  0  0  0
 16 18  1  0  0  0  0
 17 31  1  0  0  0  0
 18 23  1  0  0  0  0
 18 19  1  0  0  0  0
 19 32  1  0  0  0  0
M  END
> <s_m_source_file>
AV-unprocessed.smi

> <i_m_source_file_index>
69

> <i_lp_mmshare_version>
43012

> <i_f3d_flags>
0

> <s_epik_input>
bjFbY0hdbmMoW05IMl0pYyhjMTIpbltjSF1uMltDQEBIXTNPW0NASF0oW0NIMl1bT0hdKVtDQEBIXShbT0hdKVtDQEhdM1tPSF0=

> <s_epik_cmdline>
J2VwaWtfcHl0aG9uJywgJy1waCcsICc3LjAnLCAnLXRuJywgJzgnLCAnLW1hJywgJzIwMCcsICctbWV0YWxfYmluZGluZycsICctaW1hZScsICc8aW5maWxlLm1hZT4nLCAnLW9tYWUnLCAnPG91dGZpbGUubWFlPic=

> <r_lp_tautomer_probability>
1

> <r_epik_Ionization_Penalty>
0.000428445

> <r_epik_Ionization_Penalty_Charging>
0

> <r_epik_Ionization_Penalty_Neutral>
0.000428445

> <r_epik_State_Penalty>
-0

> <r_epik_Charging_Adjusted_Penalty>
0

> <i_epik_Tot_Q>
0

> <i_epik_Tot_abs_Q>
0

> <r_epik_Metal_State_Penalty>
-0

> <b_epik_Metal_Only>
0

> <s_epik_Chemistry_Notes>
This compound contains an acetal/aminal-like group ( X-CH(R)-Y where X, Y are N, S, or O) that may be acid/base labile, releasing an aldehyde.

> <s_lp_Force_Field>
OPLS_2005

> <r_lp_Energy>
39.6726

> <b_lp_Chiralities_Consistent>
1

> <s_lp_Variant>
AV-unprocessed.smi:69-14

> <Gold.Version>
5.8.1

> <Gold.Id.Protein>
6NUR|6NUR_protein|mol2

> <Gold.PLP.Fitness>
40.4242

> <Gold.PLP.PLP>
-26.6376

> <Gold.PLP.part.hbond>
-8.1678

> <Gold.PLP.part.metal>
0.0000

> <Gold.PLP.part.buried>
-1.3198

> <Gold.PLP.part.nonpolar>
-19.6888

> <Gold.PLP.part.repulsive>
2.4113

> <Gold.PLP.ligand.clash>
0.0000

> <Gold.PLP.ligand.torsion>
0.1312

> <Gold.PLP.Chemscore.Hbond>
4.6750

> <Gold.PLP.Chemscore.CHOScore>
0.0000

> <Gold.PLP.Chemscore.Metal>
0.0000

> <Gold.Chemscore.Hbonds>
donor molecule, donor type, donor heavy atom, donor atom, acceptor molecule, acceptor atom, score
      L1  H    15    30       P1  7957  1.00
      L1  H    17    31       P1 10175  0.98
      L1  H    19    32       P1  8028  1.00
      P1  H  7989  7998       L1     5  1.00
      P1  H  7997  8009       L1     3  0.72

> <Gold.PLP.Chemscore.Internal.Correction>
0.0240

> <Gold.Rescore>
     Score         DG    S(hbond)    S(metal)    S(lipo)     H(rot)  DE(clash)    DE(int)     intcor
      6.29      -8.31       3.07        0.00      24.63       4.03       1.86       0.16       ----

> <Gold.Chemscore.Fitness>
6.2928

> <Gold.Chemscore.DG>
-8.3126

> <Gold.Chemscore.ZeroCoef>
-5.4800

> <Gold.Chemscore.Hbond>
3.0725

> <Gold.Chemscore.Metal>
0.0000

> <Gold.Chemscore.Lipo>
24.6278

> <Gold.Chemscore.Internal_Hbond>
0.0000

> <Gold.Chemscore.DEClash>
1.8639

> <Gold.Chemscore.DEInternal>
0.1559

> <Gold.Chemscore.Rot>
4.0277

> <Gold.Chemscore.Internal.Correction>
   9.000000E+99

> <Gold.Chemscore.Hbonds>
donor molecule, donor type, donor heavy atom, donor atom, acceptor molecule, acceptor atom, score
      L1  H    15    30       P1  7957  0.91
      L1  H    17    31       P1 10175  0.32
      L1  H    19    32       P1  8028  0.93
      P1  H  7989  7998       L1     5  0.38
      P1  H  7997  8009       L1     3  0.02

> <Gold.Chemscore.Hbond.Weighted>
-10.2622

> <Gold.Chemscore.Metal.Weighted>
-0.0000

> <Gold.Chemscore.Lipo.Weighted>
-2.8814

> <Gold.Chemscore.Internal_Hbond.Weighted>
0.0000

> <Gold.Chemscore.DEClash.Weighted>
1.8639

> <Gold.Chemscore.DEInternal.Weighted>
0.1559

> <Gold.Chemscore.Rot.Weighted>
10.3110

> <Gold.Chemscore.Internal.Correction.Weighted>
   9.000000E+99

> <Gold.Protein.RotatedTorsions>
[ 6907 6896 6895 6894 ] final   54.50 input  -60.11 | X-H torsion
[ 7974 7965 7964 7962 ] final -148.17 input  175.53 | X-H torsion
[ 8008 7997 7996 7995 ] final -176.69 input   59.86 | X-H torsion
[ 10167 10162 10161 10158 ] final  105.17 input  -65.29 | X-H torsion
[ 10718 10713 10712 10709 ] final   38.97 input   66.30 | X-H torsion
[ 10763 10752 10751 10750 ] final   64.56 input  -60.55 | X-H torsion
[ 11005 11000 10999 10996 ] final -163.61 input  -57.11 | X-H torsion

> <Gold.Protein.ActiveResidues>
 VAL166  LYS551  ARG553  GLY616  TRP617  ASP618  TYR619  PRO620  LYS621  CYS622 
 ASP623  PHE694  ASN695  SER759  ASP760  ASP761  ALA762  ILE779  LEU786  VAL792 
 PHE793  MET794  SER795  GLU796  ALA797  LYS798  CYS799  TRP800  GLU811  SER814 

> <Gold.Protein.RotatedAtoms>
  152.3445  134.7090  160.0254 H   0  0  0  0  0  0  0  0  0  0  0  0  # atno 6907 bound_to 6896
  151.7464  133.3319  159.3388 H   0  0  0  0  0  0  0  0  0  0  0  0  # atno 6908 bound_to 6896
  150.7500  134.6164  159.6158 H   0  0  0  0  0  0  0  0  0  0  0  0  # atno 6909 bound_to 6896
  144.8046  140.5231  143.5683 H   0  0  0  0  0  0  0  0  0  0  0  0  # atno 7974 bound_to 7965
  155.9979  140.1214  157.0575 H   0  0  0  0  0  0  0  0  0  0  0  0  # atno 8008 bound_to 7997
  154.4233  140.1112  156.5725 H   0  0  0  0  0  0  0  0  0  0  0  0  # atno 8009 bound_to 7997
  155.6253  140.3472  155.4667 H   0  0  0  0  0  0  0  0  0  0  0  0  # atno 8010 bound_to 7997
  139.7115  144.7076  151.1019 H   0  0  0  0  0  0  0  0  0  0  0  0  # atno 10167 bound_to 10162
  157.3651  130.7671  149.7077 H   0  0  0  0  0  0  0  0  0  0  0  0  # atno 10718 bound_to 10713
  153.0060  135.5388  154.6529 H   0  0  0  0  0  0  0  0  0  0  0  0  # atno 10763 bound_to 10752
  154.5757  135.2845  155.0786 H   0  0  0  0  0  0  0  0  0  0  0  0  # atno 10764 bound_to 10752
  154.1934  135.6496  153.5119 H   0  0  0  0  0  0  0  0  0  0  0  0  # atno 10765 bound_to 10752
  140.5962  134.4994  157.5199 H   0  0  0  0  0  0  0  0  0  0  0  0  # atno 11005 bound_to 11000
  145.5469  139.1476  143.3416 LP  0  0  0  0  0  0  0  0  0  0  0  0  # atno 17320 bound_to 7965
  146.2335  140.5608  142.8965 LP  0  0  0  0  0  0  0  0  0  0  0  0  # atno 17321 bound_to 7965
  140.7734  143.5286  150.9450 LP  0  0  0  0  0  0  0  0  0  0  0  0  # atno 17342 bound_to 10162
  139.8971  143.6881  152.3137 LP  0  0  0  0  0  0  0  0  0  0  0  0  # atno 17343 bound_to 10162
  155.9744  130.4103  150.3922 LP  0  0  0  0  0  0  0  0  0  0  0  0  # atno 17370 bound_to 10713
  157.2005  131.0437  151.2653 LP  0  0  0  0  0  0  0  0  0  0  0  0  # atno 17371 bound_to 10713
  139.9252  134.8070  156.1090 LP  0  0  0  0  0  0  0  0  0  0  0  0  # atno 17394 bound_to 11000
  141.0902  133.6717  156.2524 LP  0  0  0  0  0  0  0  0  0  0  0  0  # atno 17395 bound_to 11000

$$$$
