AV-unprocessed.smi:276|AV-procd|sdf|2078|dock2
  -GOLD-   2262021343D 1   1.00000     0.00000
 Structure written by MMmdl.
 57 61  0  0  0  0  0  0  0  0  1 V2000
  160.0165  137.2051  166.2925 C   0  0  0  0  0  0  0  0  0  0  0  0
  158.7431  137.4264  165.7112 O   0  0  0  0  0  0  0  0  0  0  0  0
  158.7849  137.4494  164.2929 C   0  0  2  0  0  0  0  0  0  0  0  0
  159.7324  138.5209  163.7297 C   0  0  0  0  0  0  0  0  0  0  0  0
  158.5677  139.1221  162.9294 C   0  0  1  0  0  0  0  0  0  0  0  0
  158.6757  138.9189  161.4750 N   0  0  0  0  0  0  0  0  0  0  0  0
  159.7017  138.0615  160.8814 C   0  0  0  0  0  0  0  0  0  0  0  0
  157.5800  139.1733  160.7067 C   0  0  0  0  0  0  0  0  0  0  0  0
  157.5415  138.7072  159.4287 N   0  0  0  0  0  0  0  0  0  0  0  0
  156.4891  138.9511  158.6437 C   0  0  0  0  0  0  0  0  0  0  0  0
  155.3757  139.6268  158.9290 N   0  0  0  0  0  0  0  0  0  0  0  0
  155.3960  140.0889  160.2115 C   0  0  0  0  0  0  0  0  0  0  0  0
  156.4451  139.9112  161.1593 C   0  0  0  0  0  0  0  0  0  0  0  0
  156.0925  140.5162  162.3621 N   0  0  0  0  0  0  0  0  0  0  0  0
  154.9121  141.0242  162.1361 C   0  0  0  0  0  0  0  0  0  0  0  0
  154.4187  140.8133  160.8700 N   0  0  0  0  0  0  0  0  0  0  0  0
  153.1367  141.2590  160.3527 C   0  0  0  0  0  0  0  0  0  0  0  0
  152.7247  142.6396  160.9017 C   0  0  2  0  0  0  0  0  0  0  0  0
  152.1598  142.4843  162.1899 O   0  0  0  0  0  0  0  0  0  0  0  0
  151.7031  143.3457  159.9909 C   0  0  1  0  0  0  0  0  0  0  0  0
  151.2478  144.7171  160.4930 C   0  0  0  0  0  0  0  0  0  0  0  0
  150.7845  145.3727  159.2130 C   0  0  0  0  0  0  0  0  0  0  0  0
  151.8190  144.8679  158.2117 C   0  0  0  0  0  0  0  0  0  0  0  0
  152.2762  143.6138  158.7128 O   0  0  0  0  0  0  0  0  0  0  0  0
  157.5849  138.1811  163.6549 C   0  0  0  0  0  0  0  0  0  0  0  0
  156.4692  138.7780  164.5321 C   0  0  0  0  0  0  0  0  0  0  0  0
  155.6025  137.5699  164.1713 C   0  0  0  0  0  0  0  0  0  0  0  0
  156.4801  137.3881  162.9310 C   0  0  0  0  0  0  0  0  0  0  0  0
  159.9269  137.2004  167.3788 H   0  0  0  0  0  0  0  0  0  0  0  0
  160.7225  137.9895  166.0172 H   0  0  0  0  0  0  0  0  0  0  0  0
  160.4266  136.2424  165.9847 H   0  0  0  0  0  0  0  0  0  0  0  0
  158.9437  136.4640  163.8522 H   0  0  0  0  0  0  0  0  0  0  0  0
  160.1007  139.2058  164.4944 H   0  0  0  0  0  0  0  0  0  0  0  0
  160.5559  138.1213  163.1371 H   0  0  0  0  0  0  0  0  0  0  0  0
  158.4225  140.1649  163.2158 H   0  0  0  0  0  0  0  0  0  0  0  0
  159.2669  137.3541  160.1740 H   0  0  0  0  0  0  0  0  0  0  0  0
  160.2314  137.4760  161.6299 H   0  0  0  0  0  0  0  0  0  0  0  0
  160.4378  138.6684  160.3540 H   0  0  0  0  0  0  0  0  0  0  0  0
  156.5481  138.5472  157.6439 H   0  0  0  0  0  0  0  0  0  0  0  0
  154.3639  141.5673  162.8924 H   0  0  0  0  0  0  0  0  0  0  0  0
  153.2037  141.2896  159.2646 H   0  0  0  0  0  0  0  0  0  0  0  0
  152.3817  140.5099  160.5949 H   0  0  0  0  0  0  0  0  0  0  0  0
  153.6122  143.2663  160.9998 H   0  0  0  0  0  0  0  0  0  0  0  0
  152.7482  142.8654  162.8238 H   0  0  0  0  0  0  0  0  0  0  0  0
  150.8281  142.7114  159.8375 H   0  0  0  0  0  0  0  0  0  0  0  0
  150.4634  144.6558  161.2480 H   0  0  0  0  0  0  0  0  0  0  0  0
  152.0869  145.2725  160.9149 H   0  0  0  0  0  0  0  0  0  0  0  0
  149.7920  145.0078  158.9450 H   0  0  0  0  0  0  0  0  0  0  0  0
  150.7446  146.4605  159.2752 H   0  0  0  0  0  0  0  0  0  0  0  0
  151.4068  144.7685  157.2075 H   0  0  0  0  0  0  0  0  0  0  0  0
  152.6686  145.5501  158.1632 H   0  0  0  0  0  0  0  0  0  0  0  0
  156.6965  138.8773  165.5934 H   0  0  0  0  0  0  0  0  0  0  0  0
  156.0713  139.7093  164.1250 H   0  0  0  0  0  0  0  0  0  0  0  0
  155.7032  136.7501  164.8844 H   0  0  0  0  0  0  0  0  0  0  0  0
  154.5579  137.8027  163.9631 H   0  0  0  0  0  0  0  0  0  0  0  0
  156.0750  137.9052  162.0603 H   0  0  0  0  0  0  0  0  0  0  0  0
  156.7307  136.3524  162.7005 H   0  0  0  0  0  0  0  0  0  0  0  0
  1  2  1  0  0  0  0
  1 29  1  0  0  0  0
  1 30  1  0  0  0  0
  1 31  1  0  0  0  0
  2  3  1  0  0  0  0
  3 25  1  0  0  0  0
  3  4  1  0  0  0  0
  3 32  1  0  0  0  0
  4  5  1  0  0  0  0
  4 33  1  0  0  0  0
  4 34  1  0  0  0  0
  5  6  1  0  0  0  0
  5 25  1  0  0  0  0
  5 35  1  0  0  0  0
  6  7  1  0  0  0  0
  6  8  1  0  0  0  0
  7 36  1  0  0  0  0
  7 37  1  0  0  0  0
  7 38  1  0  0  0  0
  8 13  1  0  0  0  0
  8  9  2  0  0  0  0
  9 10  1  0  0  0  0
 10 11  2  0  0  0  0
 10 39  1  0  0  0  0
 11 12  1  0  0  0  0
 12 16  1  0  0  0  0
 12 13  2  0  0  0  0
 13 14  1  0  0  0  0
 14 15  2  0  0  0  0
 15 16  1  0  0  0  0
 15 40  1  0  0  0  0
 16 17  1  0  0  0  0
 17 18  1  0  0  0  0
 17 41  1  0  0  0  0
 17 42  1  0  0  0  0
 18 19  1  0  0  0  0
 18 20  1  0  0  0  0
 18 43  1  0  0  0  0
 19 44  1  0  0  0  0
 20 24  1  0  0  0  0
 20 21  1  0  0  0  0
 20 45  1  0  0  0  0
 21 22  1  0  0  0  0
 21 46  1  0  0  0  0
 21 47  1  0  0  0  0
 22 23  1  0  0  0  0
 22 48  1  0  0  0  0
 22 49  1  0  0  0  0
 23 24  1  0  0  0  0
 23 50  1  0  0  0  0
 23 51  1  0  0  0  0
 25 28  1  0  0  0  0
 25 26  1  0  0  0  0
 26 27  1  0  0  0  0
 26 52  1  0  0  0  0
 26 53  1  0  0  0  0
 27 28  1  0  0  0  0
 27 54  1  0  0  0  0
 27 55  1  0  0  0  0
 28 56  1  0  0  0  0
 28 57  1  0  0  0  0
M  END
> <s_m_source_file>
AV-unprocessed.smi

> <i_m_source_file_index>
276

> <i_lp_mmshare_version>
43012

> <i_f3d_flags>
0

> <s_epik_input>
W0NIMl0xW0NIMl1bQ0gyXUMxMltDQEhdKE9bQ0gzXSlbQ0gyXVtDQEhdMk4oW0NIM10pYyhuW2NIXW4zKWMoYzM0KW5bY0hdbjRbQ0gyXVtDQEhdKFtPSF0pW0NAQEhdNVtDSDJdW0NIMl1bQ0gyXU81

> <s_epik_cmdline>
J2VwaWtfcHl0aG9uJywgJy1waCcsICc3LjAnLCAnLXRuJywgJzgnLCAnLW1hJywgJzIwMCcsICctbWV0YWxfYmluZGluZycsICctaW1hZScsICc8aW5maWxlLm1hZT4nLCAnLW9tYWUnLCAnPG91dGZpbGUubWFlPic=

> <r_lp_tautomer_probability>
1

> <r_epik_Ionization_Penalty>
0.00204117

> <r_epik_Ionization_Penalty_Charging>
0

> <r_epik_Ionization_Penalty_Neutral>
0.00204117

> <r_epik_State_Penalty>
0.00127401

> <r_epik_Charging_Adjusted_Penalty>
0.00127401

> <i_epik_Tot_Q>
0

> <i_epik_Tot_abs_Q>
0

> <r_epik_Metal_State_Penalty>
-0

> <b_epik_Metal_Only>
0

> <s_lp_Force_Field>
OPLS_2005

> <r_lp_Energy>
56.66

> <b_lp_Chiralities_Consistent>
1

> <s_lp_Variant>
AV-unprocessed.smi:276-9

> <Gold.Version>
5.8.1

> <Gold.Id.Protein>
6NUR|6NUR_protein|mol2

> <Gold.PLP.Fitness>
47.8346

> <Gold.PLP.PLP>
-43.3950

> <Gold.PLP.part.hbond>
-3.4835

> <Gold.PLP.part.metal>
0.0000

> <Gold.PLP.part.buried>
-5.0514

> <Gold.PLP.part.nonpolar>
-34.1720

> <Gold.PLP.part.repulsive>
0.1477

> <Gold.PLP.ligand.clash>
0.0000

> <Gold.PLP.ligand.torsion>
1.0286

> <Gold.PLP.Chemscore.Hbond>
1.8494

> <Gold.PLP.Chemscore.CHOScore>
0.0000

> <Gold.PLP.Chemscore.Metal>
0.0000

> <Gold.Chemscore.Hbonds>
donor molecule, donor type, donor heavy atom, donor atom, acceptor molecule, acceptor atom, score
      P1  H  6933  6945       L1    19  0.50
      P1  H  7997  8008       L1    11  0.70

> <Gold.PLP.Chemscore.Internal.Correction>
0.9485

> <Gold.Rescore>
     Score         DG    S(hbond)    S(metal)    S(lipo)     H(rot)  DE(clash)    DE(int)     intcor
     11.92     -15.35       1.43        0.00      97.22       2.46       0.19       3.23       ----

> <Gold.Chemscore.Fitness>
11.9235

> <Gold.Chemscore.DG>
-15.3468

> <Gold.Chemscore.ZeroCoef>
-5.4800

> <Gold.Chemscore.Hbond>
1.4325

> <Gold.Chemscore.Metal>
0.0000

> <Gold.Chemscore.Lipo>
97.2204

> <Gold.Chemscore.Internal_Hbond>
0.0000

> <Gold.Chemscore.DEClash>
0.1922

> <Gold.Chemscore.DEInternal>
3.2310

> <Gold.Chemscore.Rot>
2.4581

> <Gold.Chemscore.Internal.Correction>
   9.000000E+99

> <Gold.Chemscore.Hbonds>
donor molecule, donor type, donor heavy atom, donor atom, acceptor molecule, acceptor atom, score
      P1  H  6933  6945       L1    19  0.44
      P1  H  7997  8008       L1    11  0.07

> <Gold.Chemscore.Hbond.Weighted>
-4.7846

> <Gold.Chemscore.Metal.Weighted>
-0.0000

> <Gold.Chemscore.Lipo.Weighted>
-11.3748

> <Gold.Chemscore.Internal_Hbond.Weighted>
0.0000

> <Gold.Chemscore.DEClash.Weighted>
0.1922

> <Gold.Chemscore.DEInternal.Weighted>
3.2310

> <Gold.Chemscore.Rot.Weighted>
6.2927

> <Gold.Chemscore.Internal.Correction.Weighted>
   9.000000E+99

> <Gold.Protein.RotatedTorsions>
[ 6907 6896 6895 6894 ] final -168.98 input  -60.11 | X-H torsion
[ 7974 7965 7964 7962 ] final   98.97 input  175.53 | X-H torsion
[ 8008 7997 7996 7995 ] final -116.56 input   59.86 | X-H torsion
[ 10167 10162 10161 10158 ] final   32.71 input  -65.29 | X-H torsion
[ 10718 10713 10712 10709 ] final  -96.12 input   66.30 | X-H torsion
[ 10763 10752 10751 10750 ] final  -81.16 input  -60.55 | X-H torsion
[ 11005 11000 10999 10996 ] final   19.58 input  -57.11 | X-H torsion

> <Gold.Protein.ActiveResidues>
 VAL166  LYS551  ARG553  GLY616  TRP617  ASP618  TYR619  PRO620  LYS621  CYS622 
 ASP623  PHE694  ASN695  SER759  ASP760  ASP761  ALA762  ILE779  LEU786  VAL792 
 PHE793  MET794  SER795  GLU796  ALA797  LYS798  CYS799  TRP800  GLU811  SER814 

> <Gold.Protein.RotatedAtoms>
  151.4842  133.3539  159.2842 H   0  0  0  0  0  0  0  0  0  0  0  0  # atno 6907 bound_to 6896
  150.8877  134.8279  159.7282 H   0  0  0  0  0  0  0  0  0  0  0  0  # atno 6908 bound_to 6896
  152.4803  134.4748  159.9699 H   0  0  0  0  0  0  0  0  0  0  0  0  # atno 6909 bound_to 6896
  145.4051  139.2342  143.3278 H   0  0  0  0  0  0  0  0  0  0  0  0  # atno 7974 bound_to 7965
  155.0697  140.0393  157.2604 H   0  0  0  0  0  0  0  0  0  0  0  0  # atno 8008 bound_to 7997
  154.6992  140.2670  155.6711 H   0  0  0  0  0  0  0  0  0  0  0  0  # atno 8009 bound_to 7997
  156.2755  140.2744  156.1597 H   0  0  0  0  0  0  0  0  0  0  0  0  # atno 8010 bound_to 7997
  140.4474  144.1099  150.6185 H   0  0  0  0  0  0  0  0  0  0  0  0  # atno 10167 bound_to 10162
  156.0056  130.5138  150.6178 H   0  0  0  0  0  0  0  0  0  0  0  0  # atno 10718 bound_to 10713
  154.5602  135.5636  153.7000 H   0  0  0  0  0  0  0  0  0  0  0  0  # atno 10763 bound_to 10752
  153.0015  135.6272  154.2255 H   0  0  0  0  0  0  0  0  0  0  0  0  # atno 10764 bound_to 10752
  154.2193  135.2870  155.2910 H   0  0  0  0  0  0  0  0  0  0  0  0  # atno 10765 bound_to 10752
  140.4121  134.1607  155.7668 H   0  0  0  0  0  0  0  0  0  0  0  0  # atno 11005 bound_to 11000
  146.2732  140.4755  142.8806 LP  0  0  0  0  0  0  0  0  0  0  0  0  # atno 17320 bound_to 7965
  144.8347  140.6763  143.6268 LP  0  0  0  0  0  0  0  0  0  0  0  0  # atno 17321 bound_to 7965
  140.4247  143.2595  151.9671 LP  0  0  0  0  0  0  0  0  0  0  0  0  # atno 17342 bound_to 10162
  139.4794  144.5798  151.7951 LP  0  0  0  0  0  0  0  0  0  0  0  0  # atno 17343 bound_to 10162
  157.3999  131.0808  151.1317 LP  0  0  0  0  0  0  0  0  0  0  0  0  # atno 17370 bound_to 10713
  157.1982  130.6383  149.5729 LP  0  0  0  0  0  0  0  0  0  0  0  0  # atno 17371 bound_to 10713
  141.1817  133.8400  157.1234 LP  0  0  0  0  0  0  0  0  0  0  0  0  # atno 17394 bound_to 11000
  140.0260  134.9923  157.0687 LP  0  0  0  0  0  0  0  0  0  0  0  0  # atno 17395 bound_to 11000

$$$$
