#       Name:                AV-unprocessed.smi:1817
#       Creating user name   scv26
#       Creation time:       Fri Mar 27 09:04:01 2020


#       File generated by GOLD software.
#

@<TRIPOS>MOLECULE
AV-unprocessed.smi:1817
    48    49     1
SMALL
NO_CHARGES


@<TRIPOS>ATOM
      1 ****        -5.5578   0.6719   3.0671 C.3            1 S1                 0.0000
      2 ****        -4.9852   0.9519   1.6704 C.3            1 S1                 0.0000
      3 ****        -3.5304   0.8535   1.5711 N.3            1 S1                 0.0000
      4 ****        -3.0622   1.3347   0.2753 C.3            1 S1                 0.0000
      5 ****        -1.5288   1.2646   0.1609 C.3            1 S1                 0.0000
      6 ****        -1.0123  -0.1025   0.3342 N.3            1 S1                 0.0000
      7 ****         0.4646  -0.1729   0.2357 C.3            1 S1                 0.0000
      8 ****         1.0128  -1.6046   0.4638 C.3            1 S1                 0.0000
      9 ****         1.0172   0.3660  -1.1134 C.3            1 S1                 0.0000
     10 ****         2.4775   0.3926  -1.1521 N.am           1 S1                 0.0000
     11 ****         3.2502  -0.2385  -2.0478 C.2            1 S1                 0.0000
     12 ****         2.8084  -0.9393  -2.9580 O.2            1 S1                 0.0000
     13 ****         4.5510  -0.0023  -1.8124 N.am           1 S1                 0.0000
     14 ****         5.6703  -0.4699  -2.5453 C.2            1 S1                 0.0000
     15 ****         6.8888  -0.0978  -2.1358 N.2            1 S1                 0.0000
     16 ****         7.8919  -0.6216  -2.9424 N.2            1 S1                 0.0000
     17 ****         7.3895  -1.3692  -3.9297 C.2            1 S1                 0.0000
     18 ****         5.6410  -1.5096  -3.9727 S.3            1 S1                 0.0000
     19 ****        -1.5144  -0.5965   1.6262 C.3            1 S1                 0.0000
     20 ****        -3.0484  -0.5168   1.7361 C.3            1 S1                 0.0000
     21 ****        -6.6300   0.8671   3.0867 H              1 S1                 0.0000
     22 ****        -5.0921   1.3105   3.8182 H              1 S1                 0.0000
     23 ****        -5.4127  -0.3656   3.3675 H              1 S1                 0.0000
     24 ****        -5.4538   0.2861   0.9443 H              1 S1                 0.0000
     25 ****        -5.2886   1.9615   1.3900 H              1 S1                 0.0000
     26 ****        -3.5165   0.7519  -0.5279 H              1 S1                 0.0000
     27 ****        -3.3822   2.3671   0.1295 H              1 S1                 0.0000
     28 ****        -1.2746   1.6504  -0.8239 H              1 S1                 0.0000
     29 ****        -1.0731   1.9336   0.8926 H              1 S1                 0.0000
     30 ****         0.8820   0.4562   1.0237 H              1 S1                 0.0000
     31 ****         2.0952  -1.6576   0.3531 H              1 S1                 0.0000
     32 ****         0.5775  -2.3107  -0.2438 H              1 S1                 0.0000
     33 ****         0.8154  -1.9699   1.4702 H              1 S1                 0.0000
     34 ****         0.6006  -0.2102  -1.9413 H              1 S1                 0.0000
     35 ****         0.7232   1.4000  -1.2812 H              1 S1                 0.0000
     36 ****         2.9349   0.9419  -0.4393 H              1 S1                 0.0000
     37 ****         4.7667   0.5888  -1.0231 H              1 S1                 0.0000
     38 ****         8.0541  -1.8419  -4.6376 H              1 S1                 0.0000
     39 ****        -1.2437  -1.6411   1.7677 H              1 S1                 0.0000
     40 ****        -1.0574  -0.0373   2.4441 H              1 S1                 0.0000
     41 ****        -3.3443  -0.9048   2.7100 H              1 S1                 0.0000
     42 ****        -3.5042  -1.1680   0.9884 H              1 S1                 0.0000
     43 ****        -3.1690   1.4196   2.3120 LP             1 S1                 0.0000
     44 ****        -1.3384  -0.6870  -0.4088 LP             1 S1                 0.0000
     45 ****         1.8213  -1.0631  -3.0597 LP             1 S1                 0.0000
     46 ****         3.4365  -1.3850  -3.5958 LP             1 S1                 0.0000
     47 ****         7.0575   0.4879  -1.3430 LP             1 S1                 0.0000
     48 ****         8.8685  -0.4593  -2.8015 LP             1 S1                 0.0000
@<TRIPOS>BOND
    1    1    2 1     
    2    1   21 1     
    3    1   22 1     
    4    1   23 1     
    5    2    3 1     
    6    2   24 1     
    7    2   25 1     
    8    3   20 1     
    9    3    4 1     
   10    4    5 1     
   11    4   26 1     
   12    4   27 1     
   13    5    6 1     
   14    5   28 1     
   15    5   29 1     
   16    6    7 1     
   17    6   19 1     
   18    7    8 1     
   19    7    9 1     
   20    7   30 1     
   21    8   31 1     
   22    8   32 1     
   23    8   33 1     
   24    9   10 1     
   25    9   34 1     
   26    9   35 1     
   27   10   11 am    
   28   10   36 1     
   29   11   12 2     
   30   11   13 am    
   31   13   14 1     
   32   13   37 1     
   33   14   18 1     
   34   14   15 2     
   35   15   16 1     
   36   16   17 2     
   37   17   18 1     
   38   17   38 1     
   39   19   20 1     
   40   19   39 1     
   41   19   40 1     
   42   20   41 1     
   43   20   42 1     
   44    3   43 1     
   45    6   44 1     
   46   12   45 1     
   47   12   46 1     
   48   15   47 1     
   49   16   48 1     
@<TRIPOS>SUBSTRUCTURE
      1 S1             1
@<TRIPOS>SET
LONE_PAIRS      STATIC     ATOMS    <user>   **** ""
6 43 44 45 46 47 48
DONOR_HYDROGENS      STATIC     ATOMS    <user>   **** ""
2 36 37
ATOM$BLUE        STATIC     ATOMS    COLORGROUP SYSTEM
6 43 44 45 46 47 48
ATOM$RED        STATIC     ATOMS    COLORGROUP SYSTEM
2 36 37
