AV-unprocessed.smi:81|AV-procd|sdf|792|dock6
  -GOLD-   2262017163D 1   1.00000     0.00000
 Structure written by MMmdl.
 64 67  0  0  0  0  0  0  0  0  2 V2000
  152.0135  143.9018  158.2894 C   0  0  0  0  0  0  0  0  0  0  0  0
  151.0030  142.8852  157.7328 C   0  0  0  0  0  0  0  0  0  0  0  0
  149.6860  142.9523  158.5183 C   0  0  0  0  0  0  0  0  0  0  0  0
  151.5666  141.4454  157.7522 C   0  0  0  0  0  0  0  0  0  0  0  0
  150.7387  140.4585  157.0498 N   0  0  0  0  0  0  0  0  0  0  0  0
  150.6298  139.2478  157.6490 C   0  0  0  0  0  0  0  0  0  0  0  0
  151.7640  138.5151  157.7791 N   0  0  0  0  0  0  0  0  0  0  0  0
  151.7179  137.2971  158.3258 C   0  0  0  0  0  0  0  0  0  0  0  0
  150.6600  136.6333  158.7949 N   0  0  0  0  0  0  0  0  0  0  0  0
  149.5152  137.3609  158.6562 C   0  0  0  0  0  0  0  0  0  0  0  0
  149.4091  138.6649  158.0954 C   0  0  0  0  0  0  0  0  0  0  0  0
  148.0838  139.0826  158.1213 N   0  0  0  0  0  0  0  0  0  0  0  0
  147.4439  138.0837  158.6644 C   0  0  0  0  0  0  0  0  0  0  0  0
  148.2279  137.0115  159.0247 N   0  0  0  0  0  0  0  0  0  0  0  0
  147.7761  135.7775  159.6486 C   0  0  0  0  0  0  0  0  0  0  0  0
  146.8224  136.0024  160.8466 C   0  0  1  0  0  0  0  0  0  0  0  0
  147.3648  137.0201  161.6740 O   0  0  0  0  0  0  0  0  0  0  0  0
  145.4331  136.4389  160.4068 C   0  0  0  0  0  0  0  0  0  0  0  0
  144.5645  136.0159  161.5843 C   0  0  0  0  0  0  0  0  0  0  0  0
  145.1247  134.7810  162.0064 O   0  0  0  0  0  0  0  0  0  0  0  0
  146.5099  134.7276  161.6685 C   0  0  2  0  0  0  0  0  0  0  0  0
  147.3543  134.4895  162.9316 C   0  0  0  0  0  0  0  0  0  0  0  0
  150.7474  140.5133  155.5783 C   0  0  2  0  0  0  0  0  0  0  0  0
  149.7547  141.5144  154.9395 C   0  0  0  0  0  0  0  0  0  0  0  0
  148.3658  140.9209  154.6341 C   0  0  0  0  0  0  0  0  0  0  0  0
  148.4857  139.6722  153.8471 N   0  3  2  0  0  0  0  0  0  0  0  0
  147.1759  139.1705  153.3798 C   0  0  0  0  0  0  0  0  0  0  0  0
  149.2605  138.6434  154.5788 C   0  0  0  0  0  0  0  0  0  0  0  0
  150.6891  139.1354  154.8753 C   0  0  0  0  0  0  0  0  0  0  0  0
  152.2839  143.6680  159.3196 H   0  0  0  0  0  0  0  0  0  0  0  0
  151.6025  144.9117  158.2743 H   0  0  0  0  0  0  0  0  0  0  0  0
  152.9306  143.9169  157.7004 H   0  0  0  0  0  0  0  0  0  0  0  0
  150.7694  143.1698  156.7066 H   0  0  0  0  0  0  0  0  0  0  0  0
  149.8338  142.6816  159.5643 H   0  0  0  0  0  0  0  0  0  0  0  0
  148.9439  142.2716  158.1000 H   0  0  0  0  0  0  0  0  0  0  0  0
  149.2618  143.9564  158.4911 H   0  0  0  0  0  0  0  0  0  0  0  0
  152.5593  141.4545  157.3008 H   0  0  0  0  0  0  0  0  0  0  0  0
  151.7179  141.1244  158.7821 H   0  0  0  0  0  0  0  0  0  0  0  0
  152.6632  136.7795  158.3946 H   0  0  0  0  0  0  0  0  0  0  0  0
  146.3754  138.1029  158.8244 H   0  0  0  0  0  0  0  0  0  0  0  0
  147.2846  135.1716  158.8860 H   0  0  0  0  0  0  0  0  0  0  0  0
  148.6545  135.2132  159.9645 H   0  0  0  0  0  0  0  0  0  0  0  0
  146.8407  137.0778  162.4585 H   0  0  0  0  0  0  0  0  0  0  0  0
  145.3580  137.5031  160.1781 H   0  0  0  0  0  0  0  0  0  0  0  0
  145.1252  135.8846  159.5188 H   0  0  0  0  0  0  0  0  0  0  0  0
  144.6389  136.7380  162.3986 H   0  0  0  0  0  0  0  0  0  0  0  0
  143.5128  135.9095  161.3176 H   0  0  0  0  0  0  0  0  0  0  0  0
  146.6100  133.8577  161.0191 H   0  0  0  0  0  0  0  0  0  0  0  0
  148.4184  134.4602  162.6999 H   0  0  0  0  0  0  0  0  0  0  0  0
  147.0906  133.5376  163.3930 H   0  0  0  0  0  0  0  0  0  0  0  0
  147.1928  135.2690  163.6763 H   0  0  0  0  0  0  0  0  0  0  0  0
  151.7348  140.9192  155.3542 H   0  0  0  0  0  0  0  0  0  0  0  0
  149.6659  142.4145  155.5486 H   0  0  0  0  0  0  0  0  0  0  0  0
  150.1817  141.8473  153.9927 H   0  0  0  0  0  0  0  0  0  0  0  0
  147.8064  140.7189  155.5470 H   0  0  0  0  0  0  0  0  0  0  0  0
  147.7836  141.6514  154.0709 H   0  0  0  0  0  0  0  0  0  0  0  0
  146.5357  138.9059  154.2208 H   0  0  0  0  0  0  0  0  0  0  0  0
  147.3020  138.2868  152.7534 H   0  0  0  0  0  0  0  0  0  0  0  0
  146.6631  139.9277  152.7857 H   0  0  0  0  0  0  0  0  0  0  0  0
  148.7348  138.3774  155.4940 H   0  0  0  0  0  0  0  0  0  0  0  0
  149.3144  137.7344  153.9787 H   0  0  0  0  0  0  0  0  0  0  0  0
  151.2107  139.2239  153.9215 H   0  0  0  0  0  0  0  0  0  0  0  0
  151.2393  138.3806  155.4372 H   0  0  0  0  0  0  0  0  0  0  0  0
  149.0155  139.9003  153.0179 H   0  0  0  0  0  0  0  0  0  0  0  0
  1  2  1  0  0  0  0
  1 30  1  0  0  0  0
  1 31  1  0  0  0  0
  1 32  1  0  0  0  0
  2  3  1  0  0  0  0
  2  4  1  0  0  0  0
  2 33  1  0  0  0  0
  3 34  1  0  0  0  0
  3 35  1  0  0  0  0
  3 36  1  0  0  0  0
  4  5  1  0  0  0  0
  4 37  1  0  0  0  0
  4 38  1  0  0  0  0
  5  6  1  0  0  0  0
  5 23  1  0  0  0  0
  6 11  1  0  0  0  0
  6  7  2  0  0  0  0
  7  8  1  0  0  0  0
  8  9  2  0  0  0  0
  8 39  1  0  0  0  0
  9 10  1  0  0  0  0
 10 14  1  0  0  0  0
 10 11  2  0  0  0  0
 11 12  1  0  0  0  0
 12 13  2  0  0  0  0
 13 14  1  0  0  0  0
 13 40  1  0  0  0  0
 14 15  1  0  0  0  0
 15 16  1  0  0  0  0
 15 41  1  0  0  0  0
 15 42  1  0  0  0  0
 16 21  1  0  0  0  0
 16 17  1  0  0  0  0
 16 18  1  0  0  0  0
 17 43  1  0  0  0  0
 18 19  1  0  0  0  0
 18 44  1  0  0  0  0
 18 45  1  0  0  0  0
 19 20  1  0  0  0  0
 19 46  1  0  0  0  0
 19 47  1  0  0  0  0
 20 21  1  0  0  0  0
 21 22  1  0  0  0  0
 21 48  1  0  0  0  0
 22 49  1  0  0  0  0
 22 50  1  0  0  0  0
 22 51  1  0  0  0  0
 23 29  1  0  0  0  0
 23 24  1  0  0  0  0
 23 52  1  0  0  0  0
 24 25  1  0  0  0  0
 24 53  1  0  0  0  0
 24 54  1  0  0  0  0
 25 26  1  0  0  0  0
 25 55  1  0  0  0  0
 25 56  1  0  0  0  0
 26 27  1  0  0  0  0
 26 28  1  0  0  0  0
 26 64  1  0  0  0  0
 27 57  1  0  0  0  0
 27 58  1  0  0  0  0
 27 59  1  0  0  0  0
 28 29  1  0  0  0  0
 28 60  1  0  0  0  0
 28 61  1  0  0  0  0
 29 62  1  0  0  0  0
 29 63  1  0  0  0  0
M  CHG  1  26   1
M  END
> <s_m_source_file>
AV-unprocessed.smi

> <i_m_source_file_index>
81

> <i_lp_mmshare_version>
43012

> <i_f3d_flags>
0

> <s_epik_input>
W0NIMl0xW0NIMl1OKFtDSDNdKVtDSDJdW0NIMl1bQ0hdMU4oW0NIMl1bQ0hdKFtDSDNdKVtDSDNdKWMobltjSF1uMiljKGMyMyluW2NIXW4zW0NIMl1bQ0BAXTQoW09IXSlbQ0gyXVtDSDJdT1tDQEhdNFtDSDNd

> <s_epik_cmdline>
J2VwaWtfcHl0aG9uJywgJy1waCcsICc3LjAnLCAnLXRuJywgJzgnLCAnLW1hJywgJzIwMCcsICctbWV0YWxfYmluZGluZycsICctaW1hZScsICc8aW5maWxlLm1hZT4nLCAnLW9tYWUnLCAnPG91dGZpbGUubWFlPic=

> <r_lp_tautomer_probability>
1

> <r_epik_Ionization_Penalty>
0.00272708

> <r_epik_Ionization_Penalty_Charging>
0.00158983

> <r_epik_Ionization_Penalty_Neutral>
0.00113725

> <r_epik_State_Penalty>
-0

> <r_epik_Charging_Adjusted_Penalty>
0.00158983

> <i_epik_Tot_Q>
1

> <i_epik_Tot_abs_Q>
1

> <r_epik_Metal_State_Penalty>
-0

> <b_epik_Metal_Only>
0

> <s_lp_Force_Field>
OPLS_2005

> <r_lp_Energy>
48.65

> <b_lp_Chiralities_Consistent>
1

> <s_lp_Variant>
AV-unprocessed.smi:81-7

> <Gold.Version>
5.8.1

> <Gold.Id.Protein>
6NUR|6NUR_protein|mol2

> <Gold.PLP.Fitness>
55.0863

> <Gold.PLP.PLP>
-46.7987

> <Gold.PLP.part.hbond>
-4.7198

> <Gold.PLP.part.metal>
0.0000

> <Gold.PLP.part.buried>
-2.7313

> <Gold.PLP.part.nonpolar>
-39.6563

> <Gold.PLP.part.repulsive>
0.0873

> <Gold.PLP.ligand.clash>
0.0000

> <Gold.PLP.ligand.torsion>
2.2270

> <Gold.PLP.Chemscore.Hbond>
3.7760

> <Gold.PLP.Chemscore.CHOScore>
0.0000

> <Gold.PLP.Chemscore.Metal>
0.0000

> <Gold.Chemscore.Hbonds>
donor molecule, donor type, donor heavy atom, donor atom, acceptor molecule, acceptor atom, score
      L1  H    26    64       P1  7957  1.00
      P1  H  6896  6909       L1     9  1.00
      P1  H  6931  6943       L1    17  0.86
      P1  H  6934  6947       L1    17  0.64

> <Gold.PLP.Chemscore.Internal.Correction>
1.4136

> <Gold.Rescore>
     Score         DG    S(hbond)    S(metal)    S(lipo)     H(rot)  DE(clash)    DE(int)     intcor
     19.25     -21.70       2.77        0.00     110.26       2.32       0.21       2.24       ----

> <Gold.Chemscore.Fitness>
19.2517

> <Gold.Chemscore.DG>
-21.7035

> <Gold.Chemscore.ZeroCoef>
-5.4800

> <Gold.Chemscore.Hbond>
2.7703

> <Gold.Chemscore.Metal>
0.0000

> <Gold.Chemscore.Lipo>
110.2592

> <Gold.Chemscore.Internal_Hbond>
0.0000

> <Gold.Chemscore.DEClash>
0.2087

> <Gold.Chemscore.DEInternal>
2.2431

> <Gold.Chemscore.Rot>
2.3163

> <Gold.Chemscore.Internal.Correction>
   9.000000E+99

> <Gold.Chemscore.Hbonds>
donor molecule, donor type, donor heavy atom, donor atom, acceptor molecule, acceptor atom, score
      L1  H    26    64       P1  7957  0.98
      P1  H  6896  6909       L1     9  0.90
      P1  H  6931  6943       L1    17  0.52
      P1  H  6934  6947       L1    17  0.15

> <Gold.Chemscore.Hbond.Weighted>
-9.2529

> <Gold.Chemscore.Metal.Weighted>
-0.0000

> <Gold.Chemscore.Lipo.Weighted>
-12.9003

> <Gold.Chemscore.Internal_Hbond.Weighted>
0.0000

> <Gold.Chemscore.DEClash.Weighted>
0.2087

> <Gold.Chemscore.DEInternal.Weighted>
2.2431

> <Gold.Chemscore.Rot.Weighted>
5.9297

> <Gold.Chemscore.Internal.Correction.Weighted>
   9.000000E+99

> <Gold.Protein.RotatedTorsions>
[ 6907 6896 6895 6894 ] final   84.34 input  -60.11 | X-H torsion
[ 7974 7965 7964 7962 ] final  178.20 input  175.53 | X-H torsion
[ 8008 7997 7996 7995 ] final  117.87 input   59.86 | X-H torsion
[ 10167 10162 10161 10158 ] final -121.51 input  -65.29 | X-H torsion
[ 10718 10713 10712 10709 ] final  170.22 input   66.30 | X-H torsion
[ 10763 10752 10751 10750 ] final  162.98 input  -60.55 | X-H torsion
[ 11005 11000 10999 10996 ] final    6.11 input  -57.11 | X-H torsion

> <Gold.Protein.ActiveResidues>
 VAL166  LYS551  ARG553  GLY616  TRP617  ASP618  TYR619  PRO620  LYS621  CYS622 
 ASP623  PHE694  ASN695  SER759  ASP760  ASP761  ALA762  ILE779  LEU786  VAL792 
 PHE793  MET794  SER795  GLU796  ALA797  LYS798  CYS799  TRP800  GLU811  SER814 

> <Gold.Protein.RotatedAtoms>
  152.5350  134.2756  159.8987 H   0  0  0  0  0  0  0  0  0  0  0  0  # atno 6907 bound_to 6896
  151.2712  133.4248  159.2629 H   0  0  0  0  0  0  0  0  0  0  0  0  # atno 6908 bound_to 6896
  151.0366  134.9592  159.8196 H   0  0  0  0  0  0  0  0  0  0  0  0  # atno 6909 bound_to 6896
  144.7159  140.0362  143.6438 H   0  0  0  0  0  0  0  0  0  0  0  0  # atno 7974 bound_to 7965
  156.2517  140.2887  156.0746 H   0  0  0  0  0  0  0  0  0  0  0  0  # atno 8008 bound_to 7997
  155.1633  140.0400  157.2864 H   0  0  0  0  0  0  0  0  0  0  0  0  # atno 8009 bound_to 7997
  154.6377  140.2515  155.7365 H   0  0  0  0  0  0  0  0  0  0  0  0  # atno 8010 bound_to 7997
  140.0243  143.5313  152.2206 H   0  0  0  0  0  0  0  0  0  0  0  0  # atno 10167 bound_to 10162
  157.0113  131.0205  151.2802 H   0  0  0  0  0  0  0  0  0  0  0  0  # atno 10718 bound_to 10713
  154.2866  135.2762  155.2673 H   0  0  0  0  0  0  0  0  0  0  0  0  # atno 10763 bound_to 10752
  154.5171  135.5766  153.6654 H   0  0  0  0  0  0  0  0  0  0  0  0  # atno 10764 bound_to 10752
  152.9920  135.6195  154.3029 H   0  0  0  0  0  0  0  0  0  0  0  0  # atno 10765 bound_to 10752
  140.5631  134.0173  155.7979 H   0  0  0  0  0  0  0  0  0  0  0  0  # atno 11005 bound_to 11000
  146.0061  139.3131  143.0898 LP  0  0  0  0  0  0  0  0  0  0  0  0  # atno 17320 bound_to 7965
  145.8736  140.9405  143.0637 LP  0  0  0  0  0  0  0  0  0  0  0  0  # atno 17321 bound_to 7965
  139.6119  144.7610  151.2933 LP  0  0  0  0  0  0  0  0  0  0  0  0  # atno 17342 bound_to 10162
  140.7329  143.6809  150.8002 LP  0  0  0  0  0  0  0  0  0  0  0  0  # atno 17343 bound_to 10162
  157.5318  130.8063  149.7926 LP  0  0  0  0  0  0  0  0  0  0  0  0  # atno 17370 bound_to 10713
  156.0135  130.3823  150.2186 LP  0  0  0  0  0  0  0  0  0  0  0  0  # atno 17371 bound_to 10713
  141.1102  133.9628  157.2924 LP  0  0  0  0  0  0  0  0  0  0  0  0  # atno 17394 bound_to 11000
  139.9398  135.0192  156.8672 LP  0  0  0  0  0  0  0  0  0  0  0  0  # atno 17395 bound_to 11000

$$$$
