#       Name:                AV-unprocessed.smi:67
#       Creating user name   scv26
#       Creation time:       Thu Mar 26 16:52:56 2020


#       File generated by GOLD software.
#

@<TRIPOS>MOLECULE
AV-unprocessed.smi:67
    53    55     1
SMALL
NO_CHARGES


@<TRIPOS>ATOM
      1 ****        -5.2071  -0.1480  -0.0888 O.3            1 S1                 0.0000
      2 ****        -3.8372   0.2122  -0.0725 C.3            1 S1                 0.0000
      3 ****        -3.0513  -1.0893  -0.3658 C.3            1 S1                 0.0000
      4 ****        -1.5932  -0.9957  -0.2542 N.3            1 S1                 0.0000
      5 ****        -0.9265  -1.8046  -1.2772 C.3            1 S1                 0.0000
      6 ****         0.6012  -1.6267  -1.2706 C.3            1 S1                 0.0000
      7 ****         1.1707  -1.9145   0.1355 C.3            1 S1                 0.0000
      8 ****         2.5937  -1.8175   0.2375 O.3            1 S1                 0.0000
      9 ****         3.2863  -0.6335   0.0677 C.ar           1 S1                 0.0000
     10 ****         2.7126   0.6390  -0.1783 C.ar           1 S1                 0.0000
     11 ****         3.5301   1.7750  -0.3290 C.ar           1 S1                 0.0000
     12 ****         4.9290   1.6599  -0.2415 C.ar           1 S1                 0.0000
     13 ****         5.5193   0.4014  -0.0049 C.ar           1 S1                 0.0000
     14 ****         7.0298   0.2533   0.0980 C.3            1 S1                 0.0000
     15 ****         7.4287  -0.8508  -0.5341 F              1 S1                 0.0000
     16 ****         7.6624   1.2953  -0.4426 F              1 S1                 0.0000
     17 ****         7.3755   0.1619   1.3816 F              1 S1                 0.0000
     18 ****         4.6910  -0.7298   0.1534 C.ar           1 S1                 0.0000
     19 ****         0.3868  -1.2041   1.2601 C.3            1 S1                 0.0000
     20 ****        -1.1227  -1.4234   1.0692 C.3            1 S1                 0.0000
     21 ****        -3.5460   0.9455   1.2421 C.3            1 S1                 0.0000
     22 ****        -4.0902   2.3531   0.9905 C.3            1 S1                 0.0000
     23 ****        -3.9320   2.5975  -0.4570 N.4            1 S1                 1.0000
     24 ****        -3.6357   1.3133  -1.1258 C.3            1 S1                 0.0000
     25 ****        -5.3548  -0.8033   0.5766 H              1 S1                 0.0000
     26 ****        -3.4138  -1.8976   0.2721 H              1 S1                 0.0000
     27 ****        -3.3207  -1.3928  -1.3790 H              1 S1                 0.0000
     28 ****        -1.1753  -2.8578  -1.1373 H              1 S1                 0.0000
     29 ****        -1.2983  -1.5295  -2.2650 H              1 S1                 0.0000
     30 ****         1.0540  -2.3033  -1.9957 H              1 S1                 0.0000
     31 ****         0.8348  -0.6225  -1.6145 H              1 S1                 0.0000
     32 ****         0.9913  -2.9782   0.2979 H              1 S1                 0.0000
     33 ****         1.6497   0.7866  -0.2574 H              1 S1                 0.0000
     34 ****         3.0809   2.7398  -0.5125 H              1 S1                 0.0000
     35 ****         5.5415   2.5422  -0.3560 H              1 S1                 0.0000
     36 ****         5.1408  -1.6935   0.3434 H              1 S1                 0.0000
     37 ****         0.6958  -1.5987   2.2284 H              1 S1                 0.0000
     38 ****         0.5831  -0.1360   1.2976 H              1 S1                 0.0000
     39 ****        -1.6566  -0.9001   1.8600 H              1 S1                 0.0000
     40 ****        -1.3502  -2.4811   1.2134 H              1 S1                 0.0000
     41 ****        -3.9796   0.4651   2.1201 H              1 S1                 0.0000
     42 ****        -2.4723   1.0357   1.4029 H              1 S1                 0.0000
     43 ****        -5.1525   2.3957   1.2342 H              1 S1                 0.0000
     44 ****        -3.5792   3.1122   1.5834 H              1 S1                 0.0000
     45 ****        -4.7871   2.9896  -0.8251 H              1 S1                 0.0000
     46 ****        -2.5934   1.3474  -1.4452 H              1 S1                 0.0000
     47 ****        -4.2461   1.1727  -2.0189 H              1 S1                 0.0000
     48 ****        -3.1672   3.2373  -0.6175 H              1 S1                 0.0000
     49 ****        -5.4473  -0.5188  -0.9859 LP             1 S1                 0.0000
     50 ****        -5.7693   0.6570   0.1005 LP             1 S1                 0.0000
     51 ****        -1.3603  -0.0325  -0.3887 LP             1 S1                 0.0000
     52 ****         2.9615  -2.4507  -0.4435 LP             1 S1                 0.0000
     53 ****         2.8259  -2.1423   1.1544 LP             1 S1                 0.0000
@<TRIPOS>BOND
    1    1    2 1     
    2    1   25 1     
    3    2   24 1     
    4    2    3 1     
    5    2   21 1     
    6    3    4 1     
    7    3   26 1     
    8    3   27 1     
    9    4   20 1     
   10    4    5 1     
   11    5    6 1     
   12    5   28 1     
   13    5   29 1     
   14    6    7 1     
   15    6   30 1     
   16    6   31 1     
   17    7    8 1     
   18    7   19 1     
   19    7   32 1     
   20    8    9 1     
   21    9   18 ar    
   22    9   10 ar    
   23   10   11 ar    
   24   10   33 1     
   25   11   12 ar    
   26   11   34 1     
   27   12   13 ar    
   28   12   35 1     
   29   13   14 1     
   30   13   18 ar    
   31   14   15 1     
   32   14   16 1     
   33   14   17 1     
   34   18   36 1     
   35   19   20 1     
   36   19   37 1     
   37   19   38 1     
   38   20   39 1     
   39   20   40 1     
   40   21   22 1     
   41   21   41 1     
   42   21   42 1     
   43   22   23 1     
   44   22   43 1     
   45   22   44 1     
   46   23   24 1     
   47   23   45 1     
   48   23   48 1     
   49   24   46 1     
   50   24   47 1     
   51    1   49 1     
   52    1   50 1     
   53    4   51 1     
   54    8   52 1     
   55    8   53 1     
@<TRIPOS>SUBSTRUCTURE
      1 S1             1
@<TRIPOS>SET
LONE_PAIRS      STATIC     ATOMS    <user>   **** ""
5 49 50 51 52 53
DONOR_HYDROGENS      STATIC     ATOMS    <user>   **** ""
3 25 45 48
ATOM$BLUE        STATIC     ATOMS    COLORGROUP SYSTEM
5 49 50 51 52 53
ATOM$RED        STATIC     ATOMS    COLORGROUP SYSTEM
3 25 45 48
