AV-unprocessed.smi:2816|AV-procd|sdf|10844|dock8
  -GOLD-   2272015283D 1   1.00000     0.00000
 Structure written by MMmdl.
 43 45  0  0  0  0  0  0  0  0  1 V2000
  138.6016  139.8368  153.0761 C   0  0  0  0  0  0  0  0  0  0  0  0
  138.8702  138.5705  153.9078 C   0  0  0  0  0  0  0  0  0  0  0  0
  137.7991  138.4437  155.0068 C   0  0  0  0  0  0  0  0  0  0  0  0
  138.8457  137.3357  152.9887 C   0  0  0  0  0  0  0  0  0  0  0  0
  140.5577  138.7437  154.6751 S   0  0  0  0  0  0  0  0  0  0  0  0
  141.1854  139.9495  154.1115 O   0  0  0  0  0  0  0  0  0  0  0  0
  140.4188  138.6237  156.1353 O   0  0  0  0  0  0  0  0  0  0  0  0
  141.5038  137.3290  154.1070 C   0  0  0  0  0  0  0  0  0  0  0  0
  142.5432  137.5058  153.1716 C   0  0  0  0  0  0  0  0  0  0  0  0
  143.2300  136.3639  152.7190 C   0  0  0  0  0  0  0  0  0  0  0  0
  142.8464  135.0924  153.2080 C   0  0  0  0  0  0  0  0  0  0  0  0
  143.4616  133.8951  152.8141 N   0  0  0  0  0  0  0  0  0  0  0  0
  144.1841  133.7885  151.5514 C   0  0  2  0  0  0  0  0  0  0  0  0
  143.6526  132.6994  150.6123 C   0  0  0  0  0  0  0  0  0  0  0  0
  144.9240  131.8922  150.3153 C   0  0  2  0  0  0  0  0  0  0  0  0
  145.3204  131.0112  151.5062 C   0  0  0  0  0  0  0  0  0  0  0  0
  145.8407  132.0490  152.4985 C   0  0  0  0  0  0  0  0  0  0  0  0
  145.6539  133.3618  151.7172 C   0  0  1  0  0  0  0  0  0  0  0  0
  145.9148  132.9034  150.4010 O   0  0  0  0  0  0  0  0  0  0  0  0
  141.7860  135.0379  154.1382 C   0  0  0  0  0  0  0  0  0  0  0  0
  141.1181  136.1244  154.5792 N   0  0  0  0  0  0  0  0  0  0  0  0
  137.6217  139.7996  152.5991 H   0  0  0  0  0  0  0  0  0  0  0  0
  139.3458  139.9593  152.2885 H   0  0  0  0  0  0  0  0  0  0  0  0
  138.6320  140.7321  153.6978 H   0  0  0  0  0  0  0  0  0  0  0  0
  137.8392  139.2823  155.7023 H   0  0  0  0  0  0  0  0  0  0  0  0
  137.9173  137.5272  155.5836 H   0  0  0  0  0  0  0  0  0  0  0  0
  136.7971  138.4235  154.5770 H   0  0  0  0  0  0  0  0  0  0  0  0
  137.8847  137.2411  152.4821 H   0  0  0  0  0  0  0  0  0  0  0  0
  139.0077  136.4148  153.5486 H   0  0  0  0  0  0  0  0  0  0  0  0
  139.6168  137.3952  152.2200 H   0  0  0  0  0  0  0  0  0  0  0  0
  142.8077  138.4866  152.8058 H   0  0  0  0  0  0  0  0  0  0  0  0
  144.0318  136.4807  152.0059 H   0  0  0  0  0  0  0  0  0  0  0  0
  143.2389  133.0428  153.3084 H   0  0  0  0  0  0  0  0  0  0  0  0
  144.1661  134.7532  151.0430 H   0  0  0  0  0  0  0  0  0  0  0  0
  142.8710  132.0791  151.0538 H   0  0  0  0  0  0  0  0  0  0  0  0
  143.2537  133.1480  149.7018 H   0  0  0  0  0  0  0  0  0  0  0  0
  144.9000  131.3627  149.3627 H   0  0  0  0  0  0  0  0  0  0  0  0
  144.4806  130.4350  151.8960 H   0  0  0  0  0  0  0  0  0  0  0  0
  146.1135  130.3159  151.2291 H   0  0  0  0  0  0  0  0  0  0  0  0
  145.3072  132.0339  153.4488 H   0  0  0  0  0  0  0  0  0  0  0  0
  146.8972  131.8752  152.7055 H   0  0  0  0  0  0  0  0  0  0  0  0
  146.3107  134.1672  152.0469 H   0  0  0  0  0  0  0  0  0  0  0  0
  141.4562  134.0898  154.5376 H   0  0  0  0  0  0  0  0  0  0  0  0
  1  2  1  0  0  0  0
  1 22  1  0  0  0  0
  1 23  1  0  0  0  0
  1 24  1  0  0  0  0
  2  3  1  0  0  0  0
  2  4  1  0  0  0  0
  2  5  1  0  0  0  0
  3 25  1  0  0  0  0
  3 26  1  0  0  0  0
  3 27  1  0  0  0  0
  4 28  1  0  0  0  0
  4 29  1  0  0  0  0
  4 30  1  0  0  0  0
  5  6  2  0  0  0  0
  5  7  2  0  0  0  0
  5  8  1  0  0  0  0
  8 21  1  0  0  0  0
  8  9  2  0  0  0  0
  9 10  1  0  0  0  0
  9 31  1  0  0  0  0
 10 11  2  0  0  0  0
 10 32  1  0  0  0  0
 11 12  1  0  0  0  0
 11 20  1  0  0  0  0
 12 13  1  0  0  0  0
 12 33  1  0  0  0  0
 13 18  1  0  0  0  0
 13 14  1  0  0  0  0
 13 34  1  0  0  0  0
 14 15  1  0  0  0  0
 14 35  1  0  0  0  0
 14 36  1  0  0  0  0
 15 19  1  0  0  0  0
 15 16  1  0  0  0  0
 15 37  1  0  0  0  0
 16 17  1  0  0  0  0
 16 38  1  0  0  0  0
 16 39  1  0  0  0  0
 17 18  1  0  0  0  0
 17 40  1  0  0  0  0
 17 41  1  0  0  0  0
 18 19  1  0  0  0  0
 18 42  1  0  0  0  0
 20 21  2  0  0  0  0
 20 43  1  0  0  0  0
M  END
> <s_m_source_file>
AV-unprocessed.smi

> <i_m_source_file_index>
2816

> <i_lp_mmshare_version>
43012

> <i_f3d_flags>
0

> <s_epik_input>
W0NIM11DKFtDSDNdKShbQ0gzXSlTKD1PKSg9TyljMVtjSF1bY0hdYyhbY0hdbjEpW05IXVtDQEhdKFtDSDJdW0NAQEhdMjMpW0NAQEhdKE8zKVtDSDJdW0NIMl0y

> <s_epik_cmdline>
J2VwaWtfcHl0aG9uJywgJy1waCcsICc3LjAnLCAnLXRuJywgJzgnLCAnLW1hJywgJzIwMCcsICctbWV0YWxfYmluZGluZycsICctaW1hZScsICc8aW5maWxlLm1hZT4nLCAnLW9tYWUnLCAnPG91dGZpbGUubWFlPic=

> <r_lp_tautomer_probability>
1

> <r_epik_Ionization_Penalty>
1.94439e-07

> <r_epik_Ionization_Penalty_Charging>
0

> <r_epik_Ionization_Penalty_Neutral>
1.94439e-07

> <r_epik_State_Penalty>
-0

> <r_epik_Charging_Adjusted_Penalty>
0

> <i_epik_Tot_Q>
0

> <i_epik_Tot_abs_Q>
0

> <r_epik_Metal_State_Penalty>
-0

> <b_epik_Metal_Only>
0

> <s_lp_Force_Field>
OPLS_2005

> <r_lp_Energy>
43.8741

> <b_lp_Chiralities_Consistent>
1

> <s_lp_Variant>
AV-unprocessed.smi:2816-3

> <Gold.Version>
5.8.1

> <Gold.Id.Protein>
6NUR|6NUR_protein|mol2

> <Gold.PLP.Fitness>
42.3356

> <Gold.PLP.PLP>
-34.3758

> <Gold.PLP.part.hbond>
-2.0000

> <Gold.PLP.part.metal>
0.0000

> <Gold.PLP.part.buried>
-3.9488

> <Gold.PLP.part.nonpolar>
-29.8599

> <Gold.PLP.part.repulsive>
1.4293

> <Gold.PLP.ligand.clash>
0.0000

> <Gold.PLP.ligand.torsion>
1.2720

> <Gold.PLP.Chemscore.Hbond>
1.0000

> <Gold.PLP.Chemscore.CHOScore>
1.7601

> <Gold.PLP.Chemscore.Metal>
0.0000

> <Gold.Chemscore.Hbonds>
donor molecule, donor type, donor heavy atom, donor atom, acceptor molecule, acceptor atom, score
      L1  H    12    33       P1 10957  1.00
      L1  C    20    43       P1 10957  0.81
      L1  C    20    43       P1 11000  0.75

> <Gold.PLP.Chemscore.Internal.Correction>
2.2237

> <Gold.Rescore>
     Score         DG    S(hbond)    S(metal)    S(lipo)     H(rot)  DE(clash)    DE(int)     intcor
     13.68     -16.39       0.99        0.00      90.14       1.15       1.51       1.20       ----

> <Gold.Chemscore.Fitness>
13.6762

> <Gold.Chemscore.DG>
-16.3854

> <Gold.Chemscore.ZeroCoef>
-5.4800

> <Gold.Chemscore.Hbond>
0.9869

> <Gold.Chemscore.Metal>
0.0000

> <Gold.Chemscore.Lipo>
90.1358

> <Gold.Chemscore.Internal_Hbond>
0.0000

> <Gold.Chemscore.DEClash>
1.5124

> <Gold.Chemscore.DEInternal>
1.1969

> <Gold.Chemscore.Rot>
1.1471

> <Gold.Chemscore.Internal.Correction>
   9.000000E+99

> <Gold.Chemscore.Hbonds>
donor molecule, donor type, donor heavy atom, donor atom, acceptor molecule, acceptor atom, score
      L1  H    12    33       P1 10957  0.77

> <Gold.Chemscore.Hbond.Weighted>
-3.2961

> <Gold.Chemscore.Metal.Weighted>
-0.0000

> <Gold.Chemscore.Lipo.Weighted>
-10.5459

> <Gold.Chemscore.Internal_Hbond.Weighted>
0.0000

> <Gold.Chemscore.DEClash.Weighted>
1.5124

> <Gold.Chemscore.DEInternal.Weighted>
1.1969

> <Gold.Chemscore.Rot.Weighted>
2.9366

> <Gold.Chemscore.Internal.Correction.Weighted>
   9.000000E+99

> <Gold.Protein.RotatedTorsions>
[ 6907 6896 6895 6894 ] final  -53.05 input  -60.11 | X-H torsion
[ 7974 7965 7964 7962 ] final -108.31 input  175.53 | X-H torsion
[ 8008 7997 7996 7995 ] final  -86.61 input   59.86 | X-H torsion
[ 10167 10162 10161 10158 ] final  -53.09 input  -65.29 | X-H torsion
[ 10718 10713 10712 10709 ] final   42.75 input   66.30 | X-H torsion
[ 10763 10752 10751 10750 ] final   23.96 input  -60.55 | X-H torsion
[ 11005 11000 10999 10996 ] final  114.73 input  -57.11 | X-H torsion

> <Gold.Protein.ActiveResidues>
 VAL166  LYS551  ARG553  GLY616  TRP617  ASP618  TYR619  PRO620  LYS621  CYS622 
 ASP623  PHE694  ASN695  SER759  ASP760  ASP761  ALA762  ILE779  LEU786  VAL792 
 PHE793  MET794  SER795  GLU796  ALA797  LYS798  CYS799  TRP800  GLU811  SER814 

> <Gold.Protein.RotatedAtoms>
  150.8462  134.7771  159.6971 H   0  0  0  0  0  0  0  0  0  0  0  0  # atno 6907 bound_to 6896
  152.4538  134.5333  159.9827 H   0  0  0  0  0  0  0  0  0  0  0  0  # atno 6908 bound_to 6896
  151.5463  133.3386  159.2980 H   0  0  0  0  0  0  0  0  0  0  0  0  # atno 6909 bound_to 6896
  145.1945  140.9029  143.3405 H   0  0  0  0  0  0  0  0  0  0  0  0  # atno 7974 bound_to 7965
  154.6538  140.0576  156.9986 H   0  0  0  0  0  0  0  0  0  0  0  0  # atno 8008 bound_to 7997
  155.1330  140.3258  155.4451 H   0  0  0  0  0  0  0  0  0  0  0  0  # atno 8009 bound_to 7997
  156.2588  140.1977  156.6449 H   0  0  0  0  0  0  0  0  0  0  0  0  # atno 8010 bound_to 7997
  140.6503  143.2562  151.4742 H   0  0  0  0  0  0  0  0  0  0  0  0  # atno 10167 bound_to 10162
  157.4083  130.7899  149.7408 H   0  0  0  0  0  0  0  0  0  0  0  0  # atno 10718 bound_to 10713
  153.0799  135.6616  154.0067 H   0  0  0  0  0  0  0  0  0  0  0  0  # atno 10763 bound_to 10752
  153.9691  135.2966  155.3430 H   0  0  0  0  0  0  0  0  0  0  0  0  # atno 10764 bound_to 10752
  154.7196  135.5170  153.8863 H   0  0  0  0  0  0  0  0  0  0  0  0  # atno 10765 bound_to 10752
  139.8989  134.9572  156.6937 H   0  0  0  0  0  0  0  0  0  0  0  0  # atno 11005 bound_to 11000
  145.0009  139.3599  143.6168 LP  0  0  0  0  0  0  0  0  0  0  0  0  # atno 17320 bound_to 7965
  146.3430  139.9231  142.8764 LP  0  0  0  0  0  0  0  0  0  0  0  0  # atno 17321 bound_to 7965
  139.5717  144.1912  152.1846 LP  0  0  0  0  0  0  0  0  0  0  0  0  # atno 17342 bound_to 10162
  140.1210  144.5373  150.6863 LP  0  0  0  0  0  0  0  0  0  0  0  0  # atno 17343 bound_to 10162
  155.9843  130.3993  150.3319 LP  0  0  0  0  0  0  0  0  0  0  0  0  # atno 17370 bound_to 10713
  157.1454  131.0307  151.2909 LP  0  0  0  0  0  0  0  0  0  0  0  0  # atno 17371 bound_to 10713
  140.7205  133.9145  155.8143 LP  0  0  0  0  0  0  0  0  0  0  0  0  # atno 17394 bound_to 11000
  141.0231  134.0861  157.4098 LP  0  0  0  0  0  0  0  0  0  0  0  0  # atno 17395 bound_to 11000

$$$$
