AV-unprocessed.smi:1420|AV-procd|sdf|5787|dock9
  -GOLD-   22720 5433D 1   1.00000     0.00000
 Structure written by MMmdl.
 38 39  0  0  0  0  0  0  0  0  1 V2000
  147.0257  140.5451  154.7909 C   0  0  0  0  0  0  0  0  0  0  0  0
  148.4771  140.3007  154.3043 C   0  0  1  0  0  0  0  0  0  0  0  0
  149.2703  141.6367  154.4027 C   0  0  0  0  0  0  0  0  0  0  0  0
  149.2821  142.2071  155.7468 N   0  0  0  0  0  0  0  0  0  0  0  0
  149.8720  141.6508  156.8164 C   0  0  0  0  0  0  0  0  0  0  0  0
  150.4747  140.5784  156.7779 O   0  0  0  0  0  0  0  0  0  0  0  0
  149.7735  142.4256  158.1312 C   0  0  0  0  0  0  0  0  0  0  0  0
  151.0221  143.0993  158.4403 N   0  0  0  0  0  0  0  0  0  0  0  0
  151.6847  144.0574  157.7011 C   0  0  0  0  0  0  0  0  0  0  0  0
  152.8152  144.3924  158.3898 C   0  0  0  0  0  0  0  0  0  0  0  0
  152.7570  143.5754  159.5535 C   0  0  0  0  0  0  0  0  0  0  0  0
  151.6831  142.8025  159.5812 N   0  0  0  0  0  0  0  0  0  0  0  0
  149.1351  139.1742  155.0069 N   0  0  0  0  0  0  0  0  0  0  0  0
  148.3596  137.9309  154.9238 C   0  0  0  0  0  0  0  0  0  0  0  0
  149.0480  136.7476  155.6257 C   0  0  0  0  0  0  0  0  0  0  0  0
  150.3414  136.5505  155.0720 O   0  0  0  0  0  0  0  0  0  0  0  0
  151.1571  137.7064  155.2004 C   0  0  0  0  0  0  0  0  0  0  0  0
  150.4840  138.8987  154.4981 C   0  0  0  0  0  0  0  0  0  0  0  0
  146.5649  141.4075  154.3108 H   0  0  0  0  0  0  0  0  0  0  0  0
  146.9944  140.7145  155.8678 H   0  0  0  0  0  0  0  0  0  0  0  0
  146.3669  139.7089  154.5613 H   0  0  0  0  0  0  0  0  0  0  0  0
  148.4159  140.0407  153.2464 H   0  0  0  0  0  0  0  0  0  0  0  0
  150.3037  141.4778  154.0932 H   0  0  0  0  0  0  0  0  0  0  0  0
  148.8676  142.4039  153.7432 H   0  0  0  0  0  0  0  0  0  0  0  0
  148.8060  143.0889  155.8734 H   0  0  0  0  0  0  0  0  0  0  0  0
  148.9811  143.1724  158.0662 H   0  0  0  0  0  0  0  0  0  0  0  0
  149.5091  141.7476  158.9445 H   0  0  0  0  0  0  0  0  0  0  0  0
  151.3006  144.4149  156.7569 H   0  0  0  0  0  0  0  0  0  0  0  0
  153.5691  145.1116  158.1056 H   0  0  0  0  0  0  0  0  0  0  0  0
  153.4583  143.5218  160.3731 H   0  0  0  0  0  0  0  0  0  0  0  0
  147.3849  138.0544  155.3919 H   0  0  0  0  0  0  0  0  0  0  0  0
  148.1802  137.6760  153.8783 H   0  0  0  0  0  0  0  0  0  0  0  0
  149.1255  136.9262  156.6993 H   0  0  0  0  0  0  0  0  0  0  0  0
  148.4628  135.8374  155.4942 H   0  0  0  0  0  0  0  0  0  0  0  0
  151.3285  137.9259  156.2555 H   0  0  0  0  0  0  0  0  0  0  0  0
  152.1308  137.5051  154.7536 H   0  0  0  0  0  0  0  0  0  0  0  0
  150.4433  138.7104  153.4241 H   0  0  0  0  0  0  0  0  0  0  0  0
  151.1360  139.7568  154.6453 H   0  0  0  0  0  0  0  0  0  0  0  0
  1  2  1  0  0  0  0
  1 19  1  0  0  0  0
  1 20  1  0  0  0  0
  1 21  1  0  0  0  0
  2  3  1  0  0  0  0
  2 13  1  0  0  0  0
  2 22  1  0  0  0  0
  3  4  1  0  0  0  0
  3 23  1  0  0  0  0
  3 24  1  0  0  0  0
  4  5  1  0  0  0  0
  4 25  1  0  0  0  0
  5  6  2  0  0  0  0
  5  7  1  0  0  0  0
  7  8  1  0  0  0  0
  7 26  1  0  0  0  0
  7 27  1  0  0  0  0
  8 12  1  0  0  0  0
  8  9  1  0  0  0  0
  9 10  2  0  0  0  0
  9 28  1  0  0  0  0
 10 11  1  0  0  0  0
 10 29  1  0  0  0  0
 11 12  2  0  0  0  0
 11 30  1  0  0  0  0
 13 18  1  0  0  0  0
 13 14  1  0  0  0  0
 14 15  1  0  0  0  0
 14 31  1  0  0  0  0
 14 32  1  0  0  0  0
 15 16  1  0  0  0  0
 15 33  1  0  0  0  0
 15 34  1  0  0  0  0
 16 17  1  0  0  0  0
 17 18  1  0  0  0  0
 17 35  1  0  0  0  0
 17 36  1  0  0  0  0
 18 37  1  0  0  0  0
 18 38  1  0  0  0  0
M  END
> <s_m_source_file>
AV-unprocessed.smi

> <i_m_source_file_index>
1420

> <i_lp_mmshare_version>
43012

> <i_f3d_flags>
0

> <s_epik_input>
W0NIMl0xW0NIMl1PW0NIMl1bQ0gyXU4xW0NASF0oW0NIM10pW0NIMl1bTkhdQyg9TylbQ0gyXW4yW2NIXVtjSF1bY0hdbjI=

> <s_epik_cmdline>
J2VwaWtfcHl0aG9uJywgJy1waCcsICc3LjAnLCAnLXRuJywgJzgnLCAnLW1hJywgJzIwMCcsICctbWV0YWxfYmluZGluZycsICctaW1hZScsICc8aW5maWxlLm1hZT4nLCAnLW9tYWUnLCAnPG91dGZpbGUubWFlPic=

> <r_lp_tautomer_probability>
1

> <r_epik_Ionization_Penalty>
0.196927

> <r_epik_Ionization_Penalty_Charging>
0

> <r_epik_Ionization_Penalty_Neutral>
0.196927

> <r_epik_State_Penalty>
0.186684

> <r_epik_Charging_Adjusted_Penalty>
0.186684

> <i_epik_Tot_Q>
0

> <i_epik_Tot_abs_Q>
0

> <r_epik_Metal_State_Penalty>
0.186682

> <b_epik_Metal_Only>
0

> <s_lp_Force_Field>
OPLS_2005

> <r_lp_Energy>
28.9216

> <b_lp_Chiralities_Consistent>
1

> <s_lp_Variant>
AV-unprocessed.smi:1420-2

> <Gold.Version>
5.8.1

> <Gold.Id.Protein>
6NUR|6NUR_protein|mol2

> <Gold.PLP.Fitness>
38.0705

> <Gold.PLP.PLP>
-33.1431

> <Gold.PLP.part.hbond>
-0.9988

> <Gold.PLP.part.metal>
0.0000

> <Gold.PLP.part.buried>
-3.4281

> <Gold.PLP.part.nonpolar>
-29.3802

> <Gold.PLP.part.repulsive>
0.4108

> <Gold.PLP.ligand.clash>
0.0000

> <Gold.PLP.ligand.torsion>
0.2637

> <Gold.PLP.Chemscore.Hbond>
0.8000

> <Gold.PLP.Chemscore.CHOScore>
1.0000

> <Gold.PLP.Chemscore.Metal>
0.0000

> <Gold.Chemscore.Hbonds>
donor molecule, donor type, donor heavy atom, donor atom, acceptor molecule, acceptor atom, score
      L1  H     4    25       P1  8028  0.93
      L1  C     9    28       P1  8028  0.74

> <Gold.PLP.Chemscore.Internal.Correction>
0.0547

> <Gold.Rescore>
     Score         DG    S(hbond)    S(metal)    S(lipo)     H(rot)  DE(clash)    DE(int)     intcor
     10.62     -13.19       0.81        0.00      83.49       1.87       0.06       2.51       ----

> <Gold.Chemscore.Fitness>
10.6178

> <Gold.Chemscore.DG>
-13.1857

> <Gold.Chemscore.ZeroCoef>
-5.4800

> <Gold.Chemscore.Hbond>
0.8135

> <Gold.Chemscore.Metal>
0.0000

> <Gold.Chemscore.Lipo>
83.4869

> <Gold.Chemscore.Internal_Hbond>
0.0000

> <Gold.Chemscore.DEClash>
0.0589

> <Gold.Chemscore.DEInternal>
2.5091

> <Gold.Chemscore.Rot>
1.8669

> <Gold.Chemscore.Internal.Correction>
   9.000000E+99

> <Gold.Chemscore.Hbonds>
donor molecule, donor type, donor heavy atom, donor atom, acceptor molecule, acceptor atom, score
      L1  H     4    25       P1  8028  0.89

> <Gold.Chemscore.Hbond.Weighted>
-2.7170

> <Gold.Chemscore.Metal.Weighted>
-0.0000

> <Gold.Chemscore.Lipo.Weighted>
-9.7680

> <Gold.Chemscore.Internal_Hbond.Weighted>
0.0000

> <Gold.Chemscore.DEClash.Weighted>
0.0589

> <Gold.Chemscore.DEInternal.Weighted>
2.5091

> <Gold.Chemscore.Rot.Weighted>
4.7792

> <Gold.Chemscore.Internal.Correction.Weighted>
   9.000000E+99

> <Gold.Protein.RotatedTorsions>
[ 6907 6896 6895 6894 ] final  -93.55 input  -60.11 | X-H torsion
[ 7974 7965 7964 7962 ] final  -62.46 input  175.53 | X-H torsion
[ 8008 7997 7996 7995 ] final  175.09 input   59.86 | X-H torsion
[ 10167 10162 10161 10158 ] final  -95.60 input  -65.29 | X-H torsion
[ 10718 10713 10712 10709 ] final   79.32 input   66.30 | X-H torsion
[ 10763 10752 10751 10750 ] final  149.66 input  -60.55 | X-H torsion
[ 11005 11000 10999 10996 ] final  178.74 input  -57.11 | X-H torsion

> <Gold.Protein.ActiveResidues>
 VAL166  LYS551  ARG553  GLY616  TRP617  ASP618  TYR619  PRO620  LYS621  CYS622 
 ASP623  PHE694  ASN695  SER759  ASP760  ASP761  ALA762  ILE779  LEU786  VAL792 
 PHE793  MET794  SER795  GLU796  ALA797  LYS798  CYS799  TRP800  GLU811  SER814 

> <Gold.Protein.RotatedAtoms>
  150.6924  134.1950  159.4299 H   0  0  0  0  0  0  0  0  0  0  0  0  # atno 6907 bound_to 6896
  151.9919  134.9972  160.0571 H   0  0  0  0  0  0  0  0  0  0  0  0  # atno 6908 bound_to 6896
  152.1659  133.4577  159.4921 H   0  0  0  0  0  0  0  0  0  0  0  0  # atno 6909 bound_to 6896
  145.7911  140.8709  143.0280 H   0  0  0  0  0  0  0  0  0  0  0  0  # atno 7974 bound_to 7965
  156.0907  140.1418  156.9596 H   0  0  0  0  0  0  0  0  0  0  0  0  # atno 8008 bound_to 7997
  154.4640  140.0933  156.7017 H   0  0  0  0  0  0  0  0  0  0  0  0  # atno 8009 bound_to 7997
  155.4925  140.3448  155.4359 H   0  0  0  0  0  0  0  0  0  0  0  0  # atno 8010 bound_to 7997
  140.3025  143.3154  152.0234 H   0  0  0  0  0  0  0  0  0  0  0  0  # atno 10167 bound_to 10162
  157.6773  130.9908  150.1915 H   0  0  0  0  0  0  0  0  0  0  0  0  # atno 10718 bound_to 10713
  154.0747  135.2864  155.3301 H   0  0  0  0  0  0  0  0  0  0  0  0  # atno 10763 bound_to 10752
  154.6723  135.5295  153.8158 H   0  0  0  0  0  0  0  0  0  0  0  0  # atno 10764 bound_to 10752
  153.0471  135.6561  154.0926 H   0  0  0  0  0  0  0  0  0  0  0  0  # atno 10765 bound_to 10752
  140.3985  134.6799  157.4548 H   0  0  0  0  0  0  0  0  0  0  0  0  # atno 11005 bound_to 11000
  144.6782  140.0124  143.7484 LP  0  0  0  0  0  0  0  0  0  0  0  0  # atno 17320 bound_to 7965
  145.9976  139.3065  143.0947 LP  0  0  0  0  0  0  0  0  0  0  0  0  # atno 17321 bound_to 7965
  139.4912  144.6445  151.6807 LP  0  0  0  0  0  0  0  0  0  0  0  0  # atno 17342 bound_to 10162
  140.5639  144.0223  150.6183 LP  0  0  0  0  0  0  0  0  0  0  0  0  # atno 17343 bound_to 10162
  156.2625  130.3712  149.8115 LP  0  0  0  0  0  0  0  0  0  0  0  0  # atno 17370 bound_to 10713
  156.5856  130.8484  151.3394 LP  0  0  0  0  0  0  0  0  0  0  0  0  # atno 17371 bound_to 10713
  140.0354  134.6345  155.9051 LP  0  0  0  0  0  0  0  0  0  0  0  0  # atno 17394 bound_to 11000
  141.1865  133.6557  156.5243 LP  0  0  0  0  0  0  0  0  0  0  0  0  # atno 17395 bound_to 11000

$$$$
