#       Name:                AV-unprocessed.smi:1672
#       Creating user name   scv26
#       Creation time:       Fri Mar 27 07:45:11 2020


#       File generated by GOLD software.
#

@<TRIPOS>MOLECULE
AV-unprocessed.smi:1672
    53    55     1
SMALL
NO_CHARGES


@<TRIPOS>ATOM
      1 ****        -4.3154  -1.5450   1.5617 C.3            1 S1                 0.0000
      2 ****        -4.3486  -0.1300   0.9582 C.3            1 S1                 0.0000
      3 ****        -3.6620  -0.0520  -0.4175 C.3            1 S1                 0.0000
      4 ****        -2.1283  -0.1188  -0.3080 C.3            1 S1                 0.0000
      5 ****        -1.6077   0.9429   0.5938 N.4            1 S1                 1.0000
      6 ****        -0.1239   1.0024   0.6375 C.3            1 S1                 0.0000
      7 ****         0.4847   1.6820  -0.6079 C.3            1 S1                 0.0000
      8 ****         0.0473   3.0244  -0.6566 O.3            1 S1                 0.0000
      9 ****         2.0279   1.6953  -0.6137 C.3            1 S1                 0.0000
     10 ****         2.6261   0.3527  -0.5379 N.pl3          1 S1                 0.0000
     11 ****         3.2349  -0.2971   0.4986 C.2            1 S1                 0.0000
     12 ****         3.4578   0.2138   1.8851 C.3            1 S1                 0.0000
     13 ****         2.3211   0.0653   2.7066 O.3            1 S1                 0.0000
     14 ****         3.6100  -1.5242   0.0393 N.pl3          1 S1                 1.0000
     15 ****         3.2581  -1.6559  -1.3043 C.ar           1 S1                 0.0000
     16 ****         3.4381  -2.7102  -2.1946 C.ar           1 S1                 0.0000
     17 ****         2.9663  -2.5157  -3.5094 C.ar           1 S1                 0.0000
     18 ****         2.3452  -1.3103  -3.8957 C.ar           1 S1                 0.0000
     19 ****         2.1668  -0.2492  -2.9834 C.ar           1 S1                 0.0000
     20 ****         2.6330  -0.4509  -1.6843 C.ar           1 S1                 0.0000
     21 ****        -2.2046   0.8469   1.9508 C.3            1 S1                 0.0000
     22 ****        -3.7405   0.9314   1.8930 C.3            1 S1                 0.0000
     23 ****        -3.2995  -1.8876   1.7560 H              1 S1                 0.0000
     24 ****        -4.7837  -2.2661   0.8911 H              1 S1                 0.0000
     25 ****        -4.8594  -1.5781   2.5060 H              1 S1                 0.0000
     26 ****        -5.4010   0.1192   0.8155 H              1 S1                 0.0000
     27 ****        -4.0270  -0.8479  -1.0677 H              1 S1                 0.0000
     28 ****        -3.9408   0.8846  -0.9028 H              1 S1                 0.0000
     29 ****        -1.8151  -1.0973   0.0582 H              1 S1                 0.0000
     30 ****        -1.7044  -0.0120  -1.3054 H              1 S1                 0.0000
     31 ****         0.1971   1.5582   1.5199 H              1 S1                 0.0000
     32 ****         0.2608  -0.0108   0.7585 H              1 S1                 0.0000
     33 ****         0.1367   1.1892  -1.5142 H              1 S1                 0.0000
     34 ****         0.4120   3.4907   0.0805 H              1 S1                 0.0000
     35 ****         2.4094   2.1858  -1.5105 H              1 S1                 0.0000
     36 ****         2.4006   2.2742   0.2316 H              1 S1                 0.0000
     37 ****         4.2899  -0.3259   2.3384 H              1 S1                 0.0000
     38 ****         3.7440   1.2649   1.8500 H              1 S1                 0.0000
     39 ****         2.5349   0.3784   3.5728 H              1 S1                 0.0000
     40 ****         3.9175  -3.6332  -1.9026 H              1 S1                 0.0000
     41 ****         3.0858  -3.3055  -4.2371 H              1 S1                 0.0000
     42 ****         2.0002  -1.1965  -4.9134 H              1 S1                 0.0000
     43 ****         1.6934   0.6712  -3.2922 H              1 S1                 0.0000
     44 ****        -1.8876  -0.0824   2.4261 H              1 S1                 0.0000
     45 ****        -1.8307   1.6603   2.5738 H              1 S1                 0.0000
     46 ****        -4.0255   1.9233   1.5394 H              1 S1                 0.0000
     47 ****        -4.1592   0.8374   2.8956 H              1 S1                 0.0000
     48 ****        -1.9138   1.8284   0.2156 H              1 S1                 0.0000
     49 ****         4.0797  -2.2185   0.6064 H              1 S1                 0.0000
     50 ****        -0.9513   3.0543  -0.6125 LP             1 S1                 0.0000
     51 ****         0.3561   3.4478  -1.5083 LP             1 S1                 0.0000
     52 ****         2.0605  -0.8992   2.7511 LP             1 S1                 0.0000
     53 ****         1.5624   0.5987   2.3326 LP             1 S1                 0.0000
@<TRIPOS>BOND
    1    1    2 1     
    2    1   23 1     
    3    1   24 1     
    4    1   25 1     
    5    2   22 1     
    6    2    3 1     
    7    2   26 1     
    8    3    4 1     
    9    3   27 1     
   10    3   28 1     
   11    4    5 1     
   12    4   29 1     
   13    4   30 1     
   14    5    6 1     
   15    5   21 1     
   16    5   48 1     
   17    6    7 1     
   18    6   31 1     
   19    6   32 1     
   20    7    8 1     
   21    7    9 1     
   22    7   33 1     
   23    8   34 1     
   24    9   10 1     
   25    9   35 1     
   26    9   36 1     
   27   10   20 1     
   28   10   11 1     
   29   11   12 1     
   30   11   14 2     
   31   12   13 1     
   32   12   37 1     
   33   12   38 1     
   34   13   39 1     
   35   14   15 1     
   36   14   49 1     
   37   15   20 ar    
   38   15   16 ar    
   39   16   17 ar    
   40   16   40 1     
   41   17   18 ar    
   42   17   41 1     
   43   18   19 ar    
   44   18   42 1     
   45   19   20 ar    
   46   19   43 1     
   47   21   22 1     
   48   21   44 1     
   49   21   45 1     
   50   22   46 1     
   51   22   47 1     
   52    8   50 1     
   53    8   51 1     
   54   13   52 1     
   55   13   53 1     
@<TRIPOS>SUBSTRUCTURE
      1 S1             1
@<TRIPOS>SET
LONE_PAIRS      STATIC     ATOMS    <user>   **** ""
4 50 51 52 53
DONOR_HYDROGENS      STATIC     ATOMS    <user>   **** ""
4 48 34 39 49
ATOM$BLUE        STATIC     ATOMS    COLORGROUP SYSTEM
4 50 51 52 53
ATOM$RED        STATIC     ATOMS    COLORGROUP SYSTEM
4 48 34 39 49
