AV-unprocessed.smi:244|AV-procd|sdf|1871|dock6
  -GOLD-   2262020513D 1   1.00000     0.00000
 Structure written by MMmdl.
 57 61  0  0  0  0  0  0  0  0  2 V2000
  151.2307  144.8808  158.6679 C   0  0  0  0  0  0  0  0  0  0  0  0
  151.6792  143.7343  159.4873 N   0  3  2  0  0  0  0  0  0  0  0  0
  152.5874  144.1480  160.5863 C   0  0  0  0  0  0  0  0  0  0  0  0
  152.9474  142.9545  161.4860 C   0  0  0  0  0  0  0  0  0  0  0  0
  153.5641  141.8239  160.6537 C   0  0  1  0  0  0  0  0  0  0  0  0
  153.8365  140.7055  161.4906 O   0  0  0  0  0  0  0  0  0  0  0  0
  154.4705  139.6524  160.7717 C   0  0  0  0  0  0  0  0  0  0  0  0
  153.5448  139.1737  159.6414 C   0  0  0  0  0  0  0  0  0  0  0  0
  153.1679  140.2922  158.7812 N   0  0  0  0  0  0  0  0  0  0  0  0
  152.4467  139.8948  157.7090 C   0  0  0  0  0  0  0  0  0  0  0  0
  152.8509  140.2242  156.4539 N   0  0  0  0  0  0  0  0  0  0  0  0
  152.1452  139.8087  155.3974 C   0  0  0  0  0  0  0  0  0  0  0  0
  151.0387  139.0620  155.3737 N   0  0  0  0  0  0  0  0  0  0  0  0
  150.6398  138.7240  156.6339 C   0  0  0  0  0  0  0  0  0  0  0  0
  151.2801  139.0999  157.8467 C   0  0  0  0  0  0  0  0  0  0  0  0
  150.5958  138.5739  158.9340 N   0  0  0  0  0  0  0  0  0  0  0  0
  149.5993  137.9262  158.3936 C   0  0  0  0  0  0  0  0  0  0  0  0
  149.5597  137.9482  157.0167 N   0  0  0  0  0  0  0  0  0  0  0  0
  148.5719  137.3066  156.1629 C   0  0  0  0  0  0  0  0  0  0  0  0
  149.1434  136.2028  155.2365 C   0  0  0  0  0  0  0  0  0  0  0  0
  149.9976  136.8802  154.3324 O   0  0  0  0  0  0  0  0  0  0  0  0
  149.9762  135.1478  155.9967 C   0  0  0  0  0  0  0  0  0  0  0  0
  150.4535  134.0162  155.0686 C   0  0  0  0  0  0  0  0  0  0  0  0
  149.3385  133.4179  154.4178 O   0  0  0  0  0  0  0  0  0  0  0  0
  148.6338  134.3263  153.5793 C   0  0  0  0  0  0  0  0  0  0  0  0
  148.0515  135.4761  154.4211 C   0  0  0  0  0  0  0  0  0  0  0  0
  152.5862  141.4056  159.5349 C   0  0  2  0  0  0  0  0  0  0  0  0
  152.2514  142.6398  158.6626 C   0  0  0  0  0  0  0  0  0  0  0  0
  152.0716  145.3468  158.1528 H   0  0  0  0  0  0  0  0  0  0  0  0
  150.7508  145.6352  159.2921 H   0  0  0  0  0  0  0  0  0  0  0  0
  150.5057  144.5602  157.9193 H   0  0  0  0  0  0  0  0  0  0  0  0
  153.4934  144.5872  160.1653 H   0  0  0  0  0  0  0  0  0  0  0  0
  152.1075  144.9231  161.1850 H   0  0  0  0  0  0  0  0  0  0  0  0
  153.6442  143.2699  162.2632 H   0  0  0  0  0  0  0  0  0  0  0  0
  152.0533  142.5941  161.9966 H   0  0  0  0  0  0  0  0  0  0  0  0
  154.5008  142.1794  160.2190 H   0  0  0  0  0  0  0  0  0  0  0  0
  155.4284  139.9910  160.3738 H   0  0  0  0  0  0  0  0  0  0  0  0
  154.6826  138.8317  161.4569 H   0  0  0  0  0  0  0  0  0  0  0  0
  154.0456  138.4047  159.0516 H   0  0  0  0  0  0  0  0  0  0  0  0
  152.6515  138.7189  160.0721 H   0  0  0  0  0  0  0  0  0  0  0  0
  152.5228  140.1155  154.4330 H   0  0  0  0  0  0  0  0  0  0  0  0
  148.8661  137.4006  158.9882 H   0  0  0  0  0  0  0  0  0  0  0  0
  147.7953  136.8895  156.8060 H   0  0  0  0  0  0  0  0  0  0  0  0
  148.0857  138.0814  155.5678 H   0  0  0  0  0  0  0  0  0  0  0  0
  149.6059  136.8561  153.4726 H   0  0  0  0  0  0  0  0  0  0  0  0
  150.8291  135.6147  156.4909 H   0  0  0  0  0  0  0  0  0  0  0  0
  149.3727  134.6976  156.7847 H   0  0  0  0  0  0  0  0  0  0  0  0
  151.1664  134.3851  154.3296 H   0  0  0  0  0  0  0  0  0  0  0  0
  150.9701  133.2518  155.6491 H   0  0  0  0  0  0  0  0  0  0  0  0
  149.2928  134.7036  152.7958 H   0  0  0  0  0  0  0  0  0  0  0  0
  147.8287  133.7870  153.0799 H   0  0  0  0  0  0  0  0  0  0  0  0
  147.3086  135.0492  155.0942 H   0  0  0  0  0  0  0  0  0  0  0  0
  147.5183  136.1795  153.7802 H   0  0  0  0  0  0  0  0  0  0  0  0
  151.6636  141.0497  159.9972 H   0  0  0  0  0  0  0  0  0  0  0  0
  151.5236  142.3771  157.8939 H   0  0  0  0  0  0  0  0  0  0  0  0
  153.1448  142.9957  158.1465 H   0  0  0  0  0  0  0  0  0  0  0  0
  150.8515  143.3570  159.9268 H   0  0  0  0  0  0  0  0  0  0  0  0
  1  2  1  0  0  0  0
  1 29  1  0  0  0  0
  1 30  1  0  0  0  0
  1 31  1  0  0  0  0
  2 28  1  0  0  0  0
  2  3  1  0  0  0  0
  2 57  1  0  0  0  0
  3  4  1  0  0  0  0
  3 32  1  0  0  0  0
  3 33  1  0  0  0  0
  4  5  1  0  0  0  0
  4 34  1  0  0  0  0
  4 35  1  0  0  0  0
  5 27  1  0  0  0  0
  5  6  1  0  0  0  0
  5 36  1  0  0  0  0
  6  7  1  0  0  0  0
  7  8  1  0  0  0  0
  7 37  1  0  0  0  0
  7 38  1  0  0  0  0
  8  9  1  0  0  0  0
  8 39  1  0  0  0  0
  8 40  1  0  0  0  0
  9 10  1  0  0  0  0
  9 27  1  0  0  0  0
 10 15  1  0  0  0  0
 10 11  2  0  0  0  0
 11 12  1  0  0  0  0
 12 13  2  0  0  0  0
 12 41  1  0  0  0  0
 13 14  1  0  0  0  0
 14 18  1  0  0  0  0
 14 15  2  0  0  0  0
 15 16  1  0  0  0  0
 16 17  2  0  0  0  0
 17 18  1  0  0  0  0
 17 42  1  0  0  0  0
 18 19  1  0  0  0  0
 19 20  1  0  0  0  0
 19 43  1  0  0  0  0
 19 44  1  0  0  0  0
 20 26  1  0  0  0  0
 20 21  1  0  0  0  0
 20 22  1  0  0  0  0
 21 45  1  0  0  0  0
 22 23  1  0  0  0  0
 22 46  1  0  0  0  0
 22 47  1  0  0  0  0
 23 24  1  0  0  0  0
 23 48  1  0  0  0  0
 23 49  1  0  0  0  0
 24 25  1  0  0  0  0
 25 26  1  0  0  0  0
 25 50  1  0  0  0  0
 25 51  1  0  0  0  0
 26 52  1  0  0  0  0
 26 53  1  0  0  0  0
 27 28  1  0  0  0  0
 27 54  1  0  0  0  0
 28 55  1  0  0  0  0
 28 56  1  0  0  0  0
M  CHG  1   2   1
M  END
> <s_m_source_file>
AV-unprocessed.smi

> <i_m_source_file_index>
244

> <i_lp_mmshare_version>
43012

> <i_f3d_flags>
0

> <s_epik_input>
W0NIMl0xW0NIMl1OKFtDSDNdKVtDSDJdW0NAQEhdKFtDQEhdMTIpTihbQ0gyXVtDSDJdTzIpYyhuW2NIXW4zKWMoYzM0KW5bY0hdbjRbQ0gyXUM1KFtPSF0pW0NIMl1bQ0gyXU9bQ0gyXVtDSDJdNQ==

> <s_epik_cmdline>
J2VwaWtfcHl0aG9uJywgJy1waCcsICc3LjAnLCAnLXRuJywgJzgnLCAnLW1hJywgJzIwMCcsICctbWV0YWxfYmluZGluZycsICctaW1hZScsICc8aW5maWxlLm1hZT4nLCAnLW9tYWUnLCAnPG91dGZpbGUubWFlPic=

> <r_lp_tautomer_probability>
1

> <r_epik_Ionization_Penalty>
0.0136215

> <r_epik_Ionization_Penalty_Charging>
0.0131385

> <r_epik_Ionization_Penalty_Neutral>
0.000483022

> <r_epik_State_Penalty>
0.0104001

> <r_epik_Charging_Adjusted_Penalty>
0.0235387

> <i_epik_Tot_Q>
1

> <i_epik_Tot_abs_Q>
1

> <r_epik_Metal_State_Penalty>
0.0104469

> <b_epik_Metal_Only>
0

> <s_lp_Force_Field>
OPLS_2005

> <r_lp_Energy>
42.2984

> <b_lp_Chiralities_Consistent>
1

> <s_lp_Variant>
AV-unprocessed.smi:244-8

> <Gold.Version>
5.8.1

> <Gold.Id.Protein>
6NUR|6NUR_protein|mol2

> <Gold.PLP.Fitness>
47.1271

> <Gold.PLP.PLP>
-41.6231

> <Gold.PLP.part.hbond>
-2.8275

> <Gold.PLP.part.metal>
0.0000

> <Gold.PLP.part.buried>
-6.8821

> <Gold.PLP.part.nonpolar>
-31.1650

> <Gold.PLP.part.repulsive>
0.1056

> <Gold.PLP.ligand.clash>
0.0000

> <Gold.PLP.ligand.torsion>
0.2948

> <Gold.PLP.Chemscore.Hbond>
1.9913

> <Gold.PLP.Chemscore.CHOScore>
0.0000

> <Gold.PLP.Chemscore.Metal>
0.0000

> <Gold.Chemscore.Hbonds>
donor molecule, donor type, donor heavy atom, donor atom, acceptor molecule, acceptor atom, score
      L1  H    21    45       P1  7948  1.00
      P1  H  7997  8009       L1    11  0.92

> <Gold.PLP.Chemscore.Internal.Correction>
0.1198

> <Gold.Rescore>
     Score         DG    S(hbond)    S(metal)    S(lipo)     H(rot)  DE(clash)    DE(int)     intcor
     17.66     -17.99       1.87        0.00      99.32       2.09       0.00       0.33       ----

> <Gold.Chemscore.Fitness>
17.6591

> <Gold.Chemscore.DG>
-17.9891

> <Gold.Chemscore.ZeroCoef>
-5.4800

> <Gold.Chemscore.Hbond>
1.8689

> <Gold.Chemscore.Metal>
0.0000

> <Gold.Chemscore.Lipo>
99.3166

> <Gold.Chemscore.Internal_Hbond>
0.0000

> <Gold.Chemscore.DEClash>
0.0000

> <Gold.Chemscore.DEInternal>
0.3299

> <Gold.Chemscore.Rot>
2.0911

> <Gold.Chemscore.Internal.Correction>
   9.000000E+99

> <Gold.Chemscore.Hbonds>
donor molecule, donor type, donor heavy atom, donor atom, acceptor molecule, acceptor atom, score
      L1  H    21    45       P1  7948  0.70
      P1  H  7997  8009       L1    11  0.64

> <Gold.Chemscore.Hbond.Weighted>
-6.2421

> <Gold.Chemscore.Metal.Weighted>
-0.0000

> <Gold.Chemscore.Lipo.Weighted>
-11.6200

> <Gold.Chemscore.Internal_Hbond.Weighted>
0.0000

> <Gold.Chemscore.DEClash.Weighted>
0.0000

> <Gold.Chemscore.DEInternal.Weighted>
0.3299

> <Gold.Chemscore.Rot.Weighted>
5.3531

> <Gold.Chemscore.Internal.Correction.Weighted>
   9.000000E+99

> <Gold.Protein.RotatedTorsions>
[ 6907 6896 6895 6894 ] final   72.54 input  -60.11 | X-H torsion
[ 7974 7965 7964 7962 ] final  103.55 input  175.53 | X-H torsion
[ 8008 7997 7996 7995 ] final -153.52 input   59.86 | X-H torsion
[ 10167 10162 10161 10158 ] final  161.84 input  -65.29 | X-H torsion
[ 10718 10713 10712 10709 ] final  -36.52 input   66.30 | X-H torsion
[ 10763 10752 10751 10750 ] final -172.36 input  -60.55 | X-H torsion
[ 11005 11000 10999 10996 ] final -115.45 input  -57.11 | X-H torsion

> <Gold.Protein.ActiveResidues>
 VAL166  LYS551  ARG553  GLY616  TRP617  ASP618  TYR619  PRO620  LYS621  CYS622 
 ASP623  PHE694  ASN695  SER759  ASP760  ASP761  ALA762  ILE779  LEU786  VAL792 
 PHE793  MET794  SER795  GLU796  ALA797  LYS798  CYS799  TRP800  GLU811  SER814 

> <Gold.Protein.RotatedAtoms>
  152.4874  134.4555  159.9588 H   0  0  0  0  0  0  0  0  0  0  0  0  # atno 6907 bound_to 6896
  151.4549  133.3602  159.2808 H   0  0  0  0  0  0  0  0  0  0  0  0  # atno 6908 bound_to 6896
  150.8996  134.8432  159.7411 H   0  0  0  0  0  0  0  0  0  0  0  0  # atno 6909 bound_to 6896
  145.3444  139.2454  143.3592 H   0  0  0  0  0  0  0  0  0  0  0  0  # atno 7974 bound_to 7965
  155.6722  140.0734  157.2516 H   0  0  0  0  0  0  0  0  0  0  0  0  # atno 8008 bound_to 7997
  154.4121  140.1697  156.1942 H   0  0  0  0  0  0  0  0  0  0  0  0  # atno 8009 bound_to 7997
  155.9607  140.3370  155.6491 H   0  0  0  0  0  0  0  0  0  0  0  0  # atno 8010 bound_to 7997
  139.4854  144.4497  151.8846 H   0  0  0  0  0  0  0  0  0  0  0  0  # atno 10167 bound_to 10162
  156.3259  130.4272  149.7917 H   0  0  0  0  0  0  0  0  0  0  0  0  # atno 10718 bound_to 10713
  154.6202  135.2874  155.0335 H   0  0  0  0  0  0  0  0  0  0  0  0  # atno 10763 bound_to 10752
  154.1533  135.6500  153.4972 H   0  0  0  0  0  0  0  0  0  0  0  0  # atno 10764 bound_to 10752
  153.0232  135.5360  154.6988 H   0  0  0  0  0  0  0  0  0  0  0  0  # atno 10765 bound_to 10752
  141.0487  133.9722  157.2874 H   0  0  0  0  0  0  0  0  0  0  0  0  # atno 11005 bound_to 11000
  146.2994  140.4047  142.8709 LP  0  0  0  0  0  0  0  0  0  0  0  0  # atno 17320 bound_to 7965
  144.8766  140.7344  143.6013 LP  0  0  0  0  0  0  0  0  0  0  0  0  # atno 17321 bound_to 7965
  140.3953  144.2563  150.5896 LP  0  0  0  0  0  0  0  0  0  0  0  0  # atno 17342 bound_to 10162
  140.5108  143.2291  151.8538 LP  0  0  0  0  0  0  0  0  0  0  0  0  # atno 17343 bound_to 10162
  156.5207  130.8214  151.3202 LP  0  0  0  0  0  0  0  0  0  0  0  0  # atno 17370 bound_to 10713
  157.7421  130.9884  150.2493 LP  0  0  0  0  0  0  0  0  0  0  0  0  # atno 17371 bound_to 10713
  139.9332  135.0198  156.8471 LP  0  0  0  0  0  0  0  0  0  0  0  0  # atno 17394 bound_to 11000
  140.6097  134.0094  155.7571 LP  0  0  0  0  0  0  0  0  0  0  0  0  # atno 17395 bound_to 11000

$$$$
