AV-unprocessed.smi:48|AV-procd|sdf|454|dock6
  -GOLD-   2262016323D 1   1.00000     0.00000
 Structure written by MMmdl.
 30 32  0  0  0  0  0  0  0  0  1 V2000
  147.2074  138.3532  151.5722 O   0  0  0  0  0  0  0  0  0  0  0  0
  146.5918  138.8415  152.7448 C   0  0  0  0  0  0  0  0  0  0  0  0
  147.1396  140.2380  153.0880 C   0  0  2  0  0  0  0  0  0  0  0  0
  148.4401  140.1510  153.6516 O   0  0  0  0  0  0  0  0  0  0  0  0
  148.7235  141.3385  154.3202 C   0  0  2  0  0  0  0  0  0  0  0  0
  149.5515  141.0118  155.5194 N   0  0  0  0  0  0  0  0  0  0  0  0
  149.3777  141.4643  156.7776 C   0  0  0  0  0  0  0  0  0  0  0  0
  150.2330  141.0396  157.7068 N   0  0  0  0  0  0  0  0  0  0  0  0
  151.0615  140.2156  156.9631 C   0  0  0  0  0  0  0  0  0  0  0  0
  152.1911  139.4324  157.3034 C   0  0  0  0  0  0  0  0  0  0  0  0
  152.7828  139.3839  158.9237 Cl  0  0  0  0  0  0  0  0  0  0  0  0
  152.8001  138.7188  156.3266 N   0  0  0  0  0  0  0  0  0  0  0  0
  152.3203  138.7752  155.0781 C   0  0  0  0  0  0  0  0  0  0  0  0
  151.2730  139.4638  154.6110 N   0  0  0  0  0  0  0  0  0  0  0  0
  150.6590  140.1821  155.5973 C   0  0  0  0  0  0  0  0  0  0  0  0
  147.3867  141.9796  154.7318 C   0  0  1  0  0  0  0  0  0  0  0  0
  147.2348  143.2548  154.1417 O   0  0  0  0  0  0  0  0  0  0  0  0
  146.3502  141.0219  154.1481 C   0  0  2  0  0  0  0  0  0  0  0  0
  145.8420  140.1706  155.1581 O   0  0  0  0  0  0  0  0  0  0  0  0
  147.1965  140.8521  152.1868 H   0  0  0  0  0  0  0  0  0  0  0  0
  149.3523  141.9849  153.7054 H   0  0  0  0  0  0  0  0  0  0  0  0
  147.3064  142.0752  155.8163 H   0  0  0  0  0  0  0  0  0  0  0  0
  145.5006  141.5423  153.7033 H   0  0  0  0  0  0  0  0  0  0  0  0
  147.8796  137.7368  151.8196 H   0  0  0  0  0  0  0  0  0  0  0  0
  145.5203  138.8949  152.5500 H   0  0  0  0  0  0  0  0  0  0  0  0
  146.7403  138.1431  153.5692 H   0  0  0  0  0  0  0  0  0  0  0  0
  148.5744  142.1421  157.0269 H   0  0  0  0  0  0  0  0  0  0  0  0
  152.8516  138.1837  154.3473 H   0  0  0  0  0  0  0  0  0  0  0  0
  147.8367  143.8513  154.5600 H   0  0  0  0  0  0  0  0  0  0  0  0
  145.2066  139.5887  154.7702 H   0  0  0  0  0  0  0  0  0  0  0  0
  1  2  1  0  0  0  0
  1 24  1  0  0  0  0
  2  3  1  0  0  0  0
  2 25  1  0  0  0  0
  2 26  1  0  0  0  0
  3 20  1  0  0  0  0
  3 18  1  0  0  0  0
  3  4  1  0  0  0  0
  4  5  1  0  0  0  0
  5 21  1  0  0  0  0
  5  6  1  0  0  0  0
  5 16  1  0  0  0  0
  6 15  1  0  0  0  0
  6  7  1  0  0  0  0
  7  8  2  0  0  0  0
  7 27  1  0  0  0  0
  8  9  1  0  0  0  0
  9 15  2  0  0  0  0
  9 10  1  0  0  0  0
 10 11  1  0  0  0  0
 10 12  2  0  0  0  0
 12 13  1  0  0  0  0
 13 14  2  0  0  0  0
 13 28  1  0  0  0  0
 14 15  1  0  0  0  0
 16 22  1  0  0  0  0
 16 17  1  0  0  0  0
 16 18  1  0  0  0  0
 17 29  1  0  0  0  0
 18 23  1  0  0  0  0
 18 19  1  0  0  0  0
 19 30  1  0  0  0  0
M  END
> <s_m_source_file>
AV-unprocessed.smi

> <i_m_source_file_index>
48

> <i_lp_mmshare_version>
43012

> <i_f3d_flags>
0

> <s_epik_input>
W09IXVtDSDJdW0NASF0xT1tDQEhdKFtDQEhdKFtPSF0pW0NAQEhdMVtPSF0pbihbY0hdbjIpYyhjMjMpbltjSF1uYzNDbA==

> <s_epik_cmdline>
J2VwaWtfcHl0aG9uJywgJy1waCcsICc3LjAnLCAnLXRuJywgJzgnLCAnLW1hJywgJzIwMCcsICctbWV0YWxfYmluZGluZycsICctaW1hZScsICc8aW5maWxlLm1hZT4nLCAnLW9tYWUnLCAnPG91dGZpbGUubWFlPic=

> <r_lp_tautomer_probability>
1

> <r_epik_Ionization_Penalty>
3.45505e-06

> <r_epik_Ionization_Penalty_Charging>
0

> <r_epik_Ionization_Penalty_Neutral>
3.45505e-06

> <r_epik_State_Penalty>
-0

> <r_epik_Charging_Adjusted_Penalty>
0

> <i_epik_Tot_Q>
0

> <i_epik_Tot_abs_Q>
0

> <r_epik_Metal_State_Penalty>
-0

> <b_epik_Metal_Only>
0

> <s_epik_Chemistry_Notes>
This compound contains an acetal/aminal-like group ( X-CH(R)-Y where X, Y are N, S, or O) that may be acid/base labile, releasing an aldehyde.

> <s_lp_Force_Field>
OPLS_2005

> <r_lp_Energy>
33.2989

> <b_lp_Chiralities_Consistent>
1

> <s_lp_Variant>
AV-unprocessed.smi:48-8

> <Gold.Version>
5.8.1

> <Gold.Id.Protein>
6NUR|6NUR_protein|mol2

> <Gold.PLP.Fitness>
44.9588

> <Gold.PLP.PLP>
-31.7987

> <Gold.PLP.part.hbond>
-6.6097

> <Gold.PLP.part.metal>
0.0000

> <Gold.PLP.part.buried>
-0.8599

> <Gold.PLP.part.nonpolar>
-26.2080

> <Gold.PLP.part.repulsive>
2.6613

> <Gold.PLP.ligand.clash>
0.0000

> <Gold.PLP.ligand.torsion>
0.4531

> <Gold.PLP.Chemscore.Hbond>
4.3100

> <Gold.PLP.Chemscore.CHOScore>
0.3769

> <Gold.PLP.Chemscore.Metal>
0.0000

> <Gold.Chemscore.Hbonds>
donor molecule, donor type, donor heavy atom, donor atom, acceptor molecule, acceptor atom, score
      L1  H     1    24       P1  7948  1.00
      L1  H    17    29       P1  8028  1.00
      P1  H  7989  7998       L1    14  0.90
      P1  H  7997  8010       L1    12  0.36
      L1  C     7    27       P1  8028  0.01

> <Gold.PLP.Chemscore.Internal.Correction>
0.0056

> <Gold.Rescore>
     Score         DG    S(hbond)    S(metal)    S(lipo)     H(rot)  DE(clash)    DE(int)     intcor
      6.88      -7.57       2.12        0.00      40.37       3.80       0.11       0.59       ----

> <Gold.Chemscore.Fitness>
6.8755

> <Gold.Chemscore.DG>
-7.5660

> <Gold.Chemscore.ZeroCoef>
-5.4800

> <Gold.Chemscore.Hbond>
2.1242

> <Gold.Chemscore.Metal>
0.0000

> <Gold.Chemscore.Lipo>
40.3718

> <Gold.Chemscore.Internal_Hbond>
0.0000

> <Gold.Chemscore.DEClash>
0.1054

> <Gold.Chemscore.DEInternal>
0.5851

> <Gold.Chemscore.Rot>
3.8017

> <Gold.Chemscore.Internal.Correction>
   9.000000E+99

> <Gold.Chemscore.Hbonds>
donor molecule, donor type, donor heavy atom, donor atom, acceptor molecule, acceptor atom, score
      L1  H     1    24       P1  7948  1.00
      L1  H    17    29       P1  8028  0.30
      P1  H  7989  7998       L1    14  0.17

> <Gold.Chemscore.Hbond.Weighted>
-7.0949

> <Gold.Chemscore.Metal.Weighted>
-0.0000

> <Gold.Chemscore.Lipo.Weighted>
-4.7235

> <Gold.Chemscore.Internal_Hbond.Weighted>
0.0000

> <Gold.Chemscore.DEClash.Weighted>
0.1054

> <Gold.Chemscore.DEInternal.Weighted>
0.5851

> <Gold.Chemscore.Rot.Weighted>
9.7324

> <Gold.Chemscore.Internal.Correction.Weighted>
   9.000000E+99

> <Gold.Protein.RotatedTorsions>
[ 6907 6896 6895 6894 ] final  -79.77 input  -60.11 | X-H torsion
[ 7974 7965 7964 7962 ] final  -32.73 input  175.53 | X-H torsion
[ 8008 7997 7996 7995 ] final   74.93 input   59.86 | X-H torsion
[ 10167 10162 10161 10158 ] final  -86.17 input  -65.29 | X-H torsion
[ 10718 10713 10712 10709 ] final -177.93 input   66.30 | X-H torsion
[ 10763 10752 10751 10750 ] final  177.01 input  -60.55 | X-H torsion
[ 11005 11000 10999 10996 ] final   62.53 input  -57.11 | X-H torsion

> <Gold.Protein.ActiveResidues>
 VAL166  LYS551  ARG553  GLY616  TRP617  ASP618  TYR619  PRO620  LYS621  CYS622 
 ASP623  PHE694  ASN695  SER759  ASP760  ASP761  ALA762  ILE779  LEU786  VAL792 
 PHE793  MET794  SER795  GLU796  ALA797  LYS798  CYS799  TRP800  GLU811  SER814 

> <Gold.Protein.RotatedAtoms>
  150.6943  134.4070  159.5144 H   0  0  0  0  0  0  0  0  0  0  0  0  # atno 6907 bound_to 6896
  152.1835  134.8731  160.0533 H   0  0  0  0  0  0  0  0  0  0  0  0  # atno 6908 bound_to 6896
  151.9713  133.3692  159.4109 H   0  0  0  0  0  0  0  0  0  0  0  0  # atno 6909 bound_to 6896
  146.0967  140.5829  142.8840 H   0  0  0  0  0  0  0  0  0  0  0  0  # atno 7974 bound_to 7965
  155.8055  140.3475  155.5427 H   0  0  0  0  0  0  0  0  0  0  0  0  # atno 8008 bound_to 7997
  155.8494  140.0954  157.1704 H   0  0  0  0  0  0  0  0  0  0  0  0  # atno 8009 bound_to 7997
  154.4007  140.1379  156.3813 H   0  0  0  0  0  0  0  0  0  0  0  0  # atno 8010 bound_to 7997
  140.3967  143.2680  151.9195 H   0  0  0  0  0  0  0  0  0  0  0  0  # atno 10167 bound_to 10162
  156.8368  130.9672  151.3103 H   0  0  0  0  0  0  0  0  0  0  0  0  # atno 10718 bound_to 10713
  154.4888  135.2778  155.1513 H   0  0  0  0  0  0  0  0  0  0  0  0  # atno 10763 bound_to 10752
  154.3193  135.6213  153.5504 H   0  0  0  0  0  0  0  0  0  0  0  0  # atno 10764 bound_to 10752
  152.9885  135.5738  154.5305 H   0  0  0  0  0  0  0  0  0  0  0  0  # atno 10765 bound_to 10752
  140.0086  134.6332  155.9816 H   0  0  0  0  0  0  0  0  0  0  0  0  # atno 11005 bound_to 11000
  144.7400  140.4917  143.6876 LP  0  0  0  0  0  0  0  0  0  0  0  0  # atno 17320 bound_to 7965
  145.5935  139.1497  143.3169 LP  0  0  0  0  0  0  0  0  0  0  0  0  # atno 17321 bound_to 7965
  139.4786  144.5674  151.8143 LP  0  0  0  0  0  0  0  0  0  0  0  0  # atno 17342 bound_to 10162
  140.4783  144.1487  150.5928 LP  0  0  0  0  0  0  0  0  0  0  0  0  # atno 17343 bound_to 10162
  157.6377  130.8780  149.9390 LP  0  0  0  0  0  0  0  0  0  0  0  0  # atno 17370 bound_to 10713
  156.0903  130.3664  150.0408 LP  0  0  0  0  0  0  0  0  0  0  0  0  # atno 17371 bound_to 10713
  141.1694  133.6537  156.4598 LP  0  0  0  0  0  0  0  0  0  0  0  0  # atno 17394 bound_to 11000
  140.4596  134.6853  157.5079 LP  0  0  0  0  0  0  0  0  0  0  0  0  # atno 17395 bound_to 11000

$$$$
