AV-unprocessed.smi:808|AV-procd|sdf|3804|dock2
  -GOLD-   22720 1243D 1   1.00000     0.00000
 Structure written by MMmdl.
 34 35  0  0  0  0  0  0  0  0  2 V2000
  152.2687  140.9379  156.9158 O   0  0  0  0  0  0  0  0  0  0  0  0
  151.2107  141.4951  156.6238 C   0  0  0  0  0  0  0  0  0  0  0  0
  150.2467  140.8329  155.6348 C   0  0  0  0  0  0  0  0  0  0  0  0
  150.4241  139.3912  155.5884 N   0  0  0  0  0  0  0  0  0  0  0  0
  150.5504  138.5140  156.6493 C   0  0  0  0  0  0  0  0  0  0  0  0
  150.7156  137.2865  156.0830 C   0  0  0  0  0  0  0  0  0  0  0  0
  150.9079  135.9901  156.8039 C   0  0  0  0  0  0  0  0  0  0  0  0
  150.4913  135.8950  157.9791 O   0  0  0  0  0  0  0  0  0  0  0  0
  151.4764  135.0528  156.2012 O   0  5  0  0  0  0  0  0  0  0  0  0
  150.6739  137.4789  154.6778 C   0  0  0  0  0  0  0  0  0  0  0  0
  150.4964  138.7605  154.3866 N   0  0  0  0  0  0  0  0  0  0  0  0
  150.8428  142.6875  157.1202 N   0  0  0  0  0  0  0  0  0  0  0  0
  151.5955  143.4715  158.0931 C   0  0  0  0  0  0  0  0  0  0  0  0
  152.1164  142.5417  159.2054 C   0  0  0  0  0  0  0  0  0  0  0  0
  152.8652  143.3291  160.2926 C   0  0  0  0  0  0  0  0  0  0  0  0
  151.9855  144.4451  160.8777 C   0  0  0  0  0  0  0  0  0  0  0  0
  151.4672  145.3790  159.7726 C   0  0  0  0  0  0  0  0  0  0  0  0
  150.7183  144.5949  158.6828 C   0  0  0  0  0  0  0  0  0  0  0  0
  149.2191  141.0536  155.9261 H   0  0  0  0  0  0  0  0  0  0  0  0
  150.3923  141.2430  154.6343 H   0  0  0  0  0  0  0  0  0  0  0  0
  150.5202  138.8319  157.6811 H   0  0  0  0  0  0  0  0  0  0  0  0
  150.7666  136.7551  153.8814 H   0  0  0  0  0  0  0  0  0  0  0  0
  149.9566  143.0679  156.8204 H   0  0  0  0  0  0  0  0  0  0  0  0
  152.4583  143.9205  157.5970 H   0  0  0  0  0  0  0  0  0  0  0  0
  151.2826  142.0041  159.6594 H   0  0  0  0  0  0  0  0  0  0  0  0
  152.7765  141.7841  158.7807 H   0  0  0  0  0  0  0  0  0  0  0  0
  153.1857  142.6534  161.0860 H   0  0  0  0  0  0  0  0  0  0  0  0
  153.7728  143.7624  159.8704 H   0  0  0  0  0  0  0  0  0  0  0  0
  151.1417  144.0048  161.4103 H   0  0  0  0  0  0  0  0  0  0  0  0
  152.5514  145.0175  161.6132 H   0  0  0  0  0  0  0  0  0  0  0  0
  150.8107  146.1360  160.2025 H   0  0  0  0  0  0  0  0  0  0  0  0
  152.3050  145.9149  159.3250 H   0  0  0  0  0  0  0  0  0  0  0  0
  150.4009  145.2789  157.8950 H   0  0  0  0  0  0  0  0  0  0  0  0
  149.8079  144.1685  159.1067 H   0  0  0  0  0  0  0  0  0  0  0  0
  1  2  2  0  0  0  0
  2  3  1  0  0  0  0
  2 12  1  0  0  0  0
  3  4  1  0  0  0  0
  3 19  1  0  0  0  0
  3 20  1  0  0  0  0
  4 11  1  0  0  0  0
  4  5  1  0  0  0  0
  5  6  2  0  0  0  0
  5 21  1  0  0  0  0
  6  7  1  0  0  0  0
  6 10  1  0  0  0  0
  7  8  2  0  0  0  0
  7  9  1  0  0  0  0
 10 11  2  0  0  0  0
 10 22  1  0  0  0  0
 12 13  1  0  0  0  0
 12 23  1  0  0  0  0
 13 18  1  0  0  0  0
 13 14  1  0  0  0  0
 13 24  1  0  0  0  0
 14 15  1  0  0  0  0
 14 25  1  0  0  0  0
 14 26  1  0  0  0  0
 15 16  1  0  0  0  0
 15 27  1  0  0  0  0
 15 28  1  0  0  0  0
 16 17  1  0  0  0  0
 16 29  1  0  0  0  0
 16 30  1  0  0  0  0
 17 18  1  0  0  0  0
 17 31  1  0  0  0  0
 17 32  1  0  0  0  0
 18 33  1  0  0  0  0
 18 34  1  0  0  0  0
M  CHG  1   9  -1
M  END
> <s_m_source_file>
AV-unprocessed.smi

> <i_m_source_file_index>
808

> <i_lp_mmshare_version>
43012

> <i_f3d_flags>
0

> <s_epik_input>
Tz1DKFtPSF0pYyhbY0hdbjEpW2NIXW4xW0NIMl1DKD1PKVtOSF1bQ0hdMltDSDJdW0NIMl1bQ0gyXVtDSDJdW0NIMl0y

> <s_epik_cmdline>
J2VwaWtfcHl0aG9uJywgJy1waCcsICc3LjAnLCAnLXRuJywgJzgnLCAnLW1hJywgJzIwMCcsICctbWV0YWxfYmluZGluZycsICctaW1hZScsICc8aW5maWxlLm1hZT4nLCAnLW9tYWUnLCAnPG91dGZpbGUubWFlPic=

> <r_epik_Ionization_Penalty>
0.00097052

> <r_epik_Ionization_Penalty_Charging>
0.000938868

> <r_epik_Ionization_Penalty_Neutral>
3.16514e-05

> <r_epik_State_Penalty>
0.000609423

> <r_epik_Charging_Adjusted_Penalty>
0.00154829

> <i_epik_Tot_Q>
-1

> <i_epik_Tot_abs_Q>
1

> <r_epik_Metal_State_Penalty>
-0

> <b_epik_Metal_Only>
0

> <s_lp_Force_Field>
OPLS_2005

> <r_lp_Energy>
12.0504

> <b_lp_Chiralities_Consistent>
1

> <s_lp_Variant>
AV-unprocessed.smi:808-1

> <Gold.Version>
5.8.1

> <Gold.Id.Protein>
6NUR|6NUR_protein|mol2

> <Gold.PLP.Fitness>
45.6437

> <Gold.PLP.PLP>
-31.9717

> <Gold.PLP.part.hbond>
-3.4158

> <Gold.PLP.part.metal>
0.0000

> <Gold.PLP.part.buried>
-0.8097

> <Gold.PLP.part.nonpolar>
-27.5806

> <Gold.PLP.part.repulsive>
0.2114

> <Gold.PLP.ligand.clash>
0.0000

> <Gold.PLP.ligand.torsion>
0.9299

> <Gold.PLP.Chemscore.Hbond>
4.1128

> <Gold.PLP.Chemscore.CHOScore>
1.0547

> <Gold.PLP.Chemscore.Metal>
0.0000

> <Gold.Chemscore.Hbonds>
donor molecule, donor type, donor heavy atom, donor atom, acceptor molecule, acceptor atom, score
      L1  H    12    23       P1  8028  0.35
      P1  H  6896  6907       L1     8  1.38
      P1  H  7997  8010       L1     1  0.30
      P1  H 10752 10764       L1     9  1.89
      L1  C    10    22       P1  7948  0.21
      L1  C    10    22       P1  7949  0.77

> <Gold.PLP.Chemscore.Internal.Correction>
0.0293

> <Gold.Rescore>
     Score         DG    S(hbond)    S(metal)    S(lipo)     H(rot)  DE(clash)    DE(int)     intcor
     14.53     -19.28       2.31        0.00      86.64       1.59       1.22       3.53       ----

> <Gold.Chemscore.Fitness>
14.5306

> <Gold.Chemscore.DG>
-19.2764

> <Gold.Chemscore.ZeroCoef>
-5.4800

> <Gold.Chemscore.Hbond>
2.3148

> <Gold.Chemscore.Metal>
0.0000

> <Gold.Chemscore.Lipo>
86.6361

> <Gold.Chemscore.Internal_Hbond>
0.0000

> <Gold.Chemscore.DEClash>
1.2196

> <Gold.Chemscore.DEInternal>
3.5261

> <Gold.Chemscore.Rot>
1.5904

> <Gold.Chemscore.Internal.Correction>
   9.000000E+99

> <Gold.Chemscore.Hbonds>
donor molecule, donor type, donor heavy atom, donor atom, acceptor molecule, acceptor atom, score
      L1  H    12    23       P1  8028  0.33
      P1  H  6896  6907       L1     8  0.65
      P1  H  7997  8010       L1     1  0.29
      P1  H 10752 10764       L1     9  0.84

> <Gold.Chemscore.Hbond.Weighted>
-7.7313

> <Gold.Chemscore.Metal.Weighted>
-0.0000

> <Gold.Chemscore.Lipo.Weighted>
-10.1364

> <Gold.Chemscore.Internal_Hbond.Weighted>
0.0000

> <Gold.Chemscore.DEClash.Weighted>
1.2196

> <Gold.Chemscore.DEInternal.Weighted>
3.5261

> <Gold.Chemscore.Rot.Weighted>
4.0714

> <Gold.Chemscore.Internal.Correction.Weighted>
   9.000000E+99

> <Gold.Protein.RotatedTorsions>
[ 6907 6896 6895 6894 ] final  -54.05 input  -60.11 | X-H torsion
[ 7974 7965 7964 7962 ] final  135.60 input  175.53 | X-H torsion
[ 8008 7997 7996 7995 ] final   65.22 input   59.86 | X-H torsion
[ 10167 10162 10161 10158 ] final  113.42 input  -65.29 | X-H torsion
[ 10718 10713 10712 10709 ] final  -81.68 input   66.30 | X-H torsion
[ 10763 10752 10751 10750 ] final  -35.94 input  -60.55 | X-H torsion
[ 11005 11000 10999 10996 ] final  174.82 input  -57.11 | X-H torsion

> <Gold.Protein.ActiveResidues>
 VAL166  LYS551  ARG553  GLY616  TRP617  ASP618  TYR619  PRO620  LYS621  CYS622 
 ASP623  PHE694  ASN695  SER759  ASP760  ASP761  ALA762  ILE779  LEU786  VAL792 
 PHE793  MET794  SER795  GLU796  ALA797  LYS798  CYS799  TRP800  GLU811  SER814 

> <Gold.Protein.RotatedAtoms>
  150.8372  134.7650  159.6902 H   0  0  0  0  0  0  0  0  0  0  0  0  # atno 6907 bound_to 6896
  152.4466  134.5478  159.9867 H   0  0  0  0  0  0  0  0  0  0  0  0  # atno 6908 bound_to 6896
  151.5625  133.3363  159.3010 H   0  0  0  0  0  0  0  0  0  0  0  0  # atno 6909 bound_to 6896
  144.9648  139.4671  143.5462 H   0  0  0  0  0  0  0  0  0  0  0  0  # atno 7974 bound_to 7965
  155.6583  140.3497  155.4773 H   0  0  0  0  0  0  0  0  0  0  0  0  # atno 8008 bound_to 7997
  155.9790  140.1170  157.0767 H   0  0  0  0  0  0  0  0  0  0  0  0  # atno 8009 bound_to 7997
  154.4186  140.1142  156.5395 H   0  0  0  0  0  0  0  0  0  0  0  0  # atno 8010 bound_to 7997
  139.6463  144.7126  151.2137 H   0  0  0  0  0  0  0  0  0  0  0  0  # atno 10167 bound_to 10162
  156.0046  130.4611  150.3989 H   0  0  0  0  0  0  0  0  0  0  0  0  # atno 10718 bound_to 10713
  153.8714  135.6830  153.4774 H   0  0  0  0  0  0  0  0  0  0  0  0  # atno 10763 bound_to 10752
  153.1285  135.4708  154.9308 H   0  0  0  0  0  0  0  0  0  0  0  0  # atno 10764 bound_to 10752
  154.7712  135.3239  154.8136 H   0  0  0  0  0  0  0  0  0  0  0  0  # atno 10765 bound_to 10752
  140.3555  134.7158  157.4296 H   0  0  0  0  0  0  0  0  0  0  0  0  # atno 11005 bound_to 11000
  146.3364  139.8821  142.8822 LP  0  0  0  0  0  0  0  0  0  0  0  0  # atno 17320 bound_to 7965
  145.2647  141.0089  143.3806 LP  0  0  0  0  0  0  0  0  0  0  0  0  # atno 17321 bound_to 7965
  140.7516  143.6226  150.8499 LP  0  0  0  0  0  0  0  0  0  0  0  0  # atno 17342 bound_to 10162
  139.9869  143.5889  152.2924 LP  0  0  0  0  0  0  0  0  0  0  0  0  # atno 17343 bound_to 10162
  157.2059  131.0449  151.2625 LP  0  0  0  0  0  0  0  0  0  0  0  0  # atno 17370 bound_to 10713
  157.3933  130.7294  149.6713 LP  0  0  0  0  0  0  0  0  0  0  0  0  # atno 17371 bound_to 10713
  140.0669  134.5917  155.8685 LP  0  0  0  0  0  0  0  0  0  0  0  0  # atno 17394 bound_to 11000
  141.2000  133.6610  156.5872 LP  0  0  0  0  0  0  0  0  0  0  0  0  # atno 17395 bound_to 11000

$$$$
