#       Name:                AV-unprocessed.smi:246
#       Creating user name   scv26
#       Creation time:       Thu Mar 26 20:54:10 2020


#       File generated by GOLD software.
#

@<TRIPOS>MOLECULE
AV-unprocessed.smi:246
    68    71     1
SMALL
NO_CHARGES


@<TRIPOS>ATOM
      1 ****        -5.4544   0.8016   0.2549 C.3            1 S1                 0.0000
      2 ****        -5.7798   1.5505   1.5542 C.3            1 S1                 0.0000
      3 ****        -4.6041   1.8388   2.2971 O.3            1 S1                 0.0000
      4 ****        -3.8891   2.9765   1.8378 C.3            1 S1                 0.0000
      5 ****        -2.6384   3.1507   2.7032 C.3            1 S1                 0.0000
      6 ****        -1.6786   2.1815   2.3115 O.3            1 S1                 0.0000
      7 ****        -0.5180   2.1543   3.1309 C.3            1 S1                 0.0000
      8 ****        -0.7387   1.2577   4.3544 C.3            1 S1                 0.0000
      9 ****        -0.4202  -0.1378   3.8262 C.3            1 S1                 0.0000
     10 ****         0.6379   0.0710   2.8486 N.pl3          1 S1                 0.0000
     11 ****         1.0685  -0.9421   2.0517 C.ar           1 S1                 0.0000
     12 ****         0.5837  -2.1947   2.2647 N.ar           1 S1                 0.0000
     13 ****         0.9791  -3.2161   1.5002 C.ar           1 S1                 0.0000
     14 ****         1.8420  -3.2115   0.4835 N.ar           1 S1                 0.0000
     15 ****         2.3430  -1.9619   0.2675 C.ar           1 S1                 0.0000
     16 ****         2.0217  -0.7836   1.0019 C.ar           1 S1                 0.0000
     17 ****         2.7554   0.2889   0.5051 N.2            1 S1                 0.0000
     18 ****         3.4559  -0.2219  -0.4693 C.2            1 S1                 0.0000
     19 ****         3.2580  -1.5651  -0.6923 N.pl3          1 S1                 0.0000
     20 ****         3.9008  -2.3825  -1.7092 C.3            1 S1                 0.0000
     21 ****         3.0662  -2.5805  -2.9961 C.3            1 S1                 0.0000
     22 ****         1.8394  -3.2275  -2.7181 O.3            1 S1                 0.0000
     23 ****         2.8245  -1.3017  -3.8309 C.3            1 S1                 0.0000
     24 ****         2.0793  -1.4998  -5.1544 C.3            1 S1                 0.0000
     25 ****         1.5101  -0.1186  -5.3900 C.3            1 S1                 0.0000
     26 ****         1.1317   0.3023  -3.9733 C.3            1 S1                 0.0000
     27 ****         2.1019  -0.2980  -3.1212 O.3            1 S1                 0.0000
     28 ****         0.5880   1.4375   2.3437 C.3            1 S1                 0.0000
     29 ****        -0.2109   3.1663   3.4012 H              1 S1                 0.0000
     30 ****        -6.3696   0.5124  -0.2617 H              1 S1                 0.0000
     31 ****        -4.8874  -0.1066   0.4609 H              1 S1                 0.0000
     32 ****        -4.8702   1.4129  -0.4322 H              1 S1                 0.0000
     33 ****        -6.3522   2.4577   1.3546 H              1 S1                 0.0000
     34 ****        -6.4124   0.9161   2.1755 H              1 S1                 0.0000
     35 ****        -3.6102   2.8855   0.7877 H              1 S1                 0.0000
     36 ****        -4.5238   3.8585   1.9332 H              1 S1                 0.0000
     37 ****        -2.2185   4.1451   2.5460 H              1 S1                 0.0000
     38 ****        -2.8944   3.0676   3.7600 H              1 S1                 0.0000
     39 ****        -0.0218   1.5229   5.1325 H              1 S1                 0.0000
     40 ****        -1.7376   1.3288   4.7842 H              1 S1                 0.0000
     41 ****        -0.1050  -0.8093   4.6256 H              1 S1                 0.0000
     42 ****        -1.2959  -0.5670   3.3368 H              1 S1                 0.0000
     43 ****         0.5394  -4.1738   1.7364 H              1 S1                 0.0000
     44 ****         4.1312   0.3743  -1.0656 H              1 S1                 0.0000
     45 ****         4.8607  -1.9285  -1.9581 H              1 S1                 0.0000
     46 ****         4.1318  -3.3518  -1.2656 H              1 S1                 0.0000
     47 ****         3.6256  -3.2707  -3.6286 H              1 S1                 0.0000
     48 ****         2.0169  -4.0028  -2.2075 H              1 S1                 0.0000
     49 ****         3.7947  -0.8595  -4.0631 H              1 S1                 0.0000
     50 ****         2.7294  -1.8382  -5.9616 H              1 S1                 0.0000
     51 ****         1.2640  -2.2167  -5.0511 H              1 S1                 0.0000
     52 ****         2.2807   0.5430  -5.7878 H              1 S1                 0.0000
     53 ****         0.6637  -0.1132  -6.0774 H              1 S1                 0.0000
     54 ****         1.1058   1.3851  -3.8498 H              1 S1                 0.0000
     55 ****         0.1496  -0.0925  -3.7100 H              1 S1                 0.0000
     56 ****         0.3983   1.4757   1.2702 H              1 S1                 0.0000
     57 ****         1.5524   1.9093   2.5339 H              1 S1                 0.0000
     58 ****        -3.9978   1.0453   2.2448 LP             1 S1                 0.0000
     59 ****        -4.8657   1.9963   3.2493 LP             1 S1                 0.0000
     60 ****        -1.3964   2.3797   1.3728 LP             1 S1                 0.0000
     61 ****        -2.1096   1.2799   2.3466 LP             1 S1                 0.0000
     62 ****        -0.0749  -2.3525   3.0005 LP             1 S1                 0.0000
     63 ****         2.0895  -4.0195  -0.0511 LP             1 S1                 0.0000
     64 ****         2.7475   1.2370   0.8231 LP             1 S1                 0.0000
     65 ****         1.3916  -3.4834  -3.5749 LP             1 S1                 0.0000
     66 ****         1.2437  -2.6127  -2.2013 LP             1 S1                 0.0000
     67 ****         2.7387   0.4030  -2.7999 LP             1 S1                 0.0000
     68 ****         1.6411  -0.7142  -2.3374 LP             1 S1                 0.0000
@<TRIPOS>BOND
    1    1    2 1     
    2    1   30 1     
    3    1   31 1     
    4    1   32 1     
    5    2    3 1     
    6    2   33 1     
    7    2   34 1     
    8    3    4 1     
    9    4    5 1     
   10    4   35 1     
   11    4   36 1     
   12    5    6 1     
   13    5   37 1     
   14    5   38 1     
   15    6    7 1     
   16    7   29 1     
   17    7   28 1     
   18    7    8 1     
   19    8    9 1     
   20    8   39 1     
   21    8   40 1     
   22    9   10 1     
   23    9   41 1     
   24    9   42 1     
   25   10   11 1     
   26   10   28 1     
   27   11   16 ar    
   28   11   12 ar    
   29   12   13 ar    
   30   13   14 ar    
   31   13   43 1     
   32   14   15 ar    
   33   15   19 1     
   34   15   16 ar    
   35   16   17 1     
   36   17   18 2     
   37   18   19 1     
   38   18   44 1     
   39   19   20 1     
   40   20   21 1     
   41   20   45 1     
   42   20   46 1     
   43   21   22 1     
   44   21   23 1     
   45   21   47 1     
   46   22   48 1     
   47   23   27 1     
   48   23   24 1     
   49   23   49 1     
   50   24   25 1     
   51   24   50 1     
   52   24   51 1     
   53   25   26 1     
   54   25   52 1     
   55   25   53 1     
   56   26   27 1     
   57   26   54 1     
   58   26   55 1     
   59   28   56 1     
   60   28   57 1     
   61    3   58 1     
   62    3   59 1     
   63    6   60 1     
   64    6   61 1     
   65   12   62 1     
   66   14   63 1     
   67   17   64 1     
   68   22   65 1     
   69   22   66 1     
   70   27   67 1     
   71   27   68 1     
@<TRIPOS>SUBSTRUCTURE
      1 S1             1
@<TRIPOS>SET
LONE_PAIRS      STATIC     ATOMS    <user>   **** ""
11 58 59 60 61 62 63 64 65 66 67 68
DONOR_HYDROGENS      STATIC     ATOMS    <user>   **** ""
1 48
ATOM$BLUE        STATIC     ATOMS    COLORGROUP SYSTEM
11 58 59 60 61 62 63 64 65 66 67 68
ATOM$RED        STATIC     ATOMS    COLORGROUP SYSTEM
1 48
