AV-unprocessed.smi:2975|AV-procd|sdf|11358|dock1
  -GOLD-   2272016273D 1   1.00000     0.00000
 Structure written by MMmdl.
 40 42  0  0  0  0  0  0  0  0  2 V2000
  147.6354  141.4181  155.0384 C   0  0  0  0  0  0  0  0  0  0  0  0
  149.0292  140.7985  154.8721 C   0  0  1  0  0  0  0  0  0  0  0  0
  149.5045  141.1025  153.5773 O   0  0  0  0  0  0  0  0  0  0  0  0
  149.9588  141.2883  155.9394 C   0  0  0  0  0  0  0  0  0  0  0  0
  150.2310  142.5969  156.2102 N   0  3  0  0  0  0  0  0  0  0  0  0
  151.1093  142.6867  157.2894 C   0  0  0  0  0  0  0  0  0  0  0  0
  151.6638  143.7948  157.9223 C   0  0  0  0  0  0  0  0  0  0  0  0
  152.5233  143.5375  159.0104 C   0  0  0  0  0  0  0  0  0  0  0  0
  152.8006  142.2206  159.4309 C   0  0  0  0  0  0  0  0  0  0  0  0
  152.2327  141.1050  158.7802 C   0  0  0  0  0  0  0  0  0  0  0  0
  151.3867  141.3679  157.7026 C   0  0  0  0  0  0  0  0  0  0  0  0
  150.6624  140.5377  156.8382 N   0  0  0  0  0  0  0  0  0  0  0  0
  150.7411  139.0804  157.0165 C   0  0  0  0  0  0  0  0  0  0  0  0
  149.6769  138.5663  157.9929 C   0  0  0  0  0  0  0  0  0  0  0  0
  149.4205  137.1999  157.7026 O   0  0  0  0  0  0  0  0  0  0  0  0
  148.8322  136.4238  158.6790 C   0  0  0  0  0  0  0  0  0  0  0  0
  148.4676  136.9031  159.9633 C   0  0  0  0  0  0  0  0  0  0  0  0
  147.8655  136.0426  160.9020 C   0  0  0  0  0  0  0  0  0  0  0  0
  147.6228  134.6964  160.5732 C   0  0  0  0  0  0  0  0  0  0  0  0
  147.9841  134.2107  159.3032 C   0  0  0  0  0  0  0  0  0  0  0  0
  148.5849  135.0704  158.3632 C   0  0  0  0  0  0  0  0  0  0  0  0
  148.9268  134.5899  157.1437 F   0  0  0  0  0  0  0  0  0  0  0  0
  147.2095  141.1723  156.0112 H   0  0  0  0  0  0  0  0  0  0  0  0
  146.9474  141.0500  154.2767 H   0  0  0  0  0  0  0  0  0  0  0  0
  147.6703  142.5051  154.9574 H   0  0  0  0  0  0  0  0  0  0  0  0
  148.9442  139.7143  154.9368 H   0  0  0  0  0  0  0  0  0  0  0  0
  149.2925  140.3829  153.0024 H   0  0  0  0  0  0  0  0  0  0  0  0
  151.4499  144.8046  157.6035 H   0  0  0  0  0  0  0  0  0  0  0  0
  152.9774  144.3666  159.5338 H   0  0  0  0  0  0  0  0  0  0  0  0
  153.4620  142.0622  160.2704 H   0  0  0  0  0  0  0  0  0  0  0  0
  152.4507  140.1014  159.1137 H   0  0  0  0  0  0  0  0  0  0  0  0
  150.6173  138.6114  156.0408 H   0  0  0  0  0  0  0  0  0  0  0  0
  151.7430  138.8144  157.3537 H   0  0  0  0  0  0  0  0  0  0  0  0
  150.0306  138.6732  159.0195 H   0  0  0  0  0  0  0  0  0  0  0  0
  148.7638  139.1526  157.8820 H   0  0  0  0  0  0  0  0  0  0  0  0
  148.6387  137.9283  160.2543 H   0  0  0  0  0  0  0  0  0  0  0  0
  147.5890  136.4169  161.8768 H   0  0  0  0  0  0  0  0  0  0  0  0
  147.1612  134.0374  161.2938 H   0  0  0  0  0  0  0  0  0  0  0  0
  147.7997  133.1775  159.0485 H   0  0  0  0  0  0  0  0  0  0  0  0
  149.8361  143.3703  155.6904 H   0  0  0  0  0  0  0  0  0  0  0  0
  1  2  1  0  0  0  0
  1 23  1  0  0  0  0
  1 24  1  0  0  0  0
  1 25  1  0  0  0  0
  2  3  1  0  0  0  0
  2  4  1  0  0  0  0
  2 26  1  0  0  0  0
  3 27  1  0  0  0  0
  4 12  1  0  0  0  0
  4  5  2  0  0  0  0
  5  6  1  0  0  0  0
  5 40  1  0  0  0  0
  6 11  2  0  0  0  0
  6  7  1  0  0  0  0
  7  8  2  0  0  0  0
  7 28  1  0  0  0  0
  8  9  1  0  0  0  0
  8 29  1  0  0  0  0
  9 10  2  0  0  0  0
  9 30  1  0  0  0  0
 10 11  1  0  0  0  0
 10 31  1  0  0  0  0
 11 12  1  0  0  0  0
 12 13  1  0  0  0  0
 13 14  1  0  0  0  0
 13 32  1  0  0  0  0
 13 33  1  0  0  0  0
 14 15  1  0  0  0  0
 14 34  1  0  0  0  0
 14 35  1  0  0  0  0
 15 16  1  0  0  0  0
 16 21  1  0  0  0  0
 16 17  2  0  0  0  0
 17 18  1  0  0  0  0
 17 36  1  0  0  0  0
 18 19  2  0  0  0  0
 18 37  1  0  0  0  0
 19 20  1  0  0  0  0
 19 38  1  0  0  0  0
 20 21  2  0  0  0  0
 20 39  1  0  0  0  0
 21 22  1  0  0  0  0
M  CHG  1   5   1
M  END
> <s_m_source_file>
AV-unprocessed.smi

> <i_m_source_file_index>
2975

> <i_lp_mmshare_version>
43012

> <i_f3d_flags>
0

> <s_epik_input>
W2NIXTFbY0hdW2NIXVtjSF1jKGMxMiluKGMobjIpW0NASF0oW0NIM10pW09IXSlbQ0gyXVtDSDJdT2MzW2NIXVtjSF1bY0hdW2NIXWMzRg==

> <s_epik_cmdline>
J2VwaWtfcHl0aG9uJywgJy1waCcsICc3LjAnLCAnLXRuJywgJzgnLCAnLW1hJywgJzIwMCcsICctbWV0YWxfYmluZGluZycsICctaW1hZScsICc8aW5maWxlLm1hZT4nLCAnLW9tYWUnLCAnPG91dGZpbGUubWFlPic=

> <r_lp_tautomer_probability>
1

> <r_epik_Ionization_Penalty>
1.61121

> <r_epik_Ionization_Penalty_Charging>
1.61119

> <r_epik_Ionization_Penalty_Neutral>
2.92192e-05

> <r_epik_State_Penalty>
1.71016

> <r_epik_Charging_Adjusted_Penalty>
3.32134

> <i_epik_Tot_Q>
1

> <i_epik_Tot_abs_Q>
1

> <r_epik_Metal_State_Penalty>
5.76893

> <b_epik_Metal_Only>
0

> <s_lp_Force_Field>
OPLS_2005

> <r_lp_Energy>
20.882

> <b_lp_Chiralities_Consistent>
1

> <s_lp_Variant>
AV-unprocessed.smi:2975-4

> <Gold.Version>
5.8.1

> <Gold.Id.Protein>
6NUR|6NUR_protein|mol2

> <Gold.PLP.Fitness>
51.9650

> <Gold.PLP.PLP>
-41.5267

> <Gold.PLP.part.hbond>
-4.0000

> <Gold.PLP.part.metal>
0.0000

> <Gold.PLP.part.buried>
-4.9637

> <Gold.PLP.part.nonpolar>
-33.6023

> <Gold.PLP.part.repulsive>
0.1093

> <Gold.PLP.ligand.clash>
0.0000

> <Gold.PLP.ligand.torsion>
0.6451

> <Gold.PLP.Chemscore.Hbond>
3.8523

> <Gold.PLP.Chemscore.CHOScore>
0.0000

> <Gold.PLP.Chemscore.Metal>
0.0000

> <Gold.Chemscore.Hbonds>
donor molecule, donor type, donor heavy atom, donor atom, acceptor molecule, acceptor atom, score
      L1  H     3    27       P1  7957  0.67
      L1  H     5    40       P1  8028  1.98
      P1  H  7989  7998       L1     3  0.18
      P1  H  8011  8017       L1     3  1.00

> <Gold.PLP.Chemscore.Internal.Correction>
0.1715

> <Gold.Rescore>
     Score         DG    S(hbond)    S(metal)    S(lipo)     H(rot)  DE(clash)    DE(int)     intcor
     18.48     -19.09       2.13        0.00     105.43       2.28       0.03       0.59       ----

> <Gold.Chemscore.Fitness>
18.4753

> <Gold.Chemscore.DG>
-19.0946

> <Gold.Chemscore.ZeroCoef>
-5.4800

> <Gold.Chemscore.Hbond>
2.1287

> <Gold.Chemscore.Metal>
0.0000

> <Gold.Chemscore.Lipo>
105.4276

> <Gold.Chemscore.Internal_Hbond>
0.0000

> <Gold.Chemscore.DEClash>
0.0256

> <Gold.Chemscore.DEInternal>
0.5937

> <Gold.Chemscore.Rot>
2.2774

> <Gold.Chemscore.Internal.Correction>
   9.000000E+99

> <Gold.Chemscore.Hbonds>
donor molecule, donor type, donor heavy atom, donor atom, acceptor molecule, acceptor atom, score
      L1  H     3    27       P1  7957  0.66
      L1  H     5    40       P1  8028  0.94
      P1  H  7989  7998       L1     3  0.03
      P1  H  8011  8017       L1     3  0.24

> <Gold.Chemscore.Hbond.Weighted>
-7.1098

> <Gold.Chemscore.Metal.Weighted>
-0.0000

> <Gold.Chemscore.Lipo.Weighted>
-12.3350

> <Gold.Chemscore.Internal_Hbond.Weighted>
0.0000

> <Gold.Chemscore.DEClash.Weighted>
0.0256

> <Gold.Chemscore.DEInternal.Weighted>
0.5937

> <Gold.Chemscore.Rot.Weighted>
5.8302

> <Gold.Chemscore.Internal.Correction.Weighted>
   9.000000E+99

> <Gold.Protein.RotatedTorsions>
[ 6907 6896 6895 6894 ] final  159.86 input  -60.11 | X-H torsion
[ 7974 7965 7964 7962 ] final -131.93 input  175.53 | X-H torsion
[ 8008 7997 7996 7995 ] final   25.42 input   59.86 | X-H torsion
[ 10167 10162 10161 10158 ] final   10.63 input  -65.29 | X-H torsion
[ 10718 10713 10712 10709 ] final -118.02 input   66.30 | X-H torsion
[ 10763 10752 10751 10750 ] final  -73.75 input  -60.55 | X-H torsion
[ 11005 11000 10999 10996 ] final   24.99 input  -57.11 | X-H torsion

> <Gold.Protein.ActiveResidues>
 VAL166  LYS551  ARG553  GLY616  TRP617  ASP618  TYR619  PRO620  LYS621  CYS622 
 ASP623  PHE694  ASN695  SER759  ASP760  ASP761  ALA762  ILE779  LEU786  VAL792 
 PHE793  MET794  SER795  GLU796  ALA797  LYS798  CYS799  TRP800  GLU811  SER814 

> <Gold.Protein.RotatedAtoms>
  151.9793  133.3752  159.4100 H   0  0  0  0  0  0  0  0  0  0  0  0  # atno 6907 bound_to 6896
  150.6937  134.4056  159.5148 H   0  0  0  0  0  0  0  0  0  0  0  0  # atno 6908 bound_to 6896
  152.1772  134.8784  160.0580 H   0  0  0  0  0  0  0  0  0  0  0  0  # atno 6909 bound_to 6896
  144.9333  140.7154  143.4892 H   0  0  0  0  0  0  0  0  0  0  0  0  # atno 7974 bound_to 7965
  155.0114  140.3137  155.4828 H   0  0  0  0  0  0  0  0  0  0  0  0  # atno 8008 bound_to 7997
  156.2908  140.2214  156.5170 H   0  0  0  0  0  0  0  0  0  0  0  0  # atno 8009 bound_to 7997
  154.7531  140.0464  157.0898 H   0  0  0  0  0  0  0  0  0  0  0  0  # atno 8010 bound_to 7997
  140.6182  143.8262  150.7143 H   0  0  0  0  0  0  0  0  0  0  0  0  # atno 10167 bound_to 10162
  156.1076  130.6223  150.9238 H   0  0  0  0  0  0  0  0  0  0  0  0  # atno 10718 bound_to 10713
  154.4638  135.5887  153.6274 H   0  0  0  0  0  0  0  0  0  0  0  0  # atno 10763 bound_to 10752
  152.9826  135.6050  154.3453 H   0  0  0  0  0  0  0  0  0  0  0  0  # atno 10764 bound_to 10752
  154.3328  135.2842  155.2442 H   0  0  0  0  0  0  0  0  0  0  0  0  # atno 10765 bound_to 10752
  140.3527  134.2211  155.7678 H   0  0  0  0  0  0  0  0  0  0  0  0  # atno 11005 bound_to 11000
  145.3107  139.1819  143.4640 LP  0  0  0  0  0  0  0  0  0  0  0  0  # atno 17320 bound_to 7965
  146.3256  140.3111  142.8627 LP  0  0  0  0  0  0  0  0  0  0  0  0  # atno 17321 bound_to 7965
  140.1846  143.4086  152.1908 LP  0  0  0  0  0  0  0  0  0  0  0  0  # atno 17342 bound_to 10162
  139.5416  144.7261  151.4715 LP  0  0  0  0  0  0  0  0  0  0  0  0  # atno 17343 bound_to 10162
  157.6254  131.0926  150.8543 LP  0  0  0  0  0  0  0  0  0  0  0  0  # atno 17370 bound_to 10713
  156.8660  130.5129  149.5300 LP  0  0  0  0  0  0  0  0  0  0  0  0  # atno 17371 bound_to 10713
  141.2007  133.7980  157.0475 LP  0  0  0  0  0  0  0  0  0  0  0  0  # atno 17394 bound_to 11000
  140.0690  134.9713  157.1434 LP  0  0  0  0  0  0  0  0  0  0  0  0  # atno 17395 bound_to 11000

$$$$
