AV-unprocessed.smi:3016|AV-procd|sdf|11474|dock2
  -GOLD-   2272016413D 1   1.00000     0.00000
 Structure written by MMmdl.
 34 35  0  0  0  0  0  0  0  0  1 V2000
  153.4372  139.7263  159.8368 C   0  0  0  0  0  0  0  0  0  0  0  0
  153.6391  141.0138  160.6437 C   0  0  0  0  0  0  0  0  0  0  0  0
  152.8498  142.1146  160.1098 N   0  0  0  0  0  0  0  0  0  0  0  0
  152.8586  143.3679  160.7128 C   0  0  0  0  0  0  0  0  0  0  0  0
  152.1894  144.4371  160.2404 C   0  0  0  0  0  0  0  0  0  0  0  0
  151.3923  144.3036  159.0044 C   0  0  0  0  0  0  0  0  0  0  0  0
  150.7645  145.2592  158.5479 O   0  0  0  0  0  0  0  0  0  0  0  0
  151.3919  142.9668  158.3524 C   0  0  0  0  0  0  0  0  0  0  0  0
  150.6314  142.8524  157.1764 N   0  0  0  0  0  0  0  0  0  0  0  0
  150.4056  141.7744  156.4031 C   0  0  0  0  0  0  0  0  0  0  0  0
  150.8533  140.6434  156.5897 O   0  0  0  0  0  0  0  0  0  0  0  0
  149.6139  142.0885  155.3681 N   0  0  0  0  0  0  0  0  0  0  0  0
  149.1898  141.1598  154.3285 C   0  0  0  0  0  0  0  0  0  0  0  0
  147.7618  141.3456  153.8524 C   0  0  0  0  0  0  0  0  0  0  0  0
  146.6420  140.5409  154.4698 C   0  0  0  0  0  0  0  0  0  0  0  0
  147.0601  140.2790  153.0435 C   0  0  0  0  0  0  0  0  0  0  0  0
  152.1097  141.9735  158.9374 C   0  0  0  0  0  0  0  0  0  0  0  0
  154.0343  138.9130  160.2489 H   0  0  0  0  0  0  0  0  0  0  0  0
  153.7334  139.8633  158.7963 H   0  0  0  0  0  0  0  0  0  0  0  0
  152.3929  139.4127  159.8506 H   0  0  0  0  0  0  0  0  0  0  0  0
  153.3683  140.8433  161.6864 H   0  0  0  0  0  0  0  0  0  0  0  0
  154.6943  141.2896  160.6438 H   0  0  0  0  0  0  0  0  0  0  0  0
  153.4513  143.4243  161.6144 H   0  0  0  0  0  0  0  0  0  0  0  0
  152.2232  145.3915  160.7446 H   0  0  0  0  0  0  0  0  0  0  0  0
  150.2034  143.7153  156.8738 H   0  0  0  0  0  0  0  0  0  0  0  0
  149.2898  143.0413  155.2872 H   0  0  0  0  0  0  0  0  0  0  0  0
  149.8716  141.2111  153.4777 H   0  0  0  0  0  0  0  0  0  0  0  0
  149.2831  140.1516  154.7321 H   0  0  0  0  0  0  0  0  0  0  0  0
  147.5134  142.3768  153.6077 H   0  0  0  0  0  0  0  0  0  0  0  0
  146.9052  139.7918  155.2141 H   0  0  0  0  0  0  0  0  0  0  0  0
  145.6911  141.0445  154.6312 H   0  0  0  0  0  0  0  0  0  0  0  0
  146.3907  140.6100  152.2523 H   0  0  0  0  0  0  0  0  0  0  0  0
  147.6022  139.3575  152.8397 H   0  0  0  0  0  0  0  0  0  0  0  0
  152.1592  140.9718  158.5425 H   0  0  0  0  0  0  0  0  0  0  0  0
  1  2  1  0  0  0  0
  1 18  1  0  0  0  0
  1 19  1  0  0  0  0
  1 20  1  0  0  0  0
  2  3  1  0  0  0  0
  2 21  1  0  0  0  0
  2 22  1  0  0  0  0
  3 17  1  0  0  0  0
  3  4  1  0  0  0  0
  4  5  2  0  0  0  0
  4 23  1  0  0  0  0
  5  6  1  0  0  0  0
  5 24  1  0  0  0  0
  6  7  2  0  0  0  0
  6  8  1  0  0  0  0
  8  9  1  0  0  0  0
  8 17  2  0  0  0  0
  9 10  1  0  0  0  0
  9 25  1  0  0  0  0
 10 11  2  0  0  0  0
 10 12  1  0  0  0  0
 12 13  1  0  0  0  0
 12 26  1  0  0  0  0
 13 14  1  0  0  0  0
 13 27  1  0  0  0  0
 13 28  1  0  0  0  0
 14 16  1  0  0  0  0
 14 15  1  0  0  0  0
 14 29  1  0  0  0  0
 15 16  1  0  0  0  0
 15 30  1  0  0  0  0
 15 31  1  0  0  0  0
 16 32  1  0  0  0  0
 16 33  1  0  0  0  0
 17 34  1  0  0  0  0
M  END
> <s_m_source_file>
AV-unprocessed.smi

> <i_m_source_file_index>
3016

> <i_lp_mmshare_version>
43012

> <i_f3d_flags>
0

> <s_epik_input>
W0NIM11bQ0gyXW4xW2NIXVtjSF1jKD1PKWMoW2NIXTEpW05IXUMoPU8pW05IXVtDSDJdW0NIXTJbQ0gyXVtDSDJdMg==

> <s_epik_cmdline>
J2VwaWtfcHl0aG9uJywgJy1waCcsICc3LjAnLCAnLXRuJywgJzgnLCAnLW1hJywgJzIwMCcsICctbWV0YWxfYmluZGluZycsICctaW1hZScsICc8aW5maWxlLm1hZT4nLCAnLW9tYWUnLCAnPG91dGZpbGUubWFlPic=

> <r_lp_tautomer_probability>
1

> <r_epik_Ionization_Penalty>
0.00140323

> <r_epik_Ionization_Penalty_Charging>
0.00138172

> <r_epik_Ionization_Penalty_Neutral>
2.15082e-05

> <r_epik_State_Penalty>
0.000920559

> <r_epik_Charging_Adjusted_Penalty>
0.00230228

> <i_epik_Tot_Q>
0

> <i_epik_Tot_abs_Q>
0

> <r_epik_Metal_State_Penalty>
-0

> <b_epik_Metal_Only>
0

> <s_lp_Force_Field>
OPLS_2005

> <r_lp_Energy>
6.69626

> <b_lp_Chiralities_Consistent>
1

> <s_lp_Variant>
AV-unprocessed.smi:3016-1

> <Gold.Version>
5.8.1

> <Gold.Id.Protein>
6NUR|6NUR_protein|mol2

> <Gold.PLP.Fitness>
45.4357

> <Gold.PLP.PLP>
-39.7947

> <Gold.PLP.part.hbond>
-2.1991

> <Gold.PLP.part.metal>
0.0000

> <Gold.PLP.part.buried>
-3.9426

> <Gold.PLP.part.nonpolar>
-33.9614

> <Gold.PLP.part.repulsive>
0.4084

> <Gold.PLP.ligand.clash>
0.0000

> <Gold.PLP.ligand.torsion>
0.4513

> <Gold.PLP.Chemscore.Hbond>
2.0000

> <Gold.PLP.Chemscore.CHOScore>
0.0000

> <Gold.PLP.Chemscore.Metal>
0.0000

> <Gold.Chemscore.Hbonds>
donor molecule, donor type, donor heavy atom, donor atom, acceptor molecule, acceptor atom, score
      L1  H     9    25       P1  8028  0.98
      L1  H    12    26       P1  8028  1.00

> <Gold.PLP.Chemscore.Internal.Correction>
0.5437

> <Gold.Rescore>
     Score         DG    S(hbond)    S(metal)    S(lipo)     H(rot)  DE(clash)    DE(int)     intcor
     17.50     -19.19       1.96        0.00      90.95       1.36       0.09       1.59       ----

> <Gold.Chemscore.Fitness>
17.5046

> <Gold.Chemscore.DG>
-19.1882

> <Gold.Chemscore.ZeroCoef>
-5.4800

> <Gold.Chemscore.Hbond>
1.9585

> <Gold.Chemscore.Metal>
0.0000

> <Gold.Chemscore.Lipo>
90.9454

> <Gold.Chemscore.Internal_Hbond>
0.0000

> <Gold.Chemscore.DEClash>
0.0947

> <Gold.Chemscore.DEInternal>
1.5889

> <Gold.Chemscore.Rot>
1.3569

> <Gold.Chemscore.Internal.Correction>
   9.000000E+99

> <Gold.Chemscore.Hbonds>
donor molecule, donor type, donor heavy atom, donor atom, acceptor molecule, acceptor atom, score
      L1  H     9    25       P1  8028  0.87
      L1  H    12    26       P1  8028  1.00

> <Gold.Chemscore.Hbond.Weighted>
-6.5413

> <Gold.Chemscore.Metal.Weighted>
-0.0000

> <Gold.Chemscore.Lipo.Weighted>
-10.6406

> <Gold.Chemscore.Internal_Hbond.Weighted>
0.0000

> <Gold.Chemscore.DEClash.Weighted>
0.0947

> <Gold.Chemscore.DEInternal.Weighted>
1.5889

> <Gold.Chemscore.Rot.Weighted>
3.4737

> <Gold.Chemscore.Internal.Correction.Weighted>
   9.000000E+99

> <Gold.Protein.RotatedTorsions>
[ 6907 6896 6895 6894 ] final   13.85 input  -60.11 | X-H torsion
[ 7974 7965 7964 7962 ] final   39.74 input  175.53 | X-H torsion
[ 8008 7997 7996 7995 ] final  160.98 input   59.86 | X-H torsion
[ 10167 10162 10161 10158 ] final -172.47 input  -65.29 | X-H torsion
[ 10718 10713 10712 10709 ] final  114.82 input   66.30 | X-H torsion
[ 10763 10752 10751 10750 ] final -147.49 input  -60.55 | X-H torsion
[ 11005 11000 10999 10996 ] final  -99.11 input  -57.11 | X-H torsion

> <Gold.Protein.ActiveResidues>
 VAL166  LYS551  ARG553  GLY616  TRP617  ASP618  TYR619  PRO620  LYS621  CYS622 
 ASP623  PHE694  ASN695  SER759  ASP760  ASP761  ALA762  ILE779  LEU786  VAL792 
 PHE793  MET794  SER795  GLU796  ALA797  LYS798  CYS799  TRP800  GLU811  SER814 

> <Gold.Protein.RotatedAtoms>
  151.7928  135.0731  160.0389 H   0  0  0  0  0  0  0  0  0  0  0  0  # atno 6907 bound_to 6896
  152.3144  133.5782  159.5711 H   0  0  0  0  0  0  0  0  0  0  0  0  # atno 6908 bound_to 6896
  150.7336  134.0020  159.3683 H   0  0  0  0  0  0  0  0  0  0  0  0  # atno 6909 bound_to 6896
  146.0960  139.5615  142.9445 H   0  0  0  0  0  0  0  0  0  0  0  0  # atno 7974 bound_to 7965
  156.2135  140.1789  156.7642 H   0  0  0  0  0  0  0  0  0  0  0  0  # atno 8008 bound_to 7997
  154.5757  140.0675  156.9060 H   0  0  0  0  0  0  0  0  0  0  0  0  # atno 8009 bound_to 7997
  155.2592  140.3334  155.4277 H   0  0  0  0  0  0  0  0  0  0  0  0  # atno 8010 bound_to 7997
  139.5743  144.1570  152.1428 H   0  0  0  0  0  0  0  0  0  0  0  0  # atno 10167 bound_to 10162
  157.6258  131.1004  150.7241 H   0  0  0  0  0  0  0  0  0  0  0  0  # atno 10718 bound_to 10713
  154.8283  135.3359  154.6827 H   0  0  0  0  0  0  0  0  0  0  0  0  # atno 10763 bound_to 10752
  153.7450  135.6943  153.4963 H   0  0  0  0  0  0  0  0  0  0  0  0  # atno 10764 bound_to 10752
  153.2217  135.4447  155.0447 H   0  0  0  0  0  0  0  0  0  0  0  0  # atno 10765 bound_to 10752
  141.1320  133.8297  157.0929 H   0  0  0  0  0  0  0  0  0  0  0  0  # atno 11005 bound_to 11000
  145.5947  141.0364  143.2051 LP  0  0  0  0  0  0  0  0  0  0  0  0  # atno 17320 bound_to 7965
  144.7396  139.7487  143.7316 LP  0  0  0  0  0  0  0  0  0  0  0  0  # atno 17321 bound_to 7965
  140.1109  144.5458  150.6925 LP  0  0  0  0  0  0  0  0  0  0  0  0  # atno 17342 bound_to 10162
  140.7026  143.2445  151.4820 LP  0  0  0  0  0  0  0  0  0  0  0  0  # atno 17343 bound_to 10162
  156.7590  130.4792  149.5441 LP  0  0  0  0  0  0  0  0  0  0  0  0  # atno 17370 bound_to 10713
  156.1430  130.6258  151.0493 LP  0  0  0  0  0  0  0  0  0  0  0  0  # atno 17371 bound_to 10713
  140.0381  134.9868  157.0910 LP  0  0  0  0  0  0  0  0  0  0  0  0  # atno 17394 bound_to 11000
  140.4178  134.1912  155.7164 LP  0  0  0  0  0  0  0  0  0  0  0  0  # atno 17395 bound_to 11000

$$$$
