#       Name:                AV-unprocessed.smi:1803
#       Creating user name   scv26
#       Creation time:       Fri Mar 27 08:55:02 2020


#       File generated by GOLD software.
#

@<TRIPOS>MOLECULE
AV-unprocessed.smi:1803
    40    42     1
SMALL
NO_CHARGES


@<TRIPOS>ATOM
      1 ****        -2.1132  -2.3665  -0.9818 O.2            1 S1                 0.0000
      2 ****        -0.8896  -2.4497  -1.0798 C.2            1 S1                 0.0000
      3 ****        -0.2169  -3.6292  -1.0532 N.pl3          1 S1                -1.0000
      4 ****         1.1253  -3.7010  -1.1246 C.2            1 S1                 0.0000
      5 ****         1.9078  -3.6635  -0.0338 N.2            1 S1                 0.0000
      6 ****         3.2613  -3.7441  -0.3304 N.2            1 S1                 0.0000
      7 ****         3.4656  -3.8549  -1.6427 C.2            1 S1                 0.0000
      8 ****         2.0233  -3.8616  -2.6356 S.3            1 S1                 0.0000
      9 ****        -0.1702  -1.3183  -1.2084 N.am           1 S1                 0.0000
     10 ****        -0.7072   0.0384  -1.1935 C.3            1 S1                 0.0000
     11 ****         0.2736   1.0817  -1.7121 C.3            1 S1                 0.0000
     12 ****        -0.2914   2.3922  -1.1542 C.3            1 S1                 0.0000
     13 ****        -1.0479   2.0461   0.0746 N.4            1 S1                 1.0000
     14 ****        -0.6130   2.7936   1.2850 C.3            1 S1                 0.0000
     15 ****        -1.1260   2.1155   2.5641 C.3            1 S1                 0.0000
     16 ****        -0.5531   0.6936   2.7148 C.3            1 S1                 0.0000
     17 ****        -0.1504   0.0744   1.3627 C.3            1 S1                 0.0000
     18 ****        -1.0638   0.5621   0.2101 C.3            1 S1                 0.0000
     19 ****         4.4712  -3.9323  -2.0284 H              1 S1                 0.0000
     20 ****         0.8319  -1.4121  -1.2890 H              1 S1                 0.0000
     21 ****        -1.5978   0.0780  -1.8244 H              1 S1                 0.0000
     22 ****         1.2687   0.9033  -1.3016 H              1 S1                 0.0000
     23 ****         0.3546   1.0857  -2.7996 H              1 S1                 0.0000
     24 ****         0.4965   3.1268  -0.9826 H              1 S1                 0.0000
     25 ****        -0.9927   2.8295  -1.8655 H              1 S1                 0.0000
     26 ****         0.4764   2.8483   1.3231 H              1 S1                 0.0000
     27 ****        -0.9788   3.8187   1.2192 H              1 S1                 0.0000
     28 ****        -0.8765   2.7131   3.4413 H              1 S1                 0.0000
     29 ****        -2.2153   2.0676   2.5278 H              1 S1                 0.0000
     30 ****         0.3189   0.7077   3.3698 H              1 S1                 0.0000
     31 ****        -1.2929   0.0631   3.2093 H              1 S1                 0.0000
     32 ****         0.8841   0.3379   1.1382 H              1 S1                 0.0000
     33 ****        -0.1714  -1.0121   1.4519 H              1 S1                 0.0000
     34 ****        -2.0836   0.2566   0.4492 H              1 S1                 0.0000
     35 ****        -2.0064   2.3116  -0.1008 H              1 S1                 0.0000
     36 ****        -2.6638  -3.1946  -0.8762 LP             1 S1                 0.0000
     37 ****        -2.5572  -1.4708  -1.0077 LP             1 S1                 0.0000
     38 ****        -0.7397  -4.4783  -0.9775 LP             1 S1                 0.0000
     39 ****         1.5515  -3.5855   0.8974 LP             1 S1                 0.0000
     40 ****         3.9904  -3.7219   0.3536 LP             1 S1                 0.0000
@<TRIPOS>BOND
    1    1    2 2     
    2    2    3 1     
    3    2    9 am    
    4    3    4 1     
    5    4    8 1     
    6    4    5 2     
    7    5    6 1     
    8    6    7 2     
    9    7    8 1     
   10    7   19 1     
   11    9   10 1     
   12    9   20 1     
   13   10   18 1     
   14   10   11 1     
   15   10   21 1     
   16   11   12 1     
   17   11   22 1     
   18   11   23 1     
   19   12   13 1     
   20   12   24 1     
   21   12   25 1     
   22   13   18 1     
   23   13   14 1     
   24   13   35 1     
   25   14   15 1     
   26   14   26 1     
   27   14   27 1     
   28   15   16 1     
   29   15   28 1     
   30   15   29 1     
   31   16   17 1     
   32   16   30 1     
   33   16   31 1     
   34   17   18 1     
   35   17   32 1     
   36   17   33 1     
   37   18   34 1     
   38    1   36 1     
   39    1   37 1     
   40    3   38 1     
   41    5   39 1     
   42    6   40 1     
@<TRIPOS>SUBSTRUCTURE
      1 S1             1
@<TRIPOS>SET
LONE_PAIRS      STATIC     ATOMS    <user>   **** ""
5 36 37 38 39 40
DONOR_HYDROGENS      STATIC     ATOMS    <user>   **** ""
2 20 35
ATOM$BLUE        STATIC     ATOMS    COLORGROUP SYSTEM
5 36 37 38 39 40
ATOM$RED        STATIC     ATOMS    COLORGROUP SYSTEM
2 20 35
