AV-unprocessed.smi:2321|AV-procd|sdf|9281|dock9
  -GOLD-   2272012503D 1   1.00000     0.00000
 Structure written by MMmdl.
 36 37  0  0  0  0  0  0  0  0  1 V2000
  147.4442  132.7366  154.3074 O   0  0  0  0  0  0  0  0  0  0  0  0
  147.7947  133.6337  153.5439 C   0  0  0  0  0  0  0  0  0  0  0  0
  147.2283  133.8921  152.3490 N   0  0  0  0  0  0  0  0  0  0  0  0
  146.1356  133.2409  151.7162 C   0  0  0  0  0  0  0  0  0  0  0  0
  145.8960  131.8468  151.7779 C   0  0  0  0  0  0  0  0  0  0  0  0
  144.7838  131.3232  151.0885 C   0  0  0  0  0  0  0  0  0  0  0  0
  143.9333  132.0804  150.3634 N   0  0  0  0  0  0  0  0  0  0  0  0
  144.1730  133.4071  150.2964 C   0  0  0  0  0  0  0  0  0  0  0  0
  145.2565  134.0313  150.9460 C   0  0  0  0  0  0  0  0  0  0  0  0
  145.4430  135.3688  150.8334 F   0  0  0  0  0  0  0  0  0  0  0  0
  148.7947  134.4723  153.8725 N   0  0  0  0  0  0  0  0  0  0  0  0
  149.6212  134.4816  155.0847 C   0  0  2  0  0  0  0  0  0  0  0  0
  148.7308  134.6372  156.3324 C   0  0  0  0  0  0  0  0  0  0  0  0
  148.1318  136.0491  156.4474 C   0  0  0  0  0  0  0  0  0  0  0  0
  149.2267  137.1262  156.4113 C   0  0  0  0  0  0  0  0  0  0  0  0
  150.0967  137.0117  155.1420 C   0  0  1  0  0  0  0  0  0  0  0  0
  151.1869  138.1018  155.0873 C   0  0  0  0  0  0  0  0  0  0  0  0
  151.9468  138.0688  156.1824 F   0  0  0  0  0  0  0  0  0  0  0  0
  151.9623  137.9172  154.0189 F   0  0  0  0  0  0  0  0  0  0  0  0
  150.6243  139.3062  154.9893 F   0  0  0  0  0  0  0  0  0  0  0  0
  150.6965  135.5911  155.0368 C   0  0  0  0  0  0  0  0  0  0  0  0
  147.5757  134.7087  151.8675 H   0  0  0  0  0  0  0  0  0  0  0  0
  146.5406  131.1743  152.3221 H   0  0  0  0  0  0  0  0  0  0  0  0
  144.5750  130.2641  151.1160 H   0  0  0  0  0  0  0  0  0  0  0  0
  143.4813  133.9891  149.7055 H   0  0  0  0  0  0  0  0  0  0  0  0
  148.9955  135.2047  153.2068 H   0  0  0  0  0  0  0  0  0  0  0  0
  150.1200  133.5143  155.1667 H   0  0  0  0  0  0  0  0  0  0  0  0
  147.9344  133.8918  156.3257 H   0  0  0  0  0  0  0  0  0  0  0  0
  149.3273  134.4334  157.2227 H   0  0  0  0  0  0  0  0  0  0  0  0
  147.4245  136.2193  155.6349 H   0  0  0  0  0  0  0  0  0  0  0  0
  147.5612  136.1332  157.3726 H   0  0  0  0  0  0  0  0  0  0  0  0
  148.7634  138.1119  156.4612 H   0  0  0  0  0  0  0  0  0  0  0  0
  149.8536  137.0363  157.2993 H   0  0  0  0  0  0  0  0  0  0  0  0
  149.4455  137.1654  154.2801 H   0  0  0  0  0  0  0  0  0  0  0  0
  151.3942  135.4367  155.8606 H   0  0  0  0  0  0  0  0  0  0  0  0
  151.2905  135.5022  154.1271 H   0  0  0  0  0  0  0  0  0  0  0  0
  1  2  2  0  0  0  0
  2  3  1  0  0  0  0
  2 11  1  0  0  0  0
  3  4  1  0  0  0  0
  3 22  1  0  0  0  0
  4  9  1  0  0  0  0
  4  5  2  0  0  0  0
  5  6  1  0  0  0  0
  5 23  1  0  0  0  0
  6  7  2  0  0  0  0
  6 24  1  0  0  0  0
  7  8  1  0  0  0  0
  8  9  2  0  0  0  0
  8 25  1  0  0  0  0
  9 10  1  0  0  0  0
 11 12  1  0  0  0  0
 11 26  1  0  0  0  0
 12 21  1  0  0  0  0
 12 13  1  0  0  0  0
 12 27  1  0  0  0  0
 13 14  1  0  0  0  0
 13 28  1  0  0  0  0
 13 29  1  0  0  0  0
 14 15  1  0  0  0  0
 14 30  1  0  0  0  0
 14 31  1  0  0  0  0
 15 16  1  0  0  0  0
 15 32  1  0  0  0  0
 15 33  1  0  0  0  0
 16 17  1  0  0  0  0
 16 21  1  0  0  0  0
 16 34  1  0  0  0  0
 17 18  1  0  0  0  0
 17 19  1  0  0  0  0
 17 20  1  0  0  0  0
 21 35  1  0  0  0  0
 21 36  1  0  0  0  0
M  END
> <s_m_source_file>
AV-unprocessed.smi

> <i_m_source_file_index>
2321

> <i_lp_mmshare_version>
43012

> <i_f3d_flags>
0

> <s_epik_input>
RkMoRikoRilbQ0BASF0oW0NIMl0xKVtDSDJdW0NIMl1bQ0gyXVtDQEhdMVtOSF1DKD1PKVtOSF1jMltjSF1bY0hdbltjSF1jMkY=

> <s_epik_cmdline>
J2VwaWtfcHl0aG9uJywgJy1waCcsICc3LjAnLCAnLXRuJywgJzgnLCAnLW1hJywgJzIwMCcsICctbWV0YWxfYmluZGluZycsICctaW1hZScsICc8aW5maWxlLm1hZT4nLCAnLW9tYWUnLCAnPG91dGZpbGUubWFlPic=

> <r_epik_Ionization_Penalty>
0.00319438

> <r_epik_Ionization_Penalty_Charging>
0

> <r_epik_Ionization_Penalty_Neutral>
0.00319438

> <r_epik_State_Penalty>
0.00222511

> <r_epik_Charging_Adjusted_Penalty>
0.00222511

> <i_epik_Tot_Q>
0

> <i_epik_Tot_abs_Q>
0

> <r_epik_Metal_State_Penalty>
-0

> <b_epik_Metal_Only>
0

> <s_lp_Force_Field>
OPLS_2005

> <r_lp_Energy>
25.9848

> <b_lp_Chiralities_Consistent>
1

> <s_lp_Variant>
AV-unprocessed.smi:2321-1

> <Gold.Version>
5.8.1

> <Gold.Id.Protein>
6NUR|6NUR_protein|mol2

> <Gold.PLP.Fitness>
41.1804

> <Gold.PLP.PLP>
-33.0579

> <Gold.PLP.part.hbond>
-2.0000

> <Gold.PLP.part.metal>
0.0000

> <Gold.PLP.part.buried>
-5.7357

> <Gold.PLP.part.nonpolar>
-25.4383

> <Gold.PLP.part.repulsive>
0.2354

> <Gold.PLP.ligand.clash>
0.0000

> <Gold.PLP.ligand.torsion>
0.3337

> <Gold.PLP.Chemscore.Hbond>
1.9280

> <Gold.PLP.Chemscore.CHOScore>
0.9949

> <Gold.PLP.Chemscore.Metal>
0.0000

> <Gold.Chemscore.Hbonds>
donor molecule, donor type, donor heavy atom, donor atom, acceptor molecule, acceptor atom, score
      L1  H     3    22       P1  7948  0.94
      L1  H    11    26       P1  7948  1.00
      L1  C     8    25       P1 10186  1.00

> <Gold.PLP.Chemscore.Internal.Correction>
0.0213

> <Gold.Rescore>
     Score         DG    S(hbond)    S(metal)    S(lipo)     H(rot)  DE(clash)    DE(int)     intcor
     14.04     -14.98       1.50        0.00      60.09       1.00       0.00       0.93       ----

> <Gold.Chemscore.Fitness>
14.0386

> <Gold.Chemscore.DG>
-14.9752

> <Gold.Chemscore.ZeroCoef>
-5.4800

> <Gold.Chemscore.Hbond>
1.5045

> <Gold.Chemscore.Metal>
0.0000

> <Gold.Chemscore.Lipo>
60.0876

> <Gold.Chemscore.Internal_Hbond>
0.0000

> <Gold.Chemscore.DEClash>
0.0044

> <Gold.Chemscore.DEInternal>
0.9322

> <Gold.Chemscore.Rot>
1.0000

> <Gold.Chemscore.Internal.Correction>
   9.000000E+99

> <Gold.Chemscore.Hbonds>
donor molecule, donor type, donor heavy atom, donor atom, acceptor molecule, acceptor atom, score
      L1  H     3    22       P1  7948  0.48
      L1  H    11    26       P1  7948  0.35

> <Gold.Chemscore.Hbond.Weighted>
-5.0249

> <Gold.Chemscore.Metal.Weighted>
-0.0000

> <Gold.Chemscore.Lipo.Weighted>
-7.0302

> <Gold.Chemscore.Internal_Hbond.Weighted>
0.0000

> <Gold.Chemscore.DEClash.Weighted>
0.0044

> <Gold.Chemscore.DEInternal.Weighted>
0.9322

> <Gold.Chemscore.Rot.Weighted>
2.5600

> <Gold.Chemscore.Internal.Correction.Weighted>
   9.000000E+99

> <Gold.Protein.RotatedTorsions>
[ 6907 6896 6895 6894 ] final   72.20 input  -60.11 | X-H torsion
[ 7974 7965 7964 7962 ] final   -8.22 input  175.53 | X-H torsion
[ 8008 7997 7996 7995 ] final    6.51 input   59.86 | X-H torsion
[ 10167 10162 10161 10158 ] final  -30.08 input  -65.29 | X-H torsion
[ 10718 10713 10712 10709 ] final  161.68 input   66.30 | X-H torsion
[ 10763 10752 10751 10750 ] final  -24.35 input  -60.55 | X-H torsion
[ 11005 11000 10999 10996 ] final    2.97 input  -57.11 | X-H torsion

> <Gold.Protein.ActiveResidues>
 VAL166  LYS551  ARG553  GLY616  TRP617  ASP618  TYR619  PRO620  LYS621  CYS622 
 ASP623  PHE694  ASN695  SER759  ASP760  ASP761  ALA762  ILE779  LEU786  VAL792 
 PHE793  MET794  SER795  GLU796  ALA797  LYS798  CYS799  TRP800  GLU811  SER814 

> <Gold.Protein.RotatedAtoms>
  152.4854  134.4606  159.9603 H   0  0  0  0  0  0  0  0  0  0  0  0  # atno 6907 bound_to 6896
  151.4603  133.3588  159.2816 H   0  0  0  0  0  0  0  0  0  0  0  0  # atno 6908 bound_to 6896
  150.8961  134.8394  159.7388 H   0  0  0  0  0  0  0  0  0  0  0  0  # atno 6909 bound_to 6896
  146.2286  140.2436  142.8344 H   0  0  0  0  0  0  0  0  0  0  0  0  # atno 7974 bound_to 7965
  154.7420  140.2750  155.6365 H   0  0  0  0  0  0  0  0  0  0  0  0  # atno 8008 bound_to 7997
  156.2876  140.2695  156.2076 H   0  0  0  0  0  0  0  0  0  0  0  0  # atno 8009 bound_to 7997
  155.0246  140.0371  157.2440 H   0  0  0  0  0  0  0  0  0  0  0  0  # atno 8010 bound_to 7997
  140.7253  143.3877  151.1485 H   0  0  0  0  0  0  0  0  0  0  0  0  # atno 10167 bound_to 10162
  157.1332  131.0522  151.2362 H   0  0  0  0  0  0  0  0  0  0  0  0  # atno 10718 bound_to 10713
  153.6825  135.6966  153.5114 H   0  0  0  0  0  0  0  0  0  0  0  0  # atno 10763 bound_to 10752
  153.2474  135.4286  155.0761 H   0  0  0  0  0  0  0  0  0  0  0  0  # atno 10764 bound_to 10752
  154.8396  135.3523  154.6368 H   0  0  0  0  0  0  0  0  0  0  0  0  # atno 10765 bound_to 10752
  140.5984  133.9859  155.8120 H   0  0  0  0  0  0  0  0  0  0  0  0  # atno 11005 bound_to 11000
  144.9466  140.8134  143.5598 LP  0  0  0  0  0  0  0  0  0  0  0  0  # atno 17320 bound_to 7965
  145.2392  139.2080  143.5001 LP  0  0  0  0  0  0  0  0  0  0  0  0  # atno 17321 bound_to 7965
  139.7477  143.8826  152.3068 LP  0  0  0  0  0  0  0  0  0  0  0  0  # atno 17342 bound_to 10162
  139.8669  144.7088  150.9033 LP  0  0  0  0  0  0  0  0  0  0  0  0  # atno 17343 bound_to 10162
  157.4374  130.7524  149.7040 LP  0  0  0  0  0  0  0  0  0  0  0  0  # atno 17370 bound_to 10713
  155.9803  130.4030  150.3533 LP  0  0  0  0  0  0  0  0  0  0  0  0  # atno 17371 bound_to 10713
  141.0889  133.9948  157.3269 LP  0  0  0  0  0  0  0  0  0  0  0  0  # atno 17394 bound_to 11000
  139.9243  135.0201  156.8178 LP  0  0  0  0  0  0  0  0  0  0  0  0  # atno 17395 bound_to 11000

$$$$
