AV-unprocessed.smi:3183|AV-procd|sdf|12160|dock9
  -GOLD-   2272017593D 1   1.00000     0.00000
 Structure written by MMmdl.
 43 44  0  0  0  0  0  0  0  0  2 V2000
  153.0554  143.7832  162.5018 C   0  0  0  0  0  0  0  0  0  0  0  0
  152.2701  143.4661  161.2168 C   0  0  1  0  0  0  0  0  0  0  0  0
  151.8540  144.7777  160.5207 C   0  0  0  0  0  0  0  0  0  0  0  0
  151.0511  144.5240  159.2371 C   0  0  0  0  0  0  0  0  0  0  0  0
  151.8379  143.6344  158.2560 C   0  0  2  0  0  0  0  0  0  0  0  0
  151.0516  143.3365  157.0383 N   0  3  0  0  0  0  0  0  0  0  0  0
  150.1947  142.1347  157.1160 C   0  0  0  0  0  0  0  0  0  0  0  0
  149.7473  141.6882  155.7162 C   0  0  0  0  0  0  0  0  0  0  0  0
  150.0164  140.2448  155.4134 C   0  0  0  0  0  0  0  0  0  0  0  0
  151.1255  139.4747  155.6367 C   0  0  0  0  0  0  0  0  0  0  0  0
  150.7714  138.1952  155.1281 C   0  0  0  0  0  0  0  0  0  0  0  0
  149.5479  138.1691  154.6318 N   0  0  0  0  0  0  0  0  0  0  0  0
  149.0811  139.4231  154.8059 N   0  0  0  0  0  0  0  0  0  0  0  0
  147.7366  139.7278  154.3534 C   0  0  0  0  0  0  0  0  0  0  0  0
  152.2394  142.3196  158.9471 C   0  0  0  0  0  0  0  0  0  0  0  0
  153.0545  142.5555  160.2357 C   0  0  2  0  0  0  0  0  0  0  0  0
  153.4527  141.2051  160.8583 C   0  0  0  0  0  0  0  0  0  0  0  0
  154.0199  144.2384  162.2750 H   0  0  0  0  0  0  0  0  0  0  0  0
  153.2369  142.8889  163.0972 H   0  0  0  0  0  0  0  0  0  0  0  0
  152.5030  144.4772  163.1359 H   0  0  0  0  0  0  0  0  0  0  0  0
  151.3584  142.9434  161.5111 H   0  0  0  0  0  0  0  0  0  0  0  0
  151.2590  145.3874  161.2018 H   0  0  0  0  0  0  0  0  0  0  0  0
  152.7420  145.3649  160.2815 H   0  0  0  0  0  0  0  0  0  0  0  0
  150.1008  144.0514  159.4892 H   0  0  0  0  0  0  0  0  0  0  0  0
  150.8081  145.4829  158.7799 H   0  0  0  0  0  0  0  0  0  0  0  0
  152.7511  144.1508  157.9552 H   0  0  0  0  0  0  0  0  0  0  0  0
  150.4444  144.1257  156.8689 H   0  0  0  0  0  0  0  0  0  0  0  0
  150.7384  141.3251  157.6030 H   0  0  0  0  0  0  0  0  0  0  0  0
  149.3214  142.3573  157.7307 H   0  0  0  0  0  0  0  0  0  0  0  0
  148.6793  141.8797  155.6066 H   0  0  0  0  0  0  0  0  0  0  0  0
  150.2467  142.3049  154.9679 H   0  0  0  0  0  0  0  0  0  0  0  0
  152.0557  139.7760  156.0949 H   0  0  0  0  0  0  0  0  0  0  0  0
  151.3633  137.2921  155.1053 H   0  0  0  0  0  0  0  0  0  0  0  0
  147.4255  140.7156  154.6916 H   0  0  0  0  0  0  0  0  0  0  0  0
  147.0382  138.9895  154.7490 H   0  0  0  0  0  0  0  0  0  0  0  0
  147.7025  139.7009  153.2640 H   0  0  0  0  0  0  0  0  0  0  0  0
  151.3440  141.7427  159.1845 H   0  0  0  0  0  0  0  0  0  0  0  0
  152.8209  141.7097  158.2543 H   0  0  0  0  0  0  0  0  0  0  0  0
  153.9751  143.0704  159.9563 H   0  0  0  0  0  0  0  0  0  0  0  0
  152.5807  140.6650  161.2282 H   0  0  0  0  0  0  0  0  0  0  0  0
  154.1463  141.3314  161.6891 H   0  0  0  0  0  0  0  0  0  0  0  0
  153.9515  140.5684  160.1270 H   0  0  0  0  0  0  0  0  0  0  0  0
  151.6838  143.2467  156.2558 H   0  0  0  0  0  0  0  0  0  0  0  0
  1  2  1  0  0  0  0
  1 18  1  0  0  0  0
  1 19  1  0  0  0  0
  1 20  1  0  0  0  0
  2 16  1  0  0  0  0
  2  3  1  0  0  0  0
  2 21  1  0  0  0  0
  3  4  1  0  0  0  0
  3 22  1  0  0  0  0
  3 23  1  0  0  0  0
  4  5  1  0  0  0  0
  4 24  1  0  0  0  0
  4 25  1  0  0  0  0
  5  6  1  0  0  0  0
  5 15  1  0  0  0  0
  5 26  1  0  0  0  0
  6  7  1  0  0  0  0
  6 27  1  0  0  0  0
  6 43  1  0  0  0  0
  7  8  1  0  0  0  0
  7 28  1  0  0  0  0
  7 29  1  0  0  0  0
  8  9  1  0  0  0  0
  8 30  1  0  0  0  0
  8 31  1  0  0  0  0
  9 13  1  0  0  0  0
  9 10  2  0  0  0  0
 10 11  1  0  0  0  0
 10 32  1  0  0  0  0
 11 12  2  0  0  0  0
 11 33  1  0  0  0  0
 12 13  1  0  0  0  0
 13 14  1  0  0  0  0
 14 34  1  0  0  0  0
 14 35  1  0  0  0  0
 14 36  1  0  0  0  0
 15 16  1  0  0  0  0
 15 37  1  0  0  0  0
 15 38  1  0  0  0  0
 16 17  1  0  0  0  0
 16 39  1  0  0  0  0
 17 40  1  0  0  0  0
 17 41  1  0  0  0  0
 17 42  1  0  0  0  0
M  CHG  1   6   1
M  END
> <s_m_source_file>
AV-unprocessed.smi

> <i_m_source_file_index>
3183

> <i_lp_mmshare_version>
43012

> <i_f3d_flags>
0

> <s_epik_input>
W0NIM11bQ0BASF0xW0NIMl1bQ0gyXVtDQEhdKFtDSDJdW0NASF0xW0NIM10pW05IXVtDSDJdW0NIMl1jMltjSF1bY0hdbm4yW0NIM10=

> <s_epik_cmdline>
J2VwaWtfcHl0aG9uJywgJy1waCcsICc3LjAnLCAnLXRuJywgJzgnLCAnLW1hJywgJzIwMCcsICctbWV0YWxfYmluZGluZycsICctaW1hZScsICc8aW5maWxlLm1hZT4nLCAnLW9tYWUnLCAnPG91dGZpbGUubWFlPic=

> <r_lp_tautomer_probability>
1

> <r_epik_Ionization_Penalty>
0.000327718

> <r_epik_Ionization_Penalty_Charging>
0.000294043

> <r_epik_Ionization_Penalty_Neutral>
3.36755e-05

> <r_epik_State_Penalty>
-0

> <r_epik_Charging_Adjusted_Penalty>
0.000294043

> <i_epik_Tot_Q>
1

> <i_epik_Tot_abs_Q>
1

> <r_epik_Metal_State_Penalty>
-0

> <b_epik_Metal_Only>
0

> <s_lp_Force_Field>
OPLS_2005

> <r_lp_Energy>
12.5672

> <b_lp_Chiralities_Consistent>
1

> <s_lp_Variant>
AV-unprocessed.smi:3183-8

> <Gold.Version>
5.8.1

> <Gold.Id.Protein>
6NUR|6NUR_protein|mol2

> <Gold.PLP.Fitness>
50.9792

> <Gold.PLP.PLP>
-46.8637

> <Gold.PLP.part.hbond>
-1.0000

> <Gold.PLP.part.metal>
0.0000

> <Gold.PLP.part.buried>
-3.7339

> <Gold.PLP.part.nonpolar>
-42.9265

> <Gold.PLP.part.repulsive>
0.2235

> <Gold.PLP.ligand.clash>
0.0000

> <Gold.PLP.ligand.torsion>
0.9493

> <Gold.PLP.Chemscore.Hbond>
2.0000

> <Gold.PLP.Chemscore.CHOScore>
0.0000

> <Gold.PLP.Chemscore.Metal>
0.0000

> <Gold.Chemscore.Hbonds>
donor molecule, donor type, donor heavy atom, donor atom, acceptor molecule, acceptor atom, score
      L1  H     6    27       P1  8028  1.68

> <Gold.PLP.Chemscore.Internal.Correction>
0.0140

> <Gold.Rescore>
     Score         DG    S(hbond)    S(metal)    S(lipo)     H(rot)  DE(clash)    DE(int)     intcor
     19.84     -20.61       0.99        0.00     131.14       1.38       0.13       0.64       ----

> <Gold.Chemscore.Fitness>
19.8402

> <Gold.Chemscore.DG>
-20.6096

> <Gold.Chemscore.ZeroCoef>
-5.4800

> <Gold.Chemscore.Hbond>
0.9912

> <Gold.Chemscore.Metal>
0.0000

> <Gold.Chemscore.Lipo>
131.1428

> <Gold.Chemscore.Internal_Hbond>
0.0000

> <Gold.Chemscore.DEClash>
0.1281

> <Gold.Chemscore.DEInternal>
0.6414

> <Gold.Chemscore.Rot>
1.3768

> <Gold.Chemscore.Internal.Correction>
   9.000000E+99

> <Gold.Chemscore.Hbonds>
donor molecule, donor type, donor heavy atom, donor atom, acceptor molecule, acceptor atom, score
      L1  H     6    27       P1  8028  0.76

> <Gold.Chemscore.Hbond.Weighted>
-3.3106

> <Gold.Chemscore.Metal.Weighted>
-0.0000

> <Gold.Chemscore.Lipo.Weighted>
-15.3437

> <Gold.Chemscore.Internal_Hbond.Weighted>
0.0000

> <Gold.Chemscore.DEClash.Weighted>
0.1281

> <Gold.Chemscore.DEInternal.Weighted>
0.6414

> <Gold.Chemscore.Rot.Weighted>
3.5247

> <Gold.Chemscore.Internal.Correction.Weighted>
   9.000000E+99

> <Gold.Protein.RotatedTorsions>
[ 6907 6896 6895 6894 ] final   15.43 input  -60.11 | X-H torsion
[ 7974 7965 7964 7962 ] final  -82.72 input  175.53 | X-H torsion
[ 8008 7997 7996 7995 ] final  121.46 input   59.86 | X-H torsion
[ 10167 10162 10161 10158 ] final   66.08 input  -65.29 | X-H torsion
[ 10718 10713 10712 10709 ] final  -11.46 input   66.30 | X-H torsion
[ 10763 10752 10751 10750 ] final   79.40 input  -60.55 | X-H torsion
[ 11005 11000 10999 10996 ] final  -20.08 input  -57.11 | X-H torsion

> <Gold.Protein.ActiveResidues>
 VAL166  LYS551  ARG553  GLY616  TRP617  ASP618  TYR619  PRO620  LYS621  CYS622 
 ASP623  PHE694  ASN695  SER759  ASP760  ASP761  ALA762  ILE779  LEU786  VAL792 
 PHE793  MET794  SER795  GLU796  ALA797  LYS798  CYS799  TRP800  GLU811  SER814 

> <Gold.Protein.RotatedAtoms>
  151.8180  135.0660  160.0421 H   0  0  0  0  0  0  0  0  0  0  0  0  # atno 6907 bound_to 6896
  152.2972  133.5615  159.5603 H   0  0  0  0  0  0  0  0  0  0  0  0  # atno 6908 bound_to 6896
  150.7257  134.0260  159.3759 H   0  0  0  0  0  0  0  0  0  0  0  0  # atno 6909 bound_to 6896
  145.5295  140.9523  143.1611 H   0  0  0  0  0  0  0  0  0  0  0  0  # atno 7974 bound_to 7965
  156.2687  140.2808  156.1312 H   0  0  0  0  0  0  0  0  0  0  0  0  # atno 8008 bound_to 7997
  155.1052  140.0390  157.2726 H   0  0  0  0  0  0  0  0  0  0  0  0  # atno 8009 bound_to 7997
  154.6784  140.2603  155.6939 H   0  0  0  0  0  0  0  0  0  0  0  0  # atno 8010 bound_to 7997
  140.1043  144.4875  150.7017 H   0  0  0  0  0  0  0  0  0  0  0  0  # atno 10167 bound_to 10162
  156.6587  130.4975  149.6037 H   0  0  0  0  0  0  0  0  0  0  0  0  # atno 10718 bound_to 10713
  153.0950  135.4841  154.8761 H   0  0  0  0  0  0  0  0  0  0  0  0  # atno 10763 bound_to 10752
  154.7314  135.3061  154.8888 H   0  0  0  0  0  0  0  0  0  0  0  0  # atno 10764 bound_to 10752
  153.9522  135.6822  153.4797 H   0  0  0  0  0  0  0  0  0  0  0  0  # atno 10765 bound_to 10752
  140.8429  133.7913  155.9881 H   0  0  0  0  0  0  0  0  0  0  0  0  # atno 11005 bound_to 11000
  144.7633  139.6904  143.7225 LP  0  0  0  0  0  0  0  0  0  0  0  0  # atno 17320 bound_to 7965
  146.2053  139.5374  142.9716 LP  0  0  0  0  0  0  0  0  0  0  0  0  # atno 17321 bound_to 7965
  140.6961  143.2404  151.4998 LP  0  0  0  0  0  0  0  0  0  0  0  0  # atno 17342 bound_to 10162
  139.5654  144.2055  152.1756 LP  0  0  0  0  0  0  0  0  0  0  0  0  # atno 17343 bound_to 10162
  156.2028  130.6630  151.1185 LP  0  0  0  0  0  0  0  0  0  0  0  0  # atno 17370 bound_to 10713
  157.7117  131.0731  150.6477 LP  0  0  0  0  0  0  0  0  0  0  0  0  # atno 17371 bound_to 10713
  140.8875  134.2536  157.5112 LP  0  0  0  0  0  0  0  0  0  0  0  0  # atno 17394 bound_to 11000
  139.8703  134.9645  156.4498 LP  0  0  0  0  0  0  0  0  0  0  0  0  # atno 17395 bound_to 11000

$$$$
