#       Name:                AV-unprocessed.smi:3032
#       Creating user name   scv26
#       Creation time:       Fri Mar 27 16:53:43 2020


#       File generated by GOLD software.
#

@<TRIPOS>MOLECULE
AV-unprocessed.smi:3032
    41    42     1
SMALL
NO_CHARGES


@<TRIPOS>ATOM
      1 ****        -3.1521   1.4605   1.0890 C.3            1 S1                 0.0000
      2 ****        -2.5443   0.3612   0.2063 C.3            1 S1                 0.0000
      3 ****        -3.2601   0.2691  -1.1551 C.3            1 S1                 0.0000
      4 ****        -2.6473  -0.8266  -2.0421 C.3            1 S1                 0.0000
      5 ****        -1.1374  -0.6114  -2.2317 C.3            1 S1                 0.0000
      6 ****        -0.4119  -0.5347  -0.8727 C.3            1 S1                 0.0000
      7 ****         1.0932  -0.3008  -1.0561 C.2            1 S1                 0.0000
      8 ****         1.4970   0.7011  -1.6475 O.2            1 S1                 0.0000
      9 ****         1.9060  -1.2272  -0.5245 N.am           1 S1                 0.0000
     10 ****         3.3611  -1.1361  -0.4360 C.3            1 S1                 0.0000
     11 ****         3.8319  -1.0308   1.0258 C.3            1 S1                 0.0000
     12 ****         3.2003   0.1226   1.7813 C.2            1 S1                 0.0000
     13 ****         3.6456   1.3957   1.7885 N.pl3          1 S1                -1.0000
     14 ****         2.8392   2.1545   2.5049 N.2            1 S1                 0.0000
     15 ****         1.8890   1.3134   2.9293 C.2            1 S1                 0.0000
     16 ****         2.0822   0.0615   2.5016 N.2            1 S1                 0.0000
     17 ****        -1.0315   0.5743   0.0041 C.3            1 S1                 0.0000
     18 ****        -3.0476   2.4430   0.6276 H              1 S1                 0.0000
     19 ****        -2.6621   1.4964   2.0624 H              1 S1                 0.0000
     20 ****        -4.2141   1.2839   1.2611 H              1 S1                 0.0000
     21 ****        -2.6832  -0.5887   0.7248 H              1 S1                 0.0000
     22 ****        -4.3215   0.0677  -1.0065 H              1 S1                 0.0000
     23 ****        -3.1972   1.2289  -1.6698 H              1 S1                 0.0000
     24 ****        -2.8231  -1.8034  -1.5899 H              1 S1                 0.0000
     25 ****        -3.1451  -0.8406  -3.0119 H              1 S1                 0.0000
     26 ****        -0.7258  -1.4238  -2.8322 H              1 S1                 0.0000
     27 ****        -0.9743   0.3062  -2.7994 H              1 S1                 0.0000
     28 ****        -0.5499  -1.4887  -0.3602 H              1 S1                 0.0000
     29 ****         1.4763  -2.0124  -0.0578 H              1 S1                 0.0000
     30 ****         3.7929  -2.0224  -0.9006 H              1 S1                 0.0000
     31 ****         3.7380  -0.2810  -0.9993 H              1 S1                 0.0000
     32 ****         3.5997  -1.9555   1.5552 H              1 S1                 0.0000
     33 ****         4.9161  -0.9207   1.0587 H              1 S1                 0.0000
     34 ****         1.0535   1.6147   3.5490 H              1 S1                 0.0000
     35 ****        -0.8606   1.5510  -0.4522 H              1 S1                 0.0000
     36 ****        -0.5327   0.5988   0.9742 H              1 S1                 0.0000
     37 ****         0.8431   1.3653  -2.0099 LP             1 S1                 0.0000
     38 ****         2.4787   0.8505  -1.7652 LP             1 S1                 0.0000
     39 ****         4.4677   1.7175   1.3189 LP             1 S1                 0.0000
     40 ****         2.9195   3.1342   2.6889 LP             1 S1                 0.0000
     41 ****         1.5140  -0.7413   2.6823 LP             1 S1                 0.0000
@<TRIPOS>BOND
    1    1    2 1     
    2    1   18 1     
    3    1   19 1     
    4    1   20 1     
    5    2   17 1     
    6    2    3 1     
    7    2   21 1     
    8    3    4 1     
    9    3   22 1     
   10    3   23 1     
   11    4    5 1     
   12    4   24 1     
   13    4   25 1     
   14    5    6 1     
   15    5   26 1     
   16    5   27 1     
   17    6    7 1     
   18    6   17 1     
   19    6   28 1     
   20    7    8 2     
   21    7    9 am    
   22    9   10 1     
   23    9   29 1     
   24   10   11 1     
   25   10   30 1     
   26   10   31 1     
   27   11   32 1     
   28   11   33 1     
   29   11   12 1     
   30   12   16 2     
   31   12   13 1     
   32   13   14 1     
   33   14   15 2     
   34   15   16 1     
   35   15   34 1     
   36   17   35 1     
   37   17   36 1     
   38    8   37 1     
   39    8   38 1     
   40   13   39 1     
   41   14   40 1     
   42   16   41 1     
@<TRIPOS>SUBSTRUCTURE
      1 S1             1
@<TRIPOS>SET
LONE_PAIRS      STATIC     ATOMS    <user>   **** ""
5 37 38 39 40 41
DONOR_HYDROGENS      STATIC     ATOMS    <user>   **** ""
1 29
ATOM$BLUE        STATIC     ATOMS    COLORGROUP SYSTEM
5 37 38 39 40 41
ATOM$RED        STATIC     ATOMS    COLORGROUP SYSTEM
1 29
