AV-unprocessed.smi:1644|AV-procd|sdf|6586|dock9
  -GOLD-   22720 7283D 1   1.00000     0.00000
 Structure written by MMmdl.
 49 51  0  0  0  0  0  0  0  0  1 V2000
  158.1121  137.4648  152.2568 C   0  0  0  0  0  0  0  0  0  0  0  0
  157.5879  137.1025  153.6503 C   0  0  0  0  0  0  0  0  0  0  0  0
  158.7172  137.0113  154.6967 C   0  0  0  0  0  0  0  0  0  0  0  0
  158.2884  136.5588  156.1109 C   0  0  2  0  0  0  0  0  0  0  0  0
  157.8375  135.1837  156.1612 N   0  0  0  0  0  0  0  0  0  0  0  0
  156.5956  135.0685  156.6490 C   0  0  0  0  0  0  0  0  0  0  0  0
  155.9905  134.0071  156.7910 O   0  0  0  0  0  0  0  0  0  0  0  0
  156.1406  136.2984  156.9565 N   0  0  0  0  0  0  0  0  0  0  0  0
  154.8131  136.5743  157.5252 C   0  0  0  0  0  0  0  0  0  0  0  0
  154.0890  137.7934  156.8969 C   0  0  1  0  0  0  0  0  0  0  0  0
  154.1630  137.6586  155.4932 O   0  0  0  0  0  0  0  0  0  0  0  0
  152.5976  137.9730  157.2651 C   0  0  0  0  0  0  0  0  0  0  0  0
  152.0020  139.2029  156.7722 N   0  0  0  0  0  0  0  0  0  0  0  0
  151.4107  139.3857  155.5754 C   0  0  0  0  0  0  0  0  0  0  0  0
  150.9109  140.5909  155.3195 N   0  0  0  0  0  0  0  0  0  0  0  0
  151.2347  141.2776  156.4761 C   0  0  0  0  0  0  0  0  0  0  0  0
  150.9686  142.6122  156.8513 C   0  0  0  0  0  0  0  0  0  0  0  0
  151.3955  143.1122  158.1016 C   0  0  0  0  0  0  0  0  0  0  0  0
  151.0764  144.5503  158.4703 C   0  0  0  0  0  0  0  0  0  0  0  0
  152.1115  142.2751  158.9938 C   0  0  0  0  0  0  0  0  0  0  0  0
  152.5800  142.7890  160.3435 C   0  0  0  0  0  0  0  0  0  0  0  0
  152.3895  140.9407  158.6328 C   0  0  0  0  0  0  0  0  0  0  0  0
  151.9410  140.4468  157.3948 C   0  0  0  0  0  0  0  0  0  0  0  0
  157.0395  137.2408  156.6373 C   0  0  0  0  0  0  0  0  0  0  0  0
  156.9136  138.4608  156.7399 O   0  0  0  0  0  0  0  0  0  0  0  0
  157.2952  137.5217  151.5370 H   0  0  0  0  0  0  0  0  0  0  0  0
  158.8220  136.7195  151.8966 H   0  0  0  0  0  0  0  0  0  0  0  0
  158.6157  138.4318  152.2653 H   0  0  0  0  0  0  0  0  0  0  0  0
  156.8521  137.8478  153.9534 H   0  0  0  0  0  0  0  0  0  0  0  0
  157.0579  136.1515  153.5911 H   0  0  0  0  0  0  0  0  0  0  0  0
  159.4769  136.3195  154.3313 H   0  0  0  0  0  0  0  0  0  0  0  0
  159.2149  137.9791  154.7726 H   0  0  0  0  0  0  0  0  0  0  0  0
  159.1023  136.6996  156.8232 H   0  0  0  0  0  0  0  0  0  0  0  0
  158.4078  134.4065  155.8605 H   0  0  0  0  0  0  0  0  0  0  0  0
  154.2135  135.6763  157.3646 H   0  0  0  0  0  0  0  0  0  0  0  0
  154.8612  136.6973  158.6083 H   0  0  0  0  0  0  0  0  0  0  0  0
  154.6316  138.7077  157.1297 H   0  0  0  0  0  0  0  0  0  0  0  0
  154.0825  136.7424  155.2753 H   0  0  0  0  0  0  0  0  0  0  0  0
  152.0141  137.1414  156.8683 H   0  0  0  0  0  0  0  0  0  0  0  0
  152.4788  137.9440  158.3496 H   0  0  0  0  0  0  0  0  0  0  0  0
  151.3212  138.5815  154.8597 H   0  0  0  0  0  0  0  0  0  0  0  0
  150.4275  143.2507  156.1686 H   0  0  0  0  0  0  0  0  0  0  0  0
  151.9943  145.1152  158.6339 H   0  0  0  0  0  0  0  0  0  0  0  0
  150.4791  144.5871  159.3815 H   0  0  0  0  0  0  0  0  0  0  0  0
  150.5131  145.0489  157.6810 H   0  0  0  0  0  0  0  0  0  0  0  0
  153.1314  142.0238  160.8906 H   0  0  0  0  0  0  0  0  0  0  0  0
  151.7277  143.0879  160.9539 H   0  0  0  0  0  0  0  0  0  0  0  0
  153.2374  143.6496  160.2187 H   0  0  0  0  0  0  0  0  0  0  0  0
  152.9302  140.2951  159.3083 H   0  0  0  0  0  0  0  0  0  0  0  0
  1  2  1  0  0  0  0
  1 26  1  0  0  0  0
  1 27  1  0  0  0  0
  1 28  1  0  0  0  0
  2  3  1  0  0  0  0
  2 29  1  0  0  0  0
  2 30  1  0  0  0  0
  3  4  1  0  0  0  0
  3 31  1  0  0  0  0
  3 32  1  0  0  0  0
  4 24  1  0  0  0  0
  4  5  1  0  0  0  0
  4 33  1  0  0  0  0
  5  6  1  0  0  0  0
  5 34  1  0  0  0  0
  6  7  2  0  0  0  0
  6  8  1  0  0  0  0
  8  9  1  0  0  0  0
  8 24  1  0  0  0  0
  9 10  1  0  0  0  0
  9 35  1  0  0  0  0
  9 36  1  0  0  0  0
 10 11  1  0  0  0  0
 10 12  1  0  0  0  0
 10 37  1  0  0  0  0
 11 38  1  0  0  0  0
 12 13  1  0  0  0  0
 12 39  1  0  0  0  0
 12 40  1  0  0  0  0
 13 23  1  0  0  0  0
 13 14  1  0  0  0  0
 14 15  2  0  0  0  0
 14 41  1  0  0  0  0
 15 16  1  0  0  0  0
 16 23  2  0  0  0  0
 16 17  1  0  0  0  0
 17 18  2  0  0  0  0
 17 42  1  0  0  0  0
 18 19  1  0  0  0  0
 18 20  1  0  0  0  0
 19 43  1  0  0  0  0
 19 44  1  0  0  0  0
 19 45  1  0  0  0  0
 20 21  1  0  0  0  0
 20 22  2  0  0  0  0
 21 46  1  0  0  0  0
 21 47  1  0  0  0  0
 21 48  1  0  0  0  0
 22 23  1  0  0  0  0
 22 49  1  0  0  0  0
 24 25  2  0  0  0  0
M  END
> <s_m_source_file>
AV-unprocessed.smi

> <i_m_source_file_index>
1644

> <i_lp_mmshare_version>
43012

> <i_f3d_flags>
0

> <s_epik_input>
W0NIM11bQ0gyXVtDSDJdW0NAQEhdMVtOSF1DKD1PKU4oQzE9TylbQ0gyXVtDQEhdKFtPSF0pW0NIMl1uKFtjSF1uMiljKGMyMylbY0hdYyhbQ0gzXSljKFtjSF0zKVtDSDNd

> <s_epik_cmdline>
J2VwaWtfcHl0aG9uJywgJy1waCcsICc3LjAnLCAnLXRuJywgJzgnLCAnLW1hJywgJzIwMCcsICctbWV0YWxfYmluZGluZycsICctaW1hZScsICc8aW5maWxlLm1hZT4nLCAnLW9tYWUnLCAnPG91dGZpbGUubWFlPic=

> <r_lp_tautomer_probability>
1

> <r_epik_Ionization_Penalty>
0.10693

> <r_epik_Ionization_Penalty_Charging>
0

> <r_epik_Ionization_Penalty_Neutral>
0.10693

> <r_epik_State_Penalty>
0.096713

> <r_epik_Charging_Adjusted_Penalty>
0.096713

> <i_epik_Tot_Q>
0

> <i_epik_Tot_abs_Q>
0

> <r_epik_Metal_State_Penalty>
0.102757

> <b_epik_Metal_Only>
0

> <s_lp_Force_Field>
OPLS_2005

> <r_lp_Energy>
20.4665

> <b_lp_Chiralities_Consistent>
1

> <s_lp_Variant>
AV-unprocessed.smi:1644-3

> <Gold.Version>
5.8.1

> <Gold.Id.Protein>
6NUR|6NUR_protein|mol2

> <Gold.PLP.Fitness>
43.6776

> <Gold.PLP.PLP>
-40.6347

> <Gold.PLP.part.hbond>
-3.3382

> <Gold.PLP.part.metal>
0.0000

> <Gold.PLP.part.buried>
-3.9404

> <Gold.PLP.part.nonpolar>
-33.8215

> <Gold.PLP.part.repulsive>
0.1818

> <Gold.PLP.ligand.clash>
0.0000

> <Gold.PLP.ligand.torsion>
0.7685

> <Gold.PLP.Chemscore.Hbond>
1.4720

> <Gold.PLP.Chemscore.CHOScore>
0.0000

> <Gold.PLP.Chemscore.Metal>
0.0000

> <Gold.Chemscore.Hbonds>
donor molecule, donor type, donor heavy atom, donor atom, acceptor molecule, acceptor atom, score
      P1  H  7989  7998       L1    15  0.93
      P1  H  7997  8009       L1    25  0.59

> <Gold.PLP.Chemscore.Internal.Correction>
0.1639

> <Gold.Rescore>
     Score         DG    S(hbond)    S(metal)    S(lipo)     H(rot)  DE(clash)    DE(int)     intcor
     14.40     -16.37       1.20        0.00     118.47       2.72       0.11       1.86       ----

> <Gold.Chemscore.Fitness>
14.3992

> <Gold.Chemscore.DG>
-16.3662

> <Gold.Chemscore.ZeroCoef>
-5.4800

> <Gold.Chemscore.Hbond>
1.1952

> <Gold.Chemscore.Metal>
0.0000

> <Gold.Chemscore.Lipo>
118.4672

> <Gold.Chemscore.Internal_Hbond>
0.0000

> <Gold.Chemscore.DEClash>
0.1078

> <Gold.Chemscore.DEInternal>
1.8591

> <Gold.Chemscore.Rot>
2.7212

> <Gold.Chemscore.Internal.Correction>
   9.000000E+99

> <Gold.Chemscore.Hbonds>
donor molecule, donor type, donor heavy atom, donor atom, acceptor molecule, acceptor atom, score
      P1  H  7989  7998       L1    15  0.22
      P1  H  7997  8009       L1    25  0.60

> <Gold.Chemscore.Hbond.Weighted>
-3.9918

> <Gold.Chemscore.Metal.Weighted>
-0.0000

> <Gold.Chemscore.Lipo.Weighted>
-13.8607

> <Gold.Chemscore.Internal_Hbond.Weighted>
0.0000

> <Gold.Chemscore.DEClash.Weighted>
0.1078

> <Gold.Chemscore.DEInternal.Weighted>
1.8591

> <Gold.Chemscore.Rot.Weighted>
6.9663

> <Gold.Chemscore.Internal.Correction.Weighted>
   9.000000E+99

> <Gold.Protein.RotatedTorsions>
[ 6907 6896 6895 6894 ] final   74.58 input  -60.11 | X-H torsion
[ 7974 7965 7964 7962 ] final  174.32 input  175.53 | X-H torsion
[ 8008 7997 7996 7995 ] final   38.03 input   59.86 | X-H torsion
[ 10167 10162 10161 10158 ] final -150.96 input  -65.29 | X-H torsion
[ 10718 10713 10712 10709 ] final  110.36 input   66.30 | X-H torsion
[ 10763 10752 10751 10750 ] final   88.93 input  -60.55 | X-H torsion
[ 11005 11000 10999 10996 ] final  -51.43 input  -57.11 | X-H torsion

> <Gold.Protein.ActiveResidues>
 VAL166  LYS551  ARG553  GLY616  TRP617  ASP618  TYR619  PRO620  LYS621  CYS622 
 ASP623  PHE694  ASN695  SER759  ASP760  ASP761  ALA762  ILE779  LEU786  VAL792 
 PHE793  MET794  SER795  GLU796  ALA797  LYS798  CYS799  TRP800  GLU811  SER814 

> <Gold.Protein.RotatedAtoms>
  152.4983  134.4250  159.9492 H   0  0  0  0  0  0  0  0  0  0  0  0  # atno 6907 bound_to 6896
  151.4225  133.3688  159.2766 H   0  0  0  0  0  0  0  0  0  0  0  0  # atno 6908 bound_to 6896
  150.9213  134.8653  159.7550 H   0  0  0  0  0  0  0  0  0  0  0  0  # atno 6909 bound_to 6896
  144.7224  139.9779  143.6438 H   0  0  0  0  0  0  0  0  0  0  0  0  # atno 7974 bound_to 7965
  155.2134  140.3325  155.4325 H   0  0  0  0  0  0  0  0  0  0  0  0  # atno 8008 bound_to 7997
  156.2361  140.1873  156.7162 H   0  0  0  0  0  0  0  0  0  0  0  0  # atno 8009 bound_to 7997
  154.6063  140.0615  156.9420 H   0  0  0  0  0  0  0  0  0  0  0  0  # atno 8010 bound_to 7997
  139.7309  143.8810  152.2534 H   0  0  0  0  0  0  0  0  0  0  0  0  # atno 10167 bound_to 10162
  157.6498  131.0931  150.6589 H   0  0  0  0  0  0  0  0  0  0  0  0  # atno 10718 bound_to 10713
  153.1818  135.4489  155.0038 H   0  0  0  0  0  0  0  0  0  0  0  0  # atno 10763 bound_to 10752
  154.8035  135.3265  154.7493 H   0  0  0  0  0  0  0  0  0  0  0  0  # atno 10764 bound_to 10752
  153.7956  135.6966  153.4919 H   0  0  0  0  0  0  0  0  0  0  0  0  # atno 10765 bound_to 10752
  141.0870  133.6640  156.3876 H   0  0  0  0  0  0  0  0  0  0  0  0  # atno 11005 bound_to 11000
  146.0511  139.3512  143.0639 LP  0  0  0  0  0  0  0  0  0  0  0  0  # atno 17320 bound_to 7965
  145.8214  140.9677  143.0897 LP  0  0  0  0  0  0  0  0  0  0  0  0  # atno 17321 bound_to 7965
  139.8733  144.7057  150.8962 LP  0  0  0  0  0  0  0  0  0  0  0  0  # atno 17342 bound_to 10162
  140.7771  143.3720  151.1631 LP  0  0  0  0  0  0  0  0  0  0  0  0  # atno 17343 bound_to 10162
  156.6902  130.4593  149.5602 LP  0  0  0  0  0  0  0  0  0  0  0  0  # atno 17370 bound_to 10713
  156.1867  130.6534  151.1014 LP  0  0  0  0  0  0  0  0  0  0  0  0  # atno 17371 bound_to 10713
  140.5339  134.6186  157.5359 LP  0  0  0  0  0  0  0  0  0  0  0  0  # atno 17394 bound_to 11000
  139.9690  134.7324  156.0079 LP  0  0  0  0  0  0  0  0  0  0  0  0  # atno 17395 bound_to 11000

$$$$
