AV-unprocessed.smi:533|AV-procd|sdf|2855|dock4
  -GOLD-   2262023343D 1   1.00000     0.00000
 Structure written by MMmdl.
 35 36  0  0  0  0  0  0  0  0  2 V2000
  151.8214  144.7686  158.0774 C   0  0  0  0  0  0  0  0  0  0  0  0
  152.6526  143.6852  158.7702 C   0  0  0  0  0  0  0  0  0  0  0  0
  152.1573  142.3568  158.4669 N   0  0  0  0  0  0  0  0  0  0  0  0
  152.4607  141.1111  159.0024 C   0  0  0  0  0  0  0  0  0  0  0  0
  153.3466  140.9053  159.9779 N   0  0  0  0  0  0  0  0  0  0  0  0
  153.2953  139.5283  160.1434 C   0  0  0  0  0  0  0  0  0  0  0  0
  152.4065  138.9562  159.2868 C   0  0  0  0  0  0  0  0  0  0  0  0
  152.1472  137.5014  159.2227 C   0  0  0  0  0  0  0  0  0  0  0  0
  151.3411  137.0326  158.4218 O   0  0  0  0  0  0  0  0  0  0  0  0
  152.8974  136.8037  160.1337 N   0  5  0  0  0  0  0  0  0  0  0  0
  153.8043  137.3418  161.0219 C   0  0  0  0  0  0  0  0  0  0  0  0
  154.4347  136.6327  161.8063 O   0  0  0  0  0  0  0  0  0  0  0  0
  154.0168  138.6971  161.0409 N   0  0  0  0  0  0  0  0  0  0  0  0
  154.9630  139.3461  161.9537 C   0  0  0  0  0  0  0  0  0  0  0  0
  151.8470  139.9952  158.5366 N   0  0  0  0  0  0  0  0  0  0  0  0
  150.8390  139.9230  157.4814 C   0  0  0  0  0  0  0  0  0  0  0  0
  151.3568  140.4741  156.1446 C   0  0  0  0  0  0  0  0  0  0  0  0
  152.3805  139.6351  155.6359 O   0  0  0  0  0  0  0  0  0  0  0  0
  151.8803  138.6065  154.8014 C   0  0  0  0  0  0  0  0  0  0  0  0
  152.2048  145.7609  158.3161 H   0  0  0  0  0  0  0  0  0  0  0  0
  150.7794  144.7301  158.3959 H   0  0  0  0  0  0  0  0  0  0  0  0
  151.8478  144.6541  156.9932 H   0  0  0  0  0  0  0  0  0  0  0  0
  153.6947  143.7524  158.4564 H   0  0  0  0  0  0  0  0  0  0  0  0
  152.6328  143.8306  159.8507 H   0  0  0  0  0  0  0  0  0  0  0  0
  151.4714  142.3375  157.7263 H   0  0  0  0  0  0  0  0  0  0  0  0
  155.4760  138.6637  162.6319 H   0  0  0  0  0  0  0  0  0  0  0  0
  154.4414  140.0808  162.5679 H   0  0  0  0  0  0  0  0  0  0  0  0
  155.7283  139.8711  161.3816 H   0  0  0  0  0  0  0  0  0  0  0  0
  150.4988  138.8954  157.3677 H   0  0  0  0  0  0  0  0  0  0  0  0
  149.9572  140.4822  157.7950 H   0  0  0  0  0  0  0  0  0  0  0  0
  150.5352  140.5359  155.4296 H   0  0  0  0  0  0  0  0  0  0  0  0
  151.7424  141.4853  156.2841 H   0  0  0  0  0  0  0  0  0  0  0  0
  152.7068  137.9926  154.4437 H   0  0  0  0  0  0  0  0  0  0  0  0
  151.3664  139.0190  153.9323 H   0  0  0  0  0  0  0  0  0  0  0  0
  151.1899  137.9592  155.3435 H   0  0  0  0  0  0  0  0  0  0  0  0
  1  2  1  0  0  0  0
  1 20  1  0  0  0  0
  1 21  1  0  0  0  0
  1 22  1  0  0  0  0
  2  3  1  0  0  0  0
  2 23  1  0  0  0  0
  2 24  1  0  0  0  0
  3  4  1  0  0  0  0
  3 25  1  0  0  0  0
  4 15  1  0  0  0  0
  4  5  2  0  0  0  0
  5  6  1  0  0  0  0
  6 13  1  0  0  0  0
  6  7  2  0  0  0  0
  7  8  1  0  0  0  0
  7 15  1  0  0  0  0
  8  9  2  0  0  0  0
  8 10  1  0  0  0  0
 10 11  1  0  0  0  0
 11 12  2  0  0  0  0
 11 13  1  0  0  0  0
 13 14  1  0  0  0  0
 14 26  1  0  0  0  0
 14 27  1  0  0  0  0
 14 28  1  0  0  0  0
 15 16  1  0  0  0  0
 16 17  1  0  0  0  0
 16 29  1  0  0  0  0
 16 30  1  0  0  0  0
 17 18  1  0  0  0  0
 17 31  1  0  0  0  0
 17 32  1  0  0  0  0
 18 19  1  0  0  0  0
 19 33  1  0  0  0  0
 19 34  1  0  0  0  0
 19 35  1  0  0  0  0
M  CHG  1  10  -1
M  END
> <s_m_source_file>
AV-unprocessed.smi

> <i_m_source_file_index>
533

> <i_lp_mmshare_version>
43012

> <i_f3d_flags>
0

> <s_epik_input>
W0NIM11bQ0gyXVtOSF1jKG4xKW4oW0NIMl1bQ0gyXU9bQ0gzXSljKGMxMiljKD1PKVtuSF1jKD1PKW4yW0NIM10=

> <s_epik_cmdline>
J2VwaWtfcHl0aG9uJywgJy1waCcsICc3LjAnLCAnLXRuJywgJzgnLCAnLW1hJywgJzIwMCcsICctbWV0YWxfYmluZGluZycsICctaW1hZScsICc8aW5maWxlLm1hZT4nLCAnLW9tYWUnLCAnPG91dGZpbGUubWFlPic=

> <r_lp_tautomer_probability>
1

> <r_epik_Ionization_Penalty>
5.85583

> <r_epik_Ionization_Penalty_Charging>
1.37787e-08

> <r_epik_Ionization_Penalty_Neutral>
5.85583

> <r_epik_State_Penalty>
5.8557

> <r_epik_Charging_Adjusted_Penalty>
5.8557

> <i_epik_Tot_Q>
-1

> <i_epik_Tot_abs_Q>
1

> <r_epik_Metal_State_Penalty>
1.82051

> <b_epik_Metal_Only>
1

> <s_lp_Force_Field>
OPLS_2005

> <r_lp_Energy>
24.2596

> <b_lp_Chiralities_Consistent>
1

> <s_lp_Variant>
AV-unprocessed.smi:533-2

> <Gold.Version>
5.8.1

> <Gold.Id.Protein>
6NUR|6NUR_protein|mol2

> <Gold.PLP.Fitness>
43.3506

> <Gold.PLP.PLP>
-34.8503

> <Gold.PLP.part.hbond>
-2.3153

> <Gold.PLP.part.metal>
0.0000

> <Gold.PLP.part.buried>
-5.6347

> <Gold.PLP.part.nonpolar>
-26.1524

> <Gold.PLP.part.repulsive>
0.0691

> <Gold.PLP.ligand.clash>
0.0000

> <Gold.PLP.ligand.torsion>
0.2507

> <Gold.PLP.Chemscore.Hbond>
3.0000

> <Gold.PLP.Chemscore.CHOScore>
0.0000

> <Gold.PLP.Chemscore.Metal>
0.0000

> <Gold.Chemscore.Hbonds>
donor molecule, donor type, donor heavy atom, donor atom, acceptor molecule, acceptor atom, score
      P1  H  6896  6907       L1    10  2.00
      P1  H  7997  8009       L1    18  0.65

> <Gold.PLP.Chemscore.Internal.Correction>
0.0016

> <Gold.Rescore>
     Score         DG    S(hbond)    S(metal)    S(lipo)     H(rot)  DE(clash)    DE(int)     intcor
     13.60     -13.84       1.82        0.00      59.71       1.83       0.03       0.22       ----

> <Gold.Chemscore.Fitness>
13.5963

> <Gold.Chemscore.DG>
-13.8433

> <Gold.Chemscore.ZeroCoef>
-5.4800

> <Gold.Chemscore.Hbond>
1.8183

> <Gold.Chemscore.Metal>
0.0000

> <Gold.Chemscore.Lipo>
59.7075

> <Gold.Chemscore.Internal_Hbond>
0.0000

> <Gold.Chemscore.DEClash>
0.0285

> <Gold.Chemscore.DEInternal>
0.2185

> <Gold.Chemscore.Rot>
1.8342

> <Gold.Chemscore.Internal.Correction>
   9.000000E+99

> <Gold.Chemscore.Hbonds>
donor molecule, donor type, donor heavy atom, donor atom, acceptor molecule, acceptor atom, score
      P1  H  6896  6907       L1    10  0.39
      P1  H  7997  8009       L1    18  0.62

> <Gold.Chemscore.Hbond.Weighted>
-6.0732

> <Gold.Chemscore.Metal.Weighted>
-0.0000

> <Gold.Chemscore.Lipo.Weighted>
-6.9858

> <Gold.Chemscore.Internal_Hbond.Weighted>
0.0000

> <Gold.Chemscore.DEClash.Weighted>
0.0285

> <Gold.Chemscore.DEInternal.Weighted>
0.2185

> <Gold.Chemscore.Rot.Weighted>
4.6957

> <Gold.Chemscore.Internal.Correction.Weighted>
   9.000000E+99

> <Gold.Protein.RotatedTorsions>
[ 6907 6896 6895 6894 ] final   32.94 input  -60.11 | X-H torsion
[ 7974 7965 7964 7962 ] final -111.11 input  175.53 | X-H torsion
[ 8008 7997 7996 7995 ] final -133.03 input   59.86 | X-H torsion
[ 10167 10162 10161 10158 ] final  -18.69 input  -65.29 | X-H torsion
[ 10718 10713 10712 10709 ] final  -90.95 input   66.30 | X-H torsion
[ 10763 10752 10751 10750 ] final  121.03 input  -60.55 | X-H torsion
[ 11005 11000 10999 10996 ] final  105.05 input  -57.11 | X-H torsion

> <Gold.Protein.ActiveResidues>
 VAL166  LYS551  ARG553  GLY616  TRP617  ASP618  TYR619  PRO620  LYS621  CYS622 
 ASP623  PHE694  ASN695  SER759  ASP760  ASP761  ALA762  ILE779  LEU786  VAL792 
 PHE793  MET794  SER795  GLU796  ALA797  LYS798  CYS799  TRP800  GLU811  SER814 

> <Gold.Protein.RotatedAtoms>
  152.0815  134.9468  160.0573 H   0  0  0  0  0  0  0  0  0  0  0  0  # atno 6907 bound_to 6896
  152.0754  133.4122  159.4486 H   0  0  0  0  0  0  0  0  0  0  0  0  # atno 6908 bound_to 6896
  150.6836  134.2963  159.4731 H   0  0  0  0  0  0  0  0  0  0  0  0  # atno 6909 bound_to 6896
  145.1601  140.8874  143.3596 H   0  0  0  0  0  0  0  0  0  0  0  0  # atno 7974 bound_to 7965
  155.3388  140.0471  157.3044 H   0  0  0  0  0  0  0  0  0  0  0  0  # atno 8008 bound_to 7997
  154.5288  140.2250  155.8806 H   0  0  0  0  0  0  0  0  0  0  0  0  # atno 8009 bound_to 7997
  156.1767  140.3083  155.9079 H   0  0  0  0  0  0  0  0  0  0  0  0  # atno 8010 bound_to 7997
  140.7261  143.4892  151.0015 H   0  0  0  0  0  0  0  0  0  0  0  0  # atno 10167 bound_to 10162
  155.9990  130.4929  150.5400 H   0  0  0  0  0  0  0  0  0  0  0  0  # atno 10718 bound_to 10713
  153.6077  135.3436  155.2968 H   0  0  0  0  0  0  0  0  0  0  0  0  # atno 10763 bound_to 10752
  154.8624  135.4242  154.2344 H   0  0  0  0  0  0  0  0  0  0  0  0  # atno 10764 bound_to 10752
  153.3187  135.7036  153.7122 H   0  0  0  0  0  0  0  0  0  0  0  0  # atno 10765 bound_to 10752
  139.8798  134.9322  156.5454 H   0  0  0  0  0  0  0  0  0  0  0  0  # atno 11005 bound_to 11000
  145.0340  139.3316  143.6010 LP  0  0  0  0  0  0  0  0  0  0  0  0  # atno 17320 bound_to 7965
  146.3483  139.9688  142.8708 LP  0  0  0  0  0  0  0  0  0  0  0  0  # atno 17321 bound_to 7965
  139.8595  143.7333  152.3174 LP  0  0  0  0  0  0  0  0  0  0  0  0  # atno 17342 bound_to 10162
  139.7543  144.7525  151.0458 LP  0  0  0  0  0  0  0  0  0  0  0  0  # atno 17343 bound_to 10162
  157.3338  131.0704  151.1841 LP  0  0  0  0  0  0  0  0  0  0  0  0  # atno 17370 bound_to 10713
  157.2712  130.6705  149.6020 LP  0  0  0  0  0  0  0  0  0  0  0  0  # atno 17371 bound_to 10713
  140.8279  133.8302  155.8956 LP  0  0  0  0  0  0  0  0  0  0  0  0  # atno 17394 bound_to 11000
  140.9356  134.1966  157.4833 LP  0  0  0  0  0  0  0  0  0  0  0  0  # atno 17395 bound_to 11000

$$$$
