#       Name:                AV-unprocessed.smi:484
#       Creating user name   scv26
#       Creation time:       Thu Mar 26 23:11:37 2020


#       File generated by GOLD software.
#

@<TRIPOS>MOLECULE
AV-unprocessed.smi:484
    53    55     1
SMALL
NO_CHARGES


@<TRIPOS>ATOM
      1 ****        -7.2148   0.8792  -0.8141 C.3            1 S1                 0.0000
      2 ****        -6.6271   0.8822   0.6013 C.3            1 S1                 0.0000
      3 ****        -5.1306   0.6340   0.6012 C.ar           1 S1                 0.0000
      4 ****        -4.2335   1.7099   0.4503 C.ar           1 S1                 0.0000
      5 ****        -2.8451   1.4766   0.4440 C.ar           1 S1                 0.0000
      6 ****        -2.3307   0.1721   0.5888 C.ar           1 S1                 0.0000
      7 ****        -0.9595   0.0363   0.5722 O.3            1 S1                 0.0000
      8 ****        -0.4085  -1.2644   0.7376 C.3            1 S1                 0.0000
      9 ****         1.1256  -1.1951   0.6753 C.3            1 S1                 0.0000
     10 ****         1.6167  -0.6836   1.8981 O.3            1 S1                 0.0000
     11 ****         1.6600  -0.3980  -0.5325 C.3            1 S1                 0.0000
     12 ****         3.1134  -0.4263  -0.6234 N.pl3          1 S1                 0.0000
     13 ****         3.8968  -1.3473  -1.2389 C.2            1 S1                 0.0000
     14 ****         3.3249  -2.5279  -1.9624 C.3            1 S1                 0.0000
     15 ****         2.8124  -2.1912  -3.2337 O.3            1 S1                 0.0000
     16 ****         5.2110  -1.1334  -1.1665 N.2            1 S1                 0.0000
     17 ****         5.2881   0.0388  -0.4400 C.ar           1 S1                 0.0000
     18 ****         6.4115   0.7898  -0.0256 C.ar           1 S1                 0.0000
     19 ****         6.2423   1.9753   0.7193 C.ar           1 S1                 0.0000
     20 ****         4.9504   2.4261   1.0598 C.ar           1 S1                 0.0000
     21 ****         3.8178   1.6928   0.6571 C.ar           1 S1                 0.0000
     22 ****         3.9919   0.5097  -0.0861 C.ar           1 S1                 0.0000
     23 ****        -3.2383  -0.9067   0.7400 C.ar           1 S1                 0.0000
     24 ****        -4.6275  -0.6744   0.7453 C.ar           1 S1                 0.0000
     25 ****        -8.2898   1.0583  -0.7889 H              1 S1                 0.0000
     26 ****        -7.0482  -0.0791  -1.3072 H              1 S1                 0.0000
     27 ****        -6.7620   1.6568  -1.4302 H              1 S1                 0.0000
     28 ****        -6.8316   1.8377   1.0855 H              1 S1                 0.0000
     29 ****        -7.1192   0.1204   1.2071 H              1 S1                 0.0000
     30 ****        -4.6073   2.7171   0.3368 H              1 S1                 0.0000
     31 ****        -2.1669   2.3090   0.3266 H              1 S1                 0.0000
     32 ****        -0.7295  -1.7102   1.6808 H              1 S1                 0.0000
     33 ****        -0.7623  -1.9065  -0.0707 H              1 S1                 0.0000
     34 ****         1.4963  -2.2182   0.6116 H              1 S1                 0.0000
     35 ****         1.2943   0.1985   2.0037 H              1 S1                 0.0000
     36 ****         1.2391  -0.7887  -1.4589 H              1 S1                 0.0000
     37 ****         1.3413   0.6432  -0.4752 H              1 S1                 0.0000
     38 ****         4.1010  -3.2835  -2.0896 H              1 S1                 0.0000
     39 ****         2.5379  -2.9858  -1.3639 H              1 S1                 0.0000
     40 ****         2.4898  -2.9783  -3.6448 H              1 S1                 0.0000
     41 ****         7.4049   0.4524  -0.2815 H              1 S1                 0.0000
     42 ****         7.1080   2.5414   1.0309 H              1 S1                 0.0000
     43 ****         4.8295   3.3351   1.6304 H              1 S1                 0.0000
     44 ****         2.8273   2.0344   0.9179 H              1 S1                 0.0000
     45 ****        -2.8946  -1.9236   0.8524 H              1 S1                 0.0000
     46 ****        -5.3068  -1.5066   0.8595 H              1 S1                 0.0000
     47 ****        -0.5965   0.6074   1.3085 LP             1 S1                 0.0000
     48 ****        -0.6382   0.3841  -0.3086 LP             1 S1                 0.0000
     49 ****         2.6166  -0.6783   1.8847 LP             1 S1                 0.0000
     50 ****         1.2966  -1.2530   2.6552 LP             1 S1                 0.0000
     51 ****         3.5371  -1.7905  -3.7943 LP             1 S1                 0.0000
     52 ****         2.0663  -1.5330  -3.1331 LP             1 S1                 0.0000
     53 ****         5.9553  -1.6843  -1.5441 LP             1 S1                 0.0000
@<TRIPOS>BOND
    1    1    2 1     
    2    1   25 1     
    3    1   26 1     
    4    1   27 1     
    5    2    3 1     
    6    2   28 1     
    7    2   29 1     
    8    3   24 ar    
    9    3    4 ar    
   10    4    5 ar    
   11    4   30 1     
   12    5    6 ar    
   13    5   31 1     
   14    6    7 1     
   15    6   23 ar    
   16    7    8 1     
   17    8    9 1     
   18    8   32 1     
   19    8   33 1     
   20    9   10 1     
   21    9   11 1     
   22    9   34 1     
   23   10   35 1     
   24   11   12 1     
   25   11   36 1     
   26   11   37 1     
   27   12   22 1     
   28   12   13 1     
   29   13   14 1     
   30   13   16 2     
   31   14   15 1     
   32   14   38 1     
   33   14   39 1     
   34   15   40 1     
   35   16   17 1     
   36   17   22 ar    
   37   17   18 ar    
   38   18   19 ar    
   39   18   41 1     
   40   19   20 ar    
   41   19   42 1     
   42   20   21 ar    
   43   20   43 1     
   44   21   22 ar    
   45   21   44 1     
   46   23   24 ar    
   47   23   45 1     
   48   24   46 1     
   49    7   47 1     
   50    7   48 1     
   51   10   49 1     
   52   10   50 1     
   53   15   51 1     
   54   15   52 1     
   55   16   53 1     
@<TRIPOS>SUBSTRUCTURE
      1 S1             1
@<TRIPOS>SET
LONE_PAIRS      STATIC     ATOMS    <user>   **** ""
7 47 48 49 50 51 52 53
DONOR_HYDROGENS      STATIC     ATOMS    <user>   **** ""
2 35 40
ATOM$BLUE        STATIC     ATOMS    COLORGROUP SYSTEM
7 47 48 49 50 51 52 53
ATOM$RED        STATIC     ATOMS    COLORGROUP SYSTEM
2 35 40
