AV-unprocessed.smi:769|AV-procd|sdf|3677|dock7
  -GOLD-   22720 1 93D 1   1.00000     0.00000
 Structure written by MMmdl.
 51 53  0  0  0  0  0  0  0  0  3 V2000
  146.8153  134.1485  153.7217 O   0  0  0  0  0  0  0  0  0  0  0  0
  147.5326  133.9097  152.7506 C   0  0  0  0  0  0  0  0  0  0  0  0
  148.8715  133.8779  152.8169 N   0  0  0  0  0  0  0  0  0  0  0  0
  149.6508  134.0857  154.0326 C   0  0  0  0  0  0  0  0  0  0  0  0
  149.1365  135.2941  154.8396 C   0  0  0  0  0  0  0  0  0  0  0  0
  149.7139  136.5791  154.3718 N   0  3  0  0  0  0  0  0  0  0  0  0
  148.9312  137.7509  154.8513 C   0  0  0  0  0  0  0  0  0  0  0  0
  149.5383  139.0790  154.3625 C   0  0  0  0  0  0  0  0  0  0  0  0
  150.9415  139.1395  154.7804 N   0  0  0  0  0  0  0  0  0  0  0  0
  151.3981  140.0225  155.7020 C   0  0  0  0  0  0  0  0  0  0  0  0
  152.5598  139.9956  156.1099 O   0  0  0  0  0  0  0  0  0  0  0  0
  150.4453  141.1209  156.2218 C   0  0  0  0  0  0  0  0  0  0  0  0
  151.0951  142.4572  156.6343 C   0  0  0  0  0  0  0  0  0  0  0  0
  150.9885  142.0364  158.1030 C   0  0  0  0  0  0  0  0  0  0  0  0
  150.0128  140.9313  157.6858 C   0  0  0  0  0  0  0  0  0  0  0  0
  151.7199  138.0619  154.1635 C   0  0  0  0  0  0  0  0  0  0  0  0
  151.1723  136.7082  154.6507 C   0  0  0  0  0  0  0  0  0  0  0  0
  147.0986  133.6687  151.5010 N   0  0  0  0  0  0  0  0  0  0  0  0
  145.7620  133.5997  151.0197 C   0  0  0  0  0  0  0  0  0  0  0  0
  145.5604  133.0444  149.7363 C   0  0  0  0  0  0  0  0  0  0  0  0
  144.2530  132.9403  149.2195 C   0  0  0  0  0  0  0  0  0  0  0  0
  143.2035  133.3629  149.9561 N   0  3  0  0  0  0  0  0  0  0  0  0
  143.3437  133.8877  151.1921 C   0  0  0  0  0  0  0  0  0  0  0  0
  144.6270  134.0166  151.7618 C   0  0  0  0  0  0  0  0  0  0  0  0
  149.3880  133.6782  151.9723 H   0  0  0  0  0  0  0  0  0  0  0  0
  149.6314  133.1703  154.6248 H   0  0  0  0  0  0  0  0  0  0  0  0
  150.6901  134.2466  153.7449 H   0  0  0  0  0  0  0  0  0  0  0  0
  148.0509  135.3318  154.7358 H   0  0  0  0  0  0  0  0  0  0  0  0
  149.3384  135.1729  155.9051 H   0  0  0  0  0  0  0  0  0  0  0  0
  147.9010  137.6716  154.5018 H   0  0  0  0  0  0  0  0  0  0  0  0
  148.8986  137.7402  155.9422 H   0  0  0  0  0  0  0  0  0  0  0  0
  149.4836  139.1404  153.2746 H   0  0  0  0  0  0  0  0  0  0  0  0
  148.9444  139.9140  154.7364 H   0  0  0  0  0  0  0  0  0  0  0  0
  149.6104  141.2928  155.5414 H   0  0  0  0  0  0  0  0  0  0  0  0
  152.1177  142.6288  156.2967 H   0  0  0  0  0  0  0  0  0  0  0  0
  150.4627  143.3138  156.3977 H   0  0  0  0  0  0  0  0  0  0  0  0
  151.9269  141.6420  158.4955 H   0  0  0  0  0  0  0  0  0  0  0  0
  150.5611  142.7936  158.7610 H   0  0  0  0  0  0  0  0  0  0  0  0
  148.9682  141.2000  157.8496 H   0  0  0  0  0  0  0  0  0  0  0  0
  150.2432  139.9569  158.1191 H   0  0  0  0  0  0  0  0  0  0  0  0
  151.6215  138.1313  153.0792 H   0  0  0  0  0  0  0  0  0  0  0  0
  152.7898  138.1250  154.3554 H   0  0  0  0  0  0  0  0  0  0  0  0
  151.3479  136.6052  155.7228 H   0  0  0  0  0  0  0  0  0  0  0  0
  151.7242  135.9068  154.1612 H   0  0  0  0  0  0  0  0  0  0  0  0
  147.8153  133.5662  150.7972 H   0  0  0  0  0  0  0  0  0  0  0  0
  146.3990  132.7035  149.1464 H   0  0  0  0  0  0  0  0  0  0  0  0
  144.0171  132.5331  148.2469 H   0  0  0  0  0  0  0  0  0  0  0  0
  142.4303  134.1819  151.6886 H   0  0  0  0  0  0  0  0  0  0  0  0
  144.7095  134.4207  152.7589 H   0  0  0  0  0  0  0  0  0  0  0  0
  149.6164  136.5853  153.3665 H   0  0  0  0  0  0  0  0  0  0  0  0
  142.2649  133.2782  149.5644 H   0  0  0  0  0  0  0  0  0  0  0  0
  1  2  2  0  0  0  0
  2  3  1  0  0  0  0
  2 18  1  0  0  0  0
  3  4  1  0  0  0  0
  3 25  1  0  0  0  0
  4  5  1  0  0  0  0
  4 26  1  0  0  0  0
  4 27  1  0  0  0  0
  5  6  1  0  0  0  0
  5 28  1  0  0  0  0
  5 29  1  0  0  0  0
  6 17  1  0  0  0  0
  6  7  1  0  0  0  0
  6 50  1  0  0  0  0
  7  8  1  0  0  0  0
  7 30  1  0  0  0  0
  7 31  1  0  0  0  0
  8  9  1  0  0  0  0
  8 32  1  0  0  0  0
  8 33  1  0  0  0  0
  9 10  1  0  0  0  0
  9 16  1  0  0  0  0
 10 11  2  0  0  0  0
 10 12  1  0  0  0  0
 12 15  1  0  0  0  0
 12 13  1  0  0  0  0
 12 34  1  0  0  0  0
 13 14  1  0  0  0  0
 13 35  1  0  0  0  0
 13 36  1  0  0  0  0
 14 15  1  0  0  0  0
 14 37  1  0  0  0  0
 14 38  1  0  0  0  0
 15 39  1  0  0  0  0
 15 40  1  0  0  0  0
 16 17  1  0  0  0  0
 16 41  1  0  0  0  0
 16 42  1  0  0  0  0
 17 43  1  0  0  0  0
 17 44  1  0  0  0  0
 18 19  1  0  0  0  0
 18 45  1  0  0  0  0
 19 24  1  0  0  0  0
 19 20  2  0  0  0  0
 20 21  1  0  0  0  0
 20 46  1  0  0  0  0
 21 22  2  0  0  0  0
 21 47  1  0  0  0  0
 22 23  1  0  0  0  0
 22 51  1  0  0  0  0
 23 24  2  0  0  0  0
 23 48  1  0  0  0  0
 24 49  1  0  0  0  0
M  CHG  1   6   1
M  CHG  1  22   1
M  END
> <s_m_source_file>
AV-unprocessed.smi

> <i_m_source_file_index>
769

> <i_lp_mmshare_version>
43012

> <i_f3d_flags>
0

> <s_epik_input>
W2NIXTFbY0hdbltjSF1bY0hdYzFbTkhdQyg9TylbTkhdW0NIMl1bQ0gyXU4yW0NIMl1bQ0gyXU4oW0NIMl1bQ0gyXTIpQyg9TylbQ0hdM1tDSDJdW0NIMl1bQ0gyXTM=

> <s_epik_cmdline>
J2VwaWtfcHl0aG9uJywgJy1waCcsICc3LjAnLCAnLXRuJywgJzgnLCAnLW1hJywgJzIwMCcsICctbWV0YWxfYmluZGluZycsICctaW1hZScsICc8aW5maWxlLm1hZT4nLCAnLW9tYWUnLCAnPG91dGZpbGUubWFlPic=

> <r_epik_Ionization_Penalty>
1.74797

> <r_epik_Ionization_Penalty_Charging>
1.74795

> <r_epik_Ionization_Penalty_Neutral>
1.97893e-05

> <r_epik_State_Penalty>
1.75255

> <r_epik_Charging_Adjusted_Penalty>
3.5005

> <i_epik_Tot_Q>
2

> <i_epik_Tot_abs_Q>
2

> <r_epik_Metal_State_Penalty>
1.84999

> <b_epik_Metal_Only>
0

> <s_lp_Force_Field>
OPLS_2005

> <r_lp_Energy>
63.8018

> <b_lp_Chiralities_Consistent>
1

> <s_lp_Variant>
AV-unprocessed.smi:769-4

> <Gold.Version>
5.8.1

> <Gold.Id.Protein>
6NUR|6NUR_protein|mol2

> <Gold.PLP.Fitness>
54.8442

> <Gold.PLP.PLP>
-44.5401

> <Gold.PLP.part.hbond>
-4.0000

> <Gold.PLP.part.metal>
0.0000

> <Gold.PLP.part.buried>
-4.6743

> <Gold.PLP.part.nonpolar>
-35.1635

> <Gold.PLP.part.repulsive>
0.1845

> <Gold.PLP.ligand.clash>
0.0000

> <Gold.PLP.ligand.torsion>
0.8493

> <Gold.PLP.Chemscore.Hbond>
3.8564

> <Gold.PLP.Chemscore.CHOScore>
0.0000

> <Gold.PLP.Chemscore.Metal>
0.0000

> <Gold.Chemscore.Hbonds>
donor molecule, donor type, donor heavy atom, donor atom, acceptor molecule, acceptor atom, score
      L1  H     6    50       P1  7948  2.00
      L1  H    22    51       P1 10186  1.18
      P1  H  7997  8008       L1    11  1.00

> <Gold.PLP.Chemscore.Internal.Correction>
0.4334

> <Gold.Rescore>
     Score         DG    S(hbond)    S(metal)    S(lipo)     H(rot)  DE(clash)    DE(int)     intcor
     16.09     -20.09       2.53        0.00      91.16       1.76       0.60       3.40       ----

> <Gold.Chemscore.Fitness>
16.0886

> <Gold.Chemscore.DG>
-20.0896

> <Gold.Chemscore.ZeroCoef>
-5.4800

> <Gold.Chemscore.Hbond>
2.5309

> <Gold.Chemscore.Metal>
0.0000

> <Gold.Chemscore.Lipo>
91.1589

> <Gold.Chemscore.Internal_Hbond>
0.0000

> <Gold.Chemscore.DEClash>
0.6050

> <Gold.Chemscore.DEInternal>
3.3961

> <Gold.Chemscore.Rot>
1.7614

> <Gold.Chemscore.Internal.Correction>
   9.000000E+99

> <Gold.Chemscore.Hbonds>
donor molecule, donor type, donor heavy atom, donor atom, acceptor molecule, acceptor atom, score
      L1  H     6    50       P1  7948  0.55
      L1  H    22    51       P1 10186  0.60
      P1  H  7997  8008       L1    11  1.00

> <Gold.Chemscore.Hbond.Weighted>
-8.4532

> <Gold.Chemscore.Metal.Weighted>
-0.0000

> <Gold.Chemscore.Lipo.Weighted>
-10.6656

> <Gold.Chemscore.Internal_Hbond.Weighted>
0.0000

> <Gold.Chemscore.DEClash.Weighted>
0.6050

> <Gold.Chemscore.DEInternal.Weighted>
3.3961

> <Gold.Chemscore.Rot.Weighted>
4.5091

> <Gold.Chemscore.Internal.Correction.Weighted>
   9.000000E+99

> <Gold.Protein.RotatedTorsions>
[ 6907 6896 6895 6894 ] final   50.45 input  -60.11 | X-H torsion
[ 7974 7965 7964 7962 ] final  -84.13 input  175.53 | X-H torsion
[ 8008 7997 7996 7995 ] final  -34.30 input   59.86 | X-H torsion
[ 10167 10162 10161 10158 ] final  124.02 input  -65.29 | X-H torsion
[ 10718 10713 10712 10709 ] final -145.09 input   66.30 | X-H torsion
[ 10763 10752 10751 10750 ] final  158.42 input  -60.55 | X-H torsion
[ 11005 11000 10999 10996 ] final  -58.19 input  -57.11 | X-H torsion

> <Gold.Protein.ActiveResidues>
 VAL166  LYS551  ARG553  GLY616  TRP617  ASP618  TYR619  PRO620  LYS621  CYS622 
 ASP623  PHE694  ASN695  SER759  ASP760  ASP761  ALA762  ILE779  LEU786  VAL792 
 PHE793  MET794  SER795  GLU796  ALA797  LYS798  CYS799  TRP800  GLU811  SER814 

> <Gold.Protein.RotatedAtoms>
  152.3019  134.7600  160.0355 H   0  0  0  0  0  0  0  0  0  0  0  0  # atno 6907 bound_to 6896
  151.8110  133.3376  159.3563 H   0  0  0  0  0  0  0  0  0  0  0  0  # atno 6908 bound_to 6896
  150.7278  134.5593  159.5878 H   0  0  0  0  0  0  0  0  0  0  0  0  # atno 6909 bound_to 6896
  145.5107  140.9540  143.1709 H   0  0  0  0  0  0  0  0  0  0  0  0  # atno 7974 bound_to 7965
  154.4124  140.1687  156.2028 H   0  0  0  0  0  0  0  0  0  0  0  0  # atno 8008 bound_to 7997
  155.9510  140.3401  155.6384 H   0  0  0  0  0  0  0  0  0  0  0  0  # atno 8009 bound_to 7997
  155.6870  140.0729  157.2453 H   0  0  0  0  0  0  0  0  0  0  0  0  # atno 8010 bound_to 7997
  139.5765  144.6966  151.3639 H   0  0  0  0  0  0  0  0  0  0  0  0  # atno 10167 bound_to 10162
  156.3782  130.7823  151.2012 H   0  0  0  0  0  0  0  0  0  0  0  0  # atno 10718 bound_to 10713
  154.2158  135.2784  155.2942 H   0  0  0  0  0  0  0  0  0  0  0  0  # atno 10763 bound_to 10752
  154.5741  135.5609  153.7126 H   0  0  0  0  0  0  0  0  0  0  0  0  # atno 10764 bound_to 10752
  153.0053  135.6328  154.2298 H   0  0  0  0  0  0  0  0  0  0  0  0  # atno 10765 bound_to 10752
  141.1197  133.6612  156.4884 H   0  0  0  0  0  0  0  0  0  0  0  0  # atno 11005 bound_to 11000
  144.7729  139.6695  143.7187 LP  0  0  0  0  0  0  0  0  0  0  0  0  # atno 17320 bound_to 7965
  146.2168  139.5564  142.9645 LP  0  0  0  0  0  0  0  0  0  0  0  0  # atno 17321 bound_to 7965
  140.7047  143.7543  150.7462 LP  0  0  0  0  0  0  0  0  0  0  0  0  # atno 17342 bound_to 10162
  140.1064  143.4740  152.2395 LP  0  0  0  0  0  0  0  0  0  0  0  0  # atno 17343 bound_to 10162
  157.7490  131.0352  150.4352 LP  0  0  0  0  0  0  0  0  0  0  0  0  # atno 17370 bound_to 10713
  156.4591  130.4028  149.6587 LP  0  0  0  0  0  0  0  0  0  0  0  0  # atno 17371 bound_to 10713
  140.4543  134.6899  157.5055 LP  0  0  0  0  0  0  0  0  0  0  0  0  # atno 17394 bound_to 11000
  140.0145  134.6640  155.9331 LP  0  0  0  0  0  0  0  0  0  0  0  0  # atno 17395 bound_to 11000

$$$$
