AV-unprocessed.smi:2175|AV-procd|sdf|8845|dock4
  -GOLD-   2272012 33D 1   1.00000     0.00000
 Structure written by MMmdl.
 33 34  0  0  0  0  0  0  0  0  2 V2000
  153.7998  141.8974  162.0367 C   0  0  0  0  0  0  0  0  0  0  0  0
  153.0690  142.0373  160.7186 C   0  0  0  0  0  0  0  0  0  0  0  0
  152.3936  143.0980  160.4887 N   0  0  0  0  0  0  0  0  0  0  0  0
  151.7150  143.2343  159.2661 C   0  0  0  0  0  0  0  0  0  0  0  0
  150.9446  144.5295  159.0769 C   0  0  0  0  0  0  0  0  0  0  0  0
  151.7606  142.2528  158.3199 C   0  0  0  0  0  0  0  0  0  0  0  0
  151.0473  142.3598  156.9722 C   0  0  0  0  0  0  0  0  0  0  0  0
  149.8334  141.4459  156.7872 C   0  0  0  0  0  0  0  0  0  0  0  0
  149.9662  140.2222  156.8057 O   0  0  0  0  0  0  0  0  0  0  0  0
  148.6512  142.0559  156.6142 N   0  0  0  0  0  0  0  0  0  0  0  0
  147.3755  141.3752  156.4359 C   0  0  0  0  0  0  0  0  0  0  0  0
  146.8625  141.3391  155.0089 C   0  0  0  0  0  0  0  0  0  0  0  0
  147.8145  141.3804  153.8367 C   0  0  0  0  0  0  0  0  0  0  0  0
  146.9375  142.5718  154.1389 C   0  0  0  0  0  0  0  0  0  0  0  0
  152.5454  141.0431  158.6266 C   0  0  0  0  0  0  0  0  0  0  0  0
  152.6096  140.1213  157.8143 O   0  0  0  0  0  0  0  0  0  0  0  0
  153.1830  140.9912  159.8310 N   0  5  0  0  0  0  0  0  0  0  0  0
  153.5212  142.6949  162.7268 H   0  0  0  0  0  0  0  0  0  0  0  0
  154.8771  141.9433  161.8757 H   0  0  0  0  0  0  0  0  0  0  0  0
  153.5593  140.9428  162.5059 H   0  0  0  0  0  0  0  0  0  0  0  0
  151.3530  145.0990  158.2419 H   0  0  0  0  0  0  0  0  0  0  0  0
  151.0010  145.1558  159.9682 H   0  0  0  0  0  0  0  0  0  0  0  0
  149.8922  144.3261  158.8788 H   0  0  0  0  0  0  0  0  0  0  0  0
  150.7345  143.3958  156.8377 H   0  0  0  0  0  0  0  0  0  0  0  0
  151.7392  142.1746  156.1503 H   0  0  0  0  0  0  0  0  0  0  0  0
  148.6351  143.0655  156.6108 H   0  0  0  0  0  0  0  0  0  0  0  0
  147.4535  140.3511  156.8044 H   0  0  0  0  0  0  0  0  0  0  0  0
  146.6387  141.8704  157.0691 H   0  0  0  0  0  0  0  0  0  0  0  0
  145.9680  140.7326  154.8791 H   0  0  0  0  0  0  0  0  0  0  0  0
  148.8779  141.4726  154.0493 H   0  0  0  0  0  0  0  0  0  0  0  0
  147.5638  140.7782  152.9660 H   0  0  0  0  0  0  0  0  0  0  0  0
  146.1030  142.7653  153.4679 H   0  0  0  0  0  0  0  0  0  0  0  0
  147.4189  143.4564  154.5510 H   0  0  0  0  0  0  0  0  0  0  0  0
  1  2  1  0  0  0  0
  1 18  1  0  0  0  0
  1 19  1  0  0  0  0
  1 20  1  0  0  0  0
  2 17  1  0  0  0  0
  2  3  2  0  0  0  0
  3  4  1  0  0  0  0
  4  5  1  0  0  0  0
  4  6  2  0  0  0  0
  5 21  1  0  0  0  0
  5 22  1  0  0  0  0
  5 23  1  0  0  0  0
  6  7  1  0  0  0  0
  6 15  1  0  0  0  0
  7  8  1  0  0  0  0
  7 24  1  0  0  0  0
  7 25  1  0  0  0  0
  8  9  2  0  0  0  0
  8 10  1  0  0  0  0
 10 11  1  0  0  0  0
 10 26  1  0  0  0  0
 11 12  1  0  0  0  0
 11 27  1  0  0  0  0
 11 28  1  0  0  0  0
 12 14  1  0  0  0  0
 12 13  1  0  0  0  0
 12 29  1  0  0  0  0
 13 14  1  0  0  0  0
 13 30  1  0  0  0  0
 13 31  1  0  0  0  0
 14 32  1  0  0  0  0
 14 33  1  0  0  0  0
 15 16  2  0  0  0  0
 15 17  1  0  0  0  0
M  CHG  1  17  -1
M  END
> <s_m_source_file>
AV-unprocessed.smi

> <i_m_source_file_index>
2175

> <i_lp_mmshare_version>
43012

> <i_f3d_flags>
0

> <s_epik_input>
W0NIM11jMW5jKFtDSDNdKWMoYyg9TylbbkhdMSlbQ0gyXUMoPU8pW05IXVtDSDJdW0NIXTJbQ0gyXVtDSDJdMg==

> <s_epik_cmdline>
J2VwaWtfcHl0aG9uJywgJy1waCcsICc3LjAnLCAnLXRuJywgJzgnLCAnLW1hJywgJzIwMCcsICctbWV0YWxfYmluZGluZycsICctaW1hZScsICc8aW5maWxlLm1hZT4nLCAnLW9tYWUnLCAnPG91dGZpbGUubWFlPic=

> <r_lp_tautomer_probability>
0.839158

> <r_epik_Ionization_Penalty>
6.60351

> <r_epik_Ionization_Penalty_Charging>
6.70818e-08

> <r_epik_Ionization_Penalty_Neutral>
6.60351

> <r_epik_State_Penalty>
4.42903

> <r_epik_Charging_Adjusted_Penalty>
4.42903

> <i_epik_Tot_Q>
-1

> <i_epik_Tot_abs_Q>
1

> <r_epik_Metal_State_Penalty>
0.797668

> <b_epik_Metal_Only>
1

> <s_lp_Force_Field>
OPLS_2005

> <r_lp_Energy>
17.43

> <b_lp_Chiralities_Consistent>
1

> <s_lp_Variant>
AV-unprocessed.smi:2175-3

> <Gold.Version>
5.8.1

> <Gold.Id.Protein>
6NUR|6NUR_protein|mol2

> <Gold.PLP.Fitness>
39.0646

> <Gold.PLP.PLP>
-33.5913

> <Gold.PLP.part.hbond>
-2.0000

> <Gold.PLP.part.metal>
0.0000

> <Gold.PLP.part.buried>
-5.5222

> <Gold.PLP.part.nonpolar>
-26.2162

> <Gold.PLP.part.repulsive>
0.0413

> <Gold.PLP.ligand.clash>
0.0000

> <Gold.PLP.ligand.torsion>
0.5094

> <Gold.PLP.Chemscore.Hbond>
1.9833

> <Gold.PLP.Chemscore.CHOScore>
0.0000

> <Gold.PLP.Chemscore.Metal>
0.0000

> <Gold.Chemscore.Hbonds>
donor molecule, donor type, donor heavy atom, donor atom, acceptor molecule, acceptor atom, score
      L1  H    10    26       P1  8028  0.99
      P1  H  7997  8008       L1    16  0.86

> <Gold.PLP.Chemscore.Internal.Correction>
0.5423

> <Gold.Rescore>
     Score         DG    S(hbond)    S(metal)    S(lipo)     H(rot)  DE(clash)    DE(int)     intcor
     13.91     -15.79       1.84        0.00      72.94       1.70       0.04       1.84       ----

> <Gold.Chemscore.Fitness>
13.9061

> <Gold.Chemscore.DG>
-15.7885

> <Gold.Chemscore.ZeroCoef>
-5.4800

> <Gold.Chemscore.Hbond>
1.8352

> <Gold.Chemscore.Metal>
0.0000

> <Gold.Chemscore.Lipo>
72.9352

> <Gold.Chemscore.Internal_Hbond>
0.0000

> <Gold.Chemscore.DEClash>
0.0392

> <Gold.Chemscore.DEInternal>
1.8432

> <Gold.Chemscore.Rot>
1.7009

> <Gold.Chemscore.Internal.Correction>
   9.000000E+99

> <Gold.Chemscore.Hbonds>
donor molecule, donor type, donor heavy atom, donor atom, acceptor molecule, acceptor atom, score
      L1  H    10    26       P1  8028  0.77
      P1  H  7997  8008       L1    16  0.69

> <Gold.Chemscore.Hbond.Weighted>
-6.1294

> <Gold.Chemscore.Metal.Weighted>
-0.0000

> <Gold.Chemscore.Lipo.Weighted>
-8.5334

> <Gold.Chemscore.Internal_Hbond.Weighted>
0.0000

> <Gold.Chemscore.DEClash.Weighted>
0.0392

> <Gold.Chemscore.DEInternal.Weighted>
1.8432

> <Gold.Chemscore.Rot.Weighted>
4.3543

> <Gold.Chemscore.Internal.Correction.Weighted>
   9.000000E+99

> <Gold.Protein.RotatedTorsions>
[ 6907 6896 6895 6894 ] final  136.62 input  -60.11 | X-H torsion
[ 7974 7965 7964 7962 ] final -112.57 input  175.53 | X-H torsion
[ 8008 7997 7996 7995 ] final  -68.10 input   59.86 | X-H torsion
[ 10167 10162 10161 10158 ] final  169.01 input  -65.29 | X-H torsion
[ 10718 10713 10712 10709 ] final   60.63 input   66.30 | X-H torsion
[ 10763 10752 10751 10750 ] final  -13.20 input  -60.55 | X-H torsion
[ 11005 11000 10999 10996 ] final  164.21 input  -57.11 | X-H torsion

> <Gold.Protein.ActiveResidues>
 VAL166  LYS551  ARG553  GLY616  TRP617  ASP618  TYR619  PRO620  LYS621  CYS622 
 ASP623  PHE694  ASN695  SER759  ASP760  ASP761  ALA762  ILE779  LEU786  VAL792 
 PHE793  MET794  SER795  GLU796  ALA797  LYS798  CYS799  TRP800  GLU811  SER814 

> <Gold.Protein.RotatedAtoms>
  152.2874  133.5528  159.5535 H   0  0  0  0  0  0  0  0  0  0  0  0  # atno 6907 bound_to 6896
  150.7221  134.0478  159.3797 H   0  0  0  0  0  0  0  0  0  0  0  0  # atno 6908 bound_to 6896
  151.8386  135.0598  160.0496 H   0  0  0  0  0  0  0  0  0  0  0  0  # atno 6909 bound_to 6896
  145.1424  140.8785  143.3694 H   0  0  0  0  0  0  0  0  0  0  0  0  # atno 7974 bound_to 7965
  154.4844  140.0879  156.7453 H   0  0  0  0  0  0  0  0  0  0  0  0  # atno 8008 bound_to 7997
  155.4387  140.3453  155.4269 H   0  0  0  0  0  0  0  0  0  0  0  0  # atno 8009 bound_to 7997
  156.1240  140.1482  156.9151 H   0  0  0  0  0  0  0  0  0  0  0  0  # atno 8010 bound_to 7997
  139.4981  144.3753  151.9681 H   0  0  0  0  0  0  0  0  0  0  0  0  # atno 10167 bound_to 10162
  157.5767  130.8949  149.9360 H   0  0  0  0  0  0  0  0  0  0  0  0  # atno 10718 bound_to 10713
  153.5097  135.7016  153.5787 H   0  0  0  0  0  0  0  0  0  0  0  0  # atno 10763 bound_to 10752
  153.3883  135.3902  155.1905 H   0  0  0  0  0  0  0  0  0  0  0  0  # atno 10764 bound_to 10752
  154.8704  135.3852  154.4576 H   0  0  0  0  0  0  0  0  0  0  0  0  # atno 10765 bound_to 10752
  140.2436  134.8032  157.3434 H   0  0  0  0  0  0  0  0  0  0  0  0  # atno 11005 bound_to 11000
  145.0518  139.3175  143.5924 LP  0  0  0  0  0  0  0  0  0  0  0  0  # atno 17320 bound_to 7965
  146.3504  139.9929  142.8684 LP  0  0  0  0  0  0  0  0  0  0  0  0  # atno 17321 bound_to 7965
  140.3189  144.3451  150.6014 LP  0  0  0  0  0  0  0  0  0  0  0  0  # atno 17342 bound_to 10162
  140.5739  143.2178  151.7551 LP  0  0  0  0  0  0  0  0  0  0  0  0  # atno 17343 bound_to 10162
  156.0812  130.3673  150.0577 LP  0  0  0  0  0  0  0  0  0  0  0  0  # atno 17370 bound_to 10713
  156.8722  130.9528  151.3608 LP  0  0  0  0  0  0  0  0  0  0  0  0  # atno 17371 bound_to 10713
  140.1628  134.4706  155.7883 LP  0  0  0  0  0  0  0  0  0  0  0  0  # atno 17394 bound_to 11000
  141.2208  133.6908  156.7574 LP  0  0  0  0  0  0  0  0  0  0  0  0  # atno 17395 bound_to 11000

$$$$
