AV-unprocessed.smi:2825|AV-procd|sdf|10888|dock9
  -GOLD-   2272015333D 1   1.00000     0.00000
 Structure written by MMmdl.
 48 49  0  0  0  0  0  0  0  0  1 V2000
  150.2555  129.6226  154.3369 C   0  0  0  0  0  0  0  0  0  0  0  0
  149.5907  130.9590  154.6825 C   0  0  0  0  0  0  0  0  0  0  0  0
  150.1091  131.5550  155.9992 C   0  0  0  0  0  0  0  0  0  0  0  0
  149.2259  133.1184  156.4419 S   0  0  0  0  0  0  0  0  0  0  0  0
  147.7834  132.8310  156.4545 O   0  0  0  0  0  0  0  0  0  0  0  0
  149.8654  133.7243  157.6205 O   0  0  0  0  0  0  0  0  0  0  0  0
  149.5263  134.1556  155.0820 N   0  0  0  0  0  0  0  0  0  0  0  0
  148.9644  133.7979  153.7735 C   0  0  0  0  0  0  0  0  0  0  0  0
  150.6411  135.1242  155.0994 C   0  0  0  0  0  0  0  0  0  0  0  0
  150.1975  136.5948  155.2616 C   0  0  2  0  0  0  0  0  0  0  0  0
  149.1335  136.8050  154.3540 O   0  0  0  0  0  0  0  0  0  0  0  0
  151.3123  137.6229  154.9644 C   0  0  0  0  0  0  0  0  0  0  0  0
  150.8839  138.9969  155.1660 N   0  0  0  0  0  0  0  0  0  0  0  0
  150.0801  139.7249  154.3662 C   0  0  0  0  0  0  0  0  0  0  0  0
  149.8044  140.9683  154.7481 N   0  0  0  0  0  0  0  0  0  0  0  0
  150.5226  141.0632  155.9275 C   0  0  0  0  0  0  0  0  0  0  0  0
  150.6559  142.1365  156.8352 C   0  0  0  0  0  0  0  0  0  0  0  0
  151.4569  142.0121  157.9928 C   0  0  0  0  0  0  0  0  0  0  0  0
  151.5693  143.1906  158.9438 C   0  0  0  0  0  0  0  0  0  0  0  0
  152.1435  140.7994  158.2536 C   0  0  0  0  0  0  0  0  0  0  0  0
  153.0100  140.6403  159.4904 C   0  0  0  0  0  0  0  0  0  0  0  0
  152.0229  139.7186  157.3558 C   0  0  0  0  0  0  0  0  0  0  0  0
  151.2157  139.8505  156.2125 C   0  0  0  0  0  0  0  0  0  0  0  0
  149.8889  129.2426  153.3831 H   0  0  0  0  0  0  0  0  0  0  0  0
  150.0430  128.8700  155.0951 H   0  0  0  0  0  0  0  0  0  0  0  0
  151.3380  129.7275  154.2597 H   0  0  0  0  0  0  0  0  0  0  0  0
  149.7660  131.6664  153.8712 H   0  0  0  0  0  0  0  0  0  0  0  0
  148.5114  130.8156  154.7399 H   0  0  0  0  0  0  0  0  0  0  0  0
  149.9979  130.8478  156.8177 H   0  0  0  0  0  0  0  0  0  0  0  0
  151.1720  131.7849  155.9221 H   0  0  0  0  0  0  0  0  0  0  0  0
  149.3513  132.8344  153.4433 H   0  0  0  0  0  0  0  0  0  0  0  0
  149.2000  134.5494  153.0195 H   0  0  0  0  0  0  0  0  0  0  0  0
  147.8795  133.7207  153.8440 H   0  0  0  0  0  0  0  0  0  0  0  0
  151.3506  134.8540  155.8826 H   0  0  0  0  0  0  0  0  0  0  0  0
  151.1922  135.0131  154.1647 H   0  0  0  0  0  0  0  0  0  0  0  0
  149.7920  136.7580  156.2585 H   0  0  0  0  0  0  0  0  0  0  0  0
  149.3990  136.4895  153.5036 H   0  0  0  0  0  0  0  0  0  0  0  0
  152.1757  137.4502  155.6040 H   0  0  0  0  0  0  0  0  0  0  0  0
  151.6624  137.5190  153.9364 H   0  0  0  0  0  0  0  0  0  0  0  0
  149.6665  139.3147  153.4563 H   0  0  0  0  0  0  0  0  0  0  0  0
  150.1352  143.0612  156.6338 H   0  0  0  0  0  0  0  0  0  0  0  0
  152.6088  143.5026  159.0453 H   0  0  0  0  0  0  0  0  0  0  0  0
  151.1897  142.9231  159.9301 H   0  0  0  0  0  0  0  0  0  0  0  0
  150.9972  144.0471  158.5863 H   0  0  0  0  0  0  0  0  0  0  0  0
  153.4453  139.6420  159.5455 H   0  0  0  0  0  0  0  0  0  0  0  0
  152.4192  140.7960  160.3934 H   0  0  0  0  0  0  0  0  0  0  0  0
  153.8270  141.3621  159.4804 H   0  0  0  0  0  0  0  0  0  0  0  0
  152.5461  138.7937  157.5422 H   0  0  0  0  0  0  0  0  0  0  0  0
  1  2  1  0  0  0  0
  1 24  1  0  0  0  0
  1 25  1  0  0  0  0
  1 26  1  0  0  0  0
  2  3  1  0  0  0  0
  2 27  1  0  0  0  0
  2 28  1  0  0  0  0
  3  4  1  0  0  0  0
  3 29  1  0  0  0  0
  3 30  1  0  0  0  0
  4  5  2  0  0  0  0
  4  6  2  0  0  0  0
  4  7  1  0  0  0  0
  7  8  1  0  0  0  0
  7  9  1  0  0  0  0
  8 31  1  0  0  0  0
  8 32  1  0  0  0  0
  8 33  1  0  0  0  0
  9 10  1  0  0  0  0
  9 34  1  0  0  0  0
  9 35  1  0  0  0  0
 10 11  1  0  0  0  0
 10 12  1  0  0  0  0
 10 36  1  0  0  0  0
 11 37  1  0  0  0  0
 12 13  1  0  0  0  0
 12 38  1  0  0  0  0
 12 39  1  0  0  0  0
 13 23  1  0  0  0  0
 13 14  1  0  0  0  0
 14 15  2  0  0  0  0
 14 40  1  0  0  0  0
 15 16  1  0  0  0  0
 16 23  2  0  0  0  0
 16 17  1  0  0  0  0
 17 18  2  0  0  0  0
 17 41  1  0  0  0  0
 18 19  1  0  0  0  0
 18 20  1  0  0  0  0
 19 42  1  0  0  0  0
 19 43  1  0  0  0  0
 19 44  1  0  0  0  0
 20 21  1  0  0  0  0
 20 22  2  0  0  0  0
 21 45  1  0  0  0  0
 21 46  1  0  0  0  0
 21 47  1  0  0  0  0
 22 23  1  0  0  0  0
 22 48  1  0  0  0  0
M  END
> <s_m_source_file>
AV-unprocessed.smi

> <i_m_source_file_index>
2825

> <i_lp_mmshare_version>
43012

> <i_f3d_flags>
0

> <s_epik_input>
W0NIM11bQ0gyXVtDSDJdUyg9TykoPU8pTihbQ0gzXSlbQ0gyXVtDQEhdKFtPSF0pW0NIMl1uKFtjSF1uMSljKGMxMilbY0hdYyhbQ0gzXSljKFtjSF0yKVtDSDNd

> <s_epik_cmdline>
J2VwaWtfcHl0aG9uJywgJy1waCcsICc3LjAnLCAnLXRuJywgJzgnLCAnLW1hJywgJzIwMCcsICctbWV0YWxfYmluZGluZycsICctaW1hZScsICc8aW5maWxlLm1hZT4nLCAnLW9tYWUnLCAnPG91dGZpbGUubWFlPic=

> <r_epik_Ionization_Penalty>
0.104931

> <r_epik_Ionization_Penalty_Charging>
0

> <r_epik_Ionization_Penalty_Neutral>
0.104931

> <r_epik_State_Penalty>
0.0948201

> <r_epik_Charging_Adjusted_Penalty>
0.0948201

> <i_epik_Tot_Q>
0

> <i_epik_Tot_abs_Q>
0

> <r_epik_Metal_State_Penalty>
0.00010282

> <b_epik_Metal_Only>
0

> <s_lp_Force_Field>
OPLS_2005

> <r_lp_Energy>
0.666552

> <b_lp_Chiralities_Consistent>
1

> <s_lp_Variant>
AV-unprocessed.smi:2825-1

> <Gold.Version>
5.8.1

> <Gold.Id.Protein>
6NUR|6NUR_protein|mol2

> <Gold.PLP.Fitness>
50.0247

> <Gold.PLP.PLP>
-41.7347

> <Gold.PLP.part.hbond>
-3.0000

> <Gold.PLP.part.metal>
0.0000

> <Gold.PLP.part.buried>
-2.3900

> <Gold.PLP.part.nonpolar>
-36.7630

> <Gold.PLP.part.repulsive>
0.1208

> <Gold.PLP.ligand.clash>
0.0000

> <Gold.PLP.ligand.torsion>
1.5944

> <Gold.PLP.Chemscore.Hbond>
2.0000

> <Gold.PLP.Chemscore.CHOScore>
1.0000

> <Gold.PLP.Chemscore.Metal>
0.0000

> <Gold.Chemscore.Hbonds>
donor molecule, donor type, donor heavy atom, donor atom, acceptor molecule, acceptor atom, score
      L1  H    11    37       P1  7948  0.98
      P1  H  6896  6908       L1     6  1.00
      L1  C    14    40       P1  7957  1.00

> <Gold.PLP.Chemscore.Internal.Correction>
2.4788

> <Gold.Rescore>
     Score         DG    S(hbond)    S(metal)    S(lipo)     H(rot)  DE(clash)    DE(int)     intcor
     14.98     -16.76       1.91        0.00      95.26       2.43       0.06       1.72       ----

> <Gold.Chemscore.Fitness>
14.9807

> <Gold.Chemscore.DG>
-16.7624

> <Gold.Chemscore.ZeroCoef>
-5.4800

> <Gold.Chemscore.Hbond>
1.9060

> <Gold.Chemscore.Metal>
0.0000

> <Gold.Chemscore.Lipo>
95.2588

> <Gold.Chemscore.Internal_Hbond>
0.0000

> <Gold.Chemscore.DEClash>
0.0589

> <Gold.Chemscore.DEInternal>
1.7228

> <Gold.Chemscore.Rot>
2.4332

> <Gold.Chemscore.Internal.Correction>
   9.000000E+99

> <Gold.Chemscore.Hbonds>
donor molecule, donor type, donor heavy atom, donor atom, acceptor molecule, acceptor atom, score
      L1  H    11    37       P1  7948  0.76
      P1  H  6896  6908       L1     6  0.98

> <Gold.Chemscore.Hbond.Weighted>
-6.3661

> <Gold.Chemscore.Metal.Weighted>
-0.0000

> <Gold.Chemscore.Lipo.Weighted>
-11.1453

> <Gold.Chemscore.Internal_Hbond.Weighted>
0.0000

> <Gold.Chemscore.DEClash.Weighted>
0.0589

> <Gold.Chemscore.DEInternal.Weighted>
1.7228

> <Gold.Chemscore.Rot.Weighted>
6.2289

> <Gold.Chemscore.Internal.Correction.Weighted>
   9.000000E+99

> <Gold.Protein.RotatedTorsions>
[ 6907 6896 6895 6894 ] final  114.31 input  -60.11 | X-H torsion
[ 7974 7965 7964 7962 ] final   -4.63 input  175.53 | X-H torsion
[ 8008 7997 7996 7995 ] final  -73.67 input   59.86 | X-H torsion
[ 10167 10162 10161 10158 ] final  113.48 input  -65.29 | X-H torsion
[ 10718 10713 10712 10709 ] final   -5.89 input   66.30 | X-H torsion
[ 10763 10752 10751 10750 ] final   -0.46 input  -60.55 | X-H torsion
[ 11005 11000 10999 10996 ] final  -79.21 input  -57.11 | X-H torsion

> <Gold.Protein.ActiveResidues>
 VAL166  LYS551  ARG553  GLY616  TRP617  ASP618  TYR619  PRO620  LYS621  CYS622 
 ASP623  PHE694  ASN695  SER759  ASP760  ASP761  ALA762  ILE779  LEU786  VAL792 
 PHE793  MET794  SER795  GLU796  ALA797  LYS798  CYS799  TRP800  GLU811  SER814 

> <Gold.Protein.RotatedAtoms>
  152.4810  133.8253  159.7074 H   0  0  0  0  0  0  0  0  0  0  0  0  # atno 6907 bound_to 6896
  150.8859  133.7299  159.2925 H   0  0  0  0  0  0  0  0  0  0  0  0  # atno 6908 bound_to 6896
  151.4788  135.1054  159.9824 H   0  0  0  0  0  0  0  0  0  0  0  0  # atno 6909 bound_to 6896
  146.2369  140.1900  142.8332 H   0  0  0  0  0  0  0  0  0  0  0  0  # atno 7974 bound_to 7965
  154.5266  140.0775  156.8270 H   0  0  0  0  0  0  0  0  0  0  0  0  # atno 8008 bound_to 7997
  155.3462  140.3410  155.4221 H   0  0  0  0  0  0  0  0  0  0  0  0  # atno 8009 bound_to 7997
  156.1738  140.1629  156.8386 H   0  0  0  0  0  0  0  0  0  0  0  0  # atno 8010 bound_to 7997
  139.6458  144.7126  151.2145 H   0  0  0  0  0  0  0  0  0  0  0  0  # atno 10167 bound_to 10162
  156.7400  130.5206  149.5826 H   0  0  0  0  0  0  0  0  0  0  0  0  # atno 10718 bound_to 10713
  153.3322  135.6976  153.6938 H   0  0  0  0  0  0  0  0  0  0  0  0  # atno 10763 bound_to 10752
  153.5736  135.3511  155.2848 H   0  0  0  0  0  0  0  0  0  0  0  0  # atno 10764 bound_to 10752
  154.8620  135.4278  154.2513 H   0  0  0  0  0  0  0  0  0  0  0  0  # atno 10765 bound_to 10752
  141.1667  133.7096  156.8088 H   0  0  0  0  0  0  0  0  0  0  0  0  # atno 11005 bound_to 11000
  144.9866  140.8508  143.5365 LP  0  0  0  0  0  0  0  0  0  0  0  0  # atno 17320 bound_to 7965
  145.1900  139.2306  143.5247 LP  0  0  0  0  0  0  0  0  0  0  0  0  # atno 17321 bound_to 7965
  140.7514  143.6233  150.8492 LP  0  0  0  0  0  0  0  0  0  0  0  0  # atno 17342 bound_to 10162
  139.9876  143.5882  152.2921 LP  0  0  0  0  0  0  0  0  0  0  0  0  # atno 17343 bound_to 10162
  156.1471  130.6284  151.0546 LP  0  0  0  0  0  0  0  0  0  0  0  0  # atno 17370 bound_to 10713
  157.6822  131.0835  150.7338 LP  0  0  0  0  0  0  0  0  0  0  0  0  # atno 17371 bound_to 10713
  140.2203  134.8762  157.3369 LP  0  0  0  0  0  0  0  0  0  0  0  0  # atno 17394 bound_to 11000
  140.1995  134.4272  155.7670 LP  0  0  0  0  0  0  0  0  0  0  0  0  # atno 17395 bound_to 11000

$$$$
