#       Name:                AV-unprocessed.smi:2151
#       Creating user name   scv26
#       Creation time:       Fri Mar 27 11:53:35 2020


#       File generated by GOLD software.
#

@<TRIPOS>MOLECULE
AV-unprocessed.smi:2151
    45    46     1
SMALL
NO_CHARGES


@<TRIPOS>ATOM
      1 ****        -2.7588  -1.6226  -0.0009 C.3            1 S1                 0.0000
      2 ****        -2.0459  -0.4500   0.6957 C.3            1 S1                 0.0000
      3 ****        -0.6002  -0.6507   0.6417 N.am           1 S1                 0.0000
      4 ****         0.1930  -0.3238  -0.3898 C.2            1 S1                 0.0000
      5 ****        -0.2297   0.1707  -1.4359 O.2            1 S1                 0.0000
      6 ****         1.6873  -0.6260  -0.2083 C.3            1 S1                 0.0000
      7 ****         2.5497   0.1184  -1.1411 N.am           1 S1                 0.0000
      8 ****         2.9342  -0.5426  -2.3242 C.2            1 S1                 0.0000
      9 ****         3.7236   0.0238  -3.2570 C.2            1 S1                 0.0000
     10 ****         4.0674  -0.6888  -4.5558 C.3            1 S1                 0.0000
     11 ****         4.2467   0.1836  -5.5477 F              1 S1                 0.0000
     12 ****         5.1941  -1.3837  -4.4063 F              1 S1                 0.0000
     13 ****         3.1012  -1.5360  -4.9127 F              1 S1                 0.0000
     14 ****         4.1483   1.3861  -3.0013 C.2            1 S1                 0.0000
     15 ****         3.7777   2.0377  -1.8817 C.2            1 S1                 0.0000
     16 ****         2.9308   1.4025  -0.8696 C.2            1 S1                 0.0000
     17 ****         2.5851   1.9878   0.1570 O.2            1 S1                 0.0000
     18 ****        -2.4783  -0.2970   2.1665 C.3            1 S1                 0.0000
     19 ****        -3.9613   0.0254   2.3701 C.3            1 S1                 0.0000
     20 ****        -3.9945   0.8148   3.6712 C.3            1 S1                 0.0000
     21 ****        -2.5220   1.0909   3.9800 C.3            1 S1                 0.0000
     22 ****        -1.8447   0.8256   2.7615 O.3            1 S1                 0.0000
     23 ****        -3.8397  -1.4817  -0.0089 H              1 S1                 0.0000
     24 ****        -2.5499  -2.5681   0.5005 H              1 S1                 0.0000
     25 ****        -2.4396  -1.7194  -1.0390 H              1 S1                 0.0000
     26 ****        -2.2956   0.4734   0.1694 H              1 S1                 0.0000
     27 ****        -0.1684  -1.0509   1.4621 H              1 S1                 0.0000
     28 ****         1.9761  -0.4146   0.8231 H              1 S1                 0.0000
     29 ****         1.8339  -1.7002  -0.3296 H              1 S1                 0.0000
     30 ****         2.5329  -1.5401  -2.4306 H              1 S1                 0.0000
     31 ****         4.7768   1.8927  -3.7188 H              1 S1                 0.0000
     32 ****         4.1137   3.0522  -1.7243 H              1 S1                 0.0000
     33 ****        -2.2133  -1.1901   2.7364 H              1 S1                 0.0000
     34 ****        -4.3300   0.6523   1.5570 H              1 S1                 0.0000
     35 ****        -4.5795  -0.8719   2.4066 H              1 S1                 0.0000
     36 ****        -4.5504   1.7435   3.5382 H              1 S1                 0.0000
     37 ****        -4.4655   0.2540   4.4790 H              1 S1                 0.0000
     38 ****        -2.3472   2.1123   4.3184 H              1 S1                 0.0000
     39 ****        -2.1563   0.4091   4.7491 H              1 S1                 0.0000
     40 ****        -1.2079   0.3469  -1.5462 LP             1 S1                 0.0000
     41 ****         0.4053   0.3960  -2.1748 LP             1 S1                 0.0000
     42 ****         2.0055   1.5231   0.8264 LP             1 S1                 0.0000
     43 ****         2.8839   2.9279   0.3213 LP             1 S1                 0.0000
     44 ****        -1.9089   1.6174   2.1541 LP             1 S1                 0.0000
     45 ****        -0.8826   0.6208   2.9416 LP             1 S1                 0.0000
@<TRIPOS>BOND
    1    1    2 1     
    2    1   23 1     
    3    1   24 1     
    4    1   25 1     
    5    2    3 1     
    6    2   18 1     
    7    2   26 1     
    8    3    4 am    
    9    3   27 1     
   10    4    5 2     
   11    4    6 1     
   12    6    7 1     
   13    6   28 1     
   14    6   29 1     
   15    7   16 am    
   16    7    8 1     
   17    8    9 2     
   18    8   30 1     
   19    9   10 1     
   20    9   14 1     
   21   10   11 1     
   22   10   12 1     
   23   10   13 1     
   24   14   15 2     
   25   14   31 1     
   26   15   16 1     
   27   15   32 1     
   28   16   17 2     
   29   18   22 1     
   30   18   19 1     
   31   18   33 1     
   32   19   20 1     
   33   19   34 1     
   34   19   35 1     
   35   20   21 1     
   36   20   36 1     
   37   20   37 1     
   38   21   22 1     
   39   21   38 1     
   40   21   39 1     
   41    5   40 1     
   42    5   41 1     
   43   17   42 1     
   44   17   43 1     
   45   22   44 1     
   46   22   45 1     
@<TRIPOS>SUBSTRUCTURE
      1 S1             1
@<TRIPOS>SET
LONE_PAIRS      STATIC     ATOMS    <user>   **** ""
6 40 41 42 43 44 45
DONOR_HYDROGENS      STATIC     ATOMS    <user>   **** ""
1 27
ATOM$BLUE        STATIC     ATOMS    COLORGROUP SYSTEM
6 40 41 42 43 44 45
ATOM$RED        STATIC     ATOMS    COLORGROUP SYSTEM
1 27
