AV-unprocessed.smi:2007|AV-procd|sdf|8135|dock2
  -GOLD-   2272010373D 1   1.00000     0.00000
 Structure written by MMmdl.
 37 38  0  0  0  0  0  0  0  0  2 V2000
  146.6523  139.9085  152.0937 C   0  0  0  0  0  0  0  0  0  0  0  0
  146.9538  138.9289  153.2358 C   0  0  2  0  0  0  0  0  0  0  0  0
  148.2388  139.3363  153.9946 C   0  0  0  0  0  0  0  0  0  0  0  0
  149.2938  138.2914  153.9652 N   0  3  0  0  0  0  0  0  0  0  0  0
  150.6631  138.8460  154.0780 C   0  0  0  0  0  0  0  0  0  0  0  0
  151.7061  137.7202  153.9685 C   0  0  0  0  0  0  0  0  0  0  0  0
  151.4571  136.7366  154.9653 O   0  0  0  0  0  0  0  0  0  0  0  0
  150.1755  136.1383  154.8144 C   0  0  0  0  0  0  0  0  0  0  0  0
  149.0873  137.2141  154.9634 C   0  0  0  0  0  0  0  0  0  0  0  0
  147.0589  137.5765  152.6854 N   0  0  0  0  0  0  0  0  0  0  0  0
  146.0342  136.7974  152.3071 C   0  0  0  0  0  0  0  0  0  0  0  0
  144.8538  137.1302  152.4163 O   0  0  0  0  0  0  0  0  0  0  0  0
  146.4680  135.6247  151.8137 N   0  0  0  0  0  0  0  0  0  0  0  0
  145.6927  134.5282  151.3529 C   0  0  0  0  0  0  0  0  0  0  0  0
  144.3577  134.4665  151.4235 N   0  0  0  0  0  0  0  0  0  0  0  0
  143.8599  133.2706  150.9001 C   0  0  0  0  0  0  0  0  0  0  0  0
  144.8372  132.4251  150.4370 C   0  0  0  0  0  0  0  0  0  0  0  0
  146.4310  133.1030  150.6371 S   0  0  0  0  0  0  0  0  0  0  0  0
  146.5254  140.9233  152.4716 H   0  0  0  0  0  0  0  0  0  0  0  0
  145.7333  139.6358  151.5733 H   0  0  0  0  0  0  0  0  0  0  0  0
  147.4586  139.9260  151.3594 H   0  0  0  0  0  0  0  0  0  0  0  0
  146.1028  138.9704  153.9169 H   0  0  0  0  0  0  0  0  0  0  0  0
  148.6267  140.2480  153.5373 H   0  0  0  0  0  0  0  0  0  0  0  0
  148.0103  139.5923  155.0304 H   0  0  0  0  0  0  0  0  0  0  0  0
  150.8334  139.5784  153.2879 H   0  0  0  0  0  0  0  0  0  0  0  0
  150.7703  139.3671  155.0306 H   0  0  0  0  0  0  0  0  0  0  0  0
  151.6842  137.2641  152.9774 H   0  0  0  0  0  0  0  0  0  0  0  0
  152.7092  138.1223  154.1120 H   0  0  0  0  0  0  0  0  0  0  0  0
  150.1025  135.6411  153.8456 H   0  0  0  0  0  0  0  0  0  0  0  0
  150.0512  135.3698  155.5773 H   0  0  0  0  0  0  0  0  0  0  0  0
  149.1126  137.6342  155.9701 H   0  0  0  0  0  0  0  0  0  0  0  0
  148.1068  136.7567  154.8334 H   0  0  0  0  0  0  0  0  0  0  0  0
  147.9936  137.2167  152.5570 H   0  0  0  0  0  0  0  0  0  0  0  0
  147.4684  135.4962  151.7682 H   0  0  0  0  0  0  0  0  0  0  0  0
  142.7930  133.1025  150.8977 H   0  0  0  0  0  0  0  0  0  0  0  0
  144.7166  131.4488  149.9912 H   0  0  0  0  0  0  0  0  0  0  0  0
  149.2391  137.8581  153.0541 H   0  0  0  0  0  0  0  0  0  0  0  0
  1  2  1  0  0  0  0
  1 19  1  0  0  0  0
  1 20  1  0  0  0  0
  1 21  1  0  0  0  0
  2  3  1  0  0  0  0
  2 10  1  0  0  0  0
  2 22  1  0  0  0  0
  3  4  1  0  0  0  0
  3 23  1  0  0  0  0
  3 24  1  0  0  0  0
  4  9  1  0  0  0  0
  4  5  1  0  0  0  0
  4 37  1  0  0  0  0
  5  6  1  0  0  0  0
  5 25  1  0  0  0  0
  5 26  1  0  0  0  0
  6  7  1  0  0  0  0
  6 27  1  0  0  0  0
  6 28  1  0  0  0  0
  7  8  1  0  0  0  0
  8  9  1  0  0  0  0
  8 29  1  0  0  0  0
  8 30  1  0  0  0  0
  9 31  1  0  0  0  0
  9 32  1  0  0  0  0
 10 11  1  0  0  0  0
 10 33  1  0  0  0  0
 11 12  2  0  0  0  0
 11 13  1  0  0  0  0
 13 14  1  0  0  0  0
 13 34  1  0  0  0  0
 14 18  1  0  0  0  0
 14 15  2  0  0  0  0
 15 16  1  0  0  0  0
 16 17  2  0  0  0  0
 16 35  1  0  0  0  0
 17 18  1  0  0  0  0
 17 36  1  0  0  0  0
M  CHG  1   4   1
M  END
> <s_m_source_file>
AV-unprocessed.smi

> <i_m_source_file_index>
2007

> <i_lp_mmshare_version>
43012

> <i_f3d_flags>
0

> <s_epik_input>
W0NIMl0xW0NIMl1PW0NIMl1bQ0gyXU4xW0NIMl1bQ0BASF0oW0NIM10pW05IXUMoPU8pW05IXWMybltjSF1bY0hdczI=

> <s_epik_cmdline>
J2VwaWtfcHl0aG9uJywgJy1waCcsICc3LjAnLCAnLXRuJywgJzgnLCAnLW1hJywgJzIwMCcsICctbWV0YWxfYmluZGluZycsICctaW1hZScsICc8aW5maWxlLm1hZT4nLCAnLW9tYWUnLCAnPG91dGZpbGUubWFlPic=

> <r_lp_tautomer_probability>
0.999

> <r_epik_Ionization_Penalty>
0.695848

> <r_epik_Ionization_Penalty_Charging>
0.695697

> <r_epik_Ionization_Penalty_Neutral>
0.000150585

> <r_epik_State_Penalty>
0.717972

> <r_epik_Charging_Adjusted_Penalty>
1.41367

> <i_epik_Tot_Q>
1

> <i_epik_Tot_abs_Q>
1

> <r_epik_Metal_State_Penalty>
0.763271

> <b_epik_Metal_Only>
0

> <s_lp_Force_Field>
OPLS_2005

> <r_lp_Energy>
20.6348

> <b_lp_Chiralities_Consistent>
1

> <s_lp_Variant>
AV-unprocessed.smi:2007-3

> <Gold.Version>
5.8.1

> <Gold.Id.Protein>
6NUR|6NUR_protein|mol2

> <Gold.PLP.Fitness>
42.6632

> <Gold.PLP.PLP>
-27.6402

> <Gold.PLP.part.hbond>
-3.7795

> <Gold.PLP.part.metal>
0.0000

> <Gold.PLP.part.buried>
0.2504

> <Gold.PLP.part.nonpolar>
-25.0807

> <Gold.PLP.part.repulsive>
0.8940

> <Gold.PLP.ligand.clash>
0.0000

> <Gold.PLP.ligand.torsion>
1.2642

> <Gold.PLP.Chemscore.Hbond>
4.8240

> <Gold.PLP.Chemscore.CHOScore>
1.0000

> <Gold.PLP.Chemscore.Metal>
0.0000

> <Gold.Chemscore.Hbonds>
donor molecule, donor type, donor heavy atom, donor atom, acceptor molecule, acceptor atom, score
      L1  H     4    37       P1  7948  2.00
      L1  H    10    33       P1  7948  0.99
      L1  H    13    34       P1  7948  0.94
      P1  H 10752 10764       L1     7  0.90
      L1  C    16    35       P1 10186  0.80

> <Gold.PLP.Chemscore.Internal.Correction>
0.0794

> <Gold.Rescore>
     Score         DG    S(hbond)    S(metal)    S(lipo)     H(rot)  DE(clash)    DE(int)     intcor
     16.47     -20.16       3.18        0.00      70.30       1.63       1.05       2.63       ----

> <Gold.Chemscore.Fitness>
16.4747

> <Gold.Chemscore.DG>
-20.1555

> <Gold.Chemscore.ZeroCoef>
-5.4800

> <Gold.Chemscore.Hbond>
3.1810

> <Gold.Chemscore.Metal>
0.0000

> <Gold.Chemscore.Lipo>
70.3000

> <Gold.Chemscore.Internal_Hbond>
0.0000

> <Gold.Chemscore.DEClash>
1.0534

> <Gold.Chemscore.DEInternal>
2.6274

> <Gold.Chemscore.Rot>
1.6306

> <Gold.Chemscore.Internal.Correction>
   9.000000E+99

> <Gold.Chemscore.Hbonds>
donor molecule, donor type, donor heavy atom, donor atom, acceptor molecule, acceptor atom, score
      L1  H     4    37       P1  7948  0.91
      L1  H    10    33       P1  7948  0.87
      L1  H    13    34       P1  7948  0.89
      P1  H 10752 10764       L1     7  0.40

> <Gold.Chemscore.Hbond.Weighted>
-10.6247

> <Gold.Chemscore.Metal.Weighted>
-0.0000

> <Gold.Chemscore.Lipo.Weighted>
-8.2251

> <Gold.Chemscore.Internal_Hbond.Weighted>
0.0000

> <Gold.Chemscore.DEClash.Weighted>
1.0534

> <Gold.Chemscore.DEInternal.Weighted>
2.6274

> <Gold.Chemscore.Rot.Weighted>
4.1743

> <Gold.Chemscore.Internal.Correction.Weighted>
   9.000000E+99

> <Gold.Protein.RotatedTorsions>
[ 6907 6896 6895 6894 ] final -164.20 input  -60.11 | X-H torsion
[ 7974 7965 7964 7962 ] final -160.11 input  175.53 | X-H torsion
[ 8008 7997 7996 7995 ] final  -86.60 input   59.86 | X-H torsion
[ 10167 10162 10161 10158 ] final  -84.82 input  -65.29 | X-H torsion
[ 10718 10713 10712 10709 ] final    7.87 input   66.30 | X-H torsion
[ 10763 10752 10751 10750 ] final  -37.69 input  -60.55 | X-H torsion
[ 11005 11000 10999 10996 ] final  -64.47 input  -57.11 | X-H torsion

> <Gold.Protein.ActiveResidues>
 VAL166  LYS551  ARG553  GLY616  TRP617  ASP618  TYR619  PRO620  LYS621  CYS622 
 ASP623  PHE694  ASN695  SER759  ASP760  ASP761  ALA762  ILE779  LEU786  VAL792 
 PHE793  MET794  SER795  GLU796  ALA797  LYS798  CYS799  TRP800  GLU811  SER814 

> <Gold.Protein.RotatedAtoms>
  151.4081  133.3736  159.2740 H   0  0  0  0  0  0  0  0  0  0  0  0  # atno 6907 bound_to 6896
  150.9383  134.8795  159.7606 H   0  0  0  0  0  0  0  0  0  0  0  0  # atno 6908 bound_to 6896
  152.5060  134.4030  159.9475 H   0  0  0  0  0  0  0  0  0  0  0  0  # atno 6909 bound_to 6896
  144.7439  140.3589  143.6100 H   0  0  0  0  0  0  0  0  0  0  0  0  # atno 7974 bound_to 7965
  154.6537  140.0576  156.9984 H   0  0  0  0  0  0  0  0  0  0  0  0  # atno 8008 bound_to 7997
  155.1333  140.3258  155.4450 H   0  0  0  0  0  0  0  0  0  0  0  0  # atno 8009 bound_to 7997
  156.2587  140.1977  156.6451 H   0  0  0  0  0  0  0  0  0  0  0  0  # atno 8010 bound_to 7997
  140.4096  143.2628  151.9035 H   0  0  0  0  0  0  0  0  0  0  0  0  # atno 10167 bound_to 10162
  156.9433  130.5869  149.5653 H   0  0  0  0  0  0  0  0  0  0  0  0  # atno 10718 bound_to 10713
  153.9004  135.6803  153.4755 H   0  0  0  0  0  0  0  0  0  0  0  0  # atno 10763 bound_to 10752
  153.1132  135.4773  154.9069 H   0  0  0  0  0  0  0  0  0  0  0  0  # atno 10764 bound_to 10752
  154.7578  135.3202  154.8391 H   0  0  0  0  0  0  0  0  0  0  0  0  # atno 10765 bound_to 10752
  141.1426  133.6666  156.5839 H   0  0  0  0  0  0  0  0  0  0  0  0  # atno 11005 bound_to 11000
  145.7198  139.1707  143.2491 LP  0  0  0  0  0  0  0  0  0  0  0  0  # atno 17320 bound_to 7965
  146.1285  140.7216  142.9423 LP  0  0  0  0  0  0  0  0  0  0  0  0  # atno 17321 bound_to 7965
  139.4783  144.5550  151.8327 LP  0  0  0  0  0  0  0  0  0  0  0  0  # atno 17342 bound_to 10162
  140.4652  144.1666  150.5911 LP  0  0  0  0  0  0  0  0  0  0  0  0  # atno 17343 bound_to 10162
  156.0395  130.5479  150.8735 LP  0  0  0  0  0  0  0  0  0  0  0  0  # atno 17370 bound_to 10713
  157.5770  131.0946  150.9330 LP  0  0  0  0  0  0  0  0  0  0  0  0  # atno 17371 bound_to 10713
  140.3816  134.7518  157.4665 LP  0  0  0  0  0  0  0  0  0  0  0  0  # atno 17394 bound_to 11000
  140.0633  134.5965  155.8724 LP  0  0  0  0  0  0  0  0  0  0  0  0  # atno 17395 bound_to 11000

$$$$
