AV-unprocessed.smi:1234|AV-procd|sdf|5174|dock1
  -GOLD-   22720 4253D 1   1.00000     0.00000
 Structure written by MMmdl.
 32 33  0  0  0  0  0  0  0  0  2 V2000
  150.7293  136.9704  159.7478 O   0  0  0  0  0  0  0  0  0  0  0  0
  149.7354  137.1908  159.0518 C   0  0  0  0  0  0  0  0  0  0  0  0
  149.8188  138.0419  158.0204 N   0  0  0  0  0  0  0  0  0  0  0  0
  151.0174  138.7721  157.6276 C   0  0  0  0  0  0  0  0  0  0  0  0
  150.8018  140.2870  157.7939 C   0  0  0  0  0  0  0  0  0  0  0  0
  152.0808  141.0606  158.1567 C   0  0  0  0  0  0  0  0  0  0  0  0
  153.1525  140.4623  158.2646 O   0  0  0  0  0  0  0  0  0  0  0  0
  151.9852  142.3930  158.3475 N   0  0  0  0  0  0  0  0  0  0  0  0
  150.7303  143.1355  158.2459 C   0  0  0  0  0  0  0  0  0  0  0  0
  151.0283  144.5305  158.7951 C   0  0  0  0  0  0  0  0  0  0  0  0
  152.5243  144.7060  158.5741 C   0  0  0  0  0  0  0  0  0  0  0  0
  153.0903  143.2897  158.6858 C   0  0  0  0  0  0  0  0  0  0  0  0
  148.5069  136.6484  159.2131 N   0  5  0  0  0  0  0  0  0  0  0  0
  148.0741  136.3201  160.4416 C   0  0  0  0  0  0  0  0  0  0  0  0
  147.7893  137.2450  161.3728 N   0  0  0  0  0  0  0  0  0  0  0  0
  147.3540  136.6969  162.5717 N   0  0  0  0  0  0  0  0  0  0  0  0
  147.3138  135.3660  162.5110 C   0  0  0  0  0  0  0  0  0  0  0  0
  147.8000  134.6617  160.9833 S   0  0  0  0  0  0  0  0  0  0  0  0
  148.9845  138.1956  157.4734 H   0  0  0  0  0  0  0  0  0  0  0  0
  151.8577  138.4405  158.2404 H   0  0  0  0  0  0  0  0  0  0  0  0
  151.2547  138.5315  156.5899 H   0  0  0  0  0  0  0  0  0  0  0  0
  150.3940  140.6948  156.8681 H   0  0  0  0  0  0  0  0  0  0  0  0
  150.0595  140.4605  158.5739 H   0  0  0  0  0  0  0  0  0  0  0  0
  150.4356  143.1907  157.1967 H   0  0  0  0  0  0  0  0  0  0  0  0
  149.9223  142.6556  158.8004 H   0  0  0  0  0  0  0  0  0  0  0  0
  150.4347  145.3093  158.3154 H   0  0  0  0  0  0  0  0  0  0  0  0
  150.8124  144.5567  159.8641 H   0  0  0  0  0  0  0  0  0  0  0  0
  152.7006  145.0920  157.5691 H   0  0  0  0  0  0  0  0  0  0  0  0
  152.9778  145.3999  159.2822 H   0  0  0  0  0  0  0  0  0  0  0  0
  153.4130  143.0886  159.7082 H   0  0  0  0  0  0  0  0  0  0  0  0
  153.9480  143.1598  158.0246 H   0  0  0  0  0  0  0  0  0  0  0  0
  146.9931  134.7959  163.3700 H   0  0  0  0  0  0  0  0  0  0  0  0
  1  2  2  0  0  0  0
  2  3  1  0  0  0  0
  2 13  1  0  0  0  0
  3  4  1  0  0  0  0
  3 19  1  0  0  0  0
  4  5  1  0  0  0  0
  4 20  1  0  0  0  0
  4 21  1  0  0  0  0
  5  6  1  0  0  0  0
  5 22  1  0  0  0  0
  5 23  1  0  0  0  0
  6  7  2  0  0  0  0
  6  8  1  0  0  0  0
  8 12  1  0  0  0  0
  8  9  1  0  0  0  0
  9 10  1  0  0  0  0
  9 24  1  0  0  0  0
  9 25  1  0  0  0  0
 10 11  1  0  0  0  0
 10 26  1  0  0  0  0
 10 27  1  0  0  0  0
 11 12  1  0  0  0  0
 11 28  1  0  0  0  0
 11 29  1  0  0  0  0
 12 30  1  0  0  0  0
 12 31  1  0  0  0  0
 13 14  1  0  0  0  0
 14 18  1  0  0  0  0
 14 15  2  0  0  0  0
 15 16  1  0  0  0  0
 16 17  2  0  0  0  0
 17 18  1  0  0  0  0
 17 32  1  0  0  0  0
M  CHG  1  13  -1
M  END
> <s_m_source_file>
AV-unprocessed.smi

> <i_m_source_file_index>
1234

> <i_lp_mmshare_version>
43012

> <i_f3d_flags>
0

> <s_epik_input>
czFbY0hdbm5jMVtOSF1DKD1PKVtOSF1bQ0gyXVtDSDJdQyg9TylOMltDSDJdW0NIMl1bQ0gyXVtDSDJdMg==

> <s_epik_cmdline>
J2VwaWtfcHl0aG9uJywgJy1waCcsICc3LjAnLCAnLXRuJywgJzgnLCAnLW1hJywgJzIwMCcsICctbWV0YWxfYmluZGluZycsICctaW1hZScsICc8aW5maWxlLm1hZT4nLCAnLW9tYWUnLCAnPG91dGZpbGUubWFlPic=

> <r_lp_tautomer_probability>
1

> <r_epik_Ionization_Penalty>
3.2941

> <r_epik_Ionization_Penalty_Charging>
3.25456

> <r_epik_Ionization_Penalty_Neutral>
0.039538

> <r_epik_State_Penalty>
3.25212

> <r_epik_Charging_Adjusted_Penalty>
6.50668

> <i_epik_Tot_Q>
-1

> <i_epik_Tot_abs_Q>
1

> <r_epik_Metal_State_Penalty>
0.477003

> <b_epik_Metal_Only>
1

> <s_lp_Force_Field>
OPLS_2005

> <r_lp_Energy>
26.7799

> <b_lp_Chiralities_Consistent>
1

> <s_lp_Variant>
AV-unprocessed.smi:1234-2

> <Gold.Version>
5.8.1

> <Gold.Id.Protein>
6NUR|6NUR_protein|mol2

> <Gold.PLP.Fitness>
43.9961

> <Gold.PLP.PLP>
-35.3902

> <Gold.PLP.part.hbond>
-4.0000

> <Gold.PLP.part.metal>
0.0000

> <Gold.PLP.part.buried>
-4.1472

> <Gold.PLP.part.nonpolar>
-26.4019

> <Gold.PLP.part.repulsive>
0.1071

> <Gold.PLP.ligand.clash>
0.0000

> <Gold.PLP.ligand.torsion>
1.0575

> <Gold.PLP.Chemscore.Hbond>
3.5398

> <Gold.PLP.Chemscore.CHOScore>
0.0000

> <Gold.PLP.Chemscore.Metal>
0.0000

> <Gold.Chemscore.Hbonds>
donor molecule, donor type, donor heavy atom, donor atom, acceptor molecule, acceptor atom, score
      P1  H  6896  6908       L1     1  1.00
      P1  H  6931  6943       L1    15  0.99
      P1  H  6934  6947       L1    15  0.75
      P1  H  7997  8009       L1     7  0.80

> <Gold.PLP.Chemscore.Internal.Correction>
0.1015

> <Gold.Rescore>
     Score         DG    S(hbond)    S(metal)    S(lipo)     H(rot)  DE(clash)    DE(int)     intcor
     18.81     -20.24       3.28        0.00      70.95       1.76       0.42       1.01       ----

> <Gold.Chemscore.Fitness>
18.8147

> <Gold.Chemscore.DG>
-20.2426

> <Gold.Chemscore.ZeroCoef>
-5.4800

> <Gold.Chemscore.Hbond>
3.2832

> <Gold.Chemscore.Metal>
0.0000

> <Gold.Chemscore.Lipo>
70.9527

> <Gold.Chemscore.Internal_Hbond>
0.0000

> <Gold.Chemscore.DEClash>
0.4210

> <Gold.Chemscore.DEInternal>
1.0069

> <Gold.Chemscore.Rot>
1.7596

> <Gold.Chemscore.Internal.Correction>
   9.000000E+99

> <Gold.Chemscore.Hbonds>
donor molecule, donor type, donor heavy atom, donor atom, acceptor molecule, acceptor atom, score
      P1  H  6896  6908       L1     1  0.62
      P1  H  6931  6943       L1    15  0.27
      P1  H  6934  6947       L1    15  0.71
      P1  H  7997  8009       L1     7  0.79

> <Gold.Chemscore.Hbond.Weighted>
-10.9658

> <Gold.Chemscore.Metal.Weighted>
-0.0000

> <Gold.Chemscore.Lipo.Weighted>
-8.3015

> <Gold.Chemscore.Internal_Hbond.Weighted>
0.0000

> <Gold.Chemscore.DEClash.Weighted>
0.4210

> <Gold.Chemscore.DEInternal.Weighted>
1.0069

> <Gold.Chemscore.Rot.Weighted>
4.5046

> <Gold.Chemscore.Internal.Correction.Weighted>
   9.000000E+99

> <Gold.Protein.RotatedTorsions>
[ 6907 6896 6895 6894 ] final -158.00 input  -60.11 | X-H torsion
[ 7974 7965 7964 7962 ] final -176.98 input  175.53 | X-H torsion
[ 8008 7997 7996 7995 ] final  149.86 input   59.86 | X-H torsion
[ 10167 10162 10161 10158 ] final   85.24 input  -65.29 | X-H torsion
[ 10718 10713 10712 10709 ] final   76.75 input   66.30 | X-H torsion
[ 10763 10752 10751 10750 ] final  -44.37 input  -60.55 | X-H torsion
[ 11005 11000 10999 10996 ] final   53.58 input  -57.11 | X-H torsion

> <Gold.Protein.ActiveResidues>
 VAL166  LYS551  ARG553  GLY616  TRP617  ASP618  TYR619  PRO620  LYS621  CYS622 
 ASP623  PHE694  ASN695  SER759  ASP760  ASP761  ALA762  ILE779  LEU786  VAL792 
 PHE793  MET794  SER795  GLU796  ALA797  LYS798  CYS799  TRP800  GLU811  SER814 

> <Gold.Protein.RotatedAtoms>
  151.3115  133.4078  159.2647 H   0  0  0  0  0  0  0  0  0  0  0  0  # atno 6907 bound_to 6896
  151.0110  134.9397  159.8017 H   0  0  0  0  0  0  0  0  0  0  0  0  # atno 6908 bound_to 6896
  152.5301  134.3079  159.9155 H   0  0  0  0  0  0  0  0  0  0  0  0  # atno 6909 bound_to 6896
  144.7127  140.1088  143.6412 H   0  0  0  0  0  0  0  0  0  0  0  0  # atno 7974 bound_to 7965
  156.2738  140.2090  156.5925 H   0  0  0  0  0  0  0  0  0  0  0  0  # atno 8008 bound_to 7997
  154.6971  140.0524  157.0445 H   0  0  0  0  0  0  0  0  0  0  0  0  # atno 8009 bound_to 7997
  155.0786  140.3184  155.4611 H   0  0  0  0  0  0  0  0  0  0  0  0  # atno 8010 bound_to 7997
  139.8998  144.6336  150.8649 H   0  0  0  0  0  0  0  0  0  0  0  0  # atno 10167 bound_to 10162
  157.6685  130.9789  150.1542 H   0  0  0  0  0  0  0  0  0  0  0  0  # atno 10718 bound_to 10713
  154.0110  135.6681  153.4765 H   0  0  0  0  0  0  0  0  0  0  0  0  # atno 10763 bound_to 10752
  153.0621  135.5022  154.8113 H   0  0  0  0  0  0  0  0  0  0  0  0  # atno 10764 bound_to 10752
  154.6996  135.3076  154.9325 H   0  0  0  0  0  0  0  0  0  0  0  0  # atno 10765 bound_to 10752
  140.0755  134.5410  155.9001 H   0  0  0  0  0  0  0  0  0  0  0  0  # atno 11005 bound_to 11000
  145.9473  139.2709  143.1233 LP  0  0  0  0  0  0  0  0  0  0  0  0  # atno 17320 bound_to 7965
  145.9361  140.9014  143.0332 LP  0  0  0  0  0  0  0  0  0  0  0  0  # atno 17321 bound_to 7965
  140.7709  143.3445  151.2139 LP  0  0  0  0  0  0  0  0  0  0  0  0  # atno 17342 bound_to 10162
  139.7035  143.9493  152.2916 LP  0  0  0  0  0  0  0  0  0  0  0  0  # atno 17343 bound_to 10162
  156.2334  130.3684  149.8419 LP  0  0  0  0  0  0  0  0  0  0  0  0  # atno 17370 bound_to 10713
  156.6240  130.8638  151.3481 LP  0  0  0  0  0  0  0  0  0  0  0  0  # atno 17371 bound_to 10713
  141.2028  133.6627  156.6026 LP  0  0  0  0  0  0  0  0  0  0  0  0  # atno 17394 bound_to 11000
  140.3564  134.7725  157.4503 LP  0  0  0  0  0  0  0  0  0  0  0  0  # atno 17395 bound_to 11000

$$$$
