AV-unprocessed.smi:103|AV-procd|sdf|978|dock5
  -GOLD-   2262017533D 1   1.00000     0.00000
 Structure written by MMmdl.
 53 55  0  0  0  0  0  0  0  0  1 V2000
  149.0680  133.2170  153.8469 C   0  0  0  0  0  0  0  0  0  0  0  0
  149.0911  133.3907  155.3602 C   0  0  0  0  0  0  0  0  0  0  0  0
  150.0470  133.0070  156.0346 O   0  0  0  0  0  0  0  0  0  0  0  0
  147.9839  133.9938  155.8274 O   0  0  0  0  0  0  0  0  0  0  0  0
  147.8524  134.2921  157.2112 C   0  0  0  0  0  0  0  0  0  0  0  0
  149.0987  135.0293  157.7455 C   0  0  1  0  0  0  0  0  0  0  0  0
  149.5216  135.9610  156.7464 O   0  0  0  0  0  0  0  0  0  0  0  0
  149.4353  137.2705  157.2190 C   0  0  1  0  0  0  0  0  0  0  0  0
  148.9549  138.1739  156.1218 N   0  0  0  0  0  0  0  0  0  0  0  0
  149.5603  139.2979  155.5973 C   0  0  0  0  0  0  0  0  0  0  0  0
  151.1705  139.9391  156.0385 S   0  0  0  0  0  0  0  0  0  0  0  0
  150.8355  141.7434  156.1485 C   0  0  0  0  0  0  0  0  0  0  0  0
  151.4884  139.4177  157.3771 O   0  0  0  0  0  0  0  0  0  0  0  0
  152.0702  139.6846  154.9033 O   0  0  0  0  0  0  0  0  0  0  0  0
  148.9466  139.8892  154.6091 N   0  0  0  0  0  0  0  0  0  0  0  0
  147.7772  139.1536  154.4819 C   0  0  0  0  0  0  0  0  0  0  0  0
  146.6406  139.2512  153.6405 C   0  0  0  0  0  0  0  0  0  0  0  0
  146.5006  140.2043  152.7092 N   0  0  0  0  0  0  0  0  0  0  0  0
  145.6483  138.3425  153.7842 N   0  0  0  0  0  0  0  0  0  0  0  0
  145.7635  137.3830  154.7071 C   0  0  0  0  0  0  0  0  0  0  0  0
  146.7643  137.1651  155.5632 N   0  0  0  0  0  0  0  0  0  0  0  0
  147.7670  138.0810  155.4195 C   0  0  0  0  0  0  0  0  0  0  0  0
  148.4990  137.2492  158.4325 C   0  0  1  0  0  0  0  0  0  0  0  0
  147.1279  137.3303  158.0442 O   0  0  0  0  0  0  0  0  0  0  0  0
  146.1634  137.5338  158.9590 C   0  0  0  0  0  0  0  0  0  0  0  0
  144.7891  137.1207  158.4508 C   0  0  0  0  0  0  0  0  0  0  0  0
  146.3169  138.0111  160.0830 O   0  0  0  0  0  0  0  0  0  0  0  0
  148.8393  135.8811  158.9988 C   0  0  1  0  0  0  0  0  0  0  0  0
  147.8302  135.3609  159.8588 O   0  0  0  0  0  0  0  0  0  0  0  0
  147.6859  135.8464  161.1042 C   0  0  0  0  0  0  0  0  0  0  0  0
  146.9243  134.8929  162.0148 C   0  0  0  0  0  0  0  0  0  0  0  0
  148.0969  136.9335  161.5103 O   0  0  0  0  0  0  0  0  0  0  0  0
  148.0488  133.2793  153.4644 H   0  0  0  0  0  0  0  0  0  0  0  0
  149.4800  132.2459  153.5711 H   0  0  0  0  0  0  0  0  0  0  0  0
  149.6654  133.9936  153.3695 H   0  0  0  0  0  0  0  0  0  0  0  0
  146.9612  134.9030  157.3489 H   0  0  0  0  0  0  0  0  0  0  0  0
  147.6798  133.3710  157.7696 H   0  0  0  0  0  0  0  0  0  0  0  0
  149.8970  134.3155  157.9500 H   0  0  0  0  0  0  0  0  0  0  0  0
  150.4413  137.6116  157.4617 H   0  0  0  0  0  0  0  0  0  0  0  0
  151.7528  142.2667  156.4169 H   0  0  0  0  0  0  0  0  0  0  0  0
  150.0784  141.9251  156.9111 H   0  0  0  0  0  0  0  0  0  0  0  0
  150.4763  142.1081  155.1866 H   0  0  0  0  0  0  0  0  0  0  0  0
  147.2265  140.8952  152.5841 H   0  0  0  0  0  0  0  0  0  0  0  0
  145.6680  140.2337  152.1388 H   0  0  0  0  0  0  0  0  0  0  0  0
  144.9377  136.6895  154.7676 H   0  0  0  0  0  0  0  0  0  0  0  0
  148.7694  138.0402  159.1324 H   0  0  0  0  0  0  0  0  0  0  0  0
  144.7061  137.3049  157.3792 H   0  0  0  0  0  0  0  0  0  0  0  0
  144.0088  137.6877  158.9591 H   0  0  0  0  0  0  0  0  0  0  0  0
  144.6229  136.0592  158.6352 H   0  0  0  0  0  0  0  0  0  0  0  0
  149.7822  135.9581  159.5433 H   0  0  0  0  0  0  0  0  0  0  0  0
  146.0324  134.5183  161.5119 H   0  0  0  0  0  0  0  0  0  0  0  0
  146.6169  135.4010  162.9290 H   0  0  0  0  0  0  0  0  0  0  0  0
  147.5535  134.0449  162.2850 H   0  0  0  0  0  0  0  0  0  0  0  0
  1  2  1  0  0  0  0
  1 33  1  0  0  0  0
  1 34  1  0  0  0  0
  1 35  1  0  0  0  0
  2  3  2  0  0  0  0
  2  4  1  0  0  0  0
  4  5  1  0  0  0  0
  5  6  1  0  0  0  0
  5 36  1  0  0  0  0
  5 37  1  0  0  0  0
  6 28  1  0  0  0  0
  6  7  1  0  0  0  0
  6 38  1  0  0  0  0
  7  8  1  0  0  0  0
  8  9  1  0  0  0  0
  8 23  1  0  0  0  0
  8 39  1  0  0  0  0
  9 22  1  0  0  0  0
  9 10  1  0  0  0  0
 10 11  1  0  0  0  0
 10 15  2  0  0  0  0
 11 12  1  0  0  0  0
 11 13  2  0  0  0  0
 11 14  2  0  0  0  0
 12 40  1  0  0  0  0
 12 41  1  0  0  0  0
 12 42  1  0  0  0  0
 15 16  1  0  0  0  0
 16 22  2  0  0  0  0
 16 17  1  0  0  0  0
 17 18  1  0  0  0  0
 17 19  2  0  0  0  0
 18 43  1  0  0  0  0
 18 44  1  0  0  0  0
 19 20  1  0  0  0  0
 20 21  2  0  0  0  0
 20 45  1  0  0  0  0
 21 22  1  0  0  0  0
 23 24  1  0  0  0  0
 23 28  1  0  0  0  0
 23 46  1  0  0  0  0
 24 25  1  0  0  0  0
 25 26  1  0  0  0  0
 25 27  2  0  0  0  0
 26 47  1  0  0  0  0
 26 48  1  0  0  0  0
 26 49  1  0  0  0  0
 28 29  1  0  0  0  0
 28 50  1  0  0  0  0
 29 30  1  0  0  0  0
 30 31  1  0  0  0  0
 30 32  2  0  0  0  0
 31 51  1  0  0  0  0
 31 52  1  0  0  0  0
 31 53  1  0  0  0  0
M  END
> <s_m_source_file>
AV-unprocessed.smi

> <i_m_source_file_index>
103

> <i_lp_mmshare_version>
43012

> <i_f3d_flags>
0

> <s_epik_input>
W0NIM11DKD1PKU9bQ0gyXVtDQEBIXTFPW0NASF0oW0NAQEhdKE9DKD1PKVtDSDNdKVtDQEhdMU9DKD1PKVtDSDNdKW4oYyhuMilTKD1PKSg9TylbQ0gzXSljKGMyMyluW2NIXW5jM1tOSDJd

> <s_epik_cmdline>
J2VwaWtfcHl0aG9uJywgJy1waCcsICc3LjAnLCAnLXRuJywgJzgnLCAnLW1hJywgJzIwMCcsICctbWV0YWxfYmluZGluZycsICctaW1hZScsICc8aW5maWxlLm1hZT4nLCAnLW9tYWUnLCAnPG91dGZpbGUubWFlPic=

> <r_lp_tautomer_probability>
1

> <r_epik_Ionization_Penalty>
1.51338e-05

> <r_epik_Ionization_Penalty_Charging>
0

> <r_epik_Ionization_Penalty_Neutral>
1.51338e-05

> <r_epik_State_Penalty>
-0

> <r_epik_Charging_Adjusted_Penalty>
0

> <i_epik_Tot_Q>
0

> <i_epik_Tot_abs_Q>
0

> <r_epik_Metal_State_Penalty>
-0

> <b_epik_Metal_Only>
0

> <s_epik_Chemistry_Notes>
This compound has an ester and may undergo hydrolysis at high or low pH. This compound contains an acetal/aminal-like group ( X-CH(R)-Y where X, Y are N, S, or O) that may be acid/base labile, releasing an aldehyde.

> <s_lp_Force_Field>
OPLS_2005

> <r_lp_Energy>
15.224

> <b_lp_Chiralities_Consistent>
1

> <s_lp_Variant>
AV-unprocessed.smi:103-2

> <Gold.Version>
5.8.1

> <Gold.Id.Protein>
6NUR|6NUR_protein|mol2

> <Gold.PLP.Fitness>
38.5534

> <Gold.PLP.PLP>
-29.5621

> <Gold.PLP.part.hbond>
-4.6772

> <Gold.PLP.part.metal>
0.0000

> <Gold.PLP.part.buried>
-7.5277

> <Gold.PLP.part.nonpolar>
-19.8579

> <Gold.PLP.part.repulsive>
0.3581

> <Gold.PLP.ligand.clash>
0.0000

> <Gold.PLP.ligand.torsion>
2.1607

> <Gold.PLP.Chemscore.Hbond>
3.6000

> <Gold.PLP.Chemscore.CHOScore>
0.0000

> <Gold.PLP.Chemscore.Metal>
0.0000

> <Gold.Chemscore.Hbonds>
donor molecule, donor type, donor heavy atom, donor atom, acceptor molecule, acceptor atom, score
      L1  H    18    44       P1 10175  0.74
      P1  H  6931  6943       L1    32  1.00
      P1  H  6934  6947       L1    27  0.99
      P1  H  7989  7998       L1    14  0.86

> <Gold.PLP.Chemscore.Internal.Correction>
2.5128

> <Gold.Rescore>
     Score         DG    S(hbond)    S(metal)    S(lipo)     H(rot)  DE(clash)    DE(int)     intcor
      3.59     -11.28       3.78        0.00      34.74       4.25       0.17       7.52       ----

> <Gold.Chemscore.Fitness>
3.5931

> <Gold.Chemscore.DG>
-11.2845

> <Gold.Chemscore.ZeroCoef>
-5.4800

> <Gold.Chemscore.Hbond>
3.7751

> <Gold.Chemscore.Metal>
0.0000

> <Gold.Chemscore.Lipo>
34.7377

> <Gold.Chemscore.Internal_Hbond>
0.0000

> <Gold.Chemscore.DEClash>
0.1677

> <Gold.Chemscore.DEInternal>
7.5237

> <Gold.Chemscore.Rot>
4.2456

> <Gold.Chemscore.Internal.Correction>
   9.000000E+99

> <Gold.Chemscore.Hbonds>
donor molecule, donor type, donor heavy atom, donor atom, acceptor molecule, acceptor atom, score
      L1  H    18    44       P1 10175  0.35
      P1  H  6931  6943       L1    32  1.00
      P1  H  6934  6947       L1    27  0.90
      P1  H  7989  7998       L1    14  0.63

> <Gold.Chemscore.Hbond.Weighted>
-12.6088

> <Gold.Chemscore.Metal.Weighted>
-0.0000

> <Gold.Chemscore.Lipo.Weighted>
-4.0643

> <Gold.Chemscore.Internal_Hbond.Weighted>
0.0000

> <Gold.Chemscore.DEClash.Weighted>
0.1677

> <Gold.Chemscore.DEInternal.Weighted>
7.5237

> <Gold.Chemscore.Rot.Weighted>
10.8687

> <Gold.Chemscore.Internal.Correction.Weighted>
   9.000000E+99

> <Gold.Protein.RotatedTorsions>
[ 6907 6896 6895 6894 ] final   -5.61 input  -60.11 | X-H torsion
[ 7974 7965 7964 7962 ] final  177.37 input  175.53 | X-H torsion
[ 8008 7997 7996 7995 ] final   19.47 input   59.86 | X-H torsion
[ 10167 10162 10161 10158 ] final   15.73 input  -65.29 | X-H torsion
[ 10718 10713 10712 10709 ] final   -5.36 input   66.30 | X-H torsion
[ 10763 10752 10751 10750 ] final  -56.67 input  -60.55 | X-H torsion
[ 11005 11000 10999 10996 ] final -157.14 input  -57.11 | X-H torsion

> <Gold.Protein.ActiveResidues>
 VAL166  LYS551  ARG553  GLY616  TRP617  ASP618  TYR619  PRO620  LYS621  CYS622 
 ASP623  PHE694  ASN695  SER759  ASP760  ASP761  ALA762  ILE779  LEU786  VAL792 
 PHE793  MET794  SER795  GLU796  ALA797  LYS798  CYS799  TRP800  GLU811  SER814 

> <Gold.Protein.RotatedAtoms>
  151.4789  135.1051  159.9771 H   0  0  0  0  0  0  0  0  0  0  0  0  # atno 6907 bound_to 6896
  152.4787  133.8197  159.7057 H   0  0  0  0  0  0  0  0  0  0  0  0  # atno 6908 bound_to 6896
  150.8843  133.7268  159.2949 H   0  0  0  0  0  0  0  0  0  0  0  0  # atno 6909 bound_to 6896
  144.7170  140.0238  143.6440 H   0  0  0  0  0  0  0  0  0  0  0  0  # atno 7974 bound_to 7965
  154.9212  140.3027  155.5215 H   0  0  0  0  0  0  0  0  0  0  0  0  # atno 8008 bound_to 7997
  156.3009  140.2371  156.4198 H   0  0  0  0  0  0  0  0  0  0  0  0  # atno 8009 bound_to 7997
  154.8329  140.0417  157.1478 H   0  0  0  0  0  0  0  0  0  0  0  0  # atno 8010 bound_to 7997
  140.5847  143.8913  150.6820 H   0  0  0  0  0  0  0  0  0  0  0  0  # atno 10167 bound_to 10162
  156.7478  130.5230  149.5810 H   0  0  0  0  0  0  0  0  0  0  0  0  # atno 10718 bound_to 10713
  154.2103  135.6395  153.5113 H   0  0  0  0  0  0  0  0  0  0  0  0  # atno 10763 bound_to 10752
  152.9991  135.5472  154.6222 H   0  0  0  0  0  0  0  0  0  0  0  0  # atno 10764 bound_to 10752
  154.5657  135.2912  155.0849 H   0  0  0  0  0  0  0  0  0  0  0  0  # atno 10765 bound_to 10752
  140.6679  134.4279  157.5232 H   0  0  0  0  0  0  0  0  0  0  0  0  # atno 11005 bound_to 11000
  146.0159  139.3209  143.0842 LP  0  0  0  0  0  0  0  0  0  0  0  0  # atno 17320 bound_to 7965
  145.8626  140.9466  143.0692 LP  0  0  0  0  0  0  0  0  0  0  0  0  # atno 17321 bound_to 7965
  140.2421  143.3656  152.1478 LP  0  0  0  0  0  0  0  0  0  0  0  0  # atno 17342 bound_to 10162
  139.5190  144.7014  151.5482 LP  0  0  0  0  0  0  0  0  0  0  0  0  # atno 17343 bound_to 10162
  156.1422  130.6252  151.0482 LP  0  0  0  0  0  0  0  0  0  0  0  0  # atno 17370 bound_to 10713
  157.6790  131.0843  150.7418 LP  0  0  0  0  0  0  0  0  0  0  0  0  # atno 17371 bound_to 10713
  139.8991  134.8598  156.1974 LP  0  0  0  0  0  0  0  0  0  0  0  0  # atno 17394 bound_to 11000
  141.0415  133.6935  156.1606 LP  0  0  0  0  0  0  0  0  0  0  0  0  # atno 17395 bound_to 11000

$$$$
