AV-unprocessed.smi:2114|AV-procd|sdf|8621|dock9
  -GOLD-   2272011363D 1   1.00000     0.00000
 Structure written by MMmdl.
 47 48  0  0  0  0  0  0  0  0  1 V2000
  148.4710  135.9869  160.0719 C   0  0  0  0  0  0  0  0  0  0  0  0
  148.6461  137.3803  159.8864 O   0  0  0  0  0  0  0  0  0  0  0  0
  148.5594  137.7631  158.5231 C   0  0  0  0  0  0  0  0  0  0  0  0
  149.7412  137.1623  157.7450 C   0  0  2  0  0  0  0  0  0  0  0  0
  150.5614  138.2463  157.0325 C   0  0  0  0  0  0  0  0  0  0  0  0
  149.2481  136.2059  156.7565 N   0  0  0  0  0  0  0  0  0  0  0  0
  150.0081  135.4287  155.9671 C   0  0  0  0  0  0  0  0  0  0  0  0
  151.2383  135.4678  155.9455 O   0  0  0  0  0  0  0  0  0  0  0  0
  149.2538  134.5206  155.0403 C   0  0  0  0  0  0  0  0  0  0  0  0
  149.8696  133.4015  154.4362 C   0  0  0  0  0  0  0  0  0  0  0  0
  149.1200  132.6032  153.5512 C   0  0  0  0  0  0  0  0  0  0  0  0
  147.7781  132.9513  153.2938 C   0  0  0  0  0  0  0  0  0  0  0  0
  147.0309  132.1659  152.4050 N   0  0  0  0  0  0  0  0  0  0  0  0
  146.8675  130.7829  152.8312 C   0  0  0  0  0  0  0  0  0  0  0  0
  146.1905  129.9659  151.7158 C   0  0  1  0  0  0  0  0  0  0  0  0
  145.8966  128.5277  152.1556 C   0  0  0  0  0  0  0  0  0  0  0  0
  144.9522  130.5823  151.3597 O   0  0  0  0  0  0  0  0  0  0  0  0
  145.0574  131.9458  150.9398 C   0  0  2  0  0  0  0  0  0  0  0  0
  145.7015  132.0773  149.5481 C   0  0  0  0  0  0  0  0  0  0  0  0
  145.7663  132.7813  152.0240 C   0  0  0  0  0  0  0  0  0  0  0  0
  147.1825  134.0271  153.8610 N   0  0  0  0  0  0  0  0  0  0  0  0
  147.9086  134.7907  154.7056 C   0  0  0  0  0  0  0  0  0  0  0  0
  148.5479  135.7459  161.1321 H   0  0  0  0  0  0  0  0  0  0  0  0
  149.2376  135.4200  159.5420 H   0  0  0  0  0  0  0  0  0  0  0  0
  147.4902  135.6621  159.7228 H   0  0  0  0  0  0  0  0  0  0  0  0
  147.6125  137.4303  158.0940 H   0  0  0  0  0  0  0  0  0  0  0  0
  148.5839  138.8517  158.4535 H   0  0  0  0  0  0  0  0  0  0  0  0
  150.4038  136.6673  158.4572 H   0  0  0  0  0  0  0  0  0  0  0  0
  150.9547  138.9720  157.7450 H   0  0  0  0  0  0  0  0  0  0  0  0
  149.9576  138.7888  156.3042 H   0  0  0  0  0  0  0  0  0  0  0  0
  151.4105  137.8113  156.5044 H   0  0  0  0  0  0  0  0  0  0  0  0
  148.2456  136.1145  156.6794 H   0  0  0  0  0  0  0  0  0  0  0  0
  150.9021  133.1536  154.6356 H   0  0  0  0  0  0  0  0  0  0  0  0
  149.5700  131.7432  153.0768 H   0  0  0  0  0  0  0  0  0  0  0  0
  147.8417  130.3551  153.0721 H   0  0  0  0  0  0  0  0  0  0  0  0
  146.2647  130.7462  153.7400 H   0  0  0  0  0  0  0  0  0  0  0  0
  146.8436  129.9249  150.8438 H   0  0  0  0  0  0  0  0  0  0  0  0
  146.8142  128.0038  152.4246 H   0  0  0  0  0  0  0  0  0  0  0  0
  145.4170  127.9661  151.3536 H   0  0  0  0  0  0  0  0  0  0  0  0
  145.2325  128.5068  153.0202 H   0  0  0  0  0  0  0  0  0  0  0  0
  144.0359  132.3165  150.8507 H   0  0  0  0  0  0  0  0  0  0  0  0
  145.6600  133.1098  149.2002 H   0  0  0  0  0  0  0  0  0  0  0  0
  145.1766  131.4624  148.8170 H   0  0  0  0  0  0  0  0  0  0  0  0
  146.7496  131.7790  149.5468 H   0  0  0  0  0  0  0  0  0  0  0  0
  145.1248  132.8533  152.9038 H   0  0  0  0  0  0  0  0  0  0  0  0
  145.9348  133.7993  151.6696 H   0  0  0  0  0  0  0  0  0  0  0  0
  147.3917  135.6398  155.1288 H   0  0  0  0  0  0  0  0  0  0  0  0
  1  2  1  0  0  0  0
  1 23  1  0  0  0  0
  1 24  1  0  0  0  0
  1 25  1  0  0  0  0
  2  3  1  0  0  0  0
  3  4  1  0  0  0  0
  3 26  1  0  0  0  0
  3 27  1  0  0  0  0
  4  5  1  0  0  0  0
  4  6  1  0  0  0  0
  4 28  1  0  0  0  0
  5 29  1  0  0  0  0
  5 30  1  0  0  0  0
  5 31  1  0  0  0  0
  6  7  1  0  0  0  0
  6 32  1  0  0  0  0
  7  8  2  0  0  0  0
  7  9  1  0  0  0  0
  9 22  1  0  0  0  0
  9 10  2  0  0  0  0
 10 11  1  0  0  0  0
 10 33  1  0  0  0  0
 11 12  2  0  0  0  0
 11 34  1  0  0  0  0
 12 13  1  0  0  0  0
 12 21  1  0  0  0  0
 13 20  1  0  0  0  0
 13 14  1  0  0  0  0
 14 15  1  0  0  0  0
 14 35  1  0  0  0  0
 14 36  1  0  0  0  0
 15 16  1  0  0  0  0
 15 17  1  0  0  0  0
 15 37  1  0  0  0  0
 16 38  1  0  0  0  0
 16 39  1  0  0  0  0
 16 40  1  0  0  0  0
 17 18  1  0  0  0  0
 18 19  1  0  0  0  0
 18 20  1  0  0  0  0
 18 41  1  0  0  0  0
 19 42  1  0  0  0  0
 19 43  1  0  0  0  0
 19 44  1  0  0  0  0
 20 45  1  0  0  0  0
 20 46  1  0  0  0  0
 21 22  2  0  0  0  0
 22 47  1  0  0  0  0
M  END
> <s_m_source_file>
AV-unprocessed.smi

> <i_m_source_file_index>
2114

> <i_lp_mmshare_version>
43012

> <i_f3d_flags>
0

> <s_epik_input>
W0NIM11PW0NIMl1bQ0BIXShbQ0gzXSlbTkhdQyg9TyljMVtjSF1bY0hdYyhuW2NIXTEpTjJbQ0gyXVtDQEBIXShbQ0gzXSlPW0NAQEhdKFtDSDNdKVtDSDJdMg==

> <s_epik_cmdline>
J2VwaWtfcHl0aG9uJywgJy1waCcsICc3LjAnLCAnLXRuJywgJzgnLCAnLW1hJywgJzIwMCcsICctbWV0YWxfYmluZGluZycsICctaW1hZScsICc8aW5maWxlLm1hZT4nLCAnLW9tYWUnLCAnPG91dGZpbGUubWFlPic=

> <r_lp_tautomer_probability>
1

> <r_epik_Ionization_Penalty>
1.92915e-05

> <r_epik_Ionization_Penalty_Charging>
0

> <r_epik_Ionization_Penalty_Neutral>
1.92915e-05

> <r_epik_State_Penalty>
-0

> <r_epik_Charging_Adjusted_Penalty>
0

> <i_epik_Tot_Q>
0

> <i_epik_Tot_abs_Q>
0

> <r_epik_Metal_State_Penalty>
-0

> <b_epik_Metal_Only>
0

> <s_lp_Force_Field>
OPLS_2005

> <r_lp_Energy>
24.3529

> <b_lp_Chiralities_Consistent>
1

> <s_lp_Variant>
AV-unprocessed.smi:2114-5

> <Gold.Version>
5.8.1

> <Gold.Id.Protein>
6NUR|6NUR_protein|mol2

> <Gold.PLP.Fitness>
37.2082

> <Gold.PLP.PLP>
-35.3984

> <Gold.PLP.part.hbond>
-3.0000

> <Gold.PLP.part.metal>
0.0000

> <Gold.PLP.part.buried>
-5.8869

> <Gold.PLP.part.nonpolar>
-27.1046

> <Gold.PLP.part.repulsive>
0.4340

> <Gold.PLP.ligand.clash>
0.0000

> <Gold.PLP.ligand.torsion>
1.0695

> <Gold.PLP.Chemscore.Hbond>
1.2785

> <Gold.PLP.Chemscore.CHOScore>
0.0000

> <Gold.PLP.Chemscore.Metal>
0.0000

> <Gold.Chemscore.Hbonds>
donor molecule, donor type, donor heavy atom, donor atom, acceptor molecule, acceptor atom, score
      P1  H  6931  6943       L1     2  0.24
      P1  H  6934  6947       L1     2  0.02
      P1  H 10752 10763       L1     8  0.88

> <Gold.PLP.Chemscore.Internal.Correction>
0.1134

> <Gold.Rescore>
     Score         DG    S(hbond)    S(metal)    S(lipo)     H(rot)  DE(clash)    DE(int)     intcor
     14.43     -15.48       1.19        0.00      84.88       1.52       0.01       1.04       ----

> <Gold.Chemscore.Fitness>
14.4303

> <Gold.Chemscore.DG>
-15.4807

> <Gold.Chemscore.ZeroCoef>
-5.4800

> <Gold.Chemscore.Hbond>
1.1878

> <Gold.Chemscore.Metal>
0.0000

> <Gold.Chemscore.Lipo>
84.8823

> <Gold.Chemscore.Internal_Hbond>
0.0000

> <Gold.Chemscore.DEClash>
0.0081

> <Gold.Chemscore.DEInternal>
1.0422

> <Gold.Chemscore.Rot>
1.5226

> <Gold.Chemscore.Internal.Correction>
   9.000000E+99

> <Gold.Chemscore.Hbonds>
donor molecule, donor type, donor heavy atom, donor atom, acceptor molecule, acceptor atom, score
      P1  H  6931  6943       L1     2  0.16
      P1  H  6934  6947       L1     2  0.01
      P1  H 10752 10763       L1     8  0.85

> <Gold.Chemscore.Hbond.Weighted>
-3.9674

> <Gold.Chemscore.Metal.Weighted>
-0.0000

> <Gold.Chemscore.Lipo.Weighted>
-9.9312

> <Gold.Chemscore.Internal_Hbond.Weighted>
0.0000

> <Gold.Chemscore.DEClash.Weighted>
0.0081

> <Gold.Chemscore.DEInternal.Weighted>
1.0422

> <Gold.Chemscore.Rot.Weighted>
3.8980

> <Gold.Chemscore.Internal.Correction.Weighted>
   9.000000E+99

> <Gold.Protein.RotatedTorsions>
[ 6907 6896 6895 6894 ] final  -31.36 input  -60.11 | X-H torsion
[ 7974 7965 7964 7962 ] final   42.02 input  175.53 | X-H torsion
[ 8008 7997 7996 7995 ] final   -2.94 input   59.86 | X-H torsion
[ 10167 10162 10161 10158 ] final  -41.08 input  -65.29 | X-H torsion
[ 10718 10713 10712 10709 ] final   36.09 input   66.30 | X-H torsion
[ 10763 10752 10751 10750 ] final   85.56 input  -60.55 | X-H torsion
[ 11005 11000 10999 10996 ] final  -22.61 input  -57.11 | X-H torsion

> <Gold.Protein.ActiveResidues>
 VAL166  LYS551  ARG553  GLY616  TRP617  ASP618  TYR619  PRO620  LYS621  CYS622 
 ASP623  PHE694  ASN695  SER759  ASP760  ASP761  ALA762  ILE779  LEU786  VAL792 
 PHE793  MET794  SER795  GLU796  ALA797  LYS798  CYS799  TRP800  GLU811  SER814 

> <Gold.Protein.RotatedAtoms>
  151.0931  134.9928  159.8412 H   0  0  0  0  0  0  0  0  0  0  0  0  # atno 6907 bound_to 6896
  152.5431  134.2041  159.8734 H   0  0  0  0  0  0  0  0  0  0  0  0  # atno 6908 bound_to 6896
  151.2079  133.4529  159.2631 H   0  0  0  0  0  0  0  0  0  0  0  0  # atno 6909 bound_to 6896
  146.0775  139.5348  142.9558 H   0  0  0  0  0  0  0  0  0  0  0  0  # atno 7974 bound_to 7965
  154.6303  140.2522  155.7442 H   0  0  0  0  0  0  0  0  0  0  0  0  # atno 8008 bound_to 7997
  156.2475  140.2908  156.0571 H   0  0  0  0  0  0  0  0  0  0  0  0  # atno 8009 bound_to 7997
  155.1756  140.0387  157.2862 H   0  0  0  0  0  0  0  0  0  0  0  0  # atno 8010 bound_to 7997
  140.7014  143.3115  151.3016 H   0  0  0  0  0  0  0  0  0  0  0  0  # atno 10167 bound_to 10162
  157.3306  130.7496  149.6845 H   0  0  0  0  0  0  0  0  0  0  0  0  # atno 10718 bound_to 10713
  153.1486  135.4613  154.9603 H   0  0  0  0  0  0  0  0  0  0  0  0  # atno 10763 bound_to 10752
  154.7807  135.3187  154.7999 H   0  0  0  0  0  0  0  0  0  0  0  0  # atno 10764 bound_to 10752
  153.8508  135.6921  153.4847 H   0  0  0  0  0  0  0  0  0  0  0  0  # atno 10765 bound_to 10752
  140.8674  133.7745  156.0145 H   0  0  0  0  0  0  0  0  0  0  0  0  # atno 11005 bound_to 11000
  145.6279  141.0310  143.1879 LP  0  0  0  0  0  0  0  0  0  0  0  0  # atno 17320 bound_to 7965
  144.7271  139.7841  143.7361 LP  0  0  0  0  0  0  0  0  0  0  0  0  # atno 17321 bound_to 7965
  139.6539  144.0311  152.2646 LP  0  0  0  0  0  0  0  0  0  0  0  0  # atno 17342 bound_to 10162
  139.9856  144.6397  150.7860 LP  0  0  0  0  0  0  0  0  0  0  0  0  # atno 17343 bound_to 10162
  155.9695  130.4196  150.4384 LP  0  0  0  0  0  0  0  0  0  0  0  0  # atno 17370 bound_to 10713
  157.2415  131.0526  151.2434 LP  0  0  0  0  0  0  0  0  0  0  0  0  # atno 17371 bound_to 10713
  140.8613  134.2837  157.5233 LP  0  0  0  0  0  0  0  0  0  0  0  0  # atno 17394 bound_to 11000
  139.8710  134.9520  156.4101 LP  0  0  0  0  0  0  0  0  0  0  0  0  # atno 17395 bound_to 11000

$$$$
