#       Name:                AV-unprocessed.smi:1081
#       Creating user name   scv26
#       Creation time:       Fri Mar 27 03:23:37 2020


#       File generated by GOLD software.
#

@<TRIPOS>MOLECULE
AV-unprocessed.smi:1081
    58    60     1
SMALL
NO_CHARGES


@<TRIPOS>ATOM
      1 ****         1.4488   0.4901   0.6974 O.2            1 S1                 0.0000
      2 ****         0.9175  -0.6123   0.8263 C.2            1 S1                 0.0000
      3 ****         1.6119  -1.7543   0.9422 N.am           1 S1                 0.0000
      4 ****         3.0707  -1.8570   0.9251 C.3            1 S1                 0.0000
      5 ****         3.6753  -1.8610  -0.4929 C.2            1 S1                 0.0000
      6 ****         2.9181  -1.8497  -1.4656 O.2            1 S1                 0.0000
      7 ****         5.0236  -1.8857  -0.6314 N.am           1 S1                 0.0000
      8 ****         5.9950  -1.9955   0.4670 C.3            1 S1                 0.0000
      9 ****         6.6863  -3.3692   0.3875 C.3            1 S1                 0.0000
     10 ****         7.3442  -3.5774  -0.9892 C.3            1 S1                 0.0000
     11 ****         6.3603  -3.2835  -2.1365 C.3            1 S1                 0.0000
     12 ****         5.6845  -1.9139  -1.9437 C.3            1 S1                 0.0000
     13 ****        -0.4060  -0.8452   0.8576 N.am           1 S1                 0.0000
     14 ****        -1.4846   0.0762   0.7561 C.ar           1 S1                 0.0000
     15 ****        -1.3599   1.4824   0.8504 C.ar           1 S1                 0.0000
     16 ****        -2.5159   2.2786   0.7404 C.ar           1 S1                 0.0000
     17 ****        -3.7703   1.6559   0.5443 C.ar           1 S1                 0.0000
     18 ****        -4.9373   2.4406   0.4277 N.3            1 S1                 0.0000
     19 ****        -4.8988   3.4588  -0.6237 C.3            1 S1                 0.0000
     20 ****        -6.0070   4.5069  -0.4232 C.3            1 S1                 0.0000
     21 ****        -7.3844   3.8394  -0.2951 C.3            1 S1                 0.0000
     22 ****        -7.3575   2.7901   0.8260 C.3            1 S1                 0.0000
     23 ****        -6.2283   1.7701   0.6008 C.3            1 S1                 0.0000
     24 ****        -3.8890   0.3080   0.4690 N.ar           1 S1                 0.0000
     25 ****        -2.7784  -0.4510   0.5727 C.ar           1 S1                 0.0000
     26 ****         1.0971  -2.6176   1.0338 H              1 S1                 0.0000
     27 ****         3.4921  -1.0344   1.5054 H              1 S1                 0.0000
     28 ****         3.3475  -2.7828   1.4304 H              1 S1                 0.0000
     29 ****         6.7349  -1.1999   0.3683 H              1 S1                 0.0000
     30 ****         5.5612  -1.8662   1.4570 H              1 S1                 0.0000
     31 ****         7.4347  -3.4591   1.1752 H              1 S1                 0.0000
     32 ****         5.9527  -4.1565   0.5656 H              1 S1                 0.0000
     33 ****         8.2038  -2.9118  -1.0777 H              1 S1                 0.0000
     34 ****         7.7309  -4.5932  -1.0741 H              1 S1                 0.0000
     35 ****         6.8821  -3.3139  -3.0934 H              1 S1                 0.0000
     36 ****         5.5978  -4.0628  -2.1741 H              1 S1                 0.0000
     37 ****         4.9994  -1.7215  -2.7702 H              1 S1                 0.0000
     38 ****         6.4298  -1.1185  -1.9874 H              1 S1                 0.0000
     39 ****        -0.6784  -1.8149   0.9237 H              1 S1                 0.0000
     40 ****        -0.4138   1.9718   1.0160 H              1 S1                 0.0000
     41 ****        -2.4315   3.3519   0.8237 H              1 S1                 0.0000
     42 ****        -3.9354   3.9659  -0.6578 H              1 S1                 0.0000
     43 ****        -5.0247   2.9654  -1.5884 H              1 S1                 0.0000
     44 ****        -5.7985   5.0890   0.4755 H              1 S1                 0.0000
     45 ****        -6.0081   5.2112  -1.2556 H              1 S1                 0.0000
     46 ****        -8.1494   4.5893  -0.0917 H              1 S1                 0.0000
     47 ****        -7.6532   3.3634  -1.2390 H              1 S1                 0.0000
     48 ****        -7.2136   3.2866   1.7866 H              1 S1                 0.0000
     49 ****        -8.3179   2.2772   0.8835 H              1 S1                 0.0000
     50 ****        -6.4403   1.1679  -0.2838 H              1 S1                 0.0000
     51 ****        -6.1876   1.0901   1.4528 H              1 S1                 0.0000
     52 ****        -2.9308  -1.5184   0.5046 H              1 S1                 0.0000
     53 ****         2.4457   0.5651   0.6751 LP             1 S1                 0.0000
     54 ****         0.8836   1.3110   0.6151 LP             1 S1                 0.0000
     55 ****         1.9277  -1.8381  -1.3281 LP             1 S1                 0.0000
     56 ****         3.2943  -1.8521  -2.3921 LP             1 S1                 0.0000
     57 ****        -4.8914   2.9641   1.2785 LP             1 S1                 0.0000
     58 ****        -4.7848  -0.1169   0.3388 LP             1 S1                 0.0000
@<TRIPOS>BOND
    1    1    2 2     
    2    2    3 am    
    3    2   13 am    
    4    3    4 1     
    5    3   26 1     
    6    4    5 1     
    7    4   27 1     
    8    4   28 1     
    9    5    6 2     
   10    5    7 am    
   11    7   12 1     
   12    7    8 1     
   13    8    9 1     
   14    8   29 1     
   15    8   30 1     
   16    9   10 1     
   17    9   31 1     
   18    9   32 1     
   19   10   11 1     
   20   10   33 1     
   21   10   34 1     
   22   11   12 1     
   23   11   35 1     
   24   11   36 1     
   25   12   37 1     
   26   12   38 1     
   27   13   14 1     
   28   13   39 1     
   29   14   25 ar    
   30   14   15 ar    
   31   15   16 ar    
   32   15   40 1     
   33   16   17 ar    
   34   16   41 1     
   35   17   18 1     
   36   17   24 ar    
   37   18   23 1     
   38   18   19 1     
   39   19   20 1     
   40   19   42 1     
   41   19   43 1     
   42   20   21 1     
   43   20   44 1     
   44   20   45 1     
   45   21   22 1     
   46   21   46 1     
   47   21   47 1     
   48   22   23 1     
   49   22   48 1     
   50   22   49 1     
   51   23   50 1     
   52   23   51 1     
   53   24   25 ar    
   54   25   52 1     
   55    1   53 1     
   56    1   54 1     
   57    6   55 1     
   58    6   56 1     
   59   18   57 1     
   60   24   58 1     
@<TRIPOS>SUBSTRUCTURE
      1 S1             1
@<TRIPOS>SET
LONE_PAIRS      STATIC     ATOMS    <user>   **** ""
6 53 54 55 56 57 58
DONOR_HYDROGENS      STATIC     ATOMS    <user>   **** ""
2 26 39
ATOM$BLUE        STATIC     ATOMS    COLORGROUP SYSTEM
6 53 54 55 56 57 58
ATOM$RED        STATIC     ATOMS    COLORGROUP SYSTEM
2 26 39
