AV-unprocessed.smi:1978|AV-procd|sdf|8011|dock6
  -GOLD-   2272010203D 1   1.00000     0.00000
 Structure written by MMmdl.
 44 45  0  0  0  0  0  0  0  0  3 V2000
  153.1531  142.4459  161.3174 C   0  0  0  0  0  0  0  0  0  0  0  0
  152.9175  141.7269  160.0338 C   0  0  0  0  0  0  0  0  0  0  0  0
  152.0564  141.9391  158.9944 C   0  0  0  0  0  0  0  0  0  0  0  0
  152.3674  140.8816  158.0986 C   0  0  0  0  0  0  0  0  0  0  0  0
  151.6747  140.7507  156.8663 N   0  0  0  0  0  0  0  0  0  0  0  0
  151.9072  139.8931  155.8560 C   0  0  0  0  0  0  0  0  0  0  0  0
  152.8304  139.0735  155.9315 O   0  0  0  0  0  0  0  0  0  0  0  0
  151.0397  140.0696  154.8213 N   0  5  0  0  0  0  0  0  0  0  0  0
  150.2959  138.9973  154.1576 C   0  0  0  0  0  0  0  0  0  0  0  0
  148.9684  138.6899  154.9085 C   0  0  1  0  0  0  0  0  0  0  0  0
  148.3894  139.8836  155.7104 C   0  0  0  0  0  0  0  0  0  0  0  0
  147.9604  138.0740  153.9769 N   0  3  2  0  0  0  0  0  0  0  0  0
  147.3171  139.0486  153.0377 C   0  0  0  0  0  0  0  0  0  0  0  0
  146.5235  138.3365  151.9358 C   0  0  0  0  0  0  0  0  0  0  0  0
  145.4413  137.4531  152.5558 C   0  0  0  0  0  0  0  0  0  0  0  0
  146.0863  136.4702  153.5363 C   0  0  0  0  0  0  0  0  0  0  0  0
  146.9363  137.1783  154.6176 C   0  0  1  0  0  0  0  0  0  0  0  0
  147.5388  136.0900  155.5333 C   0  0  0  0  0  0  0  0  0  0  0  0
  153.3304  140.0931  158.5534 N   0  0  0  0  0  0  0  0  0  0  0  0
  153.6871  140.6304  159.7960 O   0  0  0  0  0  0  0  0  0  0  0  0
  152.6341  143.4045  161.3267 H   0  0  0  0  0  0  0  0  0  0  0  0
  154.2162  142.6364  161.4650 H   0  0  0  0  0  0  0  0  0  0  0  0
  152.7931  141.8569  162.1608 H   0  0  0  0  0  0  0  0  0  0  0  0
  151.3245  142.7260  158.8913 H   0  0  0  0  0  0  0  0  0  0  0  0
  150.9094  141.3935  156.7271 H   0  0  0  0  0  0  0  0  0  0  0  0
  150.0786  139.2139  153.1110 H   0  0  0  0  0  0  0  0  0  0  0  0
  150.8939  138.0854  154.1372 H   0  0  0  0  0  0  0  0  0  0  0  0
  149.2556  137.9518  155.6505 H   0  0  0  0  0  0  0  0  0  0  0  0
  149.0640  140.2021  156.5070 H   0  0  0  0  0  0  0  0  0  0  0  0
  147.4528  139.6070  156.1945 H   0  0  0  0  0  0  0  0  0  0  0  0
  148.1929  140.7581  155.0880 H   0  0  0  0  0  0  0  0  0  0  0  0
  146.6465  139.7089  153.5892 H   0  0  0  0  0  0  0  0  0  0  0  0
  148.0624  139.6876  152.5642 H   0  0  0  0  0  0  0  0  0  0  0  0
  146.0684  139.0702  151.2699 H   0  0  0  0  0  0  0  0  0  0  0  0
  147.1954  137.7335  151.3234 H   0  0  0  0  0  0  0  0  0  0  0  0
  144.7070  138.0702  153.0754 H   0  0  0  0  0  0  0  0  0  0  0  0
  144.9035  136.9113  151.7774 H   0  0  0  0  0  0  0  0  0  0  0  0
  145.3035  135.8739  154.0067 H   0  0  0  0  0  0  0  0  0  0  0  0
  146.7115  135.7693  152.9809 H   0  0  0  0  0  0  0  0  0  0  0  0
  146.2740  137.8007  155.2214 H   0  0  0  0  0  0  0  0  0  0  0  0
  146.7924  135.3376  155.7895 H   0  0  0  0  0  0  0  0  0  0  0  0
  147.8892  136.4897  156.4842 H   0  0  0  0  0  0  0  0  0  0  0  0
  148.3684  135.5745  155.0479 H   0  0  0  0  0  0  0  0  0  0  0  0
  148.5109  137.4573  153.3964 H   0  0  0  0  0  0  0  0  0  0  0  0
  1  2  1  0  0  0  0
  1 21  1  0  0  0  0
  1 22  1  0  0  0  0
  1 23  1  0  0  0  0
  2 20  1  0  0  0  0
  2  3  2  0  0  0  0
  3  4  1  0  0  0  0
  3 24  1  0  0  0  0
  4  5  1  0  0  0  0
  4 19  2  0  0  0  0
  5  6  1  0  0  0  0
  5 25  1  0  0  0  0
  6  7  2  0  0  0  0
  6  8  1  0  0  0  0
  8  9  1  0  0  0  0
  9 10  1  0  0  0  0
  9 26  1  0  0  0  0
  9 27  1  0  0  0  0
 10 11  1  0  0  0  0
 10 12  1  0  0  0  0
 10 28  1  0  0  0  0
 11 29  1  0  0  0  0
 11 30  1  0  0  0  0
 11 31  1  0  0  0  0
 12 17  1  0  0  0  0
 12 13  1  0  0  0  0
 12 44  1  0  0  0  0
 13 14  1  0  0  0  0
 13 32  1  0  0  0  0
 13 33  1  0  0  0  0
 14 15  1  0  0  0  0
 14 34  1  0  0  0  0
 14 35  1  0  0  0  0
 15 16  1  0  0  0  0
 15 36  1  0  0  0  0
 15 37  1  0  0  0  0
 16 17  1  0  0  0  0
 16 38  1  0  0  0  0
 16 39  1  0  0  0  0
 17 18  1  0  0  0  0
 17 40  1  0  0  0  0
 18 41  1  0  0  0  0
 18 42  1  0  0  0  0
 18 43  1  0  0  0  0
 19 20  1  0  0  0  0
M  CHG  1   8  -1
M  CHG  1  12   1
M  END
> <s_m_source_file>
AV-unprocessed.smi

> <i_m_source_file_index>
1978

> <i_lp_mmshare_version>
43012

> <i_f3d_flags>
0

> <s_epik_input>
W0NIM11jMVtjSF1jKG5vMSlbTkhdQyg9TylbTkhdW0NIMl1bQ0BIXShbQ0gzXSlOMltDSDJdW0NIMl1bQ0gyXVtDSDJdW0NASF0yW0NIM10=

> <s_epik_cmdline>
J2VwaWtfcHl0aG9uJywgJy1waCcsICc3LjAnLCAnLXRuJywgJzgnLCAnLW1hJywgJzIwMCcsICctbWV0YWxfYmluZGluZycsICctaW1hZScsICc8aW5maWxlLm1hZT4nLCAnLW9tYWUnLCAnPG91dGZpbGUubWFlPic=

> <r_epik_Ionization_Penalty>
6.7666

> <r_epik_Ionization_Penalty_Charging>
6.7666

> <r_epik_Ionization_Penalty_Neutral>
5.77131e-06

> <r_epik_State_Penalty>
6.79217

> <r_epik_Charging_Adjusted_Penalty>
13.5588

> <i_epik_Tot_Q>
0

> <i_epik_Tot_abs_Q>
2

> <r_epik_Metal_State_Penalty>
2.72569

> <b_epik_Metal_Only>
1

> <s_lp_Force_Field>
OPLS_2005

> <r_lp_Energy>
21.6667

> <b_lp_Chiralities_Consistent>
1

> <s_lp_Variant>
AV-unprocessed.smi:1978-20

> <Gold.Version>
5.8.1

> <Gold.Id.Protein>
6NUR|6NUR_protein|mol2

> <Gold.PLP.Fitness>
42.1046

> <Gold.PLP.PLP>
-32.4125

> <Gold.PLP.part.hbond>
-4.0000

> <Gold.PLP.part.metal>
0.0000

> <Gold.PLP.part.buried>
-3.2728

> <Gold.PLP.part.nonpolar>
-25.4041

> <Gold.PLP.part.repulsive>
0.1813

> <Gold.PLP.ligand.clash>
0.0000

> <Gold.PLP.ligand.torsion>
1.2655

> <Gold.PLP.Chemscore.Hbond>
4.0000

> <Gold.PLP.Chemscore.CHOScore>
0.0000

> <Gold.PLP.Chemscore.Metal>
0.0000

> <Gold.Chemscore.Hbonds>
donor molecule, donor type, donor heavy atom, donor atom, acceptor molecule, acceptor atom, score
      L1  H    12    44       P1  7948  2.00
      P1  H  7989  7998       L1     8  1.00
      P1  H  7997  8010       L1    19  1.00

> <Gold.PLP.Chemscore.Internal.Correction>
0.2231

> <Gold.Rescore>
     Score         DG    S(hbond)    S(metal)    S(lipo)     H(rot)  DE(clash)    DE(int)     intcor
     14.75     -17.28       2.27        0.00      69.41       1.52       0.09       2.44       ----

> <Gold.Chemscore.Fitness>
14.7461

> <Gold.Chemscore.DG>
-17.2792

> <Gold.Chemscore.ZeroCoef>
-5.4800

> <Gold.Chemscore.Hbond>
2.2657

> <Gold.Chemscore.Metal>
0.0000

> <Gold.Chemscore.Lipo>
69.4050

> <Gold.Chemscore.Internal_Hbond>
0.0000

> <Gold.Chemscore.DEClash>
0.0913

> <Gold.Chemscore.DEInternal>
2.4418

> <Gold.Chemscore.Rot>
1.5190

> <Gold.Chemscore.Internal.Correction>
   9.000000E+99

> <Gold.Chemscore.Hbonds>
donor molecule, donor type, donor heavy atom, donor atom, acceptor molecule, acceptor atom, score
      L1  H    12    44       P1  7948  0.95
      P1  H  7989  7998       L1     8  0.24
      P1  H  7997  8010       L1    19  0.45

> <Gold.Chemscore.Hbond.Weighted>
-7.5674

> <Gold.Chemscore.Metal.Weighted>
-0.0000

> <Gold.Chemscore.Lipo.Weighted>
-8.1204

> <Gold.Chemscore.Internal_Hbond.Weighted>
0.0000

> <Gold.Chemscore.DEClash.Weighted>
0.0913

> <Gold.Chemscore.DEInternal.Weighted>
2.4418

> <Gold.Chemscore.Rot.Weighted>
3.8886

> <Gold.Chemscore.Internal.Correction.Weighted>
   9.000000E+99

> <Gold.Protein.RotatedTorsions>
[ 6907 6896 6895 6894 ] final  -38.12 input  -60.11 | X-H torsion
[ 7974 7965 7964 7962 ] final -175.23 input  175.53 | X-H torsion
[ 8008 7997 7996 7995 ] final   28.06 input   59.86 | X-H torsion
[ 10167 10162 10161 10158 ] final  -14.05 input  -65.29 | X-H torsion
[ 10718 10713 10712 10709 ] final  159.40 input   66.30 | X-H torsion
[ 10763 10752 10751 10750 ] final   91.81 input  -60.55 | X-H torsion
[ 11005 11000 10999 10996 ] final  -65.76 input  -57.11 | X-H torsion

> <Gold.Protein.ActiveResidues>
 VAL166  LYS551  ARG553  GLY616  TRP617  ASP618  TYR619  PRO620  LYS621  CYS622 
 ASP623  PHE694  ASN695  SER759  ASP760  ASP761  ALA762  ILE779  LEU786  VAL792 
 PHE793  MET794  SER795  GLU796  ALA797  LYS798  CYS799  TRP800  GLU811  SER814 

> <Gold.Protein.RotatedAtoms>
  151.0063  134.9361  159.7981 H   0  0  0  0  0  0  0  0  0  0  0  0  # atno 6907 bound_to 6896
  152.5291  134.3088  159.9115 H   0  0  0  0  0  0  0  0  0  0  0  0  # atno 6908 bound_to 6896
  151.3093  133.4046  159.2680 H   0  0  0  0  0  0  0  0  0  0  0  0  # atno 6909 bound_to 6896
  144.7129  140.1353  143.6396 H   0  0  0  0  0  0  0  0  0  0  0  0  # atno 7974 bound_to 7965
  155.0528  140.3181  155.4686 H   0  0  0  0  0  0  0  0  0  0  0  0  # atno 8008 bound_to 7997
  156.2830  140.2143  156.5598 H   0  0  0  0  0  0  0  0  0  0  0  0  # atno 8009 bound_to 7997
  154.7196  140.0490  157.0615 H   0  0  0  0  0  0  0  0  0  0  0  0  # atno 8010 bound_to 7997
  140.7194  143.5362  150.9462 H   0  0  0  0  0  0  0  0  0  0  0  0  # atno 10167 bound_to 10162
  157.1648  131.0596  151.2214 H   0  0  0  0  0  0  0  0  0  0  0  0  # atno 10718 bound_to 10713
  153.2123  135.4384  155.0393 H   0  0  0  0  0  0  0  0  0  0  0  0  # atno 10763 bound_to 10752
  154.8206  135.3336  154.7051 H   0  0  0  0  0  0  0  0  0  0  0  0  # atno 10764 bound_to 10752
  153.7488  135.6999  153.5006 H   0  0  0  0  0  0  0  0  0  0  0  0  # atno 10765 bound_to 10752
  141.1463  133.6687  156.6035 H   0  0  0  0  0  0  0  0  0  0  0  0  # atno 11005 bound_to 11000
  145.9251  139.2570  143.1358 LP  0  0  0  0  0  0  0  0  0  0  0  0  # atno 17320 bound_to 7965
  145.9581  140.8857  143.0225 LP  0  0  0  0  0  0  0  0  0  0  0  0  # atno 17321 bound_to 7965
  139.9083  143.6751  152.3119 LP  0  0  0  0  0  0  0  0  0  0  0  0  # atno 17342 bound_to 10162
  139.7125  144.7617  151.1088 LP  0  0  0  0  0  0  0  0  0  0  0  0  # atno 17343 bound_to 10162
  157.4099  130.7379  149.6831 LP  0  0  0  0  0  0  0  0  0  0  0  0  # atno 17370 bound_to 10713
  155.9748  130.4098  150.3897 LP  0  0  0  0  0  0  0  0  0  0  0  0  # atno 17371 bound_to 10713
  140.3670  134.7638  157.4573 LP  0  0  0  0  0  0  0  0  0  0  0  0  # atno 17394 bound_to 11000
  140.0740  134.5823  155.8611 LP  0  0  0  0  0  0  0  0  0  0  0  0  # atno 17395 bound_to 11000

$$$$
