#       Name:                AV-unprocessed.smi:193
#       Creating user name   scv26
#       Creation time:       Thu Mar 26 19:35:42 2020


#       File generated by GOLD software.
#

@<TRIPOS>MOLECULE
AV-unprocessed.smi:193
    69    73     1
SMALL
NO_CHARGES


@<TRIPOS>ATOM
      1 ****        -2.6899  -1.6238  -3.2872 C.3            1 S1                 0.0000
      2 ****        -2.4220  -0.3248  -2.5110 C.3            1 S1                 0.0000
      3 ****        -1.5014  -0.6258  -1.3084 C.3            1 S1                 0.0000
      4 ****        -0.8198   0.5490  -0.7600 N.pl3          1 S1                 0.0000
      5 ****         0.4977   0.4200  -0.4479 C.ar           1 S1                 0.0000
      6 ****         1.3580   1.4213  -0.7748 N.ar           1 S1                 0.0000
      7 ****         2.6599   1.3163  -0.4950 C.ar           1 S1                 0.0000
      8 ****         3.3060   0.3144   0.1029 N.ar           1 S1                 0.0000
      9 ****         2.4511  -0.6902   0.4463 C.ar           1 S1                 0.0000
     10 ****         1.0467  -0.7205   0.2095 C.ar           1 S1                 0.0000
     11 ****         0.5140  -1.9049   0.7071 N.2            1 S1                 0.0000
     12 ****         1.5426  -2.5402   1.1969 C.2            1 S1                 0.0000
     13 ****         2.7448  -1.8779   1.0946 N.pl3          1 S1                 0.0000
     14 ****         4.0408  -2.3502   1.5603 C.3            1 S1                 0.0000
     15 ****         4.3117  -2.0806   3.0660 C.3            1 S1                 0.0000
     16 ****         3.3251  -2.7725   3.8092 O.3            1 S1                 0.0000
     17 ****         5.6835  -2.6283   3.5076 C.3            1 S1                 0.0000
     18 ****         6.8374  -1.7401   3.0082 C.3            1 S1                 0.0000
     19 ****         6.6510  -0.4007   3.4532 O.3            1 S1                 0.0000
     20 ****         5.4563   0.1915   2.9555 C.3            1 S1                 0.0000
     21 ****         4.2327  -0.5912   3.4642 C.3            1 S1                 0.0000
     22 ****        -1.3820   1.8915  -0.9070 C.3            1 S1                 0.0000
     23 ****        -2.8777   1.9540  -0.5655 C.3            1 S1                 0.0000
     24 ****        -3.6874   1.7207  -1.7577 N.3            1 S1                 0.0000
     25 ****        -5.0391   2.1921  -1.4951 C.3            1 S1                 0.0000
     26 ****        -5.3284   3.6557  -1.7412 C.3            1 S1                 0.0000
     27 ****        -5.8793   2.6108  -2.6831 C.3            1 S1                 0.0000
     28 ****        -7.3627   2.3138  -2.7205 C.3            1 S1                 0.0000
     29 ****        -3.7674   0.2947  -2.0713 C.3            1 S1                 0.0000
     30 ****        -3.2040  -2.3579  -2.6659 H              1 S1                 0.0000
     31 ****        -1.7603  -2.0747  -3.6358 H              1 S1                 0.0000
     32 ****        -3.3088  -1.4387  -4.1657 H              1 S1                 0.0000
     33 ****        -1.9147   0.3503  -3.2023 H              1 S1                 0.0000
     34 ****        -2.0630  -1.1170  -0.5131 H              1 S1                 0.0000
     35 ****        -0.7487  -1.3430  -1.6383 H              1 S1                 0.0000
     36 ****         3.2714   2.1549  -0.7941 H              1 S1                 0.0000
     37 ****         1.4507  -3.5137   1.6566 H              1 S1                 0.0000
     38 ****         4.0988  -3.4206   1.3572 H              1 S1                 0.0000
     39 ****         4.8089  -1.8899   0.9393 H              1 S1                 0.0000
     40 ****         2.4805  -2.4053   3.5983 H              1 S1                 0.0000
     41 ****         5.7298  -2.6652   4.5973 H              1 S1                 0.0000
     42 ****         5.8189  -3.6540   3.1622 H              1 S1                 0.0000
     43 ****         7.7851  -2.1079   3.4019 H              1 S1                 0.0000
     44 ****         6.9194  -1.7668   1.9211 H              1 S1                 0.0000
     45 ****         5.4072   1.2240   3.3017 H              1 S1                 0.0000
     46 ****         5.4838   0.2267   1.8664 H              1 S1                 0.0000
     47 ****         3.3111  -0.1308   3.1087 H              1 S1                 0.0000
     48 ****         4.2069  -0.5070   4.5517 H              1 S1                 0.0000
     49 ****        -0.8680   2.5581  -0.2131 H              1 S1                 0.0000
     50 ****        -1.1851   2.2798  -1.9072 H              1 S1                 0.0000
     51 ****        -3.1462   1.2852   0.2542 H              1 S1                 0.0000
     52 ****        -3.0821   2.9670  -0.2158 H              1 S1                 0.0000
     53 ****        -5.5900   1.7464  -0.6681 H              1 S1                 0.0000
     54 ****        -6.0240   4.1476  -1.0643 H              1 S1                 0.0000
     55 ****        -4.5161   4.2814  -2.1068 H              1 S1                 0.0000
     56 ****        -5.3999   2.5530  -3.6587 H              1 S1                 0.0000
     57 ****        -7.7981   2.3859  -1.7232 H              1 S1                 0.0000
     58 ****        -7.5324   1.3066  -3.1014 H              1 S1                 0.0000
     59 ****        -7.8703   3.0238  -3.3736 H              1 S1                 0.0000
     60 ****        -4.4775   0.1854  -2.8924 H              1 S1                 0.0000
     61 ****        -4.1877  -0.2598  -1.2305 H              1 S1                 0.0000
     62 ****         1.0131   2.2431  -1.2285 LP             1 S1                 0.0000
     63 ****         4.2907   0.3018   0.2768 LP             1 S1                 0.0000
     64 ****        -0.4407  -2.2020   0.6926 LP             1 S1                 0.0000
     65 ****         3.5041  -2.6678   4.7874 LP             1 S1                 0.0000
     66 ****         3.3407  -3.7432   3.5694 LP             1 S1                 0.0000
     67 ****         7.4294   0.1476   3.1474 LP             1 S1                 0.0000
     68 ****         6.6146  -0.3994   4.4525 LP             1 S1                 0.0000
     69 ****        -3.2664   2.2032  -2.5259 LP             1 S1                 0.0000
@<TRIPOS>BOND
    1    1    2 1     
    2    1   30 1     
    3    1   31 1     
    4    1   32 1     
    5    2   29 1     
    6    2    3 1     
    7    2   33 1     
    8    3    4 1     
    9    3   34 1     
   10    3   35 1     
   11    4    5 1     
   12    4   22 1     
   13    5   10 ar    
   14    5    6 ar    
   15    6    7 ar    
   16    7    8 ar    
   17    7   36 1     
   18    8    9 ar    
   19    9   13 1     
   20    9   10 ar    
   21   10   11 1     
   22   11   12 2     
   23   12   13 1     
   24   12   37 1     
   25   13   14 1     
   26   14   15 1     
   27   14   38 1     
   28   14   39 1     
   29   15   21 1     
   30   15   16 1     
   31   15   17 1     
   32   16   40 1     
   33   17   18 1     
   34   17   41 1     
   35   17   42 1     
   36   18   19 1     
   37   18   43 1     
   38   18   44 1     
   39   19   20 1     
   40   20   21 1     
   41   20   45 1     
   42   20   46 1     
   43   21   47 1     
   44   21   48 1     
   45   22   23 1     
   46   22   49 1     
   47   22   50 1     
   48   23   24 1     
   49   23   51 1     
   50   23   52 1     
   51   24   25 1     
   52   24   29 1     
   53   25   27 1     
   54   25   26 1     
   55   25   53 1     
   56   26   27 1     
   57   26   54 1     
   58   26   55 1     
   59   27   28 1     
   60   27   56 1     
   61   28   57 1     
   62   28   58 1     
   63   28   59 1     
   64   29   60 1     
   65   29   61 1     
   66    6   62 1     
   67    8   63 1     
   68   11   64 1     
   69   16   65 1     
   70   16   66 1     
   71   19   67 1     
   72   19   68 1     
   73   24   69 1     
@<TRIPOS>SUBSTRUCTURE
      1 S1             1
@<TRIPOS>SET
LONE_PAIRS      STATIC     ATOMS    <user>   **** ""
8 62 63 64 65 66 67 68 69
DONOR_HYDROGENS      STATIC     ATOMS    <user>   **** ""
1 40
ATOM$BLUE        STATIC     ATOMS    COLORGROUP SYSTEM
8 62 63 64 65 66 67 68 69
ATOM$RED        STATIC     ATOMS    COLORGROUP SYSTEM
1 40
