AV-unprocessed.smi:38|AV-procd|sdf|348|dock10
  -GOLD-   2262016183D 1   1.00000     0.00000
 Structure written by MMmdl.
 27 28  0  0  0  0  0  0  0  0  2 V2000
  153.1622  140.8203  158.7857 O   0  0  0  0  0  0  0  0  0  0  0  0
  152.3600  140.9733  157.8657 C   0  0  0  0  0  0  0  0  0  0  0  0
  152.3824  140.2131  156.7322 N   0  5  0  0  0  0  0  0  0  0  0  0
  151.4893  140.3819  155.7131 C   0  0  0  0  0  0  0  0  0  0  0  0
  151.5176  139.7175  154.6771 O   0  0  0  0  0  0  0  0  0  0  0  0
  150.4815  141.3754  155.8428 N   0  0  0  0  0  0  0  0  0  0  0  0
  149.4935  141.5850  154.7210 C   0  0  2  0  0  0  0  0  0  0  0  0
  148.2209  142.2560  155.2266 C   0  0  0  0  0  0  0  0  0  0  0  0
  147.1552  141.6661  154.3081 C   0  0  2  0  0  0  0  0  0  0  0  0
  146.0565  141.2064  155.0737 O   0  0  0  0  0  0  0  0  0  0  0  0
  147.8810  140.5547  153.5125 C   0  0  2  0  0  0  0  0  0  0  0  0
  147.1264  139.2204  153.3630 C   0  0  0  0  0  0  0  0  0  0  0  0
  147.8777  138.3218  152.5748 O   0  0  0  0  0  0  0  0  0  0  0  0
  149.0950  140.3513  154.2236 O   0  0  0  0  0  0  0  0  0  0  0  0
  150.4462  142.1756  156.9720 C   0  0  0  0  0  0  0  0  0  0  0  0
  151.3354  142.0107  157.9726 C   0  0  0  0  0  0  0  0  0  0  0  0
  151.2783  142.8034  159.0569 F   0  0  0  0  0  0  0  0  0  0  0  0
  150.0021  142.1383  153.9291 H   0  0  0  0  0  0  0  0  0  0  0  0
  146.7879  142.4263  153.6179 H   0  0  0  0  0  0  0  0  0  0  0  0
  148.1282  140.9544  152.5268 H   0  0  0  0  0  0  0  0  0  0  0  0
  148.0521  141.9726  156.2674 H   0  0  0  0  0  0  0  0  0  0  0  0
  148.3052  143.3415  155.1643 H   0  0  0  0  0  0  0  0  0  0  0  0
  145.5135  140.6625  154.5240 H   0  0  0  0  0  0  0  0  0  0  0  0
  146.9043  138.7795  154.3353 H   0  0  0  0  0  0  0  0  0  0  0  0
  146.1780  139.3743  152.8479 H   0  0  0  0  0  0  0  0  0  0  0  0
  148.5046  138.8169  152.0702 H   0  0  0  0  0  0  0  0  0  0  0  0
  149.7011  142.9525  157.0591 H   0  0  0  0  0  0  0  0  0  0  0  0
  1  2  2  0  0  0  0
  2 16  1  0  0  0  0
  2  3  1  0  0  0  0
  3  4  1  0  0  0  0
  4  5  2  0  0  0  0
  4  6  1  0  0  0  0
  6  7  1  0  0  0  0
  6 15  1  0  0  0  0
  7 18  1  0  0  0  0
  7 14  1  0  0  0  0
  7  8  1  0  0  0  0
  8  9  1  0  0  0  0
  8 21  1  0  0  0  0
  8 22  1  0  0  0  0
  9 19  1  0  0  0  0
  9 10  1  0  0  0  0
  9 11  1  0  0  0  0
 10 23  1  0  0  0  0
 11 20  1  0  0  0  0
 11 12  1  0  0  0  0
 11 14  1  0  0  0  0
 12 13  1  0  0  0  0
 12 24  1  0  0  0  0
 12 25  1  0  0  0  0
 13 26  1  0  0  0  0
 15 16  2  0  0  0  0
 15 27  1  0  0  0  0
 16 17  1  0  0  0  0
M  CHG  1   3  -1
M  END
> <s_m_source_file>
AV-unprocessed.smi

> <i_m_source_file_index>
38

> <i_lp_mmshare_version>
43012

> <i_f3d_flags>
0

> <s_epik_input>
Tz1jMVtuSF1jKD1PKW4oW2NIXWMxRilbQ0BIXTJbQ0gyXVtDQEhdKFtPSF0pW0NASF0oTzIpW0NIMl1bT0hd

> <s_epik_cmdline>
J2VwaWtfcHl0aG9uJywgJy1waCcsICc3LjAnLCAnLXRuJywgJzgnLCAnLW1hJywgJzIwMCcsICctbWV0YWxfYmluZGluZycsICctaW1hZScsICc8aW5maWxlLm1hZT4nLCAnLW9tYWUnLCAnPG91dGZpbGUubWFlPic=

> <r_epik_Ionization_Penalty>
1.68146

> <r_epik_Ionization_Penalty_Charging>
3.4211e-08

> <r_epik_Ionization_Penalty_Neutral>
1.68146

> <r_epik_State_Penalty>
1.78593

> <r_epik_Charging_Adjusted_Penalty>
1.78593

> <i_epik_Tot_Q>
-1

> <i_epik_Tot_abs_Q>
1

> <r_epik_Metal_State_Penalty>
0.0113696

> <b_epik_Metal_Only>
0

> <s_epik_Chemistry_Notes>
This compound contains an acetal/aminal-like group ( X-CH(R)-Y where X, Y are N, S, or O) that may be acid/base labile, releasing an aldehyde.

> <s_lp_Force_Field>
OPLS_2005

> <r_lp_Energy>
42.0277

> <b_lp_Chiralities_Consistent>
1

> <s_lp_Variant>
AV-unprocessed.smi:38-14

> <Gold.Version>
5.8.1

> <Gold.Id.Protein>
6NUR|6NUR_protein|mol2

> <Gold.PLP.Fitness>
40.7402

> <Gold.PLP.PLP>
-26.9348

> <Gold.PLP.part.hbond>
-3.8292

> <Gold.PLP.part.metal>
0.0000

> <Gold.PLP.part.buried>
2.3202

> <Gold.PLP.part.nonpolar>
-25.0143

> <Gold.PLP.part.repulsive>
0.1909

> <Gold.PLP.ligand.clash>
0.0000

> <Gold.PLP.ligand.torsion>
0.6081

> <Gold.PLP.Chemscore.Hbond>
4.0000

> <Gold.PLP.Chemscore.CHOScore>
1.0000

> <Gold.PLP.Chemscore.Metal>
0.0000

> <Gold.Chemscore.Hbonds>
donor molecule, donor type, donor heavy atom, donor atom, acceptor molecule, acceptor atom, score
      L1  H    13    26       P1  7957  1.00
      P1  H  7989  7998       L1     5  1.00
      P1  H  7997  8008       L1     3  1.80
      L1  C    15    27       P1  8028  1.00

> <Gold.PLP.Chemscore.Internal.Correction>
0.0216

> <Gold.Rescore>
     Score         DG    S(hbond)    S(metal)    S(lipo)     H(rot)  DE(clash)    DE(int)     intcor
      7.30     -11.16       2.56        0.00      38.44       2.88       1.66       2.19       ----

> <Gold.Chemscore.Fitness>
7.3015

> <Gold.Chemscore.DG>
-11.1581

> <Gold.Chemscore.ZeroCoef>
-5.4800

> <Gold.Chemscore.Hbond>
2.5619

> <Gold.Chemscore.Metal>
0.0000

> <Gold.Chemscore.Lipo>
38.4426

> <Gold.Chemscore.Internal_Hbond>
0.0000

> <Gold.Chemscore.DEClash>
1.6620

> <Gold.Chemscore.DEInternal>
2.1945

> <Gold.Chemscore.Rot>
2.8815

> <Gold.Chemscore.Internal.Correction>
   9.000000E+99

> <Gold.Chemscore.Hbonds>
donor molecule, donor type, donor heavy atom, donor atom, acceptor molecule, acceptor atom, score
      L1  H    13    26       P1  7957  0.93
      P1  H  7989  7998       L1     5  0.39
      P1  H  7997  8008       L1     3  0.17

> <Gold.Chemscore.Hbond.Weighted>
-8.5568

> <Gold.Chemscore.Metal.Weighted>
-0.0000

> <Gold.Chemscore.Lipo.Weighted>
-4.4978

> <Gold.Chemscore.Internal_Hbond.Weighted>
0.0000

> <Gold.Chemscore.DEClash.Weighted>
1.6620

> <Gold.Chemscore.DEInternal.Weighted>
2.1945

> <Gold.Chemscore.Rot.Weighted>
7.3765

> <Gold.Chemscore.Internal.Correction.Weighted>
   9.000000E+99

> <Gold.Protein.RotatedTorsions>
[ 6907 6896 6895 6894 ] final  -28.07 input  -60.11 | X-H torsion
[ 7974 7965 7964 7962 ] final   12.51 input  175.53 | X-H torsion
[ 8008 7997 7996 7995 ] final  -51.21 input   59.86 | X-H torsion
[ 10167 10162 10161 10158 ] final   73.08 input  -65.29 | X-H torsion
[ 10718 10713 10712 10709 ] final  114.01 input   66.30 | X-H torsion
[ 10763 10752 10751 10750 ] final  117.39 input  -60.55 | X-H torsion
[ 11005 11000 10999 10996 ] final   18.39 input  -57.11 | X-H torsion

> <Gold.Protein.ActiveResidues>
 VAL166  LYS551  ARG553  GLY616  TRP617  ASP618  TYR619  PRO620  LYS621  CYS622 
 ASP623  PHE694  ASN695  SER759  ASP760  ASP761  ALA762  ILE779  LEU786  VAL792 
 PHE793  MET794  SER795  GLU796  ALA797  LYS798  CYS799  TRP800  GLU811  SER814 

> <Gold.Protein.RotatedAtoms>
  151.1381  135.0165  159.8613 H   0  0  0  0  0  0  0  0  0  0  0  0  # atno 6907 bound_to 6896
  152.5452  134.1531  159.8537 H   0  0  0  0  0  0  0  0  0  0  0  0  # atno 6908 bound_to 6896
  151.1604  133.4803  159.2627 H   0  0  0  0  0  0  0  0  0  0  0  0  # atno 6909 bound_to 6896
  146.2349  139.9326  142.8494 H   0  0  0  0  0  0  0  0  0  0  0  0  # atno 7974 bound_to 7965
  154.4078  140.1253  156.4792 H   0  0  0  0  0  0  0  0  0  0  0  0  # atno 8008 bound_to 7997
  155.7101  140.3494  155.4951 H   0  0  0  0  0  0  0  0  0  0  0  0  # atno 8009 bound_to 7997
  155.9308  140.1069  157.1124 H   0  0  0  0  0  0  0  0  0  0  0  0  # atno 8010 bound_to 7997
  140.0283  144.5486  150.7527 H   0  0  0  0  0  0  0  0  0  0  0  0  # atno 10167 bound_to 10162
  157.6306  131.0992  150.7124 H   0  0  0  0  0  0  0  0  0  0  0  0  # atno 10718 bound_to 10713
  153.5517  135.3538  155.2762 H   0  0  0  0  0  0  0  0  0  0  0  0  # atno 10763 bound_to 10752
  154.8706  135.4115  154.2930 H   0  0  0  0  0  0  0  0  0  0  0  0  # atno 10764 bound_to 10752
  153.3657  135.7062  153.6745 H   0  0  0  0  0  0  0  0  0  0  0  0  # atno 10765 bound_to 10752
  140.4254  134.1475  155.7676 H   0  0  0  0  0  0  0  0  0  0  0  0  # atno 11005 bound_to 11000
  145.2030  140.9862  143.4145 LP  0  0  0  0  0  0  0  0  0  0  0  0  # atno 17320 bound_to 7965
  144.9757  139.3834  143.6287 LP  0  0  0  0  0  0  0  0  0  0  0  0  # atno 17321 bound_to 7965
  140.7313  143.2693  151.3942 LP  0  0  0  0  0  0  0  0  0  0  0  0  # atno 17342 bound_to 10162
  139.6093  144.1132  152.2282 LP  0  0  0  0  0  0  0  0  0  0  0  0  # atno 17343 bound_to 10162
  156.7464  130.4755  149.5466 LP  0  0  0  0  0  0  0  0  0  0  0  0  # atno 17370 bound_to 10713
  156.1506  130.6307  151.0591 LP  0  0  0  0  0  0  0  0  0  0  0  0  # atno 17371 bound_to 10713
  141.1767  133.8499  157.1396 LP  0  0  0  0  0  0  0  0  0  0  0  0  # atno 17394 bound_to 11000
  140.0171  134.9962  157.0516 LP  0  0  0  0  0  0  0  0  0  0  0  0  # atno 17395 bound_to 11000

$$$$
