AV-unprocessed.smi:2679|AV-procd|sdf|10371|dock3
  -GOLD-   2272014403D 1   1.00000     0.00000
 Structure written by MMmdl.
 39 40  0  0  0  0  0  0  0  0  1 V2000
  150.8897  134.6275  156.1651 C   0  0  0  0  0  0  0  0  0  0  0  0
  150.5781  135.9131  156.8610 C   0  0  0  0  0  0  0  0  0  0  0  0
  149.8753  135.9855  157.9928 N   0  0  0  0  0  0  0  0  0  0  0  0
  149.8120  137.3265  158.2972 N   0  0  0  0  0  0  0  0  0  0  0  0
  150.4776  137.9502  157.3213 C   0  0  0  0  0  0  0  0  0  0  0  0
  150.6926  139.7012  157.2263 S   0  0  0  0  0  0  0  0  0  0  0  0
  151.5257  140.0266  158.8162 C   0  0  1  0  0  0  0  0  0  0  0  0
  152.9255  139.5958  158.6649 C   0  0  0  0  0  0  0  0  0  0  0  0
  154.0254  139.2564  158.5458 N   0  0  0  0  0  0  0  0  0  0  0  0
  151.3979  141.5036  159.2714 C   0  0  0  0  0  0  0  0  0  0  0  0
  151.3621  142.4737  158.0666 C   0  0  0  0  0  0  0  0  0  0  0  0
  151.2342  143.9417  158.5043 C   0  0  0  0  0  0  0  0  0  0  0  0
  152.3620  144.3372  159.4664 C   0  0  0  0  0  0  0  0  0  0  0  0
  152.3963  143.3971  160.6777 C   0  0  0  0  0  0  0  0  0  0  0  0
  152.5241  141.9295  160.2417 C   0  0  0  0  0  0  0  0  0  0  0  0
  150.9877  137.1112  156.3951 N   0  0  0  0  0  0  0  0  0  0  0  0
  151.7604  137.4203  155.1984 C   0  0  0  0  0  0  0  0  0  0  0  0
  151.0852  138.5169  154.3712 C   0  0  0  0  0  0  0  0  0  0  0  0
  150.2077  138.1285  153.4430 N   0  0  0  0  0  0  0  0  0  0  0  0
  151.3608  139.6997  154.5591 O   0  0  0  0  0  0  0  0  0  0  0  0
  150.4022  133.7928  156.6695 H   0  0  0  0  0  0  0  0  0  0  0  0
  151.9654  134.4510  156.1659 H   0  0  0  0  0  0  0  0  0  0  0  0
  150.5373  134.6595  155.1340 H   0  0  0  0  0  0  0  0  0  0  0  0
  151.1186  139.3743  159.5873 H   0  0  0  0  0  0  0  0  0  0  0  0
  150.4473  141.6041  159.7973 H   0  0  0  0  0  0  0  0  0  0  0  0
  152.2670  142.3495  157.4706 H   0  0  0  0  0  0  0  0  0  0  0  0
  150.5262  142.2375  157.4084 H   0  0  0  0  0  0  0  0  0  0  0  0
  151.2482  144.5924  157.6296 H   0  0  0  0  0  0  0  0  0  0  0  0
  150.2691  144.0956  158.9886 H   0  0  0  0  0  0  0  0  0  0  0  0
  153.3198  144.3007  158.9459 H   0  0  0  0  0  0  0  0  0  0  0  0
  152.2267  145.3674  159.7970 H   0  0  0  0  0  0  0  0  0  0  0  0
  153.2274  143.6630  161.3315 H   0  0  0  0  0  0  0  0  0  0  0  0
  151.4871  143.5247  161.2666 H   0  0  0  0  0  0  0  0  0  0  0  0
  152.5106  141.3137  161.1374 H   0  0  0  0  0  0  0  0  0  0  0  0
  153.4953  141.7697  159.7712 H   0  0  0  0  0  0  0  0  0  0  0  0
  152.7692  137.7161  155.4894 H   0  0  0  0  0  0  0  0  0  0  0  0
  151.8658  136.5218  154.5901 H   0  0  0  0  0  0  0  0  0  0  0  0
  149.7367  138.8155  152.8722 H   0  0  0  0  0  0  0  0  0  0  0  0
  150.0177  137.1449  153.3148 H   0  0  0  0  0  0  0  0  0  0  0  0
  1  2  1  0  0  0  0
  1 21  1  0  0  0  0
  1 22  1  0  0  0  0
  1 23  1  0  0  0  0
  2 16  1  0  0  0  0
  2  3  2  0  0  0  0
  3  4  1  0  0  0  0
  4  5  2  0  0  0  0
  5  6  1  0  0  0  0
  5 16  1  0  0  0  0
  6  7  1  0  0  0  0
  7  8  1  0  0  0  0
  7 10  1  0  0  0  0
  7 24  1  0  0  0  0
  8  9  3  0  0  0  0
 10 15  1  0  0  0  0
 10 11  1  0  0  0  0
 10 25  1  0  0  0  0
 11 12  1  0  0  0  0
 11 26  1  0  0  0  0
 11 27  1  0  0  0  0
 12 13  1  0  0  0  0
 12 28  1  0  0  0  0
 12 29  1  0  0  0  0
 13 14  1  0  0  0  0
 13 30  1  0  0  0  0
 13 31  1  0  0  0  0
 14 15  1  0  0  0  0
 14 32  1  0  0  0  0
 14 33  1  0  0  0  0
 15 34  1  0  0  0  0
 15 35  1  0  0  0  0
 16 17  1  0  0  0  0
 17 18  1  0  0  0  0
 17 36  1  0  0  0  0
 17 37  1  0  0  0  0
 18 19  1  0  0  0  0
 18 20  2  0  0  0  0
 19 38  1  0  0  0  0
 19 39  1  0  0  0  0
M  END
> <s_m_source_file>
AV-unprocessed.smi

> <i_m_source_file_index>
2679

> <i_lp_mmshare_version>
43012

> <i_f3d_flags>
0

> <s_epik_input>
W0NIM11jMW5uYyhuMVtDSDJdQyg9TylbTkgyXSlTW0NASF0oQyNOKVtDSF0yW0NIMl1bQ0gyXVtDSDJdW0NIMl1bQ0gyXTI=

> <s_epik_cmdline>
J2VwaWtfcHl0aG9uJywgJy1waCcsICc3LjAnLCAnLXRuJywgJzgnLCAnLW1hJywgJzIwMCcsICctbWV0YWxfYmluZGluZycsICctaW1hZScsICc8aW5maWxlLm1hZT4nLCAnLW9tYWUnLCAnPG91dGZpbGUubWFlPic=

> <r_lp_tautomer_probability>
1

> <r_epik_Ionization_Penalty>
1.94949e-07

> <r_epik_Ionization_Penalty_Charging>
0

> <r_epik_Ionization_Penalty_Neutral>
1.94949e-07

> <r_epik_State_Penalty>
-0

> <r_epik_Charging_Adjusted_Penalty>
0

> <i_epik_Tot_Q>
0

> <i_epik_Tot_abs_Q>
0

> <r_epik_Metal_State_Penalty>
-0

> <b_epik_Metal_Only>
0

> <s_lp_Force_Field>
OPLS_2005

> <r_lp_Energy>
6.13609

> <b_lp_Chiralities_Consistent>
1

> <s_lp_Variant>
AV-unprocessed.smi:2679-2

> <Gold.Version>
5.8.1

> <Gold.Id.Protein>
6NUR|6NUR_protein|mol2

> <Gold.PLP.Fitness>
46.2054

> <Gold.PLP.PLP>
-36.9442

> <Gold.PLP.part.hbond>
-5.2611

> <Gold.PLP.part.metal>
0.0000

> <Gold.PLP.part.buried>
-4.7205

> <Gold.PLP.part.nonpolar>
-27.5135

> <Gold.PLP.part.repulsive>
0.1664

> <Gold.PLP.ligand.clash>
0.0139

> <Gold.PLP.ligand.torsion>
1.2374

> <Gold.PLP.Chemscore.Hbond>
3.9006

> <Gold.PLP.Chemscore.CHOScore>
0.0000

> <Gold.PLP.Chemscore.Metal>
0.0000

> <Gold.Chemscore.Hbonds>
donor molecule, donor type, donor heavy atom, donor atom, acceptor molecule, acceptor atom, score
      L1  H    19    38       P1  7957  0.84
      L1  H    19    39       P1  7948  0.55
      P1  H  6896  6909       L1     3  0.48
      P1  H  7989  7998       L1    20  1.00
      P1  H  7997  8008       L1     9  1.00

> <Gold.PLP.Chemscore.Internal.Correction>
0.0482

> <Gold.Rescore>
     Score         DG    S(hbond)    S(metal)    S(lipo)     H(rot)  DE(clash)    DE(int)     intcor
     17.52     -20.01       3.37        0.00      84.30       2.57       0.01       2.47       ----

> <Gold.Chemscore.Fitness>
17.5236

> <Gold.Chemscore.DG>
-20.0066

> <Gold.Chemscore.ZeroCoef>
-5.4800

> <Gold.Chemscore.Hbond>
3.3682

> <Gold.Chemscore.Metal>
0.0000

> <Gold.Chemscore.Lipo>
84.3020

> <Gold.Chemscore.Internal_Hbond>
0.0000

> <Gold.Chemscore.DEClash>
0.0110

> <Gold.Chemscore.DEInternal>
2.4720

> <Gold.Chemscore.Rot>
2.5728

> <Gold.Chemscore.Internal.Correction>
   9.000000E+99

> <Gold.Chemscore.Hbonds>
donor molecule, donor type, donor heavy atom, donor atom, acceptor molecule, acceptor atom, score
      L1  H    19    38       P1  7957  0.67
      L1  H    19    39       P1  7948  0.12
      P1  H  6896  6909       L1     3  0.32
      P1  H  7989  7998       L1    20  0.98
      P1  H  7997  8008       L1     9  0.65

> <Gold.Chemscore.Hbond.Weighted>
-11.2498

> <Gold.Chemscore.Metal.Weighted>
-0.0000

> <Gold.Chemscore.Lipo.Weighted>
-9.8633

> <Gold.Chemscore.Internal_Hbond.Weighted>
0.0000

> <Gold.Chemscore.DEClash.Weighted>
0.0110

> <Gold.Chemscore.DEInternal.Weighted>
2.4720

> <Gold.Chemscore.Rot.Weighted>
6.5865

> <Gold.Chemscore.Internal.Correction.Weighted>
   9.000000E+99

> <Gold.Protein.RotatedTorsions>
[ 6907 6896 6895 6894 ] final   62.94 input  -60.11 | X-H torsion
[ 7974 7965 7964 7962 ] final  -56.76 input  175.53 | X-H torsion
[ 8008 7997 7996 7995 ] final  -91.37 input   59.86 | X-H torsion
[ 10167 10162 10161 10158 ] final  -54.21 input  -65.29 | X-H torsion
[ 10718 10713 10712 10709 ] final  140.51 input   66.30 | X-H torsion
[ 10763 10752 10751 10750 ] final   86.55 input  -60.55 | X-H torsion
[ 11005 11000 10999 10996 ] final  -34.31 input  -57.11 | X-H torsion

> <Gold.Protein.ActiveResidues>
 VAL166  LYS551  ARG553  GLY616  TRP617  ASP618  TYR619  PRO620  LYS621  CYS622 
 ASP623  PHE694  ASN695  SER759  ASP760  ASP761  ALA762  ILE779  LEU786  VAL792 
 PHE793  MET794  SER795  GLU796  ALA797  LYS798  CYS799  TRP800  GLU811  SER814 

> <Gold.Protein.RotatedAtoms>
  152.4213  134.5950  159.9984 H   0  0  0  0  0  0  0  0  0  0  0  0  # atno 6907 bound_to 6896
  151.6099  133.3342  159.3073 H   0  0  0  0  0  0  0  0  0  0  0  0  # atno 6908 bound_to 6896
  150.8101  134.7289  159.6746 H   0  0  0  0  0  0  0  0  0  0  0  0  # atno 6909 bound_to 6896
  145.8589  140.8299  142.9947 H   0  0  0  0  0  0  0  0  0  0  0  0  # atno 7974 bound_to 7965
  154.7099  140.0520  157.0540 H   0  0  0  0  0  0  0  0  0  0  0  0  # atno 8008 bound_to 7997
  155.0569  140.3185  155.4654 H   0  0  0  0  0  0  0  0  0  0  0  0  # atno 8009 bound_to 7997
  156.2786  140.2106  156.5695 H   0  0  0  0  0  0  0  0  0  0  0  0  # atno 8010 bound_to 7997
  140.6443  143.2526  151.4903 H   0  0  0  0  0  0  0  0  0  0  0  0  # atno 10167 bound_to 10162
  157.4024  131.1018  151.0538 H   0  0  0  0  0  0  0  0  0  0  0  0  # atno 10718 bound_to 10713
  153.1582  135.4576  154.9734 H   0  0  0  0  0  0  0  0  0  0  0  0  # atno 10763 bound_to 10752
  154.7877  135.3210  154.7851 H   0  0  0  0  0  0  0  0  0  0  0  0  # atno 10764 bound_to 10752
  153.8345  135.6935  153.4865 H   0  0  0  0  0  0  0  0  0  0  0  0  # atno 10765 bound_to 10752
  140.9706  133.7112  156.1517 H   0  0  0  0  0  0  0  0  0  0  0  0  # atno 11005 bound_to 11000
  144.6727  140.1065  143.7458 LP  0  0  0  0  0  0  0  0  0  0  0  0  # atno 17320 bound_to 7965
  145.9271  139.2582  143.1347 LP  0  0  0  0  0  0  0  0  0  0  0  0  # atno 17321 bound_to 7965
  139.5653  144.2058  152.1755 LP  0  0  0  0  0  0  0  0  0  0  0  0  # atno 17342 bound_to 10162
  140.1338  144.5265  150.6786 LP  0  0  0  0  0  0  0  0  0  0  0  0  # atno 17343 bound_to 10162
  157.1532  130.6193  149.5588 LP  0  0  0  0  0  0  0  0  0  0  0  0  # atno 17370 bound_to 10713
  155.9827  130.4842  150.6894 LP  0  0  0  0  0  0  0  0  0  0  0  0  # atno 17371 bound_to 10713
  140.7335  134.4229  157.5563 LP  0  0  0  0  0  0  0  0  0  0  0  0  # atno 17394 bound_to 11000
  139.8911  134.8789  156.2338 LP  0  0  0  0  0  0  0  0  0  0  0  0  # atno 17395 bound_to 11000

$$$$
