AV-unprocessed.smi:1381|AV-procd|sdf|5617|dock6
  -GOLD-   22720 5233D 1   1.00000     0.00000
 Structure written by MMmdl.
 42 43  0  0  0  0  0  0  0  0  3 V2000
  143.3678  134.8171  162.9696 C   0  0  0  0  0  0  0  0  0  0  0  0
  144.7096  134.5627  162.3736 C   0  0  0  0  0  0  0  0  0  0  0  0
  145.5812  135.3502  161.6762 C   0  0  0  0  0  0  0  0  0  0  0  0
  146.6672  134.4732  161.4136 C   0  0  0  0  0  0  0  0  0  0  0  0
  147.8041  134.9270  160.6942 N   0  0  0  0  0  0  0  0  0  0  0  0
  148.1934  136.1895  160.4396 C   0  0  0  0  0  0  0  0  0  0  0  0
  147.5311  137.1450  160.8620 O   0  0  0  0  0  0  0  0  0  0  0  0
  149.3379  136.2344  159.7041 N   0  5  0  0  0  0  0  0  0  0  0  0
  149.4368  136.7897  158.3567 C   0  0  0  0  0  0  0  0  0  0  0  0
  149.5049  138.3269  158.4360 C   0  0  0  0  0  0  0  0  0  0  0  0
  149.8632  138.9390  157.1289 N   0  3  1  0  0  0  0  0  0  0  0  0
  150.0499  140.4077  157.2124 C   0  0  0  0  0  0  0  0  0  0  0  0
  150.3360  141.0130  155.8238 C   0  0  2  0  0  0  0  0  0  0  0  0
  149.0966  141.0767  154.9138 C   0  0  0  0  0  0  0  0  0  0  0  0
  151.4279  140.3344  155.2026 O   0  0  0  0  0  0  0  0  0  0  0  0
  151.2632  138.9240  155.0787 C   0  0  1  0  0  0  0  0  0  0  0  0
  152.5157  138.3609  154.3987 C   0  0  0  0  0  0  0  0  0  0  0  0
  151.0390  138.3121  156.4724 C   0  0  0  0  0  0  0  0  0  0  0  0
  146.4741  133.2587  161.9068 N   0  0  0  0  0  0  0  0  0  0  0  0
  145.2190  133.3100  162.5247 O   0  0  0  0  0  0  0  0  0  0  0  0
  143.0639  135.8529  162.8165 H   0  0  0  0  0  0  0  0  0  0  0  0
  143.3785  134.6229  164.0423 H   0  0  0  0  0  0  0  0  0  0  0  0
  142.6151  134.1730  162.5150 H   0  0  0  0  0  0  0  0  0  0  0  0
  145.4606  136.3870  161.3995 H   0  0  0  0  0  0  0  0  0  0  0  0
  148.3993  134.2030  160.3207 H   0  0  0  0  0  0  0  0  0  0  0  0
  150.3193  136.4249  157.8296 H   0  0  0  0  0  0  0  0  0  0  0  0
  148.5825  136.5049  157.7413 H   0  0  0  0  0  0  0  0  0  0  0  0
  148.5254  138.6899  158.7523 H   0  0  0  0  0  0  0  0  0  0  0  0
  150.2078  138.6500  159.2059 H   0  0  0  0  0  0  0  0  0  0  0  0
  149.1644  140.8758  157.6444 H   0  0  0  0  0  0  0  0  0  0  0  0
  150.8812  140.6207  157.8864 H   0  0  0  0  0  0  0  0  0  0  0  0
  150.6673  142.0412  155.9734 H   0  0  0  0  0  0  0  0  0  0  0  0
  148.3274  141.7114  155.3543 H   0  0  0  0  0  0  0  0  0  0  0  0
  148.6508  140.0958  154.7507 H   0  0  0  0  0  0  0  0  0  0  0  0
  149.3506  141.4958  153.9400 H   0  0  0  0  0  0  0  0  0  0  0  0
  150.4072  138.7063  154.4399 H   0  0  0  0  0  0  0  0  0  0  0  0
  152.4359  137.2823  154.2614 H   0  0  0  0  0  0  0  0  0  0  0  0
  153.4099  138.5576  154.9907 H   0  0  0  0  0  0  0  0  0  0  0  0
  152.6608  138.8109  153.4163 H   0  0  0  0  0  0  0  0  0  0  0  0
  151.9233  138.4564  157.0953 H   0  0  0  0  0  0  0  0  0  0  0  0
  150.8900  137.2359  156.3776 H   0  0  0  0  0  0  0  0  0  0  0  0
  149.0671  138.7889  156.5255 H   0  0  0  0  0  0  0  0  0  0  0  0
  1  2  1  0  0  0  0
  1 21  1  0  0  0  0
  1 22  1  0  0  0  0
  1 23  1  0  0  0  0
  2 20  1  0  0  0  0
  2  3  2  0  0  0  0
  3  4  1  0  0  0  0
  3 24  1  0  0  0  0
  4  5  1  0  0  0  0
  4 19  2  0  0  0  0
  5  6  1  0  0  0  0
  5 25  1  0  0  0  0
  6  7  2  0  0  0  0
  6  8  1  0  0  0  0
  8  9  1  0  0  0  0
  9 10  1  0  0  0  0
  9 26  1  0  0  0  0
  9 27  1  0  0  0  0
 10 11  1  0  0  0  0
 10 28  1  0  0  0  0
 10 29  1  0  0  0  0
 11 18  1  0  0  0  0
 11 12  1  0  0  0  0
 11 42  1  0  0  0  0
 12 13  1  0  0  0  0
 12 30  1  0  0  0  0
 12 31  1  0  0  0  0
 13 14  1  0  0  0  0
 13 15  1  0  0  0  0
 13 32  1  0  0  0  0
 14 33  1  0  0  0  0
 14 34  1  0  0  0  0
 14 35  1  0  0  0  0
 15 16  1  0  0  0  0
 16 17  1  0  0  0  0
 16 18  1  0  0  0  0
 16 36  1  0  0  0  0
 17 37  1  0  0  0  0
 17 38  1  0  0  0  0
 17 39  1  0  0  0  0
 18 40  1  0  0  0  0
 18 41  1  0  0  0  0
 19 20  1  0  0  0  0
M  CHG  1   8  -1
M  CHG  1  11   1
M  END
> <s_m_source_file>
AV-unprocessed.smi

> <i_m_source_file_index>
1381

> <i_lp_mmshare_version>
43012

> <i_f3d_flags>
0

> <s_epik_input>
W0NIM11jMVtjSF1jKG5vMSlbTkhdQyg9TylbTkhdW0NIMl1bQ0gyXU4yW0NIMl1bQ0BASF0oW0NIM10pT1tDQEBIXShbQ0gzXSlbQ0gyXTI=

> <s_epik_cmdline>
J2VwaWtfcHl0aG9uJywgJy1waCcsICc3LjAnLCAnLXRuJywgJzgnLCAnLW1hJywgJzIwMCcsICctbWV0YWxfYmluZGluZycsICctaW1hZScsICc8aW5maWxlLm1hZT4nLCAnLW9tYWUnLCAnPG91dGZpbGUubWFlPic=

> <r_epik_Ionization_Penalty>
6.8073

> <r_epik_Ionization_Penalty_Charging>
6.80729

> <r_epik_Ionization_Penalty_Neutral>
5.65391e-06

> <r_epik_State_Penalty>
7.47323

> <r_epik_Charging_Adjusted_Penalty>
14.2805

> <i_epik_Tot_Q>
0

> <i_epik_Tot_abs_Q>
2

> <r_epik_Metal_State_Penalty>
3.40035

> <b_epik_Metal_Only>
1

> <s_lp_Force_Field>
OPLS_2005

> <r_lp_Energy>
15.0618

> <b_lp_Chiralities_Consistent>
1

> <s_lp_Variant>
AV-unprocessed.smi:1381-16

> <Gold.Version>
5.8.1

> <Gold.Id.Protein>
6NUR|6NUR_protein|mol2

> <Gold.PLP.Fitness>
45.7066

> <Gold.PLP.PLP>
-33.0296

> <Gold.PLP.part.hbond>
-4.1785

> <Gold.PLP.part.metal>
0.0000

> <Gold.PLP.part.buried>
-6.8980

> <Gold.PLP.part.nonpolar>
-22.6441

> <Gold.PLP.part.repulsive>
0.2223

> <Gold.PLP.ligand.clash>
0.0000

> <Gold.PLP.ligand.torsion>
0.8653

> <Gold.PLP.Chemscore.Hbond>
4.7840

> <Gold.PLP.Chemscore.CHOScore>
0.0000

> <Gold.PLP.Chemscore.Metal>
0.0000

> <Gold.Chemscore.Hbonds>
donor molecule, donor type, donor heavy atom, donor atom, acceptor molecule, acceptor atom, score
      P1  H  6896  6909       L1     8  1.95
      P1  H  6931  6943       L1     7  0.63
      P1  H  6934  6947       L1     7  1.00
      P1  H  7989  7998       L1    15  0.96

> <Gold.PLP.Chemscore.Internal.Correction>
0.0557

> <Gold.Rescore>
     Score         DG    S(hbond)    S(metal)    S(lipo)     H(rot)  DE(clash)    DE(int)     intcor
     16.02     -19.95       3.28        0.00      64.52       1.58       1.49       2.44       ----

> <Gold.Chemscore.Fitness>
16.0188

> <Gold.Chemscore.DG>
-19.9524

> <Gold.Chemscore.ZeroCoef>
-5.4800

> <Gold.Chemscore.Hbond>
3.2833

> <Gold.Chemscore.Metal>
0.0000

> <Gold.Chemscore.Lipo>
64.5212

> <Gold.Chemscore.Internal_Hbond>
0.0000

> <Gold.Chemscore.DEClash>
1.4927

> <Gold.Chemscore.DEInternal>
2.4409

> <Gold.Chemscore.Rot>
1.5792

> <Gold.Chemscore.Internal.Correction>
   9.000000E+99

> <Gold.Chemscore.Hbonds>
donor molecule, donor type, donor heavy atom, donor atom, acceptor molecule, acceptor atom, score
      P1  H  6896  6909       L1     8  0.31
      P1  H  6931  6943       L1     7  0.18
      P1  H  6934  6947       L1     7  0.94
      P1  H  7989  7998       L1    15  0.32

> <Gold.Chemscore.Hbond.Weighted>
-10.9662

> <Gold.Chemscore.Metal.Weighted>
-0.0000

> <Gold.Chemscore.Lipo.Weighted>
-7.5490

> <Gold.Chemscore.Internal_Hbond.Weighted>
0.0000

> <Gold.Chemscore.DEClash.Weighted>
1.4927

> <Gold.Chemscore.DEInternal.Weighted>
2.4409

> <Gold.Chemscore.Rot.Weighted>
4.0428

> <Gold.Chemscore.Internal.Correction.Weighted>
   9.000000E+99

> <Gold.Protein.RotatedTorsions>
[ 6907 6896 6895 6894 ] final   61.96 input  -60.11 | X-H torsion
[ 7974 7965 7964 7962 ] final   97.94 input  175.53 | X-H torsion
[ 8008 7997 7996 7995 ] final -106.89 input   59.86 | X-H torsion
[ 10167 10162 10161 10158 ] final   23.44 input  -65.29 | X-H torsion
[ 10718 10713 10712 10709 ] final  -71.21 input   66.30 | X-H torsion
[ 10763 10752 10751 10750 ] final  -99.96 input  -60.55 | X-H torsion
[ 11005 11000 10999 10996 ] final -103.64 input  -57.11 | X-H torsion

> <Gold.Protein.ActiveResidues>
 VAL166  LYS551  ARG553  GLY616  TRP617  ASP618  TYR619  PRO620  LYS621  CYS622 
 ASP623  PHE694  ASN695  SER759  ASP760  ASP761  ALA762  ILE779  LEU786  VAL792 
 PHE793  MET794  SER795  GLU796  ALA797  LYS798  CYS799  TRP800  GLU811  SER814 

> <Gold.Protein.RotatedAtoms>
  152.4132  134.6087  160.0019 H   0  0  0  0  0  0  0  0  0  0  0  0  # atno 6907 bound_to 6896
  151.6258  133.3330  159.3106 H   0  0  0  0  0  0  0  0  0  0  0  0  # atno 6908 bound_to 6896
  150.8022  134.7163  159.6677 H   0  0  0  0  0  0  0  0  0  0  0  0  # atno 6909 bound_to 6896
  145.4189  139.2324  143.3207 H   0  0  0  0  0  0  0  0  0  0  0  0  # atno 7974 bound_to 7965
  154.9212  140.0407  157.1999 H   0  0  0  0  0  0  0  0  0  0  0  0  # atno 8008 bound_to 7997
  154.8252  140.2890  155.5738 H   0  0  0  0  0  0  0  0  0  0  0  0  # atno 8009 bound_to 7997
  156.2983  140.2511  156.3166 H   0  0  0  0  0  0  0  0  0  0  0  0  # atno 8010 bound_to 7997
  140.5268  143.9909  150.6445 H   0  0  0  0  0  0  0  0  0  0  0  0  # atno 10167 bound_to 10162
  156.0373  130.4347  150.2410 H   0  0  0  0  0  0  0  0  0  0  0  0  # atno 10718 bound_to 10713
  154.7540  135.4953  153.9341 H   0  0  0  0  0  0  0  0  0  0  0  0  # atno 10763 bound_to 10752
  153.1175  135.6724  153.9400 H   0  0  0  0  0  0  0  0  0  0  0  0  # atno 10764 bound_to 10752
  153.9142  135.3095  155.3427 H   0  0  0  0  0  0  0  0  0  0  0  0  # atno 10765 bound_to 10752
  141.1136  133.8657  157.1512 H   0  0  0  0  0  0  0  0  0  0  0  0  # atno 11005 bound_to 11000
  146.2667  140.4910  142.8831 LP  0  0  0  0  0  0  0  0  0  0  0  0  # atno 17320 bound_to 7965
  144.8259  140.6627  143.6323 LP  0  0  0  0  0  0  0  0  0  0  0  0  # atno 17321 bound_to 7965
  140.3273  143.3100  152.0723 LP  0  0  0  0  0  0  0  0  0  0  0  0  # atno 17342 bound_to 10162
  139.4941  144.6533  151.6627 LP  0  0  0  0  0  0  0  0  0  0  0  0  # atno 17343 bound_to 10162
  157.0508  131.0062  151.3254 LP  0  0  0  0  0  0  0  0  0  0  0  0  # atno 17370 bound_to 10713
  157.5141  130.7957  149.7737 LP  0  0  0  0  0  0  0  0  0  0  0  0  # atno 17371 bound_to 10713
  140.0045  135.0014  157.0262 LP  0  0  0  0  0  0  0  0  0  0  0  0  # atno 17394 bound_to 11000
  140.4707  134.1390  155.7203 LP  0  0  0  0  0  0  0  0  0  0  0  0  # atno 17395 bound_to 11000

$$$$
