AV-unprocessed.smi:3029|AV-procd|sdf|11527|dock8
  -GOLD-   2272016473D 1   1.00000     0.00000
 Structure written by MMmdl.
 42 43  0  0  0  0  0  0  0  0  4 V2000
  148.2300  139.9438  157.8642 O   0  0  0  0  0  0  0  0  0  0  0  0
  149.3990  139.6134  158.0630 C   0  0  0  0  0  0  0  0  0  0  0  0
  150.5089  140.5651  157.9505 C   0  0  0  0  0  0  0  0  0  0  0  0
  151.7836  140.1977  158.1875 C   0  0  0  0  0  0  0  0  0  0  0  0
  152.0973  138.8339  158.5681 C   0  0  0  0  0  0  0  0  0  0  0  0
  153.4598  138.4317  158.8396 N   0  3  0  0  0  0  0  0  0  0  0  0
  153.6718  137.3019  159.2701 O   0  0  0  0  0  0  0  0  0  0  0  0
  154.3632  139.2347  158.6305 O   0  5  0  0  0  0  0  0  0  0  0  0
  151.0760  137.9598  158.6639 C   0  0  0  0  0  0  0  0  0  0  0  0
  149.7435  138.3358  158.4069 N   0  0  0  0  0  0  0  0  0  0  0  0
  148.7167  137.2939  158.5440 C   0  0  0  0  0  0  0  0  0  0  0  0
  148.6012  136.8055  159.9969 C   0  0  0  0  0  0  0  0  0  0  0  0
  147.2157  136.3936  160.3025 N   0  3  0  0  0  0  0  0  0  0  0  0
  146.8290  136.4604  161.7326 C   0  0  2  0  0  0  0  0  0  0  0  0
  147.6924  135.5131  162.5960 C   0  0  0  0  0  0  0  0  0  0  0  0
  147.3970  134.0324  162.3010 C   0  0  0  0  0  0  0  0  0  0  0  0
  145.9041  133.7176  162.4754 C   0  0  0  0  0  0  0  0  0  0  0  0
  145.0272  134.6530  161.6272 C   0  0  0  0  0  0  0  0  0  0  0  0
  145.3232  136.1390  161.9296 C   0  0  2  0  0  0  0  0  0  0  0  0
  144.3742  137.1002  161.1774 C   0  0  0  0  0  0  0  0  0  0  0  0
  144.7270  138.3739  161.3530 F   0  0  0  0  0  0  0  0  0  0  0  0
  144.4016  136.8290  159.8729 F   0  0  0  0  0  0  0  0  0  0  0  0
  143.1242  136.9360  161.6093 F   0  0  0  0  0  0  0  0  0  0  0  0
  150.2975  141.5864  157.6693 H   0  0  0  0  0  0  0  0  0  0  0  0
  152.5678  140.9340  158.0905 H   0  0  0  0  0  0  0  0  0  0  0  0
  151.2039  136.9243  158.9453 H   0  0  0  0  0  0  0  0  0  0  0  0
  147.7510  137.6639  158.1937 H   0  0  0  0  0  0  0  0  0  0  0  0
  148.9484  136.4507  157.8910 H   0  0  0  0  0  0  0  0  0  0  0  0
  149.2820  135.9699  160.1571 H   0  0  0  0  0  0  0  0  0  0  0  0
  148.8962  137.5990  160.6847 H   0  0  0  0  0  0  0  0  0  0  0  0
  146.6026  137.0147  159.7932 H   0  0  0  0  0  0  0  0  0  0  0  0
  146.9995  137.4830  162.0722 H   0  0  0  0  0  0  0  0  0  0  0  0
  148.7548  135.7158  162.4639 H   0  0  0  0  0  0  0  0  0  0  0  0
  147.4869  135.7084  163.6494 H   0  0  0  0  0  0  0  0  0  0  0  0
  147.7081  133.7872  161.2849 H   0  0  0  0  0  0  0  0  0  0  0  0
  147.9874  133.3980  162.9628 H   0  0  0  0  0  0  0  0  0  0  0  0
  145.7089  132.6792  162.2060 H   0  0  0  0  0  0  0  0  0  0  0  0
  145.6320  133.8186  163.5268 H   0  0  0  0  0  0  0  0  0  0  0  0
  145.1881  134.4462  160.5687 H   0  0  0  0  0  0  0  0  0  0  0  0
  143.9775  134.4331  161.8237 H   0  0  0  0  0  0  0  0  0  0  0  0
  145.1153  136.2873  162.9908 H   0  0  0  0  0  0  0  0  0  0  0  0
  147.0640  135.4525  159.9681 H   0  0  0  0  0  0  0  0  0  0  0  0
  1  2  2  0  0  0  0
  2 10  1  0  0  0  0
  2  3  1  0  0  0  0
  3  4  2  0  0  0  0
  3 24  1  0  0  0  0
  4  5  1  0  0  0  0
  4 25  1  0  0  0  0
  5  6  1  0  0  0  0
  5  9  2  0  0  0  0
  6  7  2  0  0  0  0
  6  8  1  0  0  0  0
  9 10  1  0  0  0  0
  9 26  1  0  0  0  0
 10 11  1  0  0  0  0
 11 12  1  0  0  0  0
 11 27  1  0  0  0  0
 11 28  1  0  0  0  0
 12 13  1  0  0  0  0
 12 29  1  0  0  0  0
 12 30  1  0  0  0  0
 13 14  1  0  0  0  0
 13 31  1  0  0  0  0
 13 42  1  0  0  0  0
 14 19  1  0  0  0  0
 14 15  1  0  0  0  0
 14 32  1  0  0  0  0
 15 16  1  0  0  0  0
 15 33  1  0  0  0  0
 15 34  1  0  0  0  0
 16 17  1  0  0  0  0
 16 35  1  0  0  0  0
 16 36  1  0  0  0  0
 17 18  1  0  0  0  0
 17 37  1  0  0  0  0
 17 38  1  0  0  0  0
 18 19  1  0  0  0  0
 18 39  1  0  0  0  0
 18 40  1  0  0  0  0
 19 20  1  0  0  0  0
 19 41  1  0  0  0  0
 20 21  1  0  0  0  0
 20 22  1  0  0  0  0
 20 23  1  0  0  0  0
M  CHG  1   6   1
M  CHG  1   8  -1
M  CHG  1  13   1
M  END
> <s_m_source_file>
AV-unprocessed.smi

> <i_m_source_file_index>
3029

> <i_lp_mmshare_version>
43012

> <i_f3d_flags>
0

> <s_epik_input>
Tz1jMVtjSF1bY0hdYyhbTitdKD1PKVtPLV0pW2NIXW4xW0NIMl1bQ0gyXVtOSF1bQ0BASF0yW0NIMl1bQ0gyXVtDSDJdW0NIMl1bQ0BIXTJDKEYpKEYpRg==

> <s_epik_cmdline>
J2VwaWtfcHl0aG9uJywgJy1waCcsICc3LjAnLCAnLXRuJywgJzgnLCAnLW1hJywgJzIwMCcsICctbWV0YWxfYmluZGluZycsICctaW1hZScsICc8aW5maWxlLm1hZT4nLCAnLW9tYWUnLCAnPG91dGZpbGUubWFlPic=

> <r_lp_tautomer_probability>
1

> <r_epik_Ionization_Penalty>
0.037386

> <r_epik_Ionization_Penalty_Charging>
0.037386

> <r_epik_Ionization_Penalty_Neutral>
0

> <r_epik_State_Penalty>
0.0312892

> <r_epik_Charging_Adjusted_Penalty>
0.0686752

> <i_epik_Tot_Q>
1

> <i_epik_Tot_abs_Q>
3

> <r_epik_Metal_State_Penalty>
0.0312892

> <b_epik_Metal_Only>
0

> <s_lp_Force_Field>
OPLS_2005

> <r_lp_Energy>
34.7992

> <b_lp_Chiralities_Consistent>
1

> <s_lp_Variant>
AV-unprocessed.smi:3029-3

> <Gold.Version>
5.8.1

> <Gold.Id.Protein>
6NUR|6NUR_protein|mol2

> <Gold.PLP.Fitness>
36.5361

> <Gold.PLP.PLP>
-34.5562

> <Gold.PLP.part.hbond>
-1.1694

> <Gold.PLP.part.metal>
0.0000

> <Gold.PLP.part.buried>
-4.7760

> <Gold.PLP.part.nonpolar>
-27.0359

> <Gold.PLP.part.repulsive>
0.1298

> <Gold.PLP.ligand.clash>
0.0000

> <Gold.PLP.ligand.torsion>
0.5532

> <Gold.PLP.Chemscore.Hbond>
1.0000

> <Gold.PLP.Chemscore.CHOScore>
0.0000

> <Gold.PLP.Chemscore.Metal>
0.0000

> <Gold.Chemscore.Hbonds>
donor molecule, donor type, donor heavy atom, donor atom, acceptor molecule, acceptor atom, score
      P1  H  7997  8009       L1     8  1.00

> <Gold.PLP.Chemscore.Internal.Correction>
0.0862

> <Gold.Rescore>
     Score         DG    S(hbond)    S(metal)    S(lipo)     H(rot)  DE(clash)    DE(int)     intcor
     11.07     -12.81       1.00        0.00      75.74       1.90       0.00       1.73       ----

> <Gold.Chemscore.Fitness>
11.0715

> <Gold.Chemscore.DG>
-12.8086

> <Gold.Chemscore.ZeroCoef>
-5.4800

> <Gold.Chemscore.Hbond>
1.0000

> <Gold.Chemscore.Metal>
0.0000

> <Gold.Chemscore.Lipo>
75.7449

> <Gold.Chemscore.Internal_Hbond>
0.0000

> <Gold.Chemscore.DEClash>
0.0038

> <Gold.Chemscore.DEInternal>
1.7333

> <Gold.Chemscore.Rot>
1.9037

> <Gold.Chemscore.Internal.Correction>
   9.000000E+99

> <Gold.Chemscore.Hbonds>
donor molecule, donor type, donor heavy atom, donor atom, acceptor molecule, acceptor atom, score
      P1  H  7997  8009       L1     8  1.00

> <Gold.Chemscore.Hbond.Weighted>
-3.3400

> <Gold.Chemscore.Metal.Weighted>
-0.0000

> <Gold.Chemscore.Lipo.Weighted>
-8.8622

> <Gold.Chemscore.Internal_Hbond.Weighted>
0.0000

> <Gold.Chemscore.DEClash.Weighted>
0.0038

> <Gold.Chemscore.DEInternal.Weighted>
1.7333

> <Gold.Chemscore.Rot.Weighted>
4.8736

> <Gold.Chemscore.Internal.Correction.Weighted>
   9.000000E+99

> <Gold.Protein.RotatedTorsions>
[ 6907 6896 6895 6894 ] final  -51.03 input  -60.11 | X-H torsion
[ 7974 7965 7964 7962 ] final  139.32 input  175.53 | X-H torsion
[ 8008 7997 7996 7995 ] final  131.20 input   59.86 | X-H torsion
[ 10167 10162 10161 10158 ] final  -83.42 input  -65.29 | X-H torsion
[ 10718 10713 10712 10709 ] final   56.59 input   66.30 | X-H torsion
[ 10763 10752 10751 10750 ] final  115.47 input  -60.55 | X-H torsion
[ 11005 11000 10999 10996 ] final    7.82 input  -57.11 | X-H torsion

> <Gold.Protein.ActiveResidues>
 VAL166  LYS551  ARG553  GLY616  TRP617  ASP618  TYR619  PRO620  LYS621  CYS622 
 ASP623  PHE694  ASN695  SER759  ASP760  ASP761  ALA762  ILE779  LEU786  VAL792 
 PHE793  MET794  SER795  GLU796  ALA797  LYS798  CYS799  TRP800  GLU811  SER814 

> <Gold.Protein.RotatedAtoms>
  150.8650  134.8012  159.7111 H   0  0  0  0  0  0  0  0  0  0  0  0  # atno 6907 bound_to 6896
  152.4675  134.5038  159.9742 H   0  0  0  0  0  0  0  0  0  0  0  0  # atno 6908 bound_to 6896
  151.5135  133.3442  159.2924 H   0  0  0  0  0  0  0  0  0  0  0  0  # atno 6909 bound_to 6896
  144.9290  139.5071  143.5627 H   0  0  0  0  0  0  0  0  0  0  0  0  # atno 7974 bound_to 7965
  156.2966  140.2577  156.2887 H   0  0  0  0  0  0  0  0  0  0  0  0  # atno 8008 bound_to 7997
  154.9530  140.0394  157.2172 H   0  0  0  0  0  0  0  0  0  0  0  0  # atno 8009 bound_to 7997
  154.8018  140.2829  155.5921 H   0  0  0  0  0  0  0  0  0  0  0  0  # atno 8010 bound_to 7997
  140.4228  143.2578  151.8867 H   0  0  0  0  0  0  0  0  0  0  0  0  # atno 10167 bound_to 10162
  157.5443  130.8720  149.8868 H   0  0  0  0  0  0  0  0  0  0  0  0  # atno 10718 bound_to 10713
  153.5228  135.3594  155.2639 H   0  0  0  0  0  0  0  0  0  0  0  0  # atno 10763 bound_to 10752
  154.8733  135.4049  154.3241 H   0  0  0  0  0  0  0  0  0  0  0  0  # atno 10764 bound_to 10752
  153.3914  135.7072  153.6559 H   0  0  0  0  0  0  0  0  0  0  0  0  # atno 10765 bound_to 10752
  140.5440  134.0347  155.7913 H   0  0  0  0  0  0  0  0  0  0  0  0  # atno 11005 bound_to 11000
  146.3239  139.8226  142.8924 LP  0  0  0  0  0  0  0  0  0  0  0  0  # atno 17320 bound_to 7965
  145.3172  141.0235  143.3521 LP  0  0  0  0  0  0  0  0  0  0  0  0  # atno 17321 bound_to 7965
  139.4783  144.5419  151.8515 LP  0  0  0  0  0  0  0  0  0  0  0  0  # atno 17342 bound_to 10162
  140.4515  144.1849  150.5898 LP  0  0  0  0  0  0  0  0  0  0  0  0  # atno 17343 bound_to 10162
  156.0523  130.3715  150.1173 LP  0  0  0  0  0  0  0  0  0  0  0  0  # atno 17370 bound_to 10713
  156.9350  130.9726  151.3526 LP  0  0  0  0  0  0  0  0  0  0  0  0  # atno 17371 bound_to 10713
  141.1211  133.9460  157.2728 LP  0  0  0  0  0  0  0  0  0  0  0  0  # atno 17394 bound_to 11000
  139.9489  135.0179  156.8936 LP  0  0  0  0  0  0  0  0  0  0  0  0  # atno 17395 bound_to 11000

$$$$
