AV-unprocessed.smi:1265|AV-procd|sdf|5318|dock3
  -GOLD-   22720 4443D 1   1.00000     0.00000
 Structure written by MMmdl.
 45 47  0  0  0  0  0  0  0  0  2 V2000
  145.3464  138.3715  153.4546 O   0  0  0  0  0  0  0  0  0  0  0  0
  146.4099  137.9018  153.0503 C   0  0  0  0  0  0  0  0  0  0  0  0
  146.5280  136.6737  152.5266 N   0  0  0  0  0  0  0  0  0  0  0  0
  145.4411  135.7111  152.3480 C   0  0  0  0  0  0  0  0  0  0  0  0
  145.9028  134.2308  152.5591 C   0  0  2  0  0  0  0  0  0  0  0  0
  147.1892  134.1928  153.3215 N   0  0  0  0  0  0  0  0  0  0  0  0
  147.8966  132.9041  153.3326 C   0  0  0  0  0  0  0  0  0  0  0  0
  149.2444  132.9801  154.0704 C   0  0  0  0  0  0  0  0  0  0  0  0
  149.0422  133.4469  155.3973 O   0  0  0  0  0  0  0  0  0  0  0  0
  148.4312  134.7293  155.4263 C   0  0  0  0  0  0  0  0  0  0  0  0
  147.0740  134.6725  154.7057 C   0  0  0  0  0  0  0  0  0  0  0  0
  145.9910  133.5494  151.1624 C   0  0  0  0  0  0  0  0  0  0  0  0
  144.5769  133.3540  150.6050 C   0  0  0  0  0  0  0  0  0  0  0  0
  143.4815  133.0574  152.0124 S   0  0  0  0  0  0  0  0  0  0  0  0
  144.7487  133.4580  153.2477 C   0  0  0  0  0  0  0  0  0  0  0  0
  147.5898  138.5458  153.0463 N   0  0  0  0  0  0  0  0  0  0  0  0
  147.8871  139.8496  153.5278 C   0  0  0  0  0  0  0  0  0  0  0  0
  149.0993  140.0266  154.2311 C   0  0  0  0  0  0  0  0  0  0  0  0
  149.4278  141.2987  154.7423 C   0  0  0  0  0  0  0  0  0  0  0  0
  148.5789  142.3338  154.5665 N   0  3  0  0  0  0  0  0  0  0  0  0
  147.4024  142.2103  153.9153 C   0  0  0  0  0  0  0  0  0  0  0  0
  147.0203  140.9628  153.3811 C   0  0  0  0  0  0  0  0  0  0  0  0
  147.4394  136.3804  152.2064 H   0  0  0  0  0  0  0  0  0  0  0  0
  144.6517  135.9771  153.0495 H   0  0  0  0  0  0  0  0  0  0  0  0
  144.9681  135.8539  151.3766 H   0  0  0  0  0  0  0  0  0  0  0  0
  147.2851  132.1336  153.8005 H   0  0  0  0  0  0  0  0  0  0  0  0
  148.1185  132.5708  152.3216 H   0  0  0  0  0  0  0  0  0  0  0  0
  149.7110  131.9956  154.1068 H   0  0  0  0  0  0  0  0  0  0  0  0
  149.9352  133.6416  153.5454 H   0  0  0  0  0  0  0  0  0  0  0  0
  148.2958  135.0346  156.4639 H   0  0  0  0  0  0  0  0  0  0  0  0
  149.0868  135.4656  154.9587 H   0  0  0  0  0  0  0  0  0  0  0  0
  146.6504  135.6736  154.7405 H   0  0  0  0  0  0  0  0  0  0  0  0
  146.4004  134.0264  155.2697 H   0  0  0  0  0  0  0  0  0  0  0  0
  146.6303  134.0889  150.4643 H   0  0  0  0  0  0  0  0  0  0  0  0
  146.4038  132.5460  151.2392 H   0  0  0  0  0  0  0  0  0  0  0  0
  144.2396  134.2461  150.0771 H   0  0  0  0  0  0  0  0  0  0  0  0
  144.5311  132.5240  149.8995 H   0  0  0  0  0  0  0  0  0  0  0  0
  145.0914  132.5074  153.6530 H   0  0  0  0  0  0  0  0  0  0  0  0
  144.3058  134.0133  154.0751 H   0  0  0  0  0  0  0  0  0  0  0  0
  148.3548  138.0643  152.5967 H   0  0  0  0  0  0  0  0  0  0  0  0
  149.7774  139.1977  154.3751 H   0  0  0  0  0  0  0  0  0  0  0  0
  150.3362  141.5163  155.2849 H   0  0  0  0  0  0  0  0  0  0  0  0
  146.8015  143.1057  153.8475 H   0  0  0  0  0  0  0  0  0  0  0  0
  146.0663  140.8820  152.8826 H   0  0  0  0  0  0  0  0  0  0  0  0
  148.8345  143.2460  154.9457 H   0  0  0  0  0  0  0  0  0  0  0  0
  1  2  2  0  0  0  0
  2  3  1  0  0  0  0
  2 16  1  0  0  0  0
  3  4  1  0  0  0  0
  3 23  1  0  0  0  0
  4  5  1  0  0  0  0
  4 24  1  0  0  0  0
  4 25  1  0  0  0  0
  5 15  1  0  0  0  0
  5  6  1  0  0  0  0
  5 12  1  0  0  0  0
  6 11  1  0  0  0  0
  6  7  1  0  0  0  0
  7  8  1  0  0  0  0
  7 26  1  0  0  0  0
  7 27  1  0  0  0  0
  8  9  1  0  0  0  0
  8 28  1  0  0  0  0
  8 29  1  0  0  0  0
  9 10  1  0  0  0  0
 10 11  1  0  0  0  0
 10 30  1  0  0  0  0
 10 31  1  0  0  0  0
 11 32  1  0  0  0  0
 11 33  1  0  0  0  0
 12 13  1  0  0  0  0
 12 34  1  0  0  0  0
 12 35  1  0  0  0  0
 13 14  1  0  0  0  0
 13 36  1  0  0  0  0
 13 37  1  0  0  0  0
 14 15  1  0  0  0  0
 15 38  1  0  0  0  0
 15 39  1  0  0  0  0
 16 17  1  0  0  0  0
 16 40  1  0  0  0  0
 17 22  1  0  0  0  0
 17 18  2  0  0  0  0
 18 19  1  0  0  0  0
 18 41  1  0  0  0  0
 19 20  2  0  0  0  0
 19 42  1  0  0  0  0
 20 21  1  0  0  0  0
 20 45  1  0  0  0  0
 21 22  2  0  0  0  0
 21 43  1  0  0  0  0
 22 44  1  0  0  0  0
M  CHG  1  20   1
M  END
> <s_m_source_file>
AV-unprocessed.smi

> <i_m_source_file_index>
1265

> <i_lp_mmshare_version>
43012

> <i_f3d_flags>
0

> <s_epik_input>
W2NIXTFbY0hdbltjSF1bY0hdYzFbTkhdQyg9TylbTkhdW0NIMl1bQ0BdMihbQ0gyXVtDSDJdU1tDSDJdMilOM1tDSDJdW0NIMl1PW0NIMl1bQ0gyXTM=

> <s_epik_cmdline>
J2VwaWtfcHl0aG9uJywgJy1waCcsICc3LjAnLCAnLXRuJywgJzgnLCAnLW1hJywgJzIwMCcsICctbWV0YWxfYmluZGluZycsICctaW1hZScsICc8aW5maWxlLm1hZT4nLCAnLW9tYWUnLCAnPG91dGZpbGUubWFlPic=

> <r_epik_Ionization_Penalty>
1.06168

> <r_epik_Ionization_Penalty_Charging>
1.04215

> <r_epik_Ionization_Penalty_Neutral>
0.019527

> <r_epik_State_Penalty>
1.12733

> <r_epik_Charging_Adjusted_Penalty>
2.16948

> <i_epik_Tot_Q>
1

> <i_epik_Tot_abs_Q>
1

> <r_epik_Metal_State_Penalty>
1.22116

> <b_epik_Metal_Only>
0

> <s_lp_Force_Field>
OPLS_2005

> <r_lp_Energy>
64.854

> <b_lp_Chiralities_Consistent>
1

> <s_lp_Variant>
AV-unprocessed.smi:1265-4

> <Gold.Version>
5.8.1

> <Gold.Id.Protein>
6NUR|6NUR_protein|mol2

> <Gold.PLP.Fitness>
42.9713

> <Gold.PLP.PLP>
-34.3439

> <Gold.PLP.part.hbond>
-3.8379

> <Gold.PLP.part.metal>
0.0000

> <Gold.PLP.part.buried>
-3.1197

> <Gold.PLP.part.nonpolar>
-32.0690

> <Gold.PLP.part.repulsive>
4.0311

> <Gold.PLP.ligand.clash>
0.0000

> <Gold.PLP.ligand.torsion>
1.5049

> <Gold.PLP.Chemscore.Hbond>
3.8480

> <Gold.PLP.Chemscore.CHOScore>
0.0000

> <Gold.PLP.Chemscore.Metal>
0.0000

> <Gold.Chemscore.Hbonds>
donor molecule, donor type, donor heavy atom, donor atom, acceptor molecule, acceptor atom, score
      L1  H     3    23       P1  7948  1.00
      L1  H    16    40       P1  7948  0.87
      L1  H    20    45       P1  8028  2.00

> <Gold.PLP.Chemscore.Internal.Correction>
0.0932

> <Gold.Rescore>
     Score         DG    S(hbond)    S(metal)    S(lipo)     H(rot)  DE(clash)    DE(int)     intcor
     17.09     -21.07       2.82        0.00      85.10       1.47       1.55       2.42       ----

> <Gold.Chemscore.Fitness>
17.0930

> <Gold.Chemscore.DG>
-21.0662

> <Gold.Chemscore.ZeroCoef>
-5.4800

> <Gold.Chemscore.Hbond>
2.8156

> <Gold.Chemscore.Metal>
0.0000

> <Gold.Chemscore.Lipo>
85.0972

> <Gold.Chemscore.Internal_Hbond>
0.0000

> <Gold.Chemscore.DEClash>
1.5543

> <Gold.Chemscore.DEInternal>
2.4188

> <Gold.Chemscore.Rot>
1.4743

> <Gold.Chemscore.Internal.Correction>
   9.000000E+99

> <Gold.Chemscore.Hbonds>
donor molecule, donor type, donor heavy atom, donor atom, acceptor molecule, acceptor atom, score
      L1  H     3    23       P1  7948  0.94
      L1  H    16    40       P1  7948  0.81
      L1  H    20    45       P1  8028  0.99

> <Gold.Chemscore.Hbond.Weighted>
-9.4041

> <Gold.Chemscore.Metal.Weighted>
-0.0000

> <Gold.Chemscore.Lipo.Weighted>
-9.9564

> <Gold.Chemscore.Internal_Hbond.Weighted>
0.0000

> <Gold.Chemscore.DEClash.Weighted>
1.5543

> <Gold.Chemscore.DEInternal.Weighted>
2.4188

> <Gold.Chemscore.Rot.Weighted>
3.7742

> <Gold.Chemscore.Internal.Correction.Weighted>
   9.000000E+99

> <Gold.Protein.RotatedTorsions>
[ 6907 6896 6895 6894 ] final  -50.40 input  -60.11 | X-H torsion
[ 7974 7965 7964 7962 ] final   77.27 input  175.53 | X-H torsion
[ 8008 7997 7996 7995 ] final  -73.08 input   59.86 | X-H torsion
[ 10167 10162 10161 10158 ] final  110.12 input  -65.29 | X-H torsion
[ 10718 10713 10712 10709 ] final  -31.98 input   66.30 | X-H torsion
[ 10763 10752 10751 10750 ] final   95.04 input  -60.55 | X-H torsion
[ 11005 11000 10999 10996 ] final   17.73 input  -57.11 | X-H torsion

> <Gold.Protein.ActiveResidues>
 VAL166  LYS551  ARG553  GLY616  TRP617  ASP618  TYR619  PRO620  LYS621  CYS622 
 ASP623  PHE694  ASN695  SER759  ASP760  ASP761  ALA762  ILE779  LEU786  VAL792 
 PHE793  MET794  SER795  GLU796  ALA797  LYS798  CYS799  TRP800  GLU811  SER814 

> <Gold.Protein.RotatedAtoms>
  150.8710  134.8084  159.7154 H   0  0  0  0  0  0  0  0  0  0  0  0  # atno 6907 bound_to 6896
  152.4715  134.4946  159.9716 H   0  0  0  0  0  0  0  0  0  0  0  0  # atno 6908 bound_to 6896
  151.5035  133.3461  159.2908 H   0  0  0  0  0  0  0  0  0  0  0  0  # atno 6909 bound_to 6896
  145.6921  139.2556  143.1753 H   0  0  0  0  0  0  0  0  0  0  0  0  # atno 7974 bound_to 7965
  154.5218  140.0785  156.8186 H   0  0  0  0  0  0  0  0  0  0  0  0  # atno 8008 bound_to 7997
  155.3559  140.3415  155.4222 H   0  0  0  0  0  0  0  0  0  0  0  0  # atno 8009 bound_to 7997
  156.1689  140.1613  156.8469 H   0  0  0  0  0  0  0  0  0  0  0  0  # atno 8010 bound_to 7997
  139.6713  144.7125  151.1683 H   0  0  0  0  0  0  0  0  0  0  0  0  # atno 10167 bound_to 10162
  156.3806  130.4355  149.7472 H   0  0  0  0  0  0  0  0  0  0  0  0  # atno 10718 bound_to 10713
  153.2486  135.4268  155.0773 H   0  0  0  0  0  0  0  0  0  0  0  0  # atno 10763 bound_to 10752
  154.8372  135.3420  154.6546 H   0  0  0  0  0  0  0  0  0  0  0  0  # atno 10764 bound_to 10752
  153.6968  135.7030  153.5131 H   0  0  0  0  0  0  0  0  0  0  0  0  # atno 10765 bound_to 10752
  140.4327  134.1403  155.7682 H   0  0  0  0  0  0  0  0  0  0  0  0  # atno 11005 bound_to 11000
  146.0872  140.7697  142.9613 LP  0  0  0  0  0  0  0  0  0  0  0  0  # atno 17320 bound_to 7965
  144.6993  140.3581  143.7169 LP  0  0  0  0  0  0  0  0  0  0  0  0  # atno 17321 bound_to 7965
  140.7619  143.5840  150.8865 LP  0  0  0  0  0  0  0  0  0  0  0  0  # atno 17342 bound_to 10162
  139.9505  143.6277  152.3030 LP  0  0  0  0  0  0  0  0  0  0  0  0  # atno 17343 bound_to 10162
  156.4564  130.7931  151.2952 LP  0  0  0  0  0  0  0  0  0  0  0  0  # atno 17370 bound_to 10713
  157.7492  131.0079  150.3209 LP  0  0  0  0  0  0  0  0  0  0  0  0  # atno 17371 bound_to 10713
  141.1739  133.8554  157.1484 LP  0  0  0  0  0  0  0  0  0  0  0  0  # atno 17394 bound_to 11000
  140.0123  134.9982  157.0421 LP  0  0  0  0  0  0  0  0  0  0  0  0  # atno 17395 bound_to 11000

$$$$
