AV-unprocessed.smi:3071|AV-procd|sdf|11715|dock10
  -GOLD-   2272017113D 1   1.00000     0.00000
 Structure written by MMmdl.
 29 30  0  0  0  0  0  0  0  0  3 V2000
  151.4468  139.3633  155.0222 C   0  0  0  0  0  0  0  0  0  0  0  0
  150.2797  140.2961  154.9735 C   0  0  0  0  0  0  0  0  0  0  0  0
  149.4406  140.4368  153.9407 N   0  3  0  0  0  0  0  0  0  0  0  0
  148.4901  141.3794  154.2231 C   0  0  0  0  0  0  0  0  0  0  0  0
  148.7605  141.8349  155.4868 C   0  0  0  0  0  0  0  0  0  0  0  0
  149.8648  141.1488  155.9264 N   0  0  0  0  0  0  0  0  0  0  0  0
  150.5238  141.3016  157.2316 C   0  0  0  0  0  0  0  0  0  0  0  0
  151.2012  142.6746  157.4045 C   0  0  2  0  0  0  0  0  0  0  0  0
  152.2689  142.7388  158.5011 C   0  0  0  0  0  0  0  0  0  0  0  0
  152.3188  144.2247  158.8354 C   0  0  0  0  0  0  0  0  0  0  0  0
  150.8611  144.6697  158.6933 C   0  0  0  0  0  0  0  0  0  0  0  0
  150.2278  143.7332  157.7422 N   0  3  0  0  0  0  0  0  0  0  0  0
  151.4712  138.7763  154.1034 H   0  0  0  0  0  0  0  0  0  0  0  0
  151.3356  138.7014  155.8804 H   0  0  0  0  0  0  0  0  0  0  0  0
  152.3612  139.9501  155.1117 H   0  0  0  0  0  0  0  0  0  0  0  0
  147.7137  141.6487  153.5216 H   0  0  0  0  0  0  0  0  0  0  0  0
  148.2586  142.5774  156.0905 H   0  0  0  0  0  0  0  0  0  0  0  0
  149.7859  141.1298  158.0160 H   0  0  0  0  0  0  0  0  0  0  0  0
  151.2616  140.5026  157.3197 H   0  0  0  0  0  0  0  0  0  0  0  0
  151.6671  142.9704  156.4637 H   0  0  0  0  0  0  0  0  0  0  0  0
  151.9496  142.1752  159.3792 H   0  0  0  0  0  0  0  0  0  0  0  0
  153.2337  142.3453  158.1793 H   0  0  0  0  0  0  0  0  0  0  0  0
  152.7282  144.4247  159.8261 H   0  0  0  0  0  0  0  0  0  0  0  0
  152.9390  144.7459  158.1046 H   0  0  0  0  0  0  0  0  0  0  0  0
  150.3443  144.5890  159.6504 H   0  0  0  0  0  0  0  0  0  0  0  0
  150.7765  145.7016  158.3514 H   0  0  0  0  0  0  0  0  0  0  0  0
  149.9392  144.2184  156.9043 H   0  0  0  0  0  0  0  0  0  0  0  0
  149.4206  143.3217  158.1892 H   0  0  0  0  0  0  0  0  0  0  0  0
  149.5042  139.9195  153.0726 H   0  0  0  0  0  0  0  0  0  0  0  0
  1  2  1  0  0  0  0
  1 13  1  0  0  0  0
  1 14  1  0  0  0  0
  1 15  1  0  0  0  0
  2  6  1  0  0  0  0
  2  3  2  0  0  0  0
  3  4  1  0  0  0  0
  3 29  1  0  0  0  0
  4  5  2  0  0  0  0
  4 16  1  0  0  0  0
  5  6  1  0  0  0  0
  5 17  1  0  0  0  0
  6  7  1  0  0  0  0
  7  8  1  0  0  0  0
  7 18  1  0  0  0  0
  7 19  1  0  0  0  0
  8 12  1  0  0  0  0
  8  9  1  0  0  0  0
  8 20  1  0  0  0  0
  9 10  1  0  0  0  0
  9 21  1  0  0  0  0
  9 22  1  0  0  0  0
 10 11  1  0  0  0  0
 10 23  1  0  0  0  0
 10 24  1  0  0  0  0
 11 12  1  0  0  0  0
 11 25  1  0  0  0  0
 11 26  1  0  0  0  0
 12 27  1  0  0  0  0
 12 28  1  0  0  0  0
M  CHG  1   3   1
M  CHG  1  12   1
M  END
> <s_m_source_file>
AV-unprocessed.smi

> <i_m_source_file_index>
3071

> <i_lp_mmshare_version>
43012

> <i_f3d_flags>
0

> <s_epik_input>
W0NIM11jMW5bY0hdW2NIXW4xW0NIMl1bQ0BASF0yW0NIMl1bQ0gyXVtDSDJdW05IXTI=

> <s_epik_cmdline>
J2VwaWtfcHl0aG9uJywgJy1waCcsICc3LjAnLCAnLXRuJywgJzgnLCAnLW1hJywgJzIwMCcsICctbWV0YWxfYmluZGluZycsICctaW1hZScsICc8aW5maWxlLm1hZT4nLCAnLW9tYWUnLCAnPG91dGZpbGUubWFlPic=

> <r_lp_tautomer_probability>
1

> <r_epik_Ionization_Penalty>
0.770167

> <r_epik_Ionization_Penalty_Charging>
0.000985251

> <r_epik_Ionization_Penalty_Neutral>
0.769181

> <r_epik_State_Penalty>
0.493256

> <r_epik_Charging_Adjusted_Penalty>
0.494241

> <i_epik_Tot_Q>
2

> <i_epik_Tot_abs_Q>
2

> <r_epik_Metal_State_Penalty>
4.24699

> <b_epik_Metal_Only>
0

> <s_lp_Force_Field>
OPLS_2005

> <r_lp_Energy>
34.2939

> <b_lp_Chiralities_Consistent>
1

> <s_lp_Variant>
AV-unprocessed.smi:3071-3

> <Gold.Version>
5.8.1

> <Gold.Id.Protein>
6NUR|6NUR_protein|mol2

> <Gold.PLP.Fitness>
38.6148

> <Gold.PLP.PLP>
-28.2877

> <Gold.PLP.part.hbond>
-2.4545

> <Gold.PLP.part.metal>
0.0000

> <Gold.PLP.part.buried>
0.0647

> <Gold.PLP.part.nonpolar>
-26.5231

> <Gold.PLP.part.repulsive>
0.9665

> <Gold.PLP.ligand.clash>
0.0000

> <Gold.PLP.ligand.torsion>
0.2245

> <Gold.PLP.Chemscore.Hbond>
2.8160

> <Gold.PLP.Chemscore.CHOScore>
0.7759

> <Gold.PLP.Chemscore.Metal>
0.0000

> <Gold.Chemscore.Hbonds>
donor molecule, donor type, donor heavy atom, donor atom, acceptor molecule, acceptor atom, score
      L1  H     3    29       P1  7957  0.91
      L1  H    12    27       P1  8028  2.00
      L1  C     5    17       P1  8028  0.70

> <Gold.PLP.Chemscore.Internal.Correction>
0.0004

> <Gold.Rescore>
     Score         DG    S(hbond)    S(metal)    S(lipo)     H(rot)  DE(clash)    DE(int)     intcor
     15.95     -16.45       1.76        0.00      70.74       1.25       0.19       0.31       ----

> <Gold.Chemscore.Fitness>
15.9503

> <Gold.Chemscore.DG>
-16.4540

> <Gold.Chemscore.ZeroCoef>
-5.4800

> <Gold.Chemscore.Hbond>
1.7638

> <Gold.Chemscore.Metal>
0.0000

> <Gold.Chemscore.Lipo>
70.7428

> <Gold.Chemscore.Internal_Hbond>
0.0000

> <Gold.Chemscore.DEClash>
0.1902

> <Gold.Chemscore.DEInternal>
0.3134

> <Gold.Chemscore.Rot>
1.2477

> <Gold.Chemscore.Internal.Correction>
   9.000000E+99

> <Gold.Chemscore.Hbonds>
donor molecule, donor type, donor heavy atom, donor atom, acceptor molecule, acceptor atom, score
      L1  H     3    29       P1  7957  0.89
      L1  H    12    27       P1  8028  0.85

> <Gold.Chemscore.Hbond.Weighted>
-5.8911

> <Gold.Chemscore.Metal.Weighted>
-0.0000

> <Gold.Chemscore.Lipo.Weighted>
-8.2769

> <Gold.Chemscore.Internal_Hbond.Weighted>
0.0000

> <Gold.Chemscore.DEClash.Weighted>
0.1902

> <Gold.Chemscore.DEInternal.Weighted>
0.3134

> <Gold.Chemscore.Rot.Weighted>
3.1941

> <Gold.Chemscore.Internal.Correction.Weighted>
   9.000000E+99

> <Gold.Protein.RotatedTorsions>
[ 6907 6896 6895 6894 ] final   25.94 input  -60.11 | X-H torsion
[ 7974 7965 7964 7962 ] final   89.20 input  175.53 | X-H torsion
[ 8008 7997 7996 7995 ] final   97.58 input   59.86 | X-H torsion
[ 10167 10162 10161 10158 ] final   12.30 input  -65.29 | X-H torsion
[ 10718 10713 10712 10709 ] final -109.74 input   66.30 | X-H torsion
[ 10763 10752 10751 10750 ] final   15.06 input  -60.55 | X-H torsion
[ 11005 11000 10999 10996 ] final  162.06 input  -57.11 | X-H torsion

> <Gold.Protein.ActiveResidues>
 VAL166  LYS551  ARG553  GLY616  TRP617  ASP618  TYR619  PRO620  LYS621  CYS622 
 ASP623  PHE694  ASN695  SER759  ASP760  ASP761  ALA762  ILE779  LEU786  VAL792 
 PHE793  MET794  SER795  GLU796  ALA797  LYS798  CYS799  TRP800  GLU811  SER814 

> <Gold.Protein.RotatedAtoms>
  151.9800  135.0033  160.0556 H   0  0  0  0  0  0  0  0  0  0  0  0  # atno 6907 bound_to 6896
  152.1705  133.4635  159.4915 H   0  0  0  0  0  0  0  0  0  0  0  0  # atno 6908 bound_to 6896
  150.6901  134.1877  159.4316 H   0  0  0  0  0  0  0  0  0  0  0  0  # atno 6909 bound_to 6896
  145.5355  139.2285  143.2595 H   0  0  0  0  0  0  0  0  0  0  0  0  # atno 7974 bound_to 7965
  156.0916  140.3256  155.7823 H   0  0  0  0  0  0  0  0  0  0  0  0  # atno 8008 bound_to 7997
  155.4987  140.0567  157.2959 H   0  0  0  0  0  0  0  0  0  0  0  0  # atno 8009 bound_to 7997
  154.4641  140.1980  156.0182 H   0  0  0  0  0  0  0  0  0  0  0  0  # atno 8010 bound_to 7997
  140.6077  143.8474  150.7031 H   0  0  0  0  0  0  0  0  0  0  0  0  # atno 10167 bound_to 10162
  156.0553  130.5779  150.8142 H   0  0  0  0  0  0  0  0  0  0  0  0  # atno 10718 bound_to 10713
  153.1562  135.6787  153.8809 H   0  0  0  0  0  0  0  0  0  0  0  0  # atno 10763 bound_to 10752
  153.8219  135.3129  155.3412 H   0  0  0  0  0  0  0  0  0  0  0  0  # atno 10764 bound_to 10752
  154.7899  135.4841  154.0117 H   0  0  0  0  0  0  0  0  0  0  0  0  # atno 10765 bound_to 10752
  140.2220  134.8189  157.3230 H   0  0  0  0  0  0  0  0  0  0  0  0  # atno 11005 bound_to 11000
  146.2016  140.6173  142.9100 LP  0  0  0  0  0  0  0  0  0  0  0  0  # atno 17320 bound_to 7965
  144.7604  140.5408  143.6739 LP  0  0  0  0  0  0  0  0  0  0  0  0  # atno 17321 bound_to 7965
  140.2035  143.3940  152.1773 LP  0  0  0  0  0  0  0  0  0  0  0  0  # atno 17342 bound_to 10162
  139.5337  144.7187  151.4967 LP  0  0  0  0  0  0  0  0  0  0  0  0  # atno 17343 bound_to 10162
  157.5518  131.0944  150.9685 LP  0  0  0  0  0  0  0  0  0  0  0  0  # atno 17370 bound_to 10713
  156.9943  130.5575  149.5306 LP  0  0  0  0  0  0  0  0  0  0  0  0  # atno 17371 bound_to 10713
  140.1840  134.4454  155.7755 LP  0  0  0  0  0  0  0  0  0  0  0  0  # atno 17394 bound_to 11000
  141.2222  133.6996  156.7916 LP  0  0  0  0  0  0  0  0  0  0  0  0  # atno 17395 bound_to 11000

$$$$
