AV-unprocessed.smi:1578|AV-procd|sdf|6353|dock10
  -GOLD-   22720 6573D 1   1.00000     0.00000
 Structure written by MMmdl.
 45 46  0  0  0  0  0  0  0  0  2 V2000
  154.6371  135.8258  158.9422 C   0  0  0  0  0  0  0  0  0  0  0  0
  154.5368  137.3043  158.5435 C   0  0  1  0  0  0  0  0  0  0  0  0
  154.3075  138.2081  159.7781 C   0  0  0  0  0  0  0  0  0  0  0  0
  153.9064  139.5946  159.4248 N   0  3  0  0  0  0  0  0  0  0  0  0
  152.5427  139.6884  158.8503 C   0  0  0  0  0  0  0  0  0  0  0  0
  152.2444  141.1377  158.4344 C   0  0  0  0  0  0  0  0  0  0  0  0
  152.3736  141.9885  159.5669 O   0  0  0  0  0  0  0  0  0  0  0  0
  153.6933  141.9740  160.0971 C   0  0  0  0  0  0  0  0  0  0  0  0
  154.0607  140.5488  160.5481 C   0  0  0  0  0  0  0  0  0  0  0  0
  155.7536  137.6953  157.8320 N   0  0  0  0  0  0  0  0  0  0  0  0
  156.1864  137.1809  156.6701 C   0  0  0  0  0  0  0  0  0  0  0  0
  155.6307  136.2474  156.0914 O   0  0  0  0  0  0  0  0  0  0  0  0
  157.4268  137.8409  156.0563 C   0  0  0  0  0  0  0  0  0  0  0  0
  157.5581  137.5472  154.6190 N   0  0  0  0  0  0  0  0  0  0  0  0
  158.4530  136.5253  154.2464 C   0  0  0  0  0  0  0  0  0  0  0  0
  158.6606  136.1643  152.9660 C   0  0  0  0  0  0  0  0  0  0  0  0
  159.6252  135.0437  152.6121 C   0  0  0  0  0  0  0  0  0  0  0  0
  159.7346  134.8888  151.2927 F   0  0  0  0  0  0  0  0  0  0  0  0
  160.8345  135.3086  153.1050 F   0  0  0  0  0  0  0  0  0  0  0  0
  159.2100  133.8912  153.1377 F   0  0  0  0  0  0  0  0  0  0  0  0
  157.8988  136.8797  151.9601 C   0  0  0  0  0  0  0  0  0  0  0  0
  157.0350  137.8561  152.2999 C   0  0  0  0  0  0  0  0  0  0  0  0
  156.8261  138.2428  153.6966 C   0  0  0  0  0  0  0  0  0  0  0  0
  156.0373  139.1320  154.0197 O   0  0  0  0  0  0  0  0  0  0  0  0
  153.7325  135.4968  159.4544 H   0  0  0  0  0  0  0  0  0  0  0  0
  155.4806  135.6491  159.6106 H   0  0  0  0  0  0  0  0  0  0  0  0
  154.7678  135.1902  158.0658 H   0  0  0  0  0  0  0  0  0  0  0  0
  153.6799  137.3924  157.8745 H   0  0  0  0  0  0  0  0  0  0  0  0
  153.5661  137.7689  160.4475 H   0  0  0  0  0  0  0  0  0  0  0  0
  155.2401  138.2480  160.3433 H   0  0  0  0  0  0  0  0  0  0  0  0
  152.4460  139.0352  157.9839 H   0  0  0  0  0  0  0  0  0  0  0  0
  151.8096  139.3520  159.5850 H   0  0  0  0  0  0  0  0  0  0  0  0
  152.9170  141.4615  157.6381 H   0  0  0  0  0  0  0  0  0  0  0  0
  151.2286  141.2163  158.0468 H   0  0  0  0  0  0  0  0  0  0  0  0
  154.3970  142.3433  159.3504 H   0  0  0  0  0  0  0  0  0  0  0  0
  153.7415  142.6593  160.9436 H   0  0  0  0  0  0  0  0  0  0  0  0
  153.4236  140.2421  161.3791 H   0  0  0  0  0  0  0  0  0  0  0  0
  155.0901  140.5352  160.9082 H   0  0  0  0  0  0  0  0  0  0  0  0
  156.2881  138.4513  158.2357 H   0  0  0  0  0  0  0  0  0  0  0  0
  157.3919  138.9220  156.2064 H   0  0  0  0  0  0  0  0  0  0  0  0
  158.3015  137.4998  156.6113 H   0  0  0  0  0  0  0  0  0  0  0  0
  158.9618  136.0444  155.0694 H   0  0  0  0  0  0  0  0  0  0  0  0
  158.0205  136.6317  150.9162 H   0  0  0  0  0  0  0  0  0  0  0  0
  156.4839  138.3680  151.5247 H   0  0  0  0  0  0  0  0  0  0  0  0
  154.5492  139.9011  158.7079 H   0  0  0  0  0  0  0  0  0  0  0  0
  1  2  1  0  0  0  0
  1 25  1  0  0  0  0
  1 26  1  0  0  0  0
  1 27  1  0  0  0  0
  2  3  1  0  0  0  0
  2 10  1  0  0  0  0
  2 28  1  0  0  0  0
  3  4  1  0  0  0  0
  3 29  1  0  0  0  0
  3 30  1  0  0  0  0
  4  9  1  0  0  0  0
  4  5  1  0  0  0  0
  4 45  1  0  0  0  0
  5  6  1  0  0  0  0
  5 31  1  0  0  0  0
  5 32  1  0  0  0  0
  6  7  1  0  0  0  0
  6 33  1  0  0  0  0
  6 34  1  0  0  0  0
  7  8  1  0  0  0  0
  8  9  1  0  0  0  0
  8 35  1  0  0  0  0
  8 36  1  0  0  0  0
  9 37  1  0  0  0  0
  9 38  1  0  0  0  0
 10 11  1  0  0  0  0
 10 39  1  0  0  0  0
 11 12  2  0  0  0  0
 11 13  1  0  0  0  0
 13 14  1  0  0  0  0
 13 40  1  0  0  0  0
 13 41  1  0  0  0  0
 14 23  1  0  0  0  0
 14 15  1  0  0  0  0
 15 16  2  0  0  0  0
 15 42  1  0  0  0  0
 16 17  1  0  0  0  0
 16 21  1  0  0  0  0
 17 18  1  0  0  0  0
 17 19  1  0  0  0  0
 17 20  1  0  0  0  0
 21 22  2  0  0  0  0
 21 43  1  0  0  0  0
 22 23  1  0  0  0  0
 22 44  1  0  0  0  0
 23 24  2  0  0  0  0
M  CHG  1   4   1
M  END
> <s_m_source_file>
AV-unprocessed.smi

> <i_m_source_file_index>
1578

> <i_lp_mmshare_version>
43012

> <i_f3d_flags>
0

> <s_epik_input>
W0NIMl0xW0NIMl1PW0NIMl1bQ0gyXU4xW0NIMl1bQ0BASF0oW0NIM10pW05IXUMoPU8pW0NIMl1uMltjSF1jKEMoRikoRilGKVtjSF1bY0hdYzI9Tw==

> <s_epik_cmdline>
J2VwaWtfcHl0aG9uJywgJy1waCcsICc3LjAnLCAnLXRuJywgJzgnLCAnLW1hJywgJzIwMCcsICctbWV0YWxfYmluZGluZycsICctaW1hZScsICc8aW5maWxlLm1hZT4nLCAnLW9tYWUnLCAnPG91dGZpbGUubWFlPic=

> <r_lp_tautomer_probability>
1

> <r_epik_Ionization_Penalty>
0.656654

> <r_epik_Ionization_Penalty_Charging>
0.656653

> <r_epik_Ionization_Penalty_Neutral>
9.12373e-08

> <r_epik_State_Penalty>
0.675641

> <r_epik_Charging_Adjusted_Penalty>
1.33229

> <i_epik_Tot_Q>
1

> <i_epik_Tot_abs_Q>
1

> <r_epik_Metal_State_Penalty>
0.675695

> <b_epik_Metal_Only>
0

> <s_lp_Force_Field>
OPLS_2005

> <r_lp_Energy>
32.4409

> <b_lp_Chiralities_Consistent>
1

> <s_lp_Variant>
AV-unprocessed.smi:1578-4

> <Gold.Version>
5.8.1

> <Gold.Id.Protein>
6NUR|6NUR_protein|mol2

> <Gold.PLP.Fitness>
46.8120

> <Gold.PLP.PLP>
-42.1728

> <Gold.PLP.part.hbond>
-2.0000

> <Gold.PLP.part.metal>
0.0000

> <Gold.PLP.part.buried>
-5.2400

> <Gold.PLP.part.nonpolar>
-35.7882

> <Gold.PLP.part.repulsive>
0.2016

> <Gold.PLP.ligand.clash>
0.0000

> <Gold.PLP.ligand.torsion>
0.7610

> <Gold.PLP.Chemscore.Hbond>
1.9920

> <Gold.PLP.Chemscore.CHOScore>
0.0000

> <Gold.PLP.Chemscore.Metal>
0.0000

> <Gold.Chemscore.Hbonds>
donor molecule, donor type, donor heavy atom, donor atom, acceptor molecule, acceptor atom, score
      P1  H  7997  8009       L1    24  1.00
      P1  H 10752 10765       L1    12  0.98

> <Gold.PLP.Chemscore.Internal.Correction>
0.1851

> <Gold.Rescore>
     Score         DG    S(hbond)    S(metal)    S(lipo)     H(rot)  DE(clash)    DE(int)     intcor
     17.30     -18.29       1.89        0.00     103.09       2.17       0.02       0.98       ----

> <Gold.Chemscore.Fitness>
17.2960

> <Gold.Chemscore.DG>
-18.2950

> <Gold.Chemscore.ZeroCoef>
-5.4800

> <Gold.Chemscore.Hbond>
1.8899

> <Gold.Chemscore.Metal>
0.0000

> <Gold.Chemscore.Lipo>
103.0931

> <Gold.Chemscore.Internal_Hbond>
0.0000

> <Gold.Chemscore.DEClash>
0.0191

> <Gold.Chemscore.DEInternal>
0.9798

> <Gold.Chemscore.Rot>
2.1716

> <Gold.Chemscore.Internal.Correction>
   9.000000E+99

> <Gold.Chemscore.Hbonds>
donor molecule, donor type, donor heavy atom, donor atom, acceptor molecule, acceptor atom, score
      P1  H  7997  8009       L1    24  0.95
      P1  H 10752 10765       L1    12  0.93

> <Gold.Chemscore.Hbond.Weighted>
-6.3122

> <Gold.Chemscore.Metal.Weighted>
-0.0000

> <Gold.Chemscore.Lipo.Weighted>
-12.0619

> <Gold.Chemscore.Internal_Hbond.Weighted>
0.0000

> <Gold.Chemscore.DEClash.Weighted>
0.0191

> <Gold.Chemscore.DEInternal.Weighted>
0.9798

> <Gold.Chemscore.Rot.Weighted>
5.5592

> <Gold.Chemscore.Internal.Correction.Weighted>
   9.000000E+99

> <Gold.Protein.RotatedTorsions>
[ 6907 6896 6895 6894 ] final  115.10 input  -60.11 | X-H torsion
[ 7974 7965 7964 7962 ] final   81.58 input  175.53 | X-H torsion
[ 8008 7997 7996 7995 ] final  -60.17 input   59.86 | X-H torsion
[ 10167 10162 10161 10158 ] final -136.50 input  -65.29 | X-H torsion
[ 10718 10713 10712 10709 ] final   92.84 input   66.30 | X-H torsion
[ 10763 10752 10751 10750 ] final  -66.12 input  -60.55 | X-H torsion
[ 11005 11000 10999 10996 ] final  165.25 input  -57.11 | X-H torsion

> <Gold.Protein.ActiveResidues>
 VAL166  LYS551  ARG553  GLY616  TRP617  ASP618  TYR619  PRO620  LYS621  CYS622 
 ASP623  PHE694  ASN695  SER759  ASP760  ASP761  ALA762  ILE779  LEU786  VAL792 
 PHE793  MET794  SER795  GLU796  ALA797  LYS798  CYS799  TRP800  GLU811  SER814 

> <Gold.Protein.RotatedAtoms>
  152.4762  133.8144  159.7020 H   0  0  0  0  0  0  0  0  0  0  0  0  # atno 6907 bound_to 6896
  150.8781  133.7401  159.2947 H   0  0  0  0  0  0  0  0  0  0  0  0  # atno 6908 bound_to 6896
  151.4914  135.1061  159.9856 H   0  0  0  0  0  0  0  0  0  0  0  0  # atno 6909 bound_to 6896
  145.6363  139.2415  143.2056 H   0  0  0  0  0  0  0  0  0  0  0  0  # atno 7974 bound_to 7965
  154.4386  140.1045  156.6232 H   0  0  0  0  0  0  0  0  0  0  0  0  # atno 8008 bound_to 7997
  155.5685  140.3489  155.4490 H   0  0  0  0  0  0  0  0  0  0  0  0  # atno 8009 bound_to 7997
  156.0407  140.1281  157.0148 H   0  0  0  0  0  0  0  0  0  0  0  0  # atno 8010 bound_to 7997
  139.8671  143.7003  152.2644 H   0  0  0  0  0  0  0  0  0  0  0  0  # atno 10167 bound_to 10162
  157.6957  131.0457  150.3943 H   0  0  0  0  0  0  0  0  0  0  0  0  # atno 10718 bound_to 10713
  154.3551  135.6128  153.5662 H   0  0  0  0  0  0  0  0  0  0  0  0  # atno 10763 bound_to 10752
  152.9796  135.5802  154.4698 H   0  0  0  0  0  0  0  0  0  0  0  0  # atno 10764 bound_to 10752
  154.4426  135.2850  155.1815 H   0  0  0  0  0  0  0  0  0  0  0  0  # atno 10765 bound_to 10752
  140.2542  134.7953  157.3530 H   0  0  0  0  0  0  0  0  0  0  0  0  # atno 11005 bound_to 11000
  146.1316  140.7178  142.9409 LP  0  0  0  0  0  0  0  0  0  0  0  0  # atno 17320 bound_to 7965
  144.7174  140.4257  143.7034 LP  0  0  0  0  0  0  0  0  0  0  0  0  # atno 17321 bound_to 7965
  139.7318  144.7580  151.0789 LP  0  0  0  0  0  0  0  0  0  0  0  0  # atno 17342 bound_to 10162
  140.7766  143.5078  150.9690 LP  0  0  0  0  0  0  0  0  0  0  0  0  # atno 17343 bound_to 10162
  156.4343  130.3978  149.6739 LP  0  0  0  0  0  0  0  0  0  0  0  0  # atno 17370 bound_to 10713
  156.3945  130.7644  151.2647 LP  0  0  0  0  0  0  0  0  0  0  0  0  # atno 17371 bound_to 10713
  140.1528  134.4828  155.7949 LP  0  0  0  0  0  0  0  0  0  0  0  0  # atno 17394 bound_to 11000
  141.2198  133.6869  156.7409 LP  0  0  0  0  0  0  0  0  0  0  0  0  # atno 17395 bound_to 11000

$$$$
