#       Name:                AV-unprocessed.smi:790
#       Creating user name   scv26
#       Creation time:       Fri Mar 27 01:17:24 2020


#       File generated by GOLD software.
#

@<TRIPOS>MOLECULE
AV-unprocessed.smi:790
    43    45     1
SMALL
NO_CHARGES


@<TRIPOS>ATOM
      1 ****        -0.3411   2.1162   0.1811 O.2            1 S1                 0.0000
      2 ****        -0.8296   0.9902   0.2740 C.2            1 S1                 0.0000
      3 ****        -2.1436   0.7136   0.3290 N.am           1 S1                 0.0000
      4 ****        -3.2373   1.6203   0.3185 C.ar           1 S1                 0.0000
      5 ****        -3.1516   2.9745   0.7228 C.ar           1 S1                 0.0000
      6 ****        -4.3131   3.7698   0.6829 C.ar           1 S1                 0.0000
      7 ****        -5.5170   3.1815   0.2485 C.ar           1 S1                 0.0000
      8 ****        -5.6160   1.8883  -0.1248 N.ar           1 S1                 0.0000
      9 ****        -4.4986   1.1317  -0.0827 C.ar           1 S1                 0.0000
     10 ****        -0.0984  -0.1316   0.3090 N.am           1 S1                 0.0000
     11 ****         1.3600  -0.1817   0.2332 C.3            1 S1                 0.0000
     12 ****         1.9041  -0.0495  -1.2117 C.3            1 S1                 0.0000
     13 ****         1.2182  -1.0473  -2.1696 C.3            1 S1                 0.0000
     14 ****         1.7752  -2.4034  -1.6975 C.3            1 S1                 0.0000
     15 ****         2.7303  -2.0013  -0.5567 C.3            1 S1                 0.0000
     16 ****         3.2843  -0.6798  -1.0770 C.3            1 S1                 0.0000
     17 ****         1.9017  -1.5652   0.6760 C.3            1 S1                 0.0000
     18 ****         2.7211  -1.4914   1.9791 C.3            1 S1                 0.0000
     19 ****         3.0884  -2.7874   2.4017 O.3            1 S1                 0.0000
     20 ****        -2.3924  -0.2647   0.3153 H              1 S1                 0.0000
     21 ****        -2.2295   3.4114   1.0734 H              1 S1                 0.0000
     22 ****        -4.2824   4.8069   0.9826 H              1 S1                 0.0000
     23 ****        -6.4258   3.7634   0.2059 H              1 S1                 0.0000
     24 ****        -4.6160   0.1014  -0.3859 H              1 S1                 0.0000
     25 ****        -0.5811  -1.0153   0.3808 H              1 S1                 0.0000
     26 ****         1.7883   0.6065   0.8565 H              1 S1                 0.0000
     27 ****         1.9064   0.9756  -1.5832 H              1 S1                 0.0000
     28 ****         0.1295  -1.0051  -2.1403 H              1 S1                 0.0000
     29 ****         1.5207  -0.8536  -3.1995 H              1 S1                 0.0000
     30 ****         0.9911  -3.0834  -1.3629 H              1 S1                 0.0000
     31 ****         2.3190  -2.8943  -2.5054 H              1 S1                 0.0000
     32 ****         3.4822  -2.7608  -0.3408 H              1 S1                 0.0000
     33 ****         3.8122  -0.7768  -2.0275 H              1 S1                 0.0000
     34 ****         3.9302  -0.1624  -0.3662 H              1 S1                 0.0000
     35 ****         1.0816  -2.2683   0.8344 H              1 S1                 0.0000
     36 ****         3.6179  -0.8842   1.8556 H              1 S1                 0.0000
     37 ****         2.1278  -1.0306   2.7695 H              1 S1                 0.0000
     38 ****         3.5835  -2.7134   3.2032 H              1 S1                 0.0000
     39 ****        -0.9372   2.9181   0.1404 LP             1 S1                 0.0000
     40 ****         0.6519   2.2291   0.1463 LP             1 S1                 0.0000
     41 ****        -6.4892   1.5028  -0.4231 LP             1 S1                 0.0000
     42 ****         3.6488  -3.2251   1.6985 LP             1 S1                 0.0000
     43 ****         2.2672  -3.3350   2.5621 LP             1 S1                 0.0000
@<TRIPOS>BOND
    1    1    2 2     
    2    2    3 am    
    3    2   10 am    
    4    3    4 1     
    5    3   20 1     
    6    4    9 ar    
    7    4    5 ar    
    8    5    6 ar    
    9    5   21 1     
   10    6    7 ar    
   11    6   22 1     
   12    7    8 ar    
   13    7   23 1     
   14    8    9 ar    
   15    9   24 1     
   16   10   11 1     
   17   10   25 1     
   18   11   17 1     
   19   11   12 1     
   20   11   26 1     
   21   12   16 1     
   22   12   13 1     
   23   12   27 1     
   24   13   14 1     
   25   13   28 1     
   26   13   29 1     
   27   14   15 1     
   28   14   30 1     
   29   14   31 1     
   30   15   16 1     
   31   15   17 1     
   32   15   32 1     
   33   16   33 1     
   34   16   34 1     
   35   17   18 1     
   36   17   35 1     
   37   18   19 1     
   38   18   36 1     
   39   18   37 1     
   40   19   38 1     
   41    1   39 1     
   42    1   40 1     
   43    8   41 1     
   44   19   42 1     
   45   19   43 1     
@<TRIPOS>SUBSTRUCTURE
      1 S1             1
@<TRIPOS>SET
LONE_PAIRS      STATIC     ATOMS    <user>   **** ""
5 39 40 41 42 43
DONOR_HYDROGENS      STATIC     ATOMS    <user>   **** ""
3 20 25 38
ATOM$BLUE        STATIC     ATOMS    COLORGROUP SYSTEM
5 39 40 41 42 43
ATOM$RED        STATIC     ATOMS    COLORGROUP SYSTEM
3 20 25 38
