#       Name:                AV-unprocessed.smi:283
#       Creating user name   scv26
#       Creation time:       Thu Mar 26 21:46:28 2020


#       File generated by GOLD software.
#

@<TRIPOS>MOLECULE
AV-unprocessed.smi:283
    59    62     1
SMALL
NO_CHARGES


@<TRIPOS>ATOM
      1 ****        -3.5974   1.6625  -1.5952 C.3            1 S1                 0.0000
      2 ****        -3.4771   0.9425  -0.2398 C.3            1 S1                 0.0000
      3 ****        -2.4045  -0.0516  -0.2628 N.pl3          1 S1                 0.0000
      4 ****        -1.1016   0.3046  -0.2148 C.ar           1 S1                 0.0000
      5 ****        -0.7272   1.5946  -0.0104 N.ar           1 S1                 0.0000
      6 ****         0.5690   1.9152   0.0397 C.ar           1 S1                 0.0000
      7 ****         1.6308   1.1163  -0.0846 N.ar           1 S1                 0.0000
      8 ****         1.2610  -0.1824  -0.2863 C.ar           1 S1                 0.0000
      9 ****        -0.0755  -0.6642  -0.3618 C.ar           1 S1                 0.0000
     10 ****        -0.0701  -2.0375  -0.5700 N.2            1 S1                 0.0000
     11 ****         1.1984  -2.3457  -0.6119 C.2            1 S1                 0.0000
     12 ****         2.0687  -1.2913  -0.4472 N.pl3          1 S1                 0.0000
     13 ****         3.5647  -1.3386  -0.4449 C.3            1 S1                 0.0000
     14 ****         4.0611  -0.1916  -1.0523 O.3            1 S1                 0.0000
     15 ****         5.3538   0.0941  -0.5287 C.3            1 S1                 0.0000
     16 ****         5.4918   1.6160  -0.3431 C.3            1 S1                 0.0000
     17 ****         4.7427   2.0811   0.7603 O.3            1 S1                 0.0000
     18 ****         5.5354  -0.7594   0.7454 C.3            1 S1                 0.0000
     19 ****         6.4983  -1.7675   0.5025 O.3            1 S1                 0.0000
     20 ****         4.1693  -1.3980   0.9651 C.3            1 S1                 0.0000
     21 ****         3.4227  -0.6830   1.9326 O.3            1 S1                 0.0000
     22 ****        -4.8260   0.3416   0.1532 C.ar           1 S1                 0.0000
     23 ****        -5.1740  -0.9592  -0.2820 C.ar           1 S1                 0.0000
     24 ****        -6.4144  -1.5259   0.0666 C.ar           1 S1                 0.0000
     25 ****        -7.3258  -0.7955   0.8497 C.ar           1 S1                 0.0000
     26 ****        -6.9968   0.5039   1.2774 C.ar           1 S1                 0.0000
     27 ****        -5.7566   1.0770   0.9311 C.ar           1 S1                 0.0000
     28 ****        -5.4167   2.6843   1.4716 Cl             1 S1                 0.0000
     29 ****         3.8262  -2.2083  -1.0496 H              1 S1                 0.0000
     30 ****         6.0706  -0.2143  -1.2920 H              1 S1                 0.0000
     31 ****         5.8676  -0.1795   1.6077 H              1 S1                 0.0000
     32 ****         4.2317  -2.4369   1.2920 H              1 S1                 0.0000
     33 ****        -4.3656   2.4355  -1.5595 H              1 S1                 0.0000
     34 ****        -3.8654   0.9657  -2.3901 H              1 S1                 0.0000
     35 ****        -2.6645   2.1475  -1.8825 H              1 S1                 0.0000
     36 ****        -3.2113   1.6751   0.5213 H              1 S1                 0.0000
     37 ****        -2.7026  -1.0091  -0.3810 H              1 S1                 0.0000
     38 ****         0.7865   2.9602   0.2041 H              1 S1                 0.0000
     39 ****         1.5374  -3.3604  -0.7626 H              1 S1                 0.0000
     40 ****         6.5369   1.8730  -0.1689 H              1 S1                 0.0000
     41 ****         5.1791   2.1436  -1.2446 H              1 S1                 0.0000
     42 ****         3.8345   1.8573   0.6204 H              1 S1                 0.0000
     43 ****         7.3350  -1.3534   0.3557 H              1 S1                 0.0000
     44 ****         2.5402  -1.0212   1.9388 H              1 S1                 0.0000
     45 ****        -4.4928  -1.5339  -0.8920 H              1 S1                 0.0000
     46 ****        -6.6671  -2.5210  -0.2693 H              1 S1                 0.0000
     47 ****        -8.2782  -1.2288   1.1175 H              1 S1                 0.0000
     48 ****        -7.7022   1.0646   1.8730 H              1 S1                 0.0000
     49 ****        -1.4222   2.3047   0.1027 LP             1 S1                 0.0000
     50 ****         2.5791   1.4299  -0.0360 LP             1 S1                 0.0000
     51 ****        -0.8557  -2.6487  -0.6656 LP             1 S1                 0.0000
     52 ****         3.4482   0.5767  -0.8674 LP             1 S1                 0.0000
     53 ****         4.1249  -0.3369  -2.0396 LP             1 S1                 0.0000
     54 ****         4.8377   3.0735   0.8388 LP             1 S1                 0.0000
     55 ****         5.0720   1.6474   1.5990 LP             1 S1                 0.0000
     56 ****         6.2371  -2.2960  -0.3052 LP             1 S1                 0.0000
     57 ****         6.5571  -2.3756   1.2942 LP             1 S1                 0.0000
     58 ****         3.4100   0.2892   1.6985 LP             1 S1                 0.0000
     59 ****         3.8367  -0.8031   2.8350 LP             1 S1                 0.0000
@<TRIPOS>BOND
    1    1    2 1     
    2    1   33 1     
    3    1   34 1     
    4    1   35 1     
    5    2    3 1     
    6    2   22 1     
    7    2   36 1     
    8    3    4 1     
    9    3   37 1     
   10    4    9 ar    
   11    4    5 ar    
   12    5    6 ar    
   13    6    7 ar    
   14    6   38 1     
   15    7    8 ar    
   16    8   12 1     
   17    8    9 ar    
   18    9   10 1     
   19   10   11 2     
   20   11   12 1     
   21   11   39 1     
   22   12   13 1     
   23   13   29 1     
   24   13   20 1     
   25   13   14 1     
   26   14   15 1     
   27   15   30 1     
   28   15   16 1     
   29   15   18 1     
   30   16   17 1     
   31   16   40 1     
   32   16   41 1     
   33   17   42 1     
   34   18   31 1     
   35   18   19 1     
   36   18   20 1     
   37   19   43 1     
   38   20   32 1     
   39   20   21 1     
   40   21   44 1     
   41   22   27 ar    
   42   22   23 ar    
   43   23   24 ar    
   44   23   45 1     
   45   24   25 ar    
   46   24   46 1     
   47   25   26 ar    
   48   25   47 1     
   49   26   27 ar    
   50   26   48 1     
   51   27   28 1     
   52    5   49 1     
   53    7   50 1     
   54   10   51 1     
   55   14   52 1     
   56   14   53 1     
   57   17   54 1     
   58   17   55 1     
   59   19   56 1     
   60   19   57 1     
   61   21   58 1     
   62   21   59 1     
@<TRIPOS>SUBSTRUCTURE
      1 S1             1
@<TRIPOS>SET
LONE_PAIRS      STATIC     ATOMS    <user>   **** ""
11 49 50 51 52 53 54 55 56 57 58 59
DONOR_HYDROGENS      STATIC     ATOMS    <user>   **** ""
4 37 42 43 44
ATOM$BLUE        STATIC     ATOMS    COLORGROUP SYSTEM
11 49 50 51 52 53 54 55 56 57 58 59
ATOM$RED        STATIC     ATOMS    COLORGROUP SYSTEM
4 37 42 43 44
