AV-unprocessed.smi:193|AV-procd|sdf|1519|dock5
  -GOLD-   2262019353D 1   1.00000     0.00000
 Structure written by MMmdl.
 61 65  0  0  0  0  0  0  0  0  1 V2000
  147.8550  141.4595  153.7057 C   0  0  0  0  0  0  0  0  0  0  0  0
  148.0966  141.3900  155.2207 C   0  0  1  0  0  0  0  0  0  0  0  0
  147.2249  140.2995  155.8818 C   0  0  0  0  0  0  0  0  0  0  0  0
  147.8650  138.9901  155.9980 N   0  0  0  0  0  0  0  0  0  0  0  0
  147.0080  137.9692  155.7413 C   0  0  0  0  0  0  0  0  0  0  0  0
  146.6488  137.1100  156.7333 N   0  0  0  0  0  0  0  0  0  0  0  0
  145.7834  136.1216  156.4892 C   0  0  0  0  0  0  0  0  0  0  0  0
  145.1654  135.8169  155.3466 N   0  0  0  0  0  0  0  0  0  0  0  0
  145.5217  136.6742  154.3475 C   0  0  0  0  0  0  0  0  0  0  0  0
  146.4235  137.7701  154.4598 C   0  0  0  0  0  0  0  0  0  0  0  0
  146.5324  138.4202  153.2373 N   0  0  0  0  0  0  0  0  0  0  0  0
  145.7395  137.7494  152.4476 C   0  0  0  0  0  0  0  0  0  0  0  0
  145.1005  136.6775  153.0290 N   0  0  0  0  0  0  0  0  0  0  0  0
  144.1717  135.7631  152.3815 C   0  0  0  0  0  0  0  0  0  0  0  0
  144.6536  134.2907  152.3448 C   0  0  0  0  0  0  0  0  0  0  0  0
  144.5981  133.7832  153.6665 O   0  0  0  0  0  0  0  0  0  0  0  0
  143.7180  133.4420  151.4604 C   0  0  0  0  0  0  0  0  0  0  0  0
  144.2488  132.0116  151.2580 C   0  0  0  0  0  0  0  0  0  0  0  0
  145.5668  132.0533  150.7247 O   0  0  0  0  0  0  0  0  0  0  0  0
  146.4953  132.6777  151.6028 C   0  0  0  0  0  0  0  0  0  0  0  0
  146.1031  134.1486  151.8305 C   0  0  0  0  0  0  0  0  0  0  0  0
  148.7348  138.8353  157.1656 C   0  0  0  0  0  0  0  0  0  0  0  0
  150.0822  139.5579  157.0271 C   0  0  0  0  0  0  0  0  0  0  0  0
  149.9446  141.0095  156.8984 N   0  0  0  0  0  0  0  0  0  0  0  0
  151.2417  141.5965  157.2014 C   0  0  1  0  0  0  0  0  0  0  0  0
  151.3016  143.0976  157.3736 C   0  0  0  0  0  0  0  0  0  0  0  0
  151.4344  142.1958  158.5779 C   0  0  2  0  0  0  0  0  0  0  0  0
  152.7593  142.0661  159.2968 C   0  0  0  0  0  0  0  0  0  0  0  0
  149.6125  141.3400  155.5114 C   0  0  0  0  0  0  0  0  0  0  0  0
  148.2274  140.5661  153.2050 H   0  0  0  0  0  0  0  0  0  0  0  0
  148.3639  142.3182  153.2670 H   0  0  0  0  0  0  0  0  0  0  0  0
  146.7937  141.5555  153.4751 H   0  0  0  0  0  0  0  0  0  0  0  0
  147.7319  142.3351  155.6257 H   0  0  0  0  0  0  0  0  0  0  0  0
  146.9714  140.6293  156.8904 H   0  0  0  0  0  0  0  0  0  0  0  0
  146.2669  140.2322  155.3636 H   0  0  0  0  0  0  0  0  0  0  0  0
  145.5506  135.4852  157.3301 H   0  0  0  0  0  0  0  0  0  0  0  0
  145.6039  138.0152  151.4093 H   0  0  0  0  0  0  0  0  0  0  0  0
  143.2082  135.8361  152.8881 H   0  0  0  0  0  0  0  0  0  0  0  0
  144.0056  136.1237  151.3654 H   0  0  0  0  0  0  0  0  0  0  0  0
  143.9521  133.0944  153.6979 H   0  0  0  0  0  0  0  0  0  0  0  0
  142.7131  133.4123  151.8838 H   0  0  0  0  0  0  0  0  0  0  0  0
  143.6217  133.9132  150.4814 H   0  0  0  0  0  0  0  0  0  0  0  0
  144.2395  131.4506  152.1937 H   0  0  0  0  0  0  0  0  0  0  0  0
  143.6070  131.4719  150.5616 H   0  0  0  0  0  0  0  0  0  0  0  0
  146.5427  132.1331  152.5469 H   0  0  0  0  0  0  0  0  0  0  0  0
  147.4890  132.6226  151.1582 H   0  0  0  0  0  0  0  0  0  0  0  0
  146.2021  134.6842  150.8854 H   0  0  0  0  0  0  0  0  0  0  0  0
  146.8096  134.6109  152.5211 H   0  0  0  0  0  0  0  0  0  0  0  0
  148.2155  139.1828  158.0598 H   0  0  0  0  0  0  0  0  0  0  0  0
  148.9500  137.7782  157.3276 H   0  0  0  0  0  0  0  0  0  0  0  0
  150.6453  139.3435  157.9367 H   0  0  0  0  0  0  0  0  0  0  0  0
  150.6701  139.1379  156.2094 H   0  0  0  0  0  0  0  0  0  0  0  0
  152.1295  141.1459  156.7600 H   0  0  0  0  0  0  0  0  0  0  0  0
  152.1959  143.6055  157.0184 H   0  0  0  0  0  0  0  0  0  0  0  0
  150.3763  143.6611  157.2712 H   0  0  0  0  0  0  0  0  0  0  0  0
  150.5737  142.1630  159.2437 H   0  0  0  0  0  0  0  0  0  0  0  0
  153.5892  142.1125  158.5909 H   0  0  0  0  0  0  0  0  0  0  0  0
  152.8052  141.1141  159.8258 H   0  0  0  0  0  0  0  0  0  0  0  0
  152.8721  142.8731  160.0206 H   0  0  0  0  0  0  0  0  0  0  0  0
  150.1149  140.6566  154.8250 H   0  0  0  0  0  0  0  0  0  0  0  0
  150.0082  142.3283  155.2708 H   0  0  0  0  0  0  0  0  0  0  0  0
  1  2  1  0  0  0  0
  1 30  1  0  0  0  0
  1 31  1  0  0  0  0
  1 32  1  0  0  0  0
  2 29  1  0  0  0  0
  2  3  1  0  0  0  0
  2 33  1  0  0  0  0
  3  4  1  0  0  0  0
  3 34  1  0  0  0  0
  3 35  1  0  0  0  0
  4  5  1  0  0  0  0
  4 22  1  0  0  0  0
  5 10  1  0  0  0  0
  5  6  2  0  0  0  0
  6  7  1  0  0  0  0
  7  8  2  0  0  0  0
  7 36  1  0  0  0  0
  8  9  1  0  0  0  0
  9 13  1  0  0  0  0
  9 10  2  0  0  0  0
 10 11  1  0  0  0  0
 11 12  2  0  0  0  0
 12 13  1  0  0  0  0
 12 37  1  0  0  0  0
 13 14  1  0  0  0  0
 14 15  1  0  0  0  0
 14 38  1  0  0  0  0
 14 39  1  0  0  0  0
 15 21  1  0  0  0  0
 15 16  1  0  0  0  0
 15 17  1  0  0  0  0
 16 40  1  0  0  0  0
 17 18  1  0  0  0  0
 17 41  1  0  0  0  0
 17 42  1  0  0  0  0
 18 19  1  0  0  0  0
 18 43  1  0  0  0  0
 18 44  1  0  0  0  0
 19 20  1  0  0  0  0
 20 21  1  0  0  0  0
 20 45  1  0  0  0  0
 20 46  1  0  0  0  0
 21 47  1  0  0  0  0
 21 48  1  0  0  0  0
 22 23  1  0  0  0  0
 22 49  1  0  0  0  0
 22 50  1  0  0  0  0
 23 24  1  0  0  0  0
 23 51  1  0  0  0  0
 23 52  1  0  0  0  0
 24 25  1  0  0  0  0
 24 29  1  0  0  0  0
 25 27  1  0  0  0  0
 25 26  1  0  0  0  0
 25 53  1  0  0  0  0
 26 27  1  0  0  0  0
 26 54  1  0  0  0  0
 26 55  1  0  0  0  0
 27 28  1  0  0  0  0
 27 56  1  0  0  0  0
 28 57  1  0  0  0  0
 28 58  1  0  0  0  0
 28 59  1  0  0  0  0
 29 60  1  0  0  0  0
 29 61  1  0  0  0  0
M  END
> <s_m_source_file>
AV-unprocessed.smi

> <i_m_source_file_index>
193

> <i_lp_mmshare_version>
43012

> <i_f3d_flags>
0

> <s_epik_input>
W0NIM11bQ0BASF0xW0NIMl1bQ0BIXTFOKFtDSDJdMilbQ0gyXVtDSDJdTihbQ0gyXVtDQEhdMltDSDNdKWMobltjSF1uMyljKGMzNCluW2NIXW40W0NIMl1DNShbT0hdKVtDSDJdW0NIMl1PW0NIMl1bQ0gyXTU=

> <s_epik_cmdline>
J2VwaWtfcHl0aG9uJywgJy1waCcsICc3LjAnLCAnLXRuJywgJzgnLCAnLW1hJywgJzIwMCcsICctbWV0YWxfYmluZGluZycsICctaW1hZScsICc8aW5maWxlLm1hZT4nLCAnLW9tYWUnLCAnPG91dGZpbGUubWFlPic=

> <r_lp_tautomer_probability>
1

> <r_epik_Ionization_Penalty>
1.45227

> <r_epik_Ionization_Penalty_Charging>
0

> <r_epik_Ionization_Penalty_Neutral>
1.45227

> <r_epik_State_Penalty>
2.02377

> <r_epik_Charging_Adjusted_Penalty>
2.02377

> <i_epik_Tot_Q>
0

> <i_epik_Tot_abs_Q>
0

> <r_epik_Metal_State_Penalty>
2.01937

> <b_epik_Metal_Only>
0

> <s_lp_Force_Field>
OPLS_2005

> <r_lp_Energy>
55.8214

> <b_lp_Chiralities_Consistent>
1

> <s_lp_Variant>
AV-unprocessed.smi:193-24

> <Gold.Version>
5.8.1

> <Gold.Id.Protein>
6NUR|6NUR_protein|mol2

> <Gold.PLP.Fitness>
40.3089

> <Gold.PLP.PLP>
-35.9593

> <Gold.PLP.part.hbond>
-1.0000

> <Gold.PLP.part.metal>
0.0000

> <Gold.PLP.part.buried>
-6.7876

> <Gold.PLP.part.nonpolar>
-29.3219

> <Gold.PLP.part.repulsive>
0.4107

> <Gold.PLP.ligand.clash>
0.0000

> <Gold.PLP.ligand.torsion>
1.0484

> <Gold.PLP.Chemscore.Hbond>
0.6770

> <Gold.PLP.Chemscore.CHOScore>
1.0000

> <Gold.PLP.Chemscore.Metal>
0.0000

> <Gold.Chemscore.Hbonds>
donor molecule, donor type, donor heavy atom, donor atom, acceptor molecule, acceptor atom, score
      L1  H    16    40       P1 10957  0.73
      L1  C    12    37       P1 10171  1.00

> <Gold.PLP.Chemscore.Internal.Correction>
1.4154

> <Gold.Rescore>
     Score         DG    S(hbond)    S(metal)    S(lipo)     H(rot)  DE(clash)    DE(int)     intcor
     13.32     -14.51       0.99        0.00      96.48       2.17       0.08       1.12       ----

> <Gold.Chemscore.Fitness>
13.3163

> <Gold.Chemscore.DG>
-14.5130

> <Gold.Chemscore.ZeroCoef>
-5.4800

> <Gold.Chemscore.Hbond>
0.9854

> <Gold.Chemscore.Metal>
0.0000

> <Gold.Chemscore.Lipo>
96.4764

> <Gold.Chemscore.Internal_Hbond>
0.0000

> <Gold.Chemscore.DEClash>
0.0810

> <Gold.Chemscore.DEInternal>
1.1157

> <Gold.Chemscore.Rot>
2.1664

> <Gold.Chemscore.Internal.Correction>
   9.000000E+99

> <Gold.Chemscore.Hbonds>
donor molecule, donor type, donor heavy atom, donor atom, acceptor molecule, acceptor atom, score
      L1  H    16    40       P1 10957  0.66

> <Gold.Chemscore.Hbond.Weighted>
-3.2912

> <Gold.Chemscore.Metal.Weighted>
-0.0000

> <Gold.Chemscore.Lipo.Weighted>
-11.2877

> <Gold.Chemscore.Internal_Hbond.Weighted>
0.0000

> <Gold.Chemscore.DEClash.Weighted>
0.0810

> <Gold.Chemscore.DEInternal.Weighted>
1.1157

> <Gold.Chemscore.Rot.Weighted>
5.5459

> <Gold.Chemscore.Internal.Correction.Weighted>
   9.000000E+99

> <Gold.Protein.RotatedTorsions>
[ 6907 6896 6895 6894 ] final -135.43 input  -60.11 | X-H torsion
[ 7974 7965 7964 7962 ] final -154.79 input  175.53 | X-H torsion
[ 8008 7997 7996 7995 ] final -154.26 input   59.86 | X-H torsion
[ 10167 10162 10161 10158 ] final  -51.08 input  -65.29 | X-H torsion
[ 10718 10713 10712 10709 ] final   69.57 input   66.30 | X-H torsion
[ 10763 10752 10751 10750 ] final   -2.55 input  -60.55 | X-H torsion
[ 11005 11000 10999 10996 ] final  176.02 input  -57.11 | X-H torsion

> <Gold.Protein.ActiveResidues>
 VAL166  LYS551  ARG553  GLY616  TRP617  ASP618  TYR619  PRO620  LYS621  CYS622 
 ASP623  PHE694  ASN695  SER759  ASP760  ASP761  ALA762  ILE779  LEU786  VAL792 
 PHE793  MET794  SER795  GLU796  ALA797  LYS798  CYS799  TRP800  GLU811  SER814 

> <Gold.Protein.RotatedAtoms>
  150.9977  133.6086  159.2699 H   0  0  0  0  0  0  0  0  0  0  0  0  # atno 6907 bound_to 6896
  151.3284  135.0834  159.9340 H   0  0  0  0  0  0  0  0  0  0  0  0  # atno 6908 bound_to 6896
  152.5265  133.9612  159.7772 H   0  0  0  0  0  0  0  0  0  0  0  0  # atno 6909 bound_to 6896
  144.7671  140.4339  143.5934 H   0  0  0  0  0  0  0  0  0  0  0  0  # atno 7974 bound_to 7965
  155.6836  140.0747  157.2475 H   0  0  0  0  0  0  0  0  0  0  0  0  # atno 8008 bound_to 7997
  154.4101  140.1677  156.2062 H   0  0  0  0  0  0  0  0  0  0  0  0  # atno 8009 bound_to 7997
  155.9513  140.3377  155.6413 H   0  0  0  0  0  0  0  0  0  0  0  0  # atno 8010 bound_to 7997
  140.6606  143.2633  151.4451 H   0  0  0  0  0  0  0  0  0  0  0  0  # atno 10167 bound_to 10162
  157.6353  130.9432  150.0532 H   0  0  0  0  0  0  0  0  0  0  0  0  # atno 10718 bound_to 10713
  153.3596  135.6989  153.6723 H   0  0  0  0  0  0  0  0  0  0  0  0  # atno 10763 bound_to 10752
  153.5417  135.3571  155.2722 H   0  0  0  0  0  0  0  0  0  0  0  0  # atno 10764 bound_to 10752
  154.8666  135.4205  154.2850 H   0  0  0  0  0  0  0  0  0  0  0  0  # atno 10765 bound_to 10752
  140.3685  134.7051  157.4377 H   0  0  0  0  0  0  0  0  0  0  0  0  # atno 11005 bound_to 11000
  145.6435  139.1553  143.2902 LP  0  0  0  0  0  0  0  0  0  0  0  0  # atno 17320 bound_to 7965
  146.1788  140.6530  142.9198 LP  0  0  0  0  0  0  0  0  0  0  0  0  # atno 17321 bound_to 7965
  139.5839  144.1648  152.2004 LP  0  0  0  0  0  0  0  0  0  0  0  0  # atno 17342 bound_to 10162
  140.0981  144.5563  150.7008 LP  0  0  0  0  0  0  0  0  0  0  0  0  # atno 17343 bound_to 10162
  156.1587  130.3643  149.9330 LP  0  0  0  0  0  0  0  0  0  0  0  0  # atno 17370 bound_to 10713
  156.7333  130.9052  151.3627 LP  0  0  0  0  0  0  0  0  0  0  0  0  # atno 17371 bound_to 10713
  140.0570  134.6049  155.8793 LP  0  0  0  0  0  0  0  0  0  0  0  0  # atno 17394 bound_to 11000
  141.1962  133.6590  156.5680 LP  0  0  0  0  0  0  0  0  0  0  0  0  # atno 17395 bound_to 11000

$$$$
