AV-unprocessed.smi:785|AV-procd|sdf|3720|dock2
  -GOLD-   22720 1143D 1   1.00000     0.00000
 Structure written by MMmdl.
 35 36  0  0  0  0  0  0  0  0  1 V2000
  153.4456  141.6485  160.2807 C   0  0  0  0  0  0  0  0  0  0  0  0
  152.5183  142.3432  159.3434 C   0  0  0  0  0  0  0  0  0  0  0  0
  151.7575  141.7070  158.4490 N   0  0  0  0  0  0  0  0  0  0  0  0
  150.9761  142.5811  157.6853 C   0  0  0  0  0  0  0  0  0  0  0  0
  150.0540  142.0391  156.6316 C   0  0  0  0  0  0  0  0  0  0  0  0
  150.3829  140.5747  156.3361 C   0  0  0  0  0  0  0  0  0  0  0  0
  151.1981  140.2913  155.4586 O   0  0  0  0  0  0  0  0  0  0  0  0
  149.7498  139.6546  157.0810 N   0  0  0  0  0  0  0  0  0  0  0  0
  149.9291  138.2131  156.9614 C   0  0  0  0  0  0  0  0  0  0  0  0
  150.3189  137.5813  158.3094 C   0  0  0  0  0  0  0  0  0  0  0  0
  149.1723  137.4811  159.2043 N   0  0  0  0  0  0  0  0  0  0  0  0
  148.5756  136.3363  159.5696 C   0  0  0  0  0  0  0  0  0  0  0  0
  148.9479  135.2300  159.1754 O   0  0  0  0  0  0  0  0  0  0  0  0
  147.4199  136.5246  160.4972 C   0  0  0  0  0  0  0  0  0  0  0  0
  147.6081  136.1233  161.9462 C   0  0  0  0  0  0  0  0  0  0  0  0
  146.7443  135.2820  161.0407 C   0  0  0  0  0  0  0  0  0  0  0  0
  151.1548  143.8998  158.0251 C   0  0  0  0  0  0  0  0  0  0  0  0
  152.3196  144.0906  159.3063 S   0  0  0  0  0  0  0  0  0  0  0  0
  153.2821  140.5706  160.2549 H   0  0  0  0  0  0  0  0  0  0  0  0
  153.2807  142.0015  161.2986 H   0  0  0  0  0  0  0  0  0  0  0  0
  154.4792  141.8530  160.0014 H   0  0  0  0  0  0  0  0  0  0  0  0
  149.0134  142.1155  156.9506 H   0  0  0  0  0  0  0  0  0  0  0  0
  150.1349  142.6208  155.7124 H   0  0  0  0  0  0  0  0  0  0  0  0
  149.0963  139.9765  157.7803 H   0  0  0  0  0  0  0  0  0  0  0  0
  148.9901  137.7895  156.6037 H   0  0  0  0  0  0  0  0  0  0  0  0
  150.6796  137.9895  156.2013 H   0  0  0  0  0  0  0  0  0  0  0  0
  150.7096  136.5753  158.1548 H   0  0  0  0  0  0  0  0  0  0  0  0
  151.1170  138.1538  158.7854 H   0  0  0  0  0  0  0  0  0  0  0  0
  148.8050  138.3464  159.5732 H   0  0  0  0  0  0  0  0  0  0  0  0
  146.7794  137.3851  160.3082 H   0  0  0  0  0  0  0  0  0  0  0  0
  148.5664  135.7064  162.2517 H   0  0  0  0  0  0  0  0  0  0  0  0
  147.1152  136.7385  162.6961 H   0  0  0  0  0  0  0  0  0  0  0  0
  145.6658  135.3265  161.1771 H   0  0  0  0  0  0  0  0  0  0  0  0
  147.1299  134.3077  160.7453 H   0  0  0  0  0  0  0  0  0  0  0  0
  150.6752  144.7682  157.5983 H   0  0  0  0  0  0  0  0  0  0  0  0
  1  2  1  0  0  0  0
  1 19  1  0  0  0  0
  1 20  1  0  0  0  0
  1 21  1  0  0  0  0
  2 18  1  0  0  0  0
  2  3  2  0  0  0  0
  3  4  1  0  0  0  0
  4  5  1  0  0  0  0
  4 17  2  0  0  0  0
  5  6  1  0  0  0  0
  5 22  1  0  0  0  0
  5 23  1  0  0  0  0
  6  7  2  0  0  0  0
  6  8  1  0  0  0  0
  8  9  1  0  0  0  0
  8 24  1  0  0  0  0
  9 10  1  0  0  0  0
  9 25  1  0  0  0  0
  9 26  1  0  0  0  0
 10 11  1  0  0  0  0
 10 27  1  0  0  0  0
 10 28  1  0  0  0  0
 11 12  1  0  0  0  0
 11 29  1  0  0  0  0
 12 13  2  0  0  0  0
 12 14  1  0  0  0  0
 14 16  1  0  0  0  0
 14 15  1  0  0  0  0
 14 30  1  0  0  0  0
 15 16  1  0  0  0  0
 15 31  1  0  0  0  0
 15 32  1  0  0  0  0
 16 33  1  0  0  0  0
 16 34  1  0  0  0  0
 17 18  1  0  0  0  0
 17 35  1  0  0  0  0
M  END
> <s_m_source_file>
AV-unprocessed.smi

> <i_m_source_file_index>
785

> <i_lp_mmshare_version>
43012

> <i_f3d_flags>
0

> <s_epik_input>
W0NIM11jMW5jKFtjSF1zMSlbQ0gyXUMoPU8pW05IXVtDSDJdW0NIMl1bTkhdQyg9TylbQ0hdMltDSDJdW0NIMl0y

> <s_epik_cmdline>
J2VwaWtfcHl0aG9uJywgJy1waCcsICc3LjAnLCAnLXRuJywgJzgnLCAnLW1hJywgJzIwMCcsICctbWV0YWxfYmluZGluZycsICctaW1hZScsICc8aW5maWxlLm1hZT4nLCAnLW9tYWUnLCAnPG91dGZpbGUubWFlPic=

> <r_lp_tautomer_probability>
1

> <r_epik_Ionization_Penalty>
4.93122e-05

> <r_epik_Ionization_Penalty_Charging>
0

> <r_epik_Ionization_Penalty_Neutral>
4.93122e-05

> <r_epik_State_Penalty>
-0

> <r_epik_Charging_Adjusted_Penalty>
0

> <i_epik_Tot_Q>
0

> <i_epik_Tot_abs_Q>
0

> <r_epik_Metal_State_Penalty>
-0

> <b_epik_Metal_Only>
0

> <s_lp_Force_Field>
OPLS_2005

> <r_lp_Energy>
2.28636

> <b_lp_Chiralities_Consistent>
1

> <s_lp_Variant>
AV-unprocessed.smi:785-1

> <Gold.Version>
5.8.1

> <Gold.Id.Protein>
6NUR|6NUR_protein|mol2

> <Gold.PLP.Fitness>
42.6017

> <Gold.PLP.PLP>
-35.1876

> <Gold.PLP.part.hbond>
-2.0000

> <Gold.PLP.part.metal>
0.0000

> <Gold.PLP.part.buried>
-3.8484

> <Gold.PLP.part.nonpolar>
-30.8318

> <Gold.PLP.part.repulsive>
0.2504

> <Gold.PLP.ligand.clash>
0.0000

> <Gold.PLP.ligand.torsion>
0.8066

> <Gold.PLP.Chemscore.Hbond>
1.9760

> <Gold.PLP.Chemscore.CHOScore>
0.9860

> <Gold.PLP.Chemscore.Metal>
0.0000

> <Gold.Chemscore.Hbonds>
donor molecule, donor type, donor heavy atom, donor atom, acceptor molecule, acceptor atom, score
      P1  H  6896  6907       L1    13  1.00
      P1  H  7989  7998       L1     7  0.86
      L1  C    17    35       P1  8028  0.78

> <Gold.PLP.Chemscore.Internal.Correction>
0.1414

> <Gold.Rescore>
     Score         DG    S(hbond)    S(metal)    S(lipo)     H(rot)  DE(clash)    DE(int)     intcor
     16.56     -17.29       1.94        0.00      92.85       2.16       0.15       0.57       ----

> <Gold.Chemscore.Fitness>
16.5618

> <Gold.Chemscore.DG>
-17.2860

> <Gold.Chemscore.ZeroCoef>
-5.4800

> <Gold.Chemscore.Hbond>
1.9358

> <Gold.Chemscore.Metal>
0.0000

> <Gold.Chemscore.Lipo>
92.8472

> <Gold.Chemscore.Internal_Hbond>
0.0000

> <Gold.Chemscore.DEClash>
0.1537

> <Gold.Chemscore.DEInternal>
0.5705

> <Gold.Chemscore.Rot>
2.1573

> <Gold.Chemscore.Internal.Correction>
   9.000000E+99

> <Gold.Chemscore.Hbonds>
donor molecule, donor type, donor heavy atom, donor atom, acceptor molecule, acceptor atom, score
      P1  H  6896  6907       L1    13  0.98
      P1  H  7989  7998       L1     7  0.79

> <Gold.Chemscore.Hbond.Weighted>
-6.4657

> <Gold.Chemscore.Metal.Weighted>
-0.0000

> <Gold.Chemscore.Lipo.Weighted>
-10.8631

> <Gold.Chemscore.Internal_Hbond.Weighted>
0.0000

> <Gold.Chemscore.DEClash.Weighted>
0.1537

> <Gold.Chemscore.DEInternal.Weighted>
0.5705

> <Gold.Chemscore.Rot.Weighted>
5.5228

> <Gold.Chemscore.Internal.Correction.Weighted>
   9.000000E+99

> <Gold.Protein.RotatedTorsions>
[ 6907 6896 6895 6894 ] final  -67.02 input  -60.11 | X-H torsion
[ 7974 7965 7964 7962 ] final  -80.84 input  175.53 | X-H torsion
[ 8008 7997 7996 7995 ] final  -71.92 input   59.86 | X-H torsion
[ 10167 10162 10161 10158 ] final -102.21 input  -65.29 | X-H torsion
[ 10718 10713 10712 10709 ] final  146.37 input   66.30 | X-H torsion
[ 10763 10752 10751 10750 ] final -169.60 input  -60.55 | X-H torsion
[ 11005 11000 10999 10996 ] final  -62.75 input  -57.11 | X-H torsion

> <Gold.Protein.ActiveResidues>
 VAL166  LYS551  ARG553  GLY616  TRP617  ASP618  TYR619  PRO620  LYS621  CYS622 
 ASP623  PHE694  ASN695  SER759  ASP760  ASP761  ALA762  ILE779  LEU786  VAL792 
 PHE793  MET794  SER795  GLU796  ALA797  LYS798  CYS799  TRP800  GLU811  SER814 

> <Gold.Protein.RotatedAtoms>
  150.7432  134.5939  159.6001 H   0  0  0  0  0  0  0  0  0  0  0  0  # atno 6907 bound_to 6896
  152.3319  134.7245  160.0296 H   0  0  0  0  0  0  0  0  0  0  0  0  # atno 6908 bound_to 6896
  151.7726  133.3306  159.3485 H   0  0  0  0  0  0  0  0  0  0  0  0  # atno 6909 bound_to 6896
  145.5546  140.9491  143.1480 H   0  0  0  0  0  0  0  0  0  0  0  0  # atno 7974 bound_to 7965
  154.5125  140.0806  156.8018 H   0  0  0  0  0  0  0  0  0  0  0  0  # atno 8008 bound_to 7997
  155.3752  140.3425  155.4226 H   0  0  0  0  0  0  0  0  0  0  0  0  # atno 8009 bound_to 7997
  156.1590  140.1582  156.8631 H   0  0  0  0  0  0  0  0  0  0  0  0  # atno 8010 bound_to 7997
  140.2331  143.3592  152.0869 H   0  0  0  0  0  0  0  0  0  0  0  0  # atno 10167 bound_to 10162
  157.3340  131.0925  151.1138 H   0  0  0  0  0  0  0  0  0  0  0  0  # atno 10718 bound_to 10713
  154.6505  135.2911  154.9993 H   0  0  0  0  0  0  0  0  0  0  0  0  # atno 10763 bound_to 10752
  154.1087  135.6566  153.4885 H   0  0  0  0  0  0  0  0  0  0  0  0  # atno 10764 bound_to 10752
  153.0374  135.5260  154.7411 H   0  0  0  0  0  0  0  0  0  0  0  0  # atno 10765 bound_to 10752
  141.1370  133.6643  156.5575 H   0  0  0  0  0  0  0  0  0  0  0  0  # atno 11005 bound_to 11000
  144.7513  139.7188  143.7272 LP  0  0  0  0  0  0  0  0  0  0  0  0  # atno 17320 bound_to 7965
  146.1893  139.5125  142.9815 LP  0  0  0  0  0  0  0  0  0  0  0  0  # atno 17321 bound_to 7965
  139.5103  144.6882  151.5831 LP  0  0  0  0  0  0  0  0  0  0  0  0  # atno 17342 bound_to 10162
  140.6170  143.9329  150.6496 LP  0  0  0  0  0  0  0  0  0  0  0  0  # atno 17343 bound_to 10162
  157.2376  130.6554  149.5876 LP  0  0  0  0  0  0  0  0  0  0  0  0  # atno 17370 bound_to 10713
  155.9699  130.4579  150.5978 LP  0  0  0  0  0  0  0  0  0  0  0  0  # atno 17371 bound_to 10713
  140.4015  134.7352  157.4782 LP  0  0  0  0  0  0  0  0  0  0  0  0  # atno 17394 bound_to 11000
  140.0493  134.6154  155.8882 LP  0  0  0  0  0  0  0  0  0  0  0  0  # atno 17395 bound_to 11000

$$$$
