AV-unprocessed.smi:198|AV-procd|sdf|1554|dock3
  -GOLD-   2262019423D 1   1.00000     0.00000
 Structure written by MMmdl.
 59 63  0  0  0  0  0  0  0  0  2 V2000
  152.1836  139.9275  156.9907 C   0  0  0  0  0  0  0  0  0  0  0  0
  151.3468  139.8993  155.7718 N   0  3  1  0  0  0  0  0  0  0  0  0
  150.8228  138.5438  155.4806 C   0  0  0  0  0  0  0  0  0  0  0  0
  150.0725  138.5279  154.1397 C   0  0  0  0  0  0  0  0  0  0  0  0
  148.9160  139.5566  154.1080 C   0  0  2  0  0  0  0  0  0  0  0  0
  149.4827  140.9523  154.4705 C   0  0  1  0  0  0  0  0  0  0  0  0
  148.3640  142.0129  154.4726 C   0  0  0  0  0  0  0  0  0  0  0  0
  147.1883  141.5875  155.3656 C   0  0  0  0  0  0  0  0  0  0  0  0
  146.6920  140.1856  154.9851 C   0  0  0  0  0  0  0  0  0  0  0  0
  147.7856  139.2154  154.9863 N   0  0  0  0  0  0  0  0  0  0  0  0
  147.3063  137.9558  154.8845 C   0  0  0  0  0  0  0  0  0  0  0  0
  147.4819  137.0737  155.9029 N   0  0  0  0  0  0  0  0  0  0  0  0
  147.0018  135.8309  155.7941 C   0  0  0  0  0  0  0  0  0  0  0  0
  146.3331  135.2797  154.7780 N   0  0  0  0  0  0  0  0  0  0  0  0
  146.1609  136.1659  153.7546 C   0  0  0  0  0  0  0  0  0  0  0  0
  146.6138  137.5137  153.7284 C   0  0  0  0  0  0  0  0  0  0  0  0
  146.2520  138.1201  152.5332 N   0  0  0  0  0  0  0  0  0  0  0  0
  145.6176  137.1808  151.8858 C   0  0  0  0  0  0  0  0  0  0  0  0
  145.5225  135.9720  152.5409 N   0  0  0  0  0  0  0  0  0  0  0  0
  144.8675  134.7861  152.0665 C   0  0  0  0  0  0  0  0  0  0  0  0
  145.3148  133.3920  152.5126 C   0  0  0  0  0  0  0  0  0  0  0  0
  144.9290  132.8343  151.1228 C   0  0  0  0  0  0  0  0  0  0  0  0
  145.9217  131.8310  150.5125 C   0  0  0  0  0  0  0  0  0  0  0  0
  147.2193  132.3838  150.4258 O   0  0  0  0  0  0  0  0  0  0  0  0
  143.5013  132.2608  151.0188 C   0  0  0  0  0  0  0  0  0  0  0  0
  143.1481  131.9940  149.6763 O   0  0  0  0  0  0  0  0  0  0  0  0
  145.0879  134.2928  150.6367 C   0  0  0  0  0  0  0  0  0  0  0  0
  150.2671  140.9160  155.8037 C   0  0  0  0  0  0  0  0  0  0  0  0
  151.5954  139.6799  157.8754 H   0  0  0  0  0  0  0  0  0  0  0  0
  152.6205  140.9161  157.1353 H   0  0  0  0  0  0  0  0  0  0  0  0
  153.0022  139.2113  156.9127 H   0  0  0  0  0  0  0  0  0  0  0  0
  151.6498  137.8339  155.4407 H   0  0  0  0  0  0  0  0  0  0  0  0
  150.1668  138.2190  156.2897 H   0  0  0  0  0  0  0  0  0  0  0  0
  150.7770  138.7690  153.3426 H   0  0  0  0  0  0  0  0  0  0  0  0
  149.7222  137.5199  153.9175 H   0  0  0  0  0  0  0  0  0  0  0  0
  148.5287  139.6006  153.0886 H   0  0  0  0  0  0  0  0  0  0  0  0
  150.1925  141.2361  153.6919 H   0  0  0  0  0  0  0  0  0  0  0  0
  148.7526  142.9799  154.7937 H   0  0  0  0  0  0  0  0  0  0  0  0
  148.0020  142.1526  153.4532 H   0  0  0  0  0  0  0  0  0  0  0  0
  147.4875  141.5990  156.4138 H   0  0  0  0  0  0  0  0  0  0  0  0
  146.3731  142.3056  155.2751 H   0  0  0  0  0  0  0  0  0  0  0  0
  145.9127  139.8732  155.6823 H   0  0  0  0  0  0  0  0  0  0  0  0
  146.2372  140.2136  153.9935 H   0  0  0  0  0  0  0  0  0  0  0  0
  147.1792  135.1859  156.6419 H   0  0  0  0  0  0  0  0  0  0  0  0
  145.1957  137.3479  150.9054 H   0  0  0  0  0  0  0  0  0  0  0  0
  143.8015  134.9128  152.2623 H   0  0  0  0  0  0  0  0  0  0  0  0
  146.3857  133.3295  152.7117 H   0  0  0  0  0  0  0  0  0  0  0  0
  144.7434  132.9852  153.3474 H   0  0  0  0  0  0  0  0  0  0  0  0
  145.9855  130.9298  151.1231 H   0  0  0  0  0  0  0  0  0  0  0  0
  145.6071  131.5056  149.5208 H   0  0  0  0  0  0  0  0  0  0  0  0
  147.8199  131.7001  150.1712 H   0  0  0  0  0  0  0  0  0  0  0  0
  143.4098  131.3290  151.5770 H   0  0  0  0  0  0  0  0  0  0  0  0
  142.7649  132.9414  151.4468 H   0  0  0  0  0  0  0  0  0  0  0  0
  142.4869  131.3189  149.6682 H   0  0  0  0  0  0  0  0  0  0  0  0
  144.3315  134.6235  149.9244 H   0  0  0  0  0  0  0  0  0  0  0  0
  146.0920  134.5112  150.2681 H   0  0  0  0  0  0  0  0  0  0  0  0
  149.6041  140.6978  156.6417 H   0  0  0  0  0  0  0  0  0  0  0  0
  150.7048  141.8964  155.9955 H   0  0  0  0  0  0  0  0  0  0  0  0
  151.9526  140.1460  155.0021 H   0  0  0  0  0  0  0  0  0  0  0  0
  1  2  1  0  0  0  0
  1 29  1  0  0  0  0
  1 30  1  0  0  0  0
  1 31  1  0  0  0  0
  2 28  1  0  0  0  0
  2  3  1  0  0  0  0
  2 59  1  0  0  0  0
  3  4  1  0  0  0  0
  3 32  1  0  0  0  0
  3 33  1  0  0  0  0
  4  5  1  0  0  0  0
  4 34  1  0  0  0  0
  4 35  1  0  0  0  0
  5 10  1  0  0  0  0
  5  6  1  0  0  0  0
  5 36  1  0  0  0  0
  6  7  1  0  0  0  0
  6 28  1  0  0  0  0
  6 37  1  0  0  0  0
  7  8  1  0  0  0  0
  7 38  1  0  0  0  0
  7 39  1  0  0  0  0
  8  9  1  0  0  0  0
  8 40  1  0  0  0  0
  8 41  1  0  0  0  0
  9 10  1  0  0  0  0
  9 42  1  0  0  0  0
  9 43  1  0  0  0  0
 10 11  1  0  0  0  0
 11 16  1  0  0  0  0
 11 12  2  0  0  0  0
 12 13  1  0  0  0  0
 13 14  2  0  0  0  0
 13 44  1  0  0  0  0
 14 15  1  0  0  0  0
 15 19  1  0  0  0  0
 15 16  2  0  0  0  0
 16 17  1  0  0  0  0
 17 18  2  0  0  0  0
 18 19  1  0  0  0  0
 18 45  1  0  0  0  0
 19 20  1  0  0  0  0
 20 27  1  0  0  0  0
 20 21  1  0  0  0  0
 20 46  1  0  0  0  0
 21 22  1  0  0  0  0
 21 47  1  0  0  0  0
 21 48  1  0  0  0  0
 22 23  1  0  0  0  0
 22 25  1  0  0  0  0
 22 27  1  0  0  0  0
 23 24  1  0  0  0  0
 23 49  1  0  0  0  0
 23 50  1  0  0  0  0
 24 51  1  0  0  0  0
 25 26  1  0  0  0  0
 25 52  1  0  0  0  0
 25 53  1  0  0  0  0
 26 54  1  0  0  0  0
 27 55  1  0  0  0  0
 27 56  1  0  0  0  0
 28 57  1  0  0  0  0
 28 58  1  0  0  0  0
M  CHG  1   2   1
M  END
> <s_m_source_file>
AV-unprocessed.smi

> <i_m_source_file_index>
198

> <i_lp_mmshare_version>
43012

> <i_f3d_flags>
0

> <s_epik_input>
W0NIMl0xW0NIMl1OKFtDSDNdKVtDSDJdW0NAQEhdKFtDQEhdMTIpW0NIMl1bQ0gyXVtDSDJdTjJjKG5bY0hdbjMpYyhjMzQpbltjSF1uNFtDSF0oW0NIMl01KVtDSDJdQzUoW0NIMl1bT0hdKVtDSDJdW09IXQ==

> <s_epik_cmdline>
J2VwaWtfcHl0aG9uJywgJy1waCcsICc3LjAnLCAnLXRuJywgJzgnLCAnLW1hJywgJzIwMCcsICctbWV0YWxfYmluZGluZycsICctaW1hZScsICc8aW5maWxlLm1hZT4nLCAnLW9tYWUnLCAnPG91dGZpbGUubWFlPic=

> <r_lp_tautomer_probability>
1

> <r_epik_Ionization_Penalty>
0.00239938

> <r_epik_Ionization_Penalty_Charging>
0.00138697

> <r_epik_Ionization_Penalty_Neutral>
0.00101241

> <r_epik_State_Penalty>
-0

> <r_epik_Charging_Adjusted_Penalty>
0.00138697

> <i_epik_Tot_Q>
1

> <i_epik_Tot_abs_Q>
1

> <r_epik_Metal_State_Penalty>
-0

> <b_epik_Metal_Only>
0

> <s_lp_Force_Field>
OPLS_2005

> <r_lp_Energy>
58.6864

> <b_lp_Chiralities_Consistent>
1

> <s_lp_Variant>
AV-unprocessed.smi:198-3

> <Gold.Version>
5.8.1

> <Gold.Id.Protein>
6NUR|6NUR_protein|mol2

> <Gold.PLP.Fitness>
46.0337

> <Gold.PLP.PLP>
-38.0998

> <Gold.PLP.part.hbond>
-3.2762

> <Gold.PLP.part.metal>
0.0000

> <Gold.PLP.part.buried>
0.4549

> <Gold.PLP.part.nonpolar>
-35.2919

> <Gold.PLP.part.repulsive>
0.5778

> <Gold.PLP.ligand.clash>
0.0000

> <Gold.PLP.ligand.torsion>
0.8253

> <Gold.PLP.Chemscore.Hbond>
2.0000

> <Gold.PLP.Chemscore.CHOScore>
0.9768

> <Gold.PLP.Chemscore.Metal>
0.0000

> <Gold.Chemscore.Hbonds>
donor molecule, donor type, donor heavy atom, donor atom, acceptor molecule, acceptor atom, score
      L1  H    24    51       P1 10747  0.73
      L1  H    26    54       P1 10952  1.00
      L1  C    18    45       P1 10171  1.00

> <Gold.PLP.Chemscore.Internal.Correction>
0.6542

> <Gold.Rescore>
     Score         DG    S(hbond)    S(metal)    S(lipo)     H(rot)  DE(clash)    DE(int)     intcor
     13.41     -15.43       1.98        0.00      95.91       3.08       1.16       0.86       ----

> <Gold.Chemscore.Fitness>
13.4073

> <Gold.Chemscore.DG>
-15.4266

> <Gold.Chemscore.ZeroCoef>
-5.4800

> <Gold.Chemscore.Hbond>
1.9776

> <Gold.Chemscore.Metal>
0.0000

> <Gold.Chemscore.Lipo>
95.9087

> <Gold.Chemscore.Internal_Hbond>
0.0000

> <Gold.Chemscore.DEClash>
1.1600

> <Gold.Chemscore.DEInternal>
0.8593

> <Gold.Chemscore.Rot>
3.0781

> <Gold.Chemscore.Internal.Correction>
   9.000000E+99

> <Gold.Chemscore.Hbonds>
donor molecule, donor type, donor heavy atom, donor atom, acceptor molecule, acceptor atom, score
      L1  H    24    51       P1 10747  0.72
      L1  H    26    54       P1 10952  0.99

> <Gold.Chemscore.Hbond.Weighted>
-6.6053

> <Gold.Chemscore.Metal.Weighted>
-0.0000

> <Gold.Chemscore.Lipo.Weighted>
-11.2213

> <Gold.Chemscore.Internal_Hbond.Weighted>
0.0000

> <Gold.Chemscore.DEClash.Weighted>
1.1600

> <Gold.Chemscore.DEInternal.Weighted>
0.8593

> <Gold.Chemscore.Rot.Weighted>
7.8800

> <Gold.Chemscore.Internal.Correction.Weighted>
   9.000000E+99

> <Gold.Protein.RotatedTorsions>
[ 6907 6896 6895 6894 ] final -159.45 input  -60.11 | X-H torsion
[ 7974 7965 7964 7962 ] final  178.22 input  175.53 | X-H torsion
[ 8008 7997 7996 7995 ] final    8.30 input   59.86 | X-H torsion
[ 10167 10162 10161 10158 ] final -138.67 input  -65.29 | X-H torsion
[ 10718 10713 10712 10709 ] final  137.92 input   66.30 | X-H torsion
[ 10763 10752 10751 10750 ] final -101.61 input  -60.55 | X-H torsion
[ 11005 11000 10999 10996 ] final   46.98 input  -57.11 | X-H torsion

> <Gold.Protein.ActiveResidues>
 VAL166  LYS551  ARG553  GLY616  TRP617  ASP618  TYR619  PRO620  LYS621  CYS622 
 ASP623  PHE694  ASN695  SER759  ASP760  ASP761  ALA762  ILE779  LEU786  VAL792 
 PHE793  MET794  SER795  GLU796  ALA797  LYS798  CYS799  TRP800  GLU811  SER814 

> <Gold.Protein.RotatedAtoms>
  151.3338  133.3989  159.2664 H   0  0  0  0  0  0  0  0  0  0  0  0  # atno 6907 bound_to 6896
  150.9933  134.9264  159.7923 H   0  0  0  0  0  0  0  0  0  0  0  0  # atno 6908 bound_to 6896
  152.5254  134.3303  159.9233 H   0  0  0  0  0  0  0  0  0  0  0  0  # atno 6909 bound_to 6896
  144.7159  140.0365  143.6438 H   0  0  0  0  0  0  0  0  0  0  0  0  # atno 7974 bound_to 7965
  154.7650  140.2791  155.6183 H   0  0  0  0  0  0  0  0  0  0  0  0  # atno 8008 bound_to 7997
  156.2923  140.2652  156.2365 H   0  0  0  0  0  0  0  0  0  0  0  0  # atno 8009 bound_to 7997
  154.9970  140.0373  157.2334 H   0  0  0  0  0  0  0  0  0  0  0  0  # atno 8010 bound_to 7997
  139.8455  143.7266  152.2661 H   0  0  0  0  0  0  0  0  0  0  0  0  # atno 10167 bound_to 10162
  157.4309  131.1048  151.0251 H   0  0  0  0  0  0  0  0  0  0  0  0  # atno 10718 bound_to 10713
  154.7671  135.4891  153.9575 H   0  0  0  0  0  0  0  0  0  0  0  0  # atno 10763 bound_to 10752
  153.1321  135.6755  153.9169 H   0  0  0  0  0  0  0  0  0  0  0  0  # atno 10764 bound_to 10752
  153.8869  135.3125  155.3425 H   0  0  0  0  0  0  0  0  0  0  0  0  # atno 10765 bound_to 10752
  140.1320  134.4694  155.8514 H   0  0  0  0  0  0  0  0  0  0  0  0  # atno 11005 bound_to 11000
  146.0059  139.3130  143.0899 LP  0  0  0  0  0  0  0  0  0  0  0  0  # atno 17320 bound_to 7965
  145.8738  140.9404  143.0636 LP  0  0  0  0  0  0  0  0  0  0  0  0  # atno 17321 bound_to 7965
  139.7517  144.7532  151.0497 LP  0  0  0  0  0  0  0  0  0  0  0  0  # atno 17342 bound_to 10162
  140.7793  143.4852  150.9965 LP  0  0  0  0  0  0  0  0  0  0  0  0  # atno 17343 bound_to 10162
  157.1148  130.6037  149.5490 LP  0  0  0  0  0  0  0  0  0  0  0  0  # atno 17370 bound_to 10713
  155.9913  130.4967  150.7292 LP  0  0  0  0  0  0  0  0  0  0  0  0  # atno 17371 bound_to 10713
  141.2172  133.6799  156.7086 LP  0  0  0  0  0  0  0  0  0  0  0  0  # atno 17394 bound_to 11000
  140.2830  134.8301  157.3950 LP  0  0  0  0  0  0  0  0  0  0  0  0  # atno 17395 bound_to 11000

$$$$
