AV-unprocessed.smi:2246|AV-procd|sdf|9085|dock6
  -GOLD-   2272012283D 1   1.00000     0.00000
 Structure written by MMmdl.
 28 29  0  0  0  0  0  0  0  0  2 V2000
  150.5176  141.0389  159.0995 O   0  0  0  0  0  0  0  0  0  0  0  0
  150.6531  141.3972  157.9301 C   0  0  0  0  0  0  0  0  0  0  0  0
  150.5577  140.4270  156.7539 C   0  0  2  0  0  0  0  0  0  0  0  0
  151.6390  139.4132  156.8153 N   0  0  0  0  0  0  0  0  0  0  0  0
  152.2620  139.1525  158.0552 C   0  0  0  0  0  0  0  0  0  0  0  0
  153.2219  138.2196  158.1996 C   0  0  0  0  0  0  0  0  0  0  0  0
  153.9573  137.9299  159.7359 Cl  0  0  0  0  0  0  0  0  0  0  0  0
  153.6143  137.4528  157.0211 C   0  0  0  0  0  0  0  0  0  0  0  0
  154.5025  136.6066  157.1124 O   0  0  0  0  0  0  0  0  0  0  0  0
  152.9621  137.7139  155.8515 N   0  5  0  0  0  0  0  0  0  0  0  0
  151.9787  138.6575  155.7254 C   0  0  0  0  0  0  0  0  0  0  0  0
  151.3967  138.8467  154.6573 O   0  0  0  0  0  0  0  0  0  0  0  0
  150.6725  141.3655  155.5323 C   0  0  0  0  0  0  0  0  0  0  0  0
  150.9837  142.7669  156.0747 C   0  0  0  0  0  0  0  0  0  0  0  0
  150.8796  142.6497  157.5182 N   0  0  0  0  0  0  0  0  0  0  0  0
  151.0308  143.8278  158.3704 C   0  0  0  0  0  0  0  0  0  0  0  0
  152.5032  144.2455  158.5416 C   0  0  0  0  0  0  0  0  0  0  0  0
  153.1662  143.2564  159.1394 F   0  0  0  0  0  0  0  0  0  0  0  0
  153.0795  144.4876  157.3644 F   0  0  0  0  0  0  0  0  0  0  0  0
  152.5907  145.3356  159.3040 F   0  0  0  0  0  0  0  0  0  0  0  0
  149.5595  139.9872  156.7572 H   0  0  0  0  0  0  0  0  0  0  0  0
  151.9081  139.7446  158.8854 H   0  0  0  0  0  0  0  0  0  0  0  0
  151.4121  141.0406  154.7997 H   0  0  0  0  0  0  0  0  0  0  0  0
  149.7173  141.3864  155.0059 H   0  0  0  0  0  0  0  0  0  0  0  0
  151.9932  143.0770  155.8023 H   0  0  0  0  0  0  0  0  0  0  0  0
  150.2832  143.5092  155.6903 H   0  0  0  0  0  0  0  0  0  0  0  0
  150.4651  144.6537  157.9368 H   0  0  0  0  0  0  0  0  0  0  0  0
  150.5818  143.6327  159.3457 H   0  0  0  0  0  0  0  0  0  0  0  0
  1  2  2  0  0  0  0
  2 15  1  0  0  0  0
  2  3  1  0  0  0  0
  3  4  1  0  0  0  0
  3 13  1  0  0  0  0
  3 21  1  0  0  0  0
  4 11  1  0  0  0  0
  4  5  1  0  0  0  0
  5  6  2  0  0  0  0
  5 22  1  0  0  0  0
  6  7  1  0  0  0  0
  6  8  1  0  0  0  0
  8  9  2  0  0  0  0
  8 10  1  0  0  0  0
 10 11  1  0  0  0  0
 11 12  2  0  0  0  0
 13 14  1  0  0  0  0
 13 23  1  0  0  0  0
 13 24  1  0  0  0  0
 14 15  1  0  0  0  0
 14 25  1  0  0  0  0
 14 26  1  0  0  0  0
 15 16  1  0  0  0  0
 16 17  1  0  0  0  0
 16 27  1  0  0  0  0
 16 28  1  0  0  0  0
 17 18  1  0  0  0  0
 17 19  1  0  0  0  0
 17 20  1  0  0  0  0
M  CHG  1  10  -1
M  END
> <s_m_source_file>
AV-unprocessed.smi

> <i_m_source_file_index>
2246

> <i_lp_mmshare_version>
43012

> <i_f3d_flags>
0

> <s_epik_input>
RkMoRikoRilbQ0gyXU4xW0NIMl1bQ0gyXVtDQEBIXShDMT1PKW4yW2NIXWMoQ2wpYyg9TylbbkhdYzI9Tw==

> <s_epik_cmdline>
J2VwaWtfcHl0aG9uJywgJy1waCcsICc3LjAnLCAnLXRuJywgJzgnLCAnLW1hJywgJzIwMCcsICctbWV0YWxfYmluZGluZycsICctaW1hZScsICc8aW5maWxlLm1hZT4nLCAnLW9tYWUnLCAnPG91dGZpbGUubWFlPic=

> <r_epik_Ionization_Penalty>
1.33611

> <r_epik_Ionization_Penalty_Charging>
6.88308e-09

> <r_epik_Ionization_Penalty_Neutral>
1.33611

> <r_epik_State_Penalty>
1.41295

> <r_epik_Charging_Adjusted_Penalty>
1.41295

> <i_epik_Tot_Q>
-1

> <i_epik_Tot_abs_Q>
1

> <r_epik_Metal_State_Penalty>
0.00581136

> <b_epik_Metal_Only>
0

> <s_lp_Force_Field>
OPLS_2005

> <r_lp_Energy>
31.0989

> <b_lp_Chiralities_Consistent>
1

> <s_lp_Variant>
AV-unprocessed.smi:2246-4

> <Gold.Version>
5.8.1

> <Gold.Id.Protein>
6NUR|6NUR_protein|mol2

> <Gold.PLP.Fitness>
40.2619

> <Gold.PLP.PLP>
-36.2813

> <Gold.PLP.part.hbond>
-4.5865

> <Gold.PLP.part.metal>
0.0000

> <Gold.PLP.part.buried>
0.4116

> <Gold.PLP.part.nonpolar>
-31.6854

> <Gold.PLP.part.repulsive>
0.1007

> <Gold.PLP.ligand.clash>
0.0000

> <Gold.PLP.ligand.torsion>
0.6792

> <Gold.PLP.Chemscore.Hbond>
1.7436

> <Gold.PLP.Chemscore.CHOScore>
0.0000

> <Gold.PLP.Chemscore.Metal>
0.0000

> <Gold.Chemscore.Hbonds>
donor molecule, donor type, donor heavy atom, donor atom, acceptor molecule, acceptor atom, score
      P1  H  7989  7998       L1    12  0.24
      P1  H 10752 10763       L1     9  0.37

> <Gold.PLP.Chemscore.Internal.Correction>
0.1082

> <Gold.Rescore>
     Score         DG    S(hbond)    S(metal)    S(lipo)     H(rot)  DE(clash)    DE(int)     intcor
      7.98     -13.66       1.54        0.00      57.64       1.45       2.03       3.65       ----

> <Gold.Chemscore.Fitness>
7.9829

> <Gold.Chemscore.DG>
-13.6594

> <Gold.Chemscore.ZeroCoef>
-5.4800

> <Gold.Chemscore.Hbond>
1.5393

> <Gold.Chemscore.Metal>
0.0000

> <Gold.Chemscore.Lipo>
57.6423

> <Gold.Chemscore.Internal_Hbond>
0.0000

> <Gold.Chemscore.DEClash>
2.0301

> <Gold.Chemscore.DEInternal>
3.6464

> <Gold.Chemscore.Rot>
1.4476

> <Gold.Chemscore.Internal.Correction>
   9.000000E+99

> <Gold.Chemscore.Hbonds>
donor molecule, donor type, donor heavy atom, donor atom, acceptor molecule, acceptor atom, score
      P1  H  7989  7998       L1    12  0.24
      P1  H 10752 10763       L1     9  0.24

> <Gold.Chemscore.Hbond.Weighted>
-5.1412

> <Gold.Chemscore.Metal.Weighted>
-0.0000

> <Gold.Chemscore.Lipo.Weighted>
-6.7442

> <Gold.Chemscore.Internal_Hbond.Weighted>
0.0000

> <Gold.Chemscore.DEClash.Weighted>
2.0301

> <Gold.Chemscore.DEInternal.Weighted>
3.6464

> <Gold.Chemscore.Rot.Weighted>
3.7059

> <Gold.Chemscore.Internal.Correction.Weighted>
   9.000000E+99

> <Gold.Protein.RotatedTorsions>
[ 6907 6896 6895 6894 ] final -101.57 input  -60.11 | X-H torsion
[ 7974 7965 7964 7962 ] final -151.60 input  175.53 | X-H torsion
[ 8008 7997 7996 7995 ] final -121.53 input   59.86 | X-H torsion
[ 10167 10162 10161 10158 ] final   25.89 input  -65.29 | X-H torsion
[ 10718 10713 10712 10709 ] final   81.13 input   66.30 | X-H torsion
[ 10763 10752 10751 10750 ] final  170.76 input  -60.55 | X-H torsion
[ 11005 11000 10999 10996 ] final  -14.75 input  -57.11 | X-H torsion

> <Gold.Protein.ActiveResidues>
 VAL166  LYS551  ARG553  GLY616  TRP617  ASP618  TYR619  PRO620  LYS621  CYS622 
 ASP623  PHE694  ASN695  SER759  ASP760  ASP761  ALA762  ILE779  LEU786  VAL792 
 PHE793  MET794  SER795  GLU796  ALA797  LYS798  CYS799  TRP800  GLU811  SER814 

> <Gold.Protein.RotatedAtoms>
  150.7160  134.0713  159.3865 H   0  0  0  0  0  0  0  0  0  0  0  0  # atno 6907 bound_to 6896
  151.8696  135.0492  160.0487 H   0  0  0  0  0  0  0  0  0  0  0  0  # atno 6908 bound_to 6896
  152.2654  133.5298  159.5443 H   0  0  0  0  0  0  0  0  0  0  0  0  # atno 6909 bound_to 6896
  144.7841  140.4776  143.5819 H   0  0  0  0  0  0  0  0  0  0  0  0  # atno 7974 bound_to 7965
  155.1494  140.0403  157.2817 H   0  0  0  0  0  0  0  0  0  0  0  0  # atno 8008 bound_to 7997
  154.6415  140.2548  155.7290 H   0  0  0  0  0  0  0  0  0  0  0  0  # atno 8009 bound_to 7997
  156.2534  140.2855  156.0810 H   0  0  0  0  0  0  0  0  0  0  0  0  # atno 8010 bound_to 7997
  140.5069  144.0224  150.6356 H   0  0  0  0  0  0  0  0  0  0  0  0  # atno 10167 bound_to 10162
  157.6825  130.9990  150.2180 H   0  0  0  0  0  0  0  0  0  0  0  0  # atno 10718 bound_to 10713
  154.4022  135.2755  155.2089 H   0  0  0  0  0  0  0  0  0  0  0  0  # atno 10763 bound_to 10752
  154.4110  135.6022  153.5956 H   0  0  0  0  0  0  0  0  0  0  0  0  # atno 10764 bound_to 10752
  152.9831  135.5949  154.4292 H   0  0  0  0  0  0  0  0  0  0  0  0  # atno 10765 bound_to 10752
  140.7896  133.8298  155.9367 H   0  0  0  0  0  0  0  0  0  0  0  0  # atno 11005 bound_to 11000
  145.5970  139.1500  143.3150 LP  0  0  0  0  0  0  0  0  0  0  0  0  # atno 17320 bound_to 7965
  146.2064  140.6093  142.9079 LP  0  0  0  0  0  0  0  0  0  0  0  0  # atno 17321 bound_to 7965
  140.3536  143.2949  152.0460 LP  0  0  0  0  0  0  0  0  0  0  0  0  # atno 17342 bound_to 10162
  139.4886  144.6356  151.6983 LP  0  0  0  0  0  0  0  0  0  0  0  0  # atno 17343 bound_to 10162
  156.2838  130.3737  149.7909 LP  0  0  0  0  0  0  0  0  0  0  0  0  # atno 17370 bound_to 10713
  156.5589  130.8375  151.3323 LP  0  0  0  0  0  0  0  0  0  0  0  0  # atno 17371 bound_to 10713
  140.9403  134.1910  157.4802 LP  0  0  0  0  0  0  0  0  0  0  0  0  # atno 17394 bound_to 11000
  139.8733  134.9869  156.5344 LP  0  0  0  0  0  0  0  0  0  0  0  0  # atno 17395 bound_to 11000

$$$$
