AV-unprocessed.smi:76|AV-procd|sdf|770|dock4
  -GOLD-   2262017113D 1   1.00000     0.00000
 Structure written by MMmdl.
 55 58  0  0  0  0  0  0  0  0  1 V2000
  149.1457  141.6519  156.4984 C   0  0  0  0  0  0  0  0  0  0  0  0
  150.6825  141.6907  156.3839 C   0  0  1  0  0  0  0  0  0  0  0  0
  151.2965  142.9145  157.0966 C   0  0  0  0  0  0  0  0  0  0  0  0
  151.2784  142.7794  158.6350 C   0  0  2  0  0  0  0  0  0  0  0  0
  151.9178  143.9961  159.3342 C   0  0  0  0  0  0  0  0  0  0  0  0
  151.1382  145.0673  159.1863 F   0  0  0  0  0  0  0  0  0  0  0  0
  152.0877  143.7630  160.6359 F   0  0  0  0  0  0  0  0  0  0  0  0
  153.1027  144.2650  158.7858 F   0  0  0  0  0  0  0  0  0  0  0  0
  151.9587  141.4553  159.0343 C   0  0  0  0  0  0  0  0  0  0  0  0
  151.3176  140.2555  158.3203 C   0  0  0  0  0  0  0  0  0  0  0  0
  151.3096  140.4555  156.8693 N   0  0  0  0  0  0  0  0  0  0  0  0
  151.1521  139.3576  156.0841 C   0  0  0  0  0  0  0  0  0  0  0  0
  150.9569  139.5093  154.7464 N   0  0  0  0  0  0  0  0  0  0  0  0
  150.8156  138.4405  153.9579 C   0  0  0  0  0  0  0  0  0  0  0  0
  150.8304  137.1495  154.2925 N   0  0  0  0  0  0  0  0  0  0  0  0
  151.0125  136.9885  155.6343 C   0  0  0  0  0  0  0  0  0  0  0  0
  151.1852  138.0277  156.5925 C   0  0  0  0  0  0  0  0  0  0  0  0
  151.3400  137.4776  157.8594 N   0  0  0  0  0  0  0  0  0  0  0  0
  151.2739  136.1900  157.6600 C   0  0  0  0  0  0  0  0  0  0  0  0
  151.0588  135.8071  156.3552 N   0  0  0  0  0  0  0  0  0  0  0  0
  150.9409  134.4447  155.8541 C   0  0  0  0  0  0  0  0  0  0  0  0
  149.5262  133.8010  156.0092 C   0  0  0  0  0  0  0  0  0  0  0  0
  148.8361  134.4164  157.2585 C   0  0  0  0  0  0  0  0  0  0  0  0
  149.1874  133.7764  158.4694 O   0  0  0  0  0  0  0  0  0  0  0  0
  148.6933  134.1000  154.7356 C   0  0  0  0  0  0  0  0  0  0  0  0
  149.1788  133.3059  153.5074 C   0  0  0  0  0  0  0  0  0  0  0  0
  149.1856  131.9126  153.7952 O   0  0  0  0  0  0  0  0  0  0  0  0
  150.0607  131.5678  154.8623 C   0  0  0  0  0  0  0  0  0  0  0  0
  149.6028  132.2596  156.1587 C   0  0  0  0  0  0  0  0  0  0  0  0
  148.7052  142.5735  156.1174 H   0  0  0  0  0  0  0  0  0  0  0  0
  148.8109  141.5280  157.5281 H   0  0  0  0  0  0  0  0  0  0  0  0
  148.7281  140.8301  155.9160 H   0  0  0  0  0  0  0  0  0  0  0  0
  150.9111  141.8108  155.3262 H   0  0  0  0  0  0  0  0  0  0  0  0
  152.3278  143.0324  156.7617 H   0  0  0  0  0  0  0  0  0  0  0  0
  150.7756  143.8214  156.7887 H   0  0  0  0  0  0  0  0  0  0  0  0
  150.2385  142.7317  158.9602 H   0  0  0  0  0  0  0  0  0  0  0  0
  153.0197  141.4967  158.7847 H   0  0  0  0  0  0  0  0  0  0  0  0
  151.9010  141.3093  160.1131 H   0  0  0  0  0  0  0  0  0  0  0  0
  151.8777  139.3534  158.5707 H   0  0  0  0  0  0  0  0  0  0  0  0
  150.2978  140.1059  158.6762 H   0  0  0  0  0  0  0  0  0  0  0  0
  150.6691  138.6502  152.9085 H   0  0  0  0  0  0  0  0  0  0  0  0
  151.3712  135.4797  158.4680 H   0  0  0  0  0  0  0  0  0  0  0  0
  151.2296  134.4506  154.8023 H   0  0  0  0  0  0  0  0  0  0  0  0
  151.7047  133.8530  156.3562 H   0  0  0  0  0  0  0  0  0  0  0  0
  149.0976  135.4690  157.3657 H   0  0  0  0  0  0  0  0  0  0  0  0
  147.7515  134.3684  157.1551 H   0  0  0  0  0  0  0  0  0  0  0  0
  149.0348  132.8487  158.3738 H   0  0  0  0  0  0  0  0  0  0  0  0
  147.6483  133.8354  154.8977 H   0  0  0  0  0  0  0  0  0  0  0  0
  148.7007  135.1682  154.5162 H   0  0  0  0  0  0  0  0  0  0  0  0
  148.5071  133.4808  152.6668 H   0  0  0  0  0  0  0  0  0  0  0  0
  150.1675  133.6278  153.1806 H   0  0  0  0  0  0  0  0  0  0  0  0
  150.0369  130.4860  154.9935 H   0  0  0  0  0  0  0  0  0  0  0  0
  151.0883  131.8276  154.6075 H   0  0  0  0  0  0  0  0  0  0  0  0
  150.2477  131.9750  156.9894 H   0  0  0  0  0  0  0  0  0  0  0  0
  148.6185  131.8632  156.4089 H   0  0  0  0  0  0  0  0  0  0  0  0
  1  2  1  0  0  0  0
  1 30  1  0  0  0  0
  1 31  1  0  0  0  0
  1 32  1  0  0  0  0
  2 11  1  0  0  0  0
  2  3  1  0  0  0  0
  2 33  1  0  0  0  0
  3  4  1  0  0  0  0
  3 34  1  0  0  0  0
  3 35  1  0  0  0  0
  4  5  1  0  0  0  0
  4  9  1  0  0  0  0
  4 36  1  0  0  0  0
  5  6  1  0  0  0  0
  5  7  1  0  0  0  0
  5  8  1  0  0  0  0
  9 10  1  0  0  0  0
  9 37  1  0  0  0  0
  9 38  1  0  0  0  0
 10 11  1  0  0  0  0
 10 39  1  0  0  0  0
 10 40  1  0  0  0  0
 11 12  1  0  0  0  0
 12 17  1  0  0  0  0
 12 13  2  0  0  0  0
 13 14  1  0  0  0  0
 14 15  2  0  0  0  0
 14 41  1  0  0  0  0
 15 16  1  0  0  0  0
 16 20  1  0  0  0  0
 16 17  2  0  0  0  0
 17 18  1  0  0  0  0
 18 19  2  0  0  0  0
 19 20  1  0  0  0  0
 19 42  1  0  0  0  0
 20 21  1  0  0  0  0
 21 22  1  0  0  0  0
 21 43  1  0  0  0  0
 21 44  1  0  0  0  0
 22 29  1  0  0  0  0
 22 23  1  0  0  0  0
 22 25  1  0  0  0  0
 23 24  1  0  0  0  0
 23 45  1  0  0  0  0
 23 46  1  0  0  0  0
 24 47  1  0  0  0  0
 25 26  1  0  0  0  0
 25 48  1  0  0  0  0
 25 49  1  0  0  0  0
 26 27  1  0  0  0  0
 26 50  1  0  0  0  0
 26 51  1  0  0  0  0
 27 28  1  0  0  0  0
 28 29  1  0  0  0  0
 28 52  1  0  0  0  0
 28 53  1  0  0  0  0
 29 54  1  0  0  0  0
 29 55  1  0  0  0  0
M  END
> <s_m_source_file>
AV-unprocessed.smi

> <i_m_source_file_index>
76

> <i_lp_mmshare_version>
43012

> <i_f3d_flags>
0

> <s_epik_input>
W0NIM11bQ0BASF0xW0NIMl1bQ0BASF0oQyhGKShGKUYpW0NIMl1bQ0gyXU4xYyhuW2NIXW4yKWMoYzIzKW5bY0hdbjNbQ0gyXUM0KFtDSDJdW09IXSlbQ0gyXVtDSDJdT1tDSDJdW0NIMl00

> <s_epik_cmdline>
J2VwaWtfcHl0aG9uJywgJy1waCcsICc3LjAnLCAnLXRuJywgJzgnLCAnLW1hJywgJzIwMCcsICctbWV0YWxfYmluZGluZycsICctaW1hZScsICc8aW5maWxlLm1hZT4nLCAnLW9tYWUnLCAnPG91dGZpbGUubWFlPic=

> <r_lp_tautomer_probability>
1

> <r_epik_Ionization_Penalty>
0.00244097

> <r_epik_Ionization_Penalty_Charging>
0

> <r_epik_Ionization_Penalty_Neutral>
0.00244097

> <r_epik_State_Penalty>
0.00151846

> <r_epik_Charging_Adjusted_Penalty>
0.00151846

> <i_epik_Tot_Q>
0

> <i_epik_Tot_abs_Q>
0

> <r_epik_Metal_State_Penalty>
-0

> <b_epik_Metal_Only>
0

> <s_lp_Force_Field>
OPLS_2005

> <r_lp_Energy>
37.9525

> <b_lp_Chiralities_Consistent>
1

> <s_lp_Variant>
AV-unprocessed.smi:76-4

> <Gold.Version>
5.8.1

> <Gold.Id.Protein>
6NUR|6NUR_protein|mol2

> <Gold.PLP.Fitness>
52.7340

> <Gold.PLP.PLP>
-46.9752

> <Gold.PLP.part.hbond>
-2.0000

> <Gold.PLP.part.metal>
0.0000

> <Gold.PLP.part.buried>
-6.6397

> <Gold.PLP.part.nonpolar>
-40.0187

> <Gold.PLP.part.repulsive>
0.8936

> <Gold.PLP.ligand.clash>
0.0000

> <Gold.PLP.ligand.torsion>
1.6257

> <Gold.PLP.Chemscore.Hbond>
2.0000

> <Gold.PLP.Chemscore.CHOScore>
0.8934

> <Gold.PLP.Chemscore.Metal>
0.0000

> <Gold.Chemscore.Hbonds>
donor molecule, donor type, donor heavy atom, donor atom, acceptor molecule, acceptor atom, score
      P1  H  6896  6909       L1    24  1.00
      P1  H  7989  7998       L1    13  1.00
      L1  C    14    41       P1  7957  0.89

> <Gold.PLP.Chemscore.Internal.Correction>
0.3300

> <Gold.Rescore>
     Score         DG    S(hbond)    S(metal)    S(lipo)     H(rot)  DE(clash)    DE(int)     intcor
     10.09     -14.63       1.14        0.00      92.98       2.16       0.48       4.05       ----

> <Gold.Chemscore.Fitness>
10.0945

> <Gold.Chemscore.DG>
-14.6317

> <Gold.Chemscore.ZeroCoef>
-5.4800

> <Gold.Chemscore.Hbond>
1.1378

> <Gold.Chemscore.Metal>
0.0000

> <Gold.Chemscore.Lipo>
92.9760

> <Gold.Chemscore.Internal_Hbond>
0.0000

> <Gold.Chemscore.DEClash>
0.4831

> <Gold.Chemscore.DEInternal>
4.0542

> <Gold.Chemscore.Rot>
2.1589

> <Gold.Chemscore.Internal.Correction>
   9.000000E+99

> <Gold.Chemscore.Hbonds>
donor molecule, donor type, donor heavy atom, donor atom, acceptor molecule, acceptor atom, score
      P1  H  6896  6909       L1    24  0.24
      P1  H  7989  7998       L1    13  0.34

> <Gold.Chemscore.Hbond.Weighted>
-3.8003

> <Gold.Chemscore.Metal.Weighted>
-0.0000

> <Gold.Chemscore.Lipo.Weighted>
-10.8782

> <Gold.Chemscore.Internal_Hbond.Weighted>
0.0000

> <Gold.Chemscore.DEClash.Weighted>
0.4831

> <Gold.Chemscore.DEInternal.Weighted>
4.0542

> <Gold.Chemscore.Rot.Weighted>
5.5268

> <Gold.Chemscore.Internal.Correction.Weighted>
   9.000000E+99

> <Gold.Protein.RotatedTorsions>
[ 6907 6896 6895 6894 ] final   -5.03 input  -60.11 | X-H torsion
[ 7974 7965 7964 7962 ] final -178.45 input  175.53 | X-H torsion
[ 8008 7997 7996 7995 ] final -105.14 input   59.86 | X-H torsion
[ 10167 10162 10161 10158 ] final    0.46 input  -65.29 | X-H torsion
[ 10718 10713 10712 10709 ] final  -85.91 input   66.30 | X-H torsion
[ 10763 10752 10751 10750 ] final  105.11 input  -60.55 | X-H torsion
[ 11005 11000 10999 10996 ] final   21.43 input  -57.11 | X-H torsion

> <Gold.Protein.ActiveResidues>
 VAL166  LYS551  ARG553  GLY616  TRP617  ASP618  TYR619  PRO620  LYS621  CYS622 
 ASP623  PHE694  ASN695  SER759  ASP760  ASP761  ALA762  ILE779  LEU786  VAL792 
 PHE793  MET794  SER795  GLU796  ALA797  LYS798  CYS799  TRP800  GLU811  SER814 

> <Gold.Protein.RotatedAtoms>
  151.4882  135.1056  159.9795 H   0  0  0  0  0  0  0  0  0  0  0  0  # atno 6907 bound_to 6896
  152.4752  133.8117  159.7017 H   0  0  0  0  0  0  0  0  0  0  0  0  # atno 6908 bound_to 6896
  150.8785  133.7343  159.2965 H   0  0  0  0  0  0  0  0  0  0  0  0  # atno 6909 bound_to 6896
  144.7131  140.0867  143.6423 H   0  0  0  0  0  0  0  0  0  0  0  0  # atno 7974 bound_to 7965
  154.8955  140.0414  157.1863 H   0  0  0  0  0  0  0  0  0  0  0  0  # atno 8008 bound_to 7997
  154.8497  140.2927  155.5585 H   0  0  0  0  0  0  0  0  0  0  0  0  # atno 8009 bound_to 7997
  156.2995  140.2467  156.3453 H   0  0  0  0  0  0  0  0  0  0  0  0  # atno 8010 bound_to 7997
  140.6727  143.7002  150.7957 H   0  0  0  0  0  0  0  0  0  0  0  0  # atno 10167 bound_to 10162
  155.9993  130.4747  150.4635 H   0  0  0  0  0  0  0  0  0  0  0  0  # atno 10718 bound_to 10713
  153.3749  135.3921  155.1815 H   0  0  0  0  0  0  0  0  0  0  0  0  # atno 10763 bound_to 10752
  154.8699  135.3711  154.4930 H   0  0  0  0  0  0  0  0  0  0  0  0  # atno 10764 bound_to 10752
  153.5402  135.7084  153.5701 H   0  0  0  0  0  0  0  0  0  0  0  0  # atno 10765 bound_to 10752
  140.3916  134.1813  155.7662 H   0  0  0  0  0  0  0  0  0  0  0  0  # atno 11005 bound_to 11000
  145.9655  139.2832  143.1130 LP  0  0  0  0  0  0  0  0  0  0  0  0  # atno 17320 bound_to 7965
  145.9173  140.9139  143.0423 LP  0  0  0  0  0  0  0  0  0  0  0  0  # atno 17321 bound_to 7965
  140.0690  143.5079  152.2589 LP  0  0  0  0  0  0  0  0  0  0  0  0  # atno 17342 bound_to 10162
  139.6004  144.7580  151.3186 LP  0  0  0  0  0  0  0  0  0  0  0  0  # atno 17343 bound_to 10162
  157.2656  131.0576  151.2292 LP  0  0  0  0  0  0  0  0  0  0  0  0  # atno 17370 bound_to 10713
  157.3391  130.7024  149.6370 LP  0  0  0  0  0  0  0  0  0  0  0  0  # atno 17371 bound_to 10713
  141.1889  133.8251  157.0979 LP  0  0  0  0  0  0  0  0  0  0  0  0  # atno 17394 bound_to 11000
  140.0402  134.9858  157.0947 LP  0  0  0  0  0  0  0  0  0  0  0  0  # atno 17395 bound_to 11000

$$$$
