AV-unprocessed.smi:1575|AV-procd|sdf|6342|dock10
  -GOLD-   22720 6563D 1   1.00000     0.00000
 Structure written by MMmdl.
 40 40  0  0  0  0  0  0  0  0  2 V2000
  146.1158  138.0371  152.3408 C   0  0  0  0  0  0  0  0  0  0  0  0
  146.5004  136.6352  152.2902 N   0  0  0  0  0  0  0  0  0  0  0  0
  145.7171  135.6238  152.6911 C   0  0  0  0  0  0  0  0  0  0  0  0
  144.5907  135.7922  153.1614 O   0  0  0  0  0  0  0  0  0  0  0  0
  146.3085  134.2101  152.5596 C   0  0  1  0  0  0  0  0  0  0  0  0
  146.2388  133.8040  151.0680 C   0  0  0  0  0  0  0  0  0  0  0  0
  145.3671  132.5641  150.7626 C   0  0  0  0  0  0  0  0  0  0  0  0
  146.0096  131.7127  149.6570 C   0  0  0  0  0  0  0  0  0  0  0  0
  143.9250  132.9374  150.3802 C   0  0  0  0  0  0  0  0  0  0  0  0
  147.7092  134.2214  152.9806 N   0  0  0  0  0  0  0  0  0  0  0  0
  148.2631  133.3658  153.8535 C   0  0  0  0  0  0  0  0  0  0  0  0
  147.6433  132.4362  154.3723 O   0  0  0  0  0  0  0  0  0  0  0  0
  149.7503  133.5852  154.1603 C   0  0  0  0  0  0  0  0  0  0  0  0
  150.2463  132.7206  155.2432 N   0  0  0  0  0  0  0  0  0  0  0  0
  150.2490  131.3318  155.0238 C   0  0  0  0  0  0  0  0  0  0  0  0
  150.6825  130.4657  155.9593 C   0  0  0  0  0  0  0  0  0  0  0  0
  151.1587  131.0014  157.2285 C   0  0  0  0  0  0  0  0  0  0  0  0
  151.5635  130.2256  158.0922 O   0  0  0  0  0  0  0  0  0  0  0  0
  151.1312  132.3559  157.3956 N   0  5  0  0  0  0  0  0  0  0  0  0
  150.6856  133.2250  156.4358 C   0  0  0  0  0  0  0  0  0  0  0  0
  150.6681  134.4443  156.6082 O   0  0  0  0  0  0  0  0  0  0  0  0
  146.9227  138.6583  151.9529 H   0  0  0  0  0  0  0  0  0  0  0  0
  145.9092  138.3466  153.3658 H   0  0  0  0  0  0  0  0  0  0  0  0
  145.2260  138.2170  151.7363 H   0  0  0  0  0  0  0  0  0  0  0  0
  147.4136  136.4179  151.9185 H   0  0  0  0  0  0  0  0  0  0  0  0
  145.7308  133.5150  153.1708 H   0  0  0  0  0  0  0  0  0  0  0  0
  145.8649  134.6443  150.4804 H   0  0  0  0  0  0  0  0  0  0  0  0
  147.2503  133.6162  150.7022 H   0  0  0  0  0  0  0  0  0  0  0  0
  145.3228  131.9395  151.6554 H   0  0  0  0  0  0  0  0  0  0  0  0
  146.0842  132.2689  148.7219 H   0  0  0  0  0  0  0  0  0  0  0  0
  145.4258  130.8123  149.4632 H   0  0  0  0  0  0  0  0  0  0  0  0
  147.0146  131.3957  149.9372 H   0  0  0  0  0  0  0  0  0  0  0  0
  143.9029  133.6031  149.5171 H   0  0  0  0  0  0  0  0  0  0  0  0
  143.4068  133.4334  151.2004 H   0  0  0  0  0  0  0  0  0  0  0  0
  143.3448  132.0491  150.1285 H   0  0  0  0  0  0  0  0  0  0  0  0
  148.2905  134.9574  152.6069 H   0  0  0  0  0  0  0  0  0  0  0  0
  150.3141  133.4116  153.2429 H   0  0  0  0  0  0  0  0  0  0  0  0
  149.9263  134.6330  154.4109 H   0  0  0  0  0  0  0  0  0  0  0  0
  149.8748  131.0170  154.0607 H   0  0  0  0  0  0  0  0  0  0  0  0
  150.6751  129.4013  155.7765 H   0  0  0  0  0  0  0  0  0  0  0  0
  1  2  1  0  0  0  0
  1 22  1  0  0  0  0
  1 23  1  0  0  0  0
  1 24  1  0  0  0  0
  2  3  1  0  0  0  0
  2 25  1  0  0  0  0
  3  4  2  0  0  0  0
  3  5  1  0  0  0  0
  5  6  1  0  0  0  0
  5 10  1  0  0  0  0
  5 26  1  0  0  0  0
  6  7  1  0  0  0  0
  6 27  1  0  0  0  0
  6 28  1  0  0  0  0
  7  8  1  0  0  0  0
  7  9  1  0  0  0  0
  7 29  1  0  0  0  0
  8 30  1  0  0  0  0
  8 31  1  0  0  0  0
  8 32  1  0  0  0  0
  9 33  1  0  0  0  0
  9 34  1  0  0  0  0
  9 35  1  0  0  0  0
 10 11  1  0  0  0  0
 10 36  1  0  0  0  0
 11 12  2  0  0  0  0
 11 13  1  0  0  0  0
 13 14  1  0  0  0  0
 13 37  1  0  0  0  0
 13 38  1  0  0  0  0
 14 20  1  0  0  0  0
 14 15  1  0  0  0  0
 15 16  2  0  0  0  0
 15 39  1  0  0  0  0
 16 17  1  0  0  0  0
 16 40  1  0  0  0  0
 17 18  2  0  0  0  0
 17 19  1  0  0  0  0
 19 20  1  0  0  0  0
 20 21  2  0  0  0  0
M  CHG  1  19  -1
M  END
> <s_m_source_file>
AV-unprocessed.smi

> <i_m_source_file_index>
1575

> <i_lp_mmshare_version>
43012

> <i_f3d_flags>
0

> <s_epik_input>
W0NIM11bTkhdQyg9TylbQ0BIXShbQ0gyXVtDSF0oW0NIM10pW0NIM10pW05IXUMoPU8pW0NIMl1uMVtjSF1bY0hdYyg9TylbbkhdYzE9Tw==

> <s_epik_cmdline>
J2VwaWtfcHl0aG9uJywgJy1waCcsICc3LjAnLCAnLXRuJywgJzgnLCAnLW1hJywgJzIwMCcsICctbWV0YWxfYmluZGluZycsICctaW1hZScsICc8aW5maWxlLm1hZT4nLCAnLW9tYWUnLCAnPG91dGZpbGUubWFlPic=

> <r_lp_tautomer_probability>
0.999537

> <r_epik_Ionization_Penalty>
3.03017

> <r_epik_Ionization_Penalty_Charging>
2.35557e-08

> <r_epik_Ionization_Penalty_Neutral>
3.03017

> <r_epik_State_Penalty>
3.02913

> <r_epik_Charging_Adjusted_Penalty>
3.02913

> <i_epik_Tot_Q>
-1

> <i_epik_Tot_abs_Q>
1

> <r_epik_Metal_State_Penalty>
0.455824

> <b_epik_Metal_Only>
1

> <s_lp_Force_Field>
OPLS_2005

> <r_lp_Energy>
14.624

> <b_lp_Chiralities_Consistent>
1

> <s_lp_Variant>
AV-unprocessed.smi:1575-4

> <Gold.Version>
5.8.1

> <Gold.Id.Protein>
6NUR|6NUR_protein|mol2

> <Gold.PLP.Fitness>
41.2245

> <Gold.PLP.PLP>
-32.7708

> <Gold.PLP.part.hbond>
-2.8598

> <Gold.PLP.part.metal>
0.0000

> <Gold.PLP.part.buried>
-3.6585

> <Gold.PLP.part.nonpolar>
-27.2754

> <Gold.PLP.part.repulsive>
0.1582

> <Gold.PLP.ligand.clash>
0.0000

> <Gold.PLP.ligand.torsion>
1.8282

> <Gold.PLP.Chemscore.Hbond>
4.0000

> <Gold.PLP.Chemscore.CHOScore>
0.0000

> <Gold.PLP.Chemscore.Metal>
0.0000

> <Gold.Chemscore.Hbonds>
donor molecule, donor type, donor heavy atom, donor atom, acceptor molecule, acceptor atom, score
      L1  H     2    25       P1  7948  0.99
      L1  H    10    36       P1  7948  1.00
      P1  H  6896  6907       L1    19  1.76

> <Gold.PLP.Chemscore.Internal.Correction>
0.1101

> <Gold.Rescore>
     Score         DG    S(hbond)    S(metal)    S(lipo)     H(rot)  DE(clash)    DE(int)     intcor
     12.42     -14.96       2.86        0.00      59.37       2.74       0.11       2.43       ----

> <Gold.Chemscore.Fitness>
12.4188

> <Gold.Chemscore.DG>
-14.9582

> <Gold.Chemscore.ZeroCoef>
-5.4800

> <Gold.Chemscore.Hbond>
2.8609

> <Gold.Chemscore.Metal>
0.0000

> <Gold.Chemscore.Lipo>
59.3699

> <Gold.Chemscore.Internal_Hbond>
0.0000

> <Gold.Chemscore.DEClash>
0.1132

> <Gold.Chemscore.DEInternal>
2.4263

> <Gold.Chemscore.Rot>
2.7435

> <Gold.Chemscore.Internal.Correction>
   9.000000E+99

> <Gold.Chemscore.Hbonds>
donor molecule, donor type, donor heavy atom, donor atom, acceptor molecule, acceptor atom, score
      L1  H     2    25       P1  7948  0.92
      L1  H    10    36       P1  7948  0.64
      P1  H  6896  6907       L1    19  0.63

> <Gold.Chemscore.Hbond.Weighted>
-9.5553

> <Gold.Chemscore.Metal.Weighted>
-0.0000

> <Gold.Chemscore.Lipo.Weighted>
-6.9463

> <Gold.Chemscore.Internal_Hbond.Weighted>
0.0000

> <Gold.Chemscore.DEClash.Weighted>
0.1132

> <Gold.Chemscore.DEInternal.Weighted>
2.4263

> <Gold.Chemscore.Rot.Weighted>
7.0233

> <Gold.Chemscore.Internal.Correction.Weighted>
   9.000000E+99

> <Gold.Protein.RotatedTorsions>
[ 6907 6896 6895 6894 ] final -161.33 input  -60.11 | X-H torsion
[ 7974 7965 7964 7962 ] final  131.24 input  175.53 | X-H torsion
[ 8008 7997 7996 7995 ] final  -43.44 input   59.86 | X-H torsion
[ 10167 10162 10161 10158 ] final  148.38 input  -65.29 | X-H torsion
[ 10718 10713 10712 10709 ] final -169.46 input   66.30 | X-H torsion
[ 10763 10752 10751 10750 ] final  -11.31 input  -60.55 | X-H torsion
[ 11005 11000 10999 10996 ] final  -81.52 input  -57.11 | X-H torsion

> <Gold.Protein.ActiveResidues>
 VAL166  LYS551  ARG553  GLY616  TRP617  ASP618  TYR619  PRO620  LYS621  CYS622 
 ASP623  PHE694  ASN695  SER759  ASP760  ASP761  ALA762  ILE779  LEU786  VAL792 
 PHE793  MET794  SER795  GLU796  ALA797  LYS798  CYS799  TRP800  GLU811  SER814 

> <Gold.Protein.RotatedAtoms>
  151.3630  133.3882  159.2691 H   0  0  0  0  0  0  0  0  0  0  0  0  # atno 6907 bound_to 6896
  150.9710  134.9084  159.7798 H   0  0  0  0  0  0  0  0  0  0  0  0  # atno 6908 bound_to 6896
  152.5184  134.3592  159.9331 H   0  0  0  0  0  0  0  0  0  0  0  0  # atno 6909 bound_to 6896
  145.0093  139.4235  143.5253 H   0  0  0  0  0  0  0  0  0  0  0  0  # atno 7974 bound_to 7965
  154.3997  140.1448  156.3519 H   0  0  0  0  0  0  0  0  0  0  0  0  # atno 8008 bound_to 7997
  155.8261  140.3467  155.5522 H   0  0  0  0  0  0  0  0  0  0  0  0  # atno 8009 bound_to 7997
  155.8237  140.0902  157.1824 H   0  0  0  0  0  0  0  0  0  0  0  0  # atno 8010 bound_to 7997
  139.4876  144.5683  151.7102 H   0  0  0  0  0  0  0  0  0  0  0  0  # atno 10167 bound_to 10162
  156.7118  130.9236  151.3090 H   0  0  0  0  0  0  0  0  0  0  0  0  # atno 10718 bound_to 10713
  153.4820  135.7017  153.5933 H   0  0  0  0  0  0  0  0  0  0  0  0  # atno 10763 bound_to 10752
  153.4142  135.3841  155.2070 H   0  0  0  0  0  0  0  0  0  0  0  0  # atno 10764 bound_to 10752
  154.8721  135.3912  154.4270 H   0  0  0  0  0  0  0  0  0  0  0  0  # atno 10765 bound_to 10752
  141.1666  133.7200  156.8435 H   0  0  0  0  0  0  0  0  0  0  0  0  # atno 11005 bound_to 11000
  146.3467  139.9528  142.8727 LP  0  0  0  0  0  0  0  0  0  0  0  0  # atno 17320 bound_to 7965
  145.2044  140.9869  143.4137 LP  0  0  0  0  0  0  0  0  0  0  0  0  # atno 17321 bound_to 7965
  140.5266  144.0796  150.6039 LP  0  0  0  0  0  0  0  0  0  0  0  0  # atno 17342 bound_to 10162
  140.3772  143.2822  152.0211 LP  0  0  0  0  0  0  0  0  0  0  0  0  # atno 17343 bound_to 10162
  157.6933  130.9256  150.0574 LP  0  0  0  0  0  0  0  0  0  0  0  0  # atno 17370 bound_to 10713
  156.1656  130.3645  149.9238 LP  0  0  0  0  0  0  0  0  0  0  0  0  # atno 17371 bound_to 10713
  140.1966  134.8927  157.3122 LP  0  0  0  0  0  0  0  0  0  0  0  0  # atno 17394 bound_to 11000
  140.2232  134.3998  155.7556 LP  0  0  0  0  0  0  0  0  0  0  0  0  # atno 17395 bound_to 11000

$$$$
