AV-unprocessed.smi:1592|AV-procd|sdf|6406|dock7
  -GOLD-   22720 7 43D 1   1.00000     0.00000
 Structure written by MMmdl.
 26 27  0  0  0  0  0  0  0  0  2 V2000
  150.5196  141.3375  156.0299 O   0  0  0  0  0  0  0  0  0  0  0  0
  151.2146  140.6562  156.7895 C   0  0  0  0  0  0  0  0  0  0  0  0
  151.9419  141.0488  157.9106 N   0  0  0  0  0  0  0  0  0  0  0  0
  151.8108  142.2131  158.4861 C   0  0  0  0  0  0  0  0  0  0  0  0
  150.9117  143.1981  158.0412 N   0  0  0  0  0  0  0  0  0  0  0  0
  150.7705  144.4224  158.6593 C   0  0  0  0  0  0  0  0  0  0  0  0
  151.4945  144.7507  159.7304 C   0  0  0  0  0  0  0  0  0  0  0  0
  152.4487  143.7930  160.2500 C   0  0  0  0  0  0  0  0  0  0  0  0
  152.6336  142.5341  159.6664 C   0  0  0  0  0  0  0  0  0  0  0  0
  153.4691  141.7363  160.1513 O   0  5  0  0  0  0  0  0  0  0  0  0
  151.3615  139.1479  156.5236 C   0  0  1  0  0  0  0  0  0  0  0  0
  150.5094  138.6589  155.3349 C   0  0  0  0  0  0  0  0  0  0  0  0
  151.5158  138.0485  154.3751 C   0  0  0  0  0  0  0  0  0  0  0  0
  152.8113  138.7481  154.7573 C   0  0  0  0  0  0  0  0  0  0  0  0
  152.7115  138.8404  156.1702 O   0  0  0  0  0  0  0  0  0  0  0  0
  150.0378  145.0760  158.2098 H   0  0  0  0  0  0  0  0  0  0  0  0
  151.3707  145.7137  160.2034 H   0  0  0  0  0  0  0  0  0  0  0  0
  153.0302  144.0702  161.1175 H   0  0  0  0  0  0  0  0  0  0  0  0
  150.3245  143.0336  157.2369 H   0  0  0  0  0  0  0  0  0  0  0  0
  151.1132  138.5992  157.4332 H   0  0  0  0  0  0  0  0  0  0  0  0
  149.7583  137.9310  155.6430 H   0  0  0  0  0  0  0  0  0  0  0  0
  149.9840  139.4810  154.8459 H   0  0  0  0  0  0  0  0  0  0  0  0
  151.6050  136.9779  154.5624 H   0  0  0  0  0  0  0  0  0  0  0  0
  151.2485  138.1903  153.3278 H   0  0  0  0  0  0  0  0  0  0  0  0
  153.6981  138.1931  154.4507 H   0  0  0  0  0  0  0  0  0  0  0  0
  152.8605  139.7474  154.3218 H   0  0  0  0  0  0  0  0  0  0  0  0
  1  2  2  0  0  0  0
  2  3  1  0  0  0  0
  2 11  1  0  0  0  0
  3  4  2  0  0  0  0
  4  9  1  0  0  0  0
  4  5  1  0  0  0  0
  5 19  1  0  0  0  0
  5  6  1  0  0  0  0
  6 16  1  0  0  0  0
  6  7  2  0  0  0  0
  7 17  1  0  0  0  0
  7  8  1  0  0  0  0
  8  9  2  0  0  0  0
  8 18  1  0  0  0  0
  9 10  1  0  0  0  0
 11 15  1  0  0  0  0
 11 12  1  0  0  0  0
 11 20  1  0  0  0  0
 12 13  1  0  0  0  0
 12 21  1  0  0  0  0
 12 22  1  0  0  0  0
 13 14  1  0  0  0  0
 13 23  1  0  0  0  0
 13 24  1  0  0  0  0
 14 15  1  0  0  0  0
 14 25  1  0  0  0  0
 14 26  1  0  0  0  0
M  CHG  1  10  -1
M  END
> <s_m_source_file>
AV-unprocessed.smi

> <i_m_source_file_index>
1592

> <i_lp_mmshare_version>
43012

> <i_f3d_flags>
0

> <s_epik_input>
TzFbQ0gyXVtDSDJdW0NIMl1bQ0BIXTFDKD1PKVtOSF1jMm5bY0hdW2NIXVtjSF1jMltPSF0=

> <s_epik_cmdline>
J2VwaWtfcHl0aG9uJywgJy1waCcsICc3LjAnLCAnLXRuJywgJzgnLCAnLW1hJywgJzIwMCcsICctbWV0YWxfYmluZGluZycsICctaW1hZScsICc8aW5maWxlLm1hZT4nLCAnLW9tYWUnLCAnPG91dGZpbGUubWFlPic=

> <r_epik_Ionization_Penalty>
0.780127

> <r_epik_Ionization_Penalty_Charging>
0.780127

> <r_epik_Ionization_Penalty_Neutral>
6.55423e-13

> <r_epik_State_Penalty>
1.4426

> <r_epik_Charging_Adjusted_Penalty>
2.22273

> <i_epik_Tot_Q>
-1

> <i_epik_Tot_abs_Q>
1

> <r_epik_Metal_State_Penalty>
1.40439

> <b_epik_Metal_Only>
0

> <s_lp_Force_Field>
OPLS_2005

> <r_lp_Energy>
49.5573

> <b_lp_Chiralities_Consistent>
1

> <s_lp_Variant>
AV-unprocessed.smi:1592-6

> <Gold.Version>
5.8.1

> <Gold.Id.Protein>
6NUR|6NUR_protein|mol2

> <Gold.PLP.Fitness>
37.6136

> <Gold.PLP.PLP>
-31.8415

> <Gold.PLP.part.hbond>
-1.0462

> <Gold.PLP.part.metal>
0.0000

> <Gold.PLP.part.buried>
-5.9057

> <Gold.PLP.part.nonpolar>
-25.1365

> <Gold.PLP.part.repulsive>
0.0851

> <Gold.PLP.ligand.clash>
0.0000

> <Gold.PLP.ligand.torsion>
0.0820

> <Gold.PLP.Chemscore.Hbond>
1.0000

> <Gold.PLP.Chemscore.CHOScore>
0.9763

> <Gold.PLP.Chemscore.Metal>
0.0000

> <Gold.Chemscore.Hbonds>
donor molecule, donor type, donor heavy atom, donor atom, acceptor molecule, acceptor atom, score
      P1  H  7997  8008       L1    15  0.75
      L1  C     6    16       P1  8028  0.09
      L1  C     6    16       P1  8029  0.93

> <Gold.PLP.Chemscore.Internal.Correction>
0.0073

> <Gold.Rescore>
     Score         DG    S(hbond)    S(metal)    S(lipo)     H(rot)  DE(clash)    DE(int)     intcor
     14.73     -15.05       0.85        0.00      79.36       1.00       0.04       0.28       ----

> <Gold.Chemscore.Fitness>
14.7256

> <Gold.Chemscore.DG>
-15.0469

> <Gold.Chemscore.ZeroCoef>
-5.4800

> <Gold.Chemscore.Hbond>
0.8508

> <Gold.Chemscore.Metal>
0.0000

> <Gold.Chemscore.Lipo>
79.3617

> <Gold.Chemscore.Internal_Hbond>
0.0000

> <Gold.Chemscore.DEClash>
0.0427

> <Gold.Chemscore.DEInternal>
0.2786

> <Gold.Chemscore.Rot>
1.0000

> <Gold.Chemscore.Internal.Correction>
   9.000000E+99

> <Gold.Chemscore.Hbonds>
donor molecule, donor type, donor heavy atom, donor atom, acceptor molecule, acceptor atom, score
      P1  H  7997  8008       L1    15  0.12

> <Gold.Chemscore.Hbond.Weighted>
-2.8416

> <Gold.Chemscore.Metal.Weighted>
-0.0000

> <Gold.Chemscore.Lipo.Weighted>
-9.2853

> <Gold.Chemscore.Internal_Hbond.Weighted>
0.0000

> <Gold.Chemscore.DEClash.Weighted>
0.0427

> <Gold.Chemscore.DEInternal.Weighted>
0.2786

> <Gold.Chemscore.Rot.Weighted>
2.5600

> <Gold.Chemscore.Internal.Correction.Weighted>
   9.000000E+99

> <Gold.Protein.RotatedTorsions>
[ 6907 6896 6895 6894 ] final  -19.03 input  -60.11 | X-H torsion
[ 7974 7965 7964 7962 ] final -146.95 input  175.53 | X-H torsion
[ 8008 7997 7996 7995 ] final  -50.70 input   59.86 | X-H torsion
[ 10167 10162 10161 10158 ] final   93.68 input  -65.29 | X-H torsion
[ 10718 10713 10712 10709 ] final   24.34 input   66.30 | X-H torsion
[ 10763 10752 10751 10750 ] final -144.39 input  -60.55 | X-H torsion
[ 11005 11000 10999 10996 ] final -162.07 input  -57.11 | X-H torsion

> <Gold.Protein.ActiveResidues>
 VAL166  LYS551  ARG553  GLY616  TRP617  ASP618  TYR619  PRO620  LYS621  CYS622 
 ASP623  PHE694  ASN695  SER759  ASP760  ASP761  ALA762  ILE779  LEU786  VAL792 
 PHE793  MET794  SER795  GLU796  ALA797  LYS798  CYS799  TRP800  GLU811  SER814 

> <Gold.Protein.RotatedAtoms>
  151.2692  135.0679  159.9127 H   0  0  0  0  0  0  0  0  0  0  0  0  # atno 6907 bound_to 6896
  152.5353  134.0148  159.7965 H   0  0  0  0  0  0  0  0  0  0  0  0  # atno 6908 bound_to 6896
  151.0384  133.5678  159.2684 H   0  0  0  0  0  0  0  0  0  0  0  0  # atno 6909 bound_to 6896
  144.8125  140.5390  143.5633 H   0  0  0  0  0  0  0  0  0  0  0  0  # atno 7974 bound_to 7965
  154.4067  140.1266  156.4708 H   0  0  0  0  0  0  0  0  0  0  0  0  # atno 8008 bound_to 7997
  155.7181  140.3493  155.4984 H   0  0  0  0  0  0  0  0  0  0  0  0  # atno 8009 bound_to 7997
  155.9240  140.1057  157.1175 H   0  0  0  0  0  0  0  0  0  0  0  0  # atno 8010 bound_to 7997
  139.8157  144.6754  150.9583 H   0  0  0  0  0  0  0  0  0  0  0  0  # atno 10167 bound_to 10162
  157.1785  130.6792  149.6104 H   0  0  0  0  0  0  0  0  0  0  0  0  # atno 10718 bound_to 10713
  154.8430  135.3442  154.6338 H   0  0  0  0  0  0  0  0  0  0  0  0  # atno 10763 bound_to 10752
  153.6948  135.6973  153.5084 H   0  0  0  0  0  0  0  0  0  0  0  0  # atno 10764 bound_to 10752
  153.2567  135.4336  155.0808 H   0  0  0  0  0  0  0  0  0  0  0  0  # atno 10765 bound_to 10752
  140.6133  134.4826  157.5217 H   0  0  0  0  0  0  0  0  0  0  0  0  # atno 11005 bound_to 11000
  145.5290  139.1475  143.3510 LP  0  0  0  0  0  0  0  0  0  0  0  0  # atno 17320 bound_to 7965
  146.2425  140.5431  142.8928 LP  0  0  0  0  0  0  0  0  0  0  0  0  # atno 17321 bound_to 7965
  140.7816  143.4141  151.0945 LP  0  0  0  0  0  0  0  0  0  0  0  0  # atno 17342 bound_to 10162
  139.7805  143.8362  152.3137 LP  0  0  0  0  0  0  0  0  0  0  0  0  # atno 17343 bound_to 10162
  155.9728  130.4655  150.6255 LP  0  0  0  0  0  0  0  0  0  0  0  0  # atno 17370 bound_to 10713
  157.3976  131.0805  151.1338 LP  0  0  0  0  0  0  0  0  0  0  0  0  # atno 17371 bound_to 10713
  139.9183  134.8201  156.1293 LP  0  0  0  0  0  0  0  0  0  0  0  0  # atno 17394 bound_to 11000
  141.0793  133.6761  156.2302 LP  0  0  0  0  0  0  0  0  0  0  0  0  # atno 17395 bound_to 11000

$$$$
