AV-unprocessed.smi:3345|AV-procd|sdf|12905|dock8
  -GOLD-   2272019323D 1   1.00000     0.00000
 Structure written by MMmdl.
 41 42  0  0  0  0  0  0  0  0  2 V2000
  146.3831  138.3867  152.5619 C   0  0  0  0  0  0  0  0  0  0  0  0
  146.1790  137.1154  153.3970 C   0  0  2  0  0  0  0  0  0  0  0  0
  147.0413  137.1412  154.6805 C   0  0  0  0  0  0  0  0  0  0  0  0
  148.4718  136.8362  154.4249 N   0  3  0  0  0  0  0  0  0  0  0  0
  149.3595  138.0104  154.5906 C   0  0  0  0  0  0  0  0  0  0  0  0
  150.8055  137.6362  154.2213 C   0  0  0  0  0  0  0  0  0  0  0  0
  151.2366  136.5423  155.0220 O   0  0  0  0  0  0  0  0  0  0  0  0
  150.4372  135.3831  154.8189 C   0  0  0  0  0  0  0  0  0  0  0  0
  148.9822  135.6875  155.2115 C   0  0  0  0  0  0  0  0  0  0  0  0
  146.4884  135.9484  152.5697 N   0  0  0  0  0  0  0  0  0  0  0  0
  145.6310  135.2987  151.7651 C   0  0  0  0  0  0  0  0  0  0  0  0
  144.4449  135.6105  151.6545 O   0  0  0  0  0  0  0  0  0  0  0  0
  146.2021  134.1117  150.9758 C   0  0  1  0  0  0  0  0  0  0  0  0
  147.3545  133.4135  151.7255 C   0  0  0  0  0  0  0  0  0  0  0  0
  145.1331  133.1890  150.6149 N   0  0  0  0  0  0  0  0  0  0  0  0
  144.6911  132.8193  149.4106 C   0  0  0  0  0  0  0  0  0  0  0  0
  143.6581  131.9897  149.4468 N   0  0  0  0  0  0  0  0  0  0  0  0
  143.4935  131.8892  150.7991 C   0  0  0  0  0  0  0  0  0  0  0  0
  144.3419  132.5972  151.5445 N   0  0  0  0  0  0  0  0  0  0  0  0
  146.1395  139.2788  153.1398 H   0  0  0  0  0  0  0  0  0  0  0  0
  145.7429  138.3837  151.6789 H   0  0  0  0  0  0  0  0  0  0  0  0
  147.4159  138.4813  152.2245 H   0  0  0  0  0  0  0  0  0  0  0  0
  145.1242  137.0880  153.6741 H   0  0  0  0  0  0  0  0  0  0  0  0
  146.9612  138.1362  155.1214 H   0  0  0  0  0  0  0  0  0  0  0  0
  146.6474  136.4482  155.4256 H   0  0  0  0  0  0  0  0  0  0  0  0
  149.0204  138.8271  153.9521 H   0  0  0  0  0  0  0  0  0  0  0  0
  149.3122  138.3646  155.6216 H   0  0  0  0  0  0  0  0  0  0  0  0
  150.8831  137.3801  153.1631 H   0  0  0  0  0  0  0  0  0  0  0  0
  151.4689  138.4839  154.3935 H   0  0  0  0  0  0  0  0  0  0  0  0
  150.5003  135.0586  153.7787 H   0  0  0  0  0  0  0  0  0  0  0  0
  150.8296  134.5710  155.4312 H   0  0  0  0  0  0  0  0  0  0  0  0
  148.9237  135.9156  156.2769 H   0  0  0  0  0  0  0  0  0  0  0  0
  148.3673  134.8045  155.0401 H   0  0  0  0  0  0  0  0  0  0  0  0
  147.4432  135.6195  152.5964 H   0  0  0  0  0  0  0  0  0  0  0  0
  146.6153  134.4997  150.0430 H   0  0  0  0  0  0  0  0  0  0  0  0
  148.1644  134.1124  151.9368 H   0  0  0  0  0  0  0  0  0  0  0  0
  147.7718  132.6030  151.1274 H   0  0  0  0  0  0  0  0  0  0  0  0
  147.0306  132.9880  152.6764 H   0  0  0  0  0  0  0  0  0  0  0  0
  145.1318  133.1672  148.4878 H   0  0  0  0  0  0  0  0  0  0  0  0
  142.7211  131.2818  151.2475 H   0  0  0  0  0  0  0  0  0  0  0  0
  148.5336  136.5736  153.4511 H   0  0  0  0  0  0  0  0  0  0  0  0
  1  2  1  0  0  0  0
  1 20  1  0  0  0  0
  1 21  1  0  0  0  0
  1 22  1  0  0  0  0
  2  3  1  0  0  0  0
  2 10  1  0  0  0  0
  2 23  1  0  0  0  0
  3  4  1  0  0  0  0
  3 24  1  0  0  0  0
  3 25  1  0  0  0  0
  4  9  1  0  0  0  0
  4  5  1  0  0  0  0
  4 41  1  0  0  0  0
  5  6  1  0  0  0  0
  5 26  1  0  0  0  0
  5 27  1  0  0  0  0
  6  7  1  0  0  0  0
  6 28  1  0  0  0  0
  6 29  1  0  0  0  0
  7  8  1  0  0  0  0
  8  9  1  0  0  0  0
  8 30  1  0  0  0  0
  8 31  1  0  0  0  0
  9 32  1  0  0  0  0
  9 33  1  0  0  0  0
 10 11  1  0  0  0  0
 10 34  1  0  0  0  0
 11 12  2  0  0  0  0
 11 13  1  0  0  0  0
 13 14  1  0  0  0  0
 13 15  1  0  0  0  0
 13 35  1  0  0  0  0
 14 36  1  0  0  0  0
 14 37  1  0  0  0  0
 14 38  1  0  0  0  0
 15 19  1  0  0  0  0
 15 16  1  0  0  0  0
 16 17  2  0  0  0  0
 16 39  1  0  0  0  0
 17 18  1  0  0  0  0
 18 19  2  0  0  0  0
 18 40  1  0  0  0  0
M  CHG  1   4   1
M  END
> <s_m_source_file>
AV-unprocessed.smi

> <i_m_source_file_index>
3345

> <i_lp_mmshare_version>
43012

> <i_f3d_flags>
0

> <s_epik_input>
W0NIMl0xW0NIMl1PW0NIMl1bQ0gyXU4xW0NIMl1bQ0BASF0oW0NIM10pW05IXUMoPU8pW0NASF0oW0NIM10pbjJbY0hdbltjSF1uMg==

> <s_epik_cmdline>
J2VwaWtfcHl0aG9uJywgJy1waCcsICc3LjAnLCAnLXRuJywgJzgnLCAnLW1hJywgJzIwMCcsICctbWV0YWxfYmluZGluZycsICctaW1hZScsICc8aW5maWxlLm1hZT4nLCAnLW9tYWUnLCAnPG91dGZpbGUubWFlPic=

> <r_lp_tautomer_probability>
1

> <r_epik_Ionization_Penalty>
0.71326

> <r_epik_Ionization_Penalty_Charging>
0.713252

> <r_epik_Ionization_Penalty_Neutral>
8.27671e-06

> <r_epik_State_Penalty>
0.737017

> <r_epik_Charging_Adjusted_Penalty>
1.45027

> <i_epik_Tot_Q>
1

> <i_epik_Tot_abs_Q>
1

> <r_epik_Metal_State_Penalty>
0.73702

> <b_epik_Metal_Only>
0

> <s_lp_Force_Field>
OPLS_2005

> <r_lp_Energy>
28.0971

> <b_lp_Chiralities_Consistent>
1

> <s_lp_Variant>
AV-unprocessed.smi:3345-7

> <Gold.Version>
5.8.1

> <Gold.Id.Protein>
6NUR|6NUR_protein|mol2

> <Gold.PLP.Fitness>
41.7175

> <Gold.PLP.PLP>
-27.9180

> <Gold.PLP.part.hbond>
-4.0000

> <Gold.PLP.part.metal>
0.0000

> <Gold.PLP.part.buried>
-3.0559

> <Gold.PLP.part.nonpolar>
-22.5796

> <Gold.PLP.part.repulsive>
0.7156

> <Gold.PLP.ligand.clash>
0.0000

> <Gold.PLP.ligand.torsion>
1.9647

> <Gold.PLP.Chemscore.Hbond>
4.4030

> <Gold.PLP.Chemscore.CHOScore>
1.4446

> <Gold.PLP.Chemscore.Metal>
0.0000

> <Gold.Chemscore.Hbonds>
donor molecule, donor type, donor heavy atom, donor atom, acceptor molecule, acceptor atom, score
      L1  H     4    41       P1  7948  2.00
      L1  H    10    34       P1  7948  0.66
      P1  H 10752 10763       L1     7  0.65
      P1  H 10785 10796       L1    17  0.93
      L1  C    16    39       P1  7921  1.00
      L1  C    18    40       P1 10952  0.22

> <Gold.PLP.Chemscore.Internal.Correction>
0.1859

> <Gold.Rescore>
     Score         DG    S(hbond)    S(metal)    S(lipo)     H(rot)  DE(clash)    DE(int)     intcor
     11.47     -13.27       2.57        0.00      50.40       2.61       0.03       1.77       ----

> <Gold.Chemscore.Fitness>
11.4664

> <Gold.Chemscore.DG>
-13.2680

> <Gold.Chemscore.ZeroCoef>
-5.4800

> <Gold.Chemscore.Hbond>
2.5696

> <Gold.Chemscore.Metal>
0.0000

> <Gold.Chemscore.Lipo>
50.3983

> <Gold.Chemscore.Internal_Hbond>
0.0000

> <Gold.Chemscore.DEClash>
0.0339

> <Gold.Chemscore.DEInternal>
1.7677

> <Gold.Chemscore.Rot>
2.6138

> <Gold.Chemscore.Internal.Correction>
   9.000000E+99

> <Gold.Chemscore.Hbonds>
donor molecule, donor type, donor heavy atom, donor atom, acceptor molecule, acceptor atom, score
      L1  H     4    41       P1  7948  1.00
      L1  H    10    34       P1  7948  0.66
      P1  H 10752 10763       L1     7  0.05
      P1  H 10785 10796       L1    17  0.42

> <Gold.Chemscore.Hbond.Weighted>
-8.5826

> <Gold.Chemscore.Metal.Weighted>
-0.0000

> <Gold.Chemscore.Lipo.Weighted>
-5.8966

> <Gold.Chemscore.Internal_Hbond.Weighted>
0.0000

> <Gold.Chemscore.DEClash.Weighted>
0.0339

> <Gold.Chemscore.DEInternal.Weighted>
1.7677

> <Gold.Chemscore.Rot.Weighted>
6.6912

> <Gold.Chemscore.Internal.Correction.Weighted>
   9.000000E+99

> <Gold.Protein.RotatedTorsions>
[ 6907 6896 6895 6894 ] final  -23.39 input  -60.11 | X-H torsion
[ 7974 7965 7964 7962 ] final  176.61 input  175.53 | X-H torsion
[ 8008 7997 7996 7995 ] final  109.82 input   59.86 | X-H torsion
[ 10167 10162 10161 10158 ] final  -46.86 input  -65.29 | X-H torsion
[ 10718 10713 10712 10709 ] final -131.31 input   66.30 | X-H torsion
[ 10763 10752 10751 10750 ] final   47.95 input  -60.55 | X-H torsion
[ 11005 11000 10999 10996 ] final  -52.19 input  -57.11 | X-H torsion

> <Gold.Protein.ActiveResidues>
 VAL166  LYS551  ARG553  GLY616  TRP617  ASP618  TYR619  PRO620  LYS621  CYS622 
 ASP623  PHE694  ASN695  SER759  ASP760  ASP761  ALA762  ILE779  LEU786  VAL792 
 PHE793  MET794  SER795  GLU796  ALA797  LYS798  CYS799  TRP800  GLU811  SER814 

> <Gold.Protein.RotatedAtoms>
  151.2046  135.0457  159.8886 H   0  0  0  0  0  0  0  0  0  0  0  0  # atno 6907 bound_to 6896
  152.5430  134.0812  159.8246 H   0  0  0  0  0  0  0  0  0  0  0  0  # atno 6908 bound_to 6896
  151.0957  133.5234  159.2644 H   0  0  0  0  0  0  0  0  0  0  0  0  # atno 6909 bound_to 6896
  144.7181  140.0122  143.6440 H   0  0  0  0  0  0  0  0  0  0  0  0  # atno 7974 bound_to 7965
  156.2008  140.3050  155.9522 H   0  0  0  0  0  0  0  0  0  0  0  0  # atno 8008 bound_to 7997
  155.2959  140.0444  157.3043 H   0  0  0  0  0  0  0  0  0  0  0  0  # atno 8009 bound_to 7997
  154.5568  140.2308  155.8407 H   0  0  0  0  0  0  0  0  0  0  0  0  # atno 8010 bound_to 7997
  140.6800  143.2811  151.3843 H   0  0  0  0  0  0  0  0  0  0  0  0  # atno 10167 bound_to 10162
  156.2231  130.6991  151.0778 H   0  0  0  0  0  0  0  0  0  0  0  0  # atno 10718 bound_to 10713
  152.9795  135.5960  154.3846 H   0  0  0  0  0  0  0  0  0  0  0  0  # atno 10763 bound_to 10752
  154.3507  135.2767  155.2375 H   0  0  0  0  0  0  0  0  0  0  0  0  # atno 10764 bound_to 10752
  154.4416  135.6012  153.6188 H   0  0  0  0  0  0  0  0  0  0  0  0  # atno 10765 bound_to 10752
  141.0911  133.6632  156.3988 H   0  0  0  0  0  0  0  0  0  0  0  0  # atno 11005 bound_to 11000
  146.0249  139.3283  143.0790 LP  0  0  0  0  0  0  0  0  0  0  0  0  # atno 17320 bound_to 7965
  145.8523  140.9522  143.0743 LP  0  0  0  0  0  0  0  0  0  0  0  0  # atno 17321 bound_to 7965
  139.6116  144.1087  152.2304 LP  0  0  0  0  0  0  0  0  0  0  0  0  # atno 17342 bound_to 10162
  140.0503  144.5938  150.7341 LP  0  0  0  0  0  0  0  0  0  0  0  0  # atno 17343 bound_to 10162
  157.7097  131.0740  150.6543 LP  0  0  0  0  0  0  0  0  0  0  0  0  # atno 17370 bound_to 10713
  156.6607  130.4511  149.5688 LP  0  0  0  0  0  0  0  0  0  0  0  0  # atno 17371 bound_to 10713
  140.5249  134.6269  157.5330 LP  0  0  0  0  0  0  0  0  0  0  0  0  # atno 17394 bound_to 11000
  139.9738  134.7250  155.9990 LP  0  0  0  0  0  0  0  0  0  0  0  0  # atno 17395 bound_to 11000

$$$$
