AV-unprocessed.smi:925|AV-procd|sdf|4181|dock1
  -GOLD-   22720 2 83D 1   1.00000     0.00000
 Structure written by MMmdl.
 29 30  0  0  0  0  0  0  0  0  1 V2000
  150.5791  140.6466  156.2741 O   0  0  0  0  0  0  0  0  0  0  0  0
  150.0066  141.7139  156.0512 C   0  0  0  0  0  0  0  0  0  0  0  0
  148.9729  141.8809  155.2073 N   0  0  0  0  0  0  0  0  0  0  0  0
  148.3232  140.9042  154.4068 C   0  0  0  0  0  0  0  0  0  0  0  0
  147.2652  141.1668  153.6236 N   0  0  0  0  0  0  0  0  0  0  0  0
  146.8245  140.0354  152.9488 N   0  0  0  0  0  0  0  0  0  0  0  0
  147.5667  138.9658  153.2490 C   0  0  0  0  0  0  0  0  0  0  0  0
  148.8766  139.2358  154.3855 S   0  0  0  0  0  0  0  0  0  0  0  0
  150.3478  142.8723  156.6349 N   0  0  0  0  0  0  0  0  0  0  0  0
  151.4306  143.0430  157.5995 C   0  0  0  0  0  0  0  0  0  0  0  0
  151.2872  142.0408  158.7640 C   0  0  0  0  0  0  0  0  0  0  0  0
  152.3757  142.2561  159.8280 C   0  0  0  0  0  0  0  0  0  0  0  0
  152.3762  143.7041  160.3427 C   0  0  0  0  0  0  0  0  0  0  0  0
  152.5237  144.7041  159.1853 C   0  0  0  0  0  0  0  0  0  0  0  0
  151.4326  144.4917  158.1232 C   0  0  0  0  0  0  0  0  0  0  0  0
  148.6074  142.8182  155.1273 H   0  0  0  0  0  0  0  0  0  0  0  0
  147.3412  138.0110  152.7977 H   0  0  0  0  0  0  0  0  0  0  0  0
  149.8224  143.6996  156.3932 H   0  0  0  0  0  0  0  0  0  0  0  0
  152.3836  142.8653  157.0973 H   0  0  0  0  0  0  0  0  0  0  0  0
  150.3047  142.1484  159.2260 H   0  0  0  0  0  0  0  0  0  0  0  0
  151.3417  141.0175  158.3905 H   0  0  0  0  0  0  0  0  0  0  0  0
  152.2245  141.5663  160.6589 H   0  0  0  0  0  0  0  0  0  0  0  0
  153.3520  142.0193  159.4032 H   0  0  0  0  0  0  0  0  0  0  0  0
  151.4481  143.9013  160.8805 H   0  0  0  0  0  0  0  0  0  0  0  0
  153.1856  143.8435  161.0602 H   0  0  0  0  0  0  0  0  0  0  0  0
  152.4771  145.7243  159.5674 H   0  0  0  0  0  0  0  0  0  0  0  0
  153.5069  144.5902  158.7270 H   0  0  0  0  0  0  0  0  0  0  0  0
  151.5848  145.1883  157.2977 H   0  0  0  0  0  0  0  0  0  0  0  0
  150.4592  144.7312  158.5542 H   0  0  0  0  0  0  0  0  0  0  0  0
  1  2  2  0  0  0  0
  2  3  1  0  0  0  0
  2  9  1  0  0  0  0
  3  4  1  0  0  0  0
  3 16  1  0  0  0  0
  4  8  1  0  0  0  0
  4  5  2  0  0  0  0
  5  6  1  0  0  0  0
  6  7  2  0  0  0  0
  7  8  1  0  0  0  0
  7 17  1  0  0  0  0
  9 10  1  0  0  0  0
  9 18  1  0  0  0  0
 10 15  1  0  0  0  0
 10 11  1  0  0  0  0
 10 19  1  0  0  0  0
 11 12  1  0  0  0  0
 11 20  1  0  0  0  0
 11 21  1  0  0  0  0
 12 13  1  0  0  0  0
 12 22  1  0  0  0  0
 12 23  1  0  0  0  0
 13 14  1  0  0  0  0
 13 24  1  0  0  0  0
 13 25  1  0  0  0  0
 14 15  1  0  0  0  0
 14 26  1  0  0  0  0
 14 27  1  0  0  0  0
 15 28  1  0  0  0  0
 15 29  1  0  0  0  0
M  END
> <s_m_source_file>
AV-unprocessed.smi

> <i_m_source_file_index>
925

> <i_lp_mmshare_version>
43012

> <i_f3d_flags>
0

> <s_epik_input>
czFbY0hdbm5jMVtOSF1DKD1PKVtOSF1bQ0hdMltDSDJdW0NIMl1bQ0gyXVtDSDJdW0NIMl0y

> <s_epik_cmdline>
J2VwaWtfcHl0aG9uJywgJy1waCcsICc3LjAnLCAnLXRuJywgJzgnLCAnLW1hJywgJzIwMCcsICctbWV0YWxfYmluZGluZycsICctaW1hZScsICc8aW5maWxlLm1hZT4nLCAnLW9tYWUnLCAnPG91dGZpbGUubWFlPic=

> <r_lp_tautomer_probability>
1

> <r_epik_Ionization_Penalty>
0.000322846

> <r_epik_Ionization_Penalty_Charging>
0

> <r_epik_Ionization_Penalty_Neutral>
0.000322846

> <r_epik_State_Penalty>
-0

> <r_epik_Charging_Adjusted_Penalty>
0

> <i_epik_Tot_Q>
0

> <i_epik_Tot_abs_Q>
0

> <r_epik_Metal_State_Penalty>
0.17121

> <b_epik_Metal_Only>
0

> <s_lp_Force_Field>
OPLS_2005

> <r_lp_Energy>
7.89547

> <b_lp_Chiralities_Consistent>
1

> <s_lp_Variant>
AV-unprocessed.smi:925-1

> <Gold.Version>
5.8.1

> <Gold.Id.Protein>
6NUR|6NUR_protein|mol2

> <Gold.PLP.Fitness>
40.1291

> <Gold.PLP.PLP>
-31.4624

> <Gold.PLP.part.hbond>
-2.0000

> <Gold.PLP.part.metal>
0.0000

> <Gold.PLP.part.buried>
-4.4820

> <Gold.PLP.part.nonpolar>
-26.4081

> <Gold.PLP.part.repulsive>
0.6638

> <Gold.PLP.ligand.clash>
0.0000

> <Gold.PLP.ligand.torsion>
0.0363

> <Gold.PLP.Chemscore.Hbond>
1.9120

> <Gold.PLP.Chemscore.CHOScore>
1.0000

> <Gold.PLP.Chemscore.Metal>
0.0000

> <Gold.Chemscore.Hbonds>
donor molecule, donor type, donor heavy atom, donor atom, acceptor molecule, acceptor atom, score
      L1  H     3    16       P1  8028  0.91
      L1  H     9    18       P1  8028  1.00
      L1  C     7    17       P1  7948  0.90

> <Gold.PLP.Chemscore.Internal.Correction>
0.0032

> <Gold.Rescore>
     Score         DG    S(hbond)    S(metal)    S(lipo)     H(rot)  DE(clash)    DE(int)     intcor
     16.21     -18.73       1.94        0.00      79.68       1.00       0.05       2.48       ----

> <Gold.Chemscore.Fitness>
16.2119

> <Gold.Chemscore.DG>
-18.7349

> <Gold.Chemscore.ZeroCoef>
-5.4800

> <Gold.Chemscore.Hbond>
1.9438

> <Gold.Chemscore.Metal>
0.0000

> <Gold.Chemscore.Lipo>
79.6803

> <Gold.Chemscore.Internal_Hbond>
0.0000

> <Gold.Chemscore.DEClash>
0.0463

> <Gold.Chemscore.DEInternal>
2.4767

> <Gold.Chemscore.Rot>
1.0000

> <Gold.Chemscore.Internal.Correction>
   9.000000E+99

> <Gold.Chemscore.Hbonds>
donor molecule, donor type, donor heavy atom, donor atom, acceptor molecule, acceptor atom, score
      L1  H     3    16       P1  8028  0.88
      L1  H     9    18       P1  8028  0.96

> <Gold.Chemscore.Hbond.Weighted>
-6.4923

> <Gold.Chemscore.Metal.Weighted>
-0.0000

> <Gold.Chemscore.Lipo.Weighted>
-9.3226

> <Gold.Chemscore.Internal_Hbond.Weighted>
0.0000

> <Gold.Chemscore.DEClash.Weighted>
0.0463

> <Gold.Chemscore.DEInternal.Weighted>
2.4767

> <Gold.Chemscore.Rot.Weighted>
2.5600

> <Gold.Chemscore.Internal.Correction.Weighted>
   9.000000E+99

> <Gold.Protein.RotatedTorsions>
[ 6907 6896 6895 6894 ] final  -83.81 input  -60.11 | X-H torsion
[ 7974 7965 7964 7962 ] final -106.43 input  175.53 | X-H torsion
[ 8008 7997 7996 7995 ] final -165.30 input   59.86 | X-H torsion
[ 10167 10162 10161 10158 ] final -110.78 input  -65.29 | X-H torsion
[ 10718 10713 10712 10709 ] final  -88.72 input   66.30 | X-H torsion
[ 10763 10752 10751 10750 ] final   28.75 input  -60.55 | X-H torsion
[ 11005 11000 10999 10996 ] final -166.56 input  -57.11 | X-H torsion

> <Gold.Protein.ActiveResidues>
 VAL166  LYS551  ARG553  GLY616  TRP617  ASP618  TYR619  PRO620  LYS621  CYS622 
 ASP623  PHE694  ASN695  SER759  ASP760  ASP761  ALA762  ILE779  LEU786  VAL792 
 PHE793  MET794  SER795  GLU796  ALA797  LYS798  CYS799  TRP800  GLU811  SER814 

> <Gold.Protein.RotatedAtoms>
  150.6882  134.3454  159.4885 H   0  0  0  0  0  0  0  0  0  0  0  0  # atno 6907 bound_to 6896
  152.1302  134.9138  160.0568 H   0  0  0  0  0  0  0  0  0  0  0  0  # atno 6908 bound_to 6896
  152.0310  133.3903  159.4334 H   0  0  0  0  0  0  0  0  0  0  0  0  # atno 6909 bound_to 6896
  145.2180  140.9123  143.3276 H   0  0  0  0  0  0  0  0  0  0  0  0  # atno 7974 bound_to 7965
  155.8478  140.0958  157.1694 H   0  0  0  0  0  0  0  0  0  0  0  0  # atno 8008 bound_to 7997
  154.3984  140.1389  156.3869 H   0  0  0  0  0  0  0  0  0  0  0  0  # atno 8009 bound_to 7997
  155.7994  140.3453  155.5396 H   0  0  0  0  0  0  0  0  0  0  0  0  # atno 8010 bound_to 7997
  140.1408  143.4281  152.1563 H   0  0  0  0  0  0  0  0  0  0  0  0  # atno 10167 bound_to 10162
  155.9983  130.4846  150.5062 H   0  0  0  0  0  0  0  0  0  0  0  0  # atno 10718 bound_to 10713
  153.0472  135.6505  154.0786 H   0  0  0  0  0  0  0  0  0  0  0  0  # atno 10763 bound_to 10752
  154.0481  135.2898  155.3346 H   0  0  0  0  0  0  0  0  0  0  0  0  # atno 10764 bound_to 10752
  154.6738  135.5346  153.8238 H   0  0  0  0  0  0  0  0  0  0  0  0  # atno 10765 bound_to 10752
  140.5631  134.5313  157.5147 H   0  0  0  0  0  0  0  0  0  0  0  0  # atno 11005 bound_to 11000
  144.9793  139.3800  143.6270 LP  0  0  0  0  0  0  0  0  0  0  0  0  # atno 17320 bound_to 7965
  146.3382  139.8926  142.8807 LP  0  0  0  0  0  0  0  0  0  0  0  0  # atno 17321 bound_to 7965
  139.5473  144.7309  151.4543 LP  0  0  0  0  0  0  0  0  0  0  0  0  # atno 17342 bound_to 10162
  140.6762  143.8185  150.7061 LP  0  0  0  0  0  0  0  0  0  0  0  0  # atno 17343 bound_to 10162
  157.3040  131.0651  151.2048 LP  0  0  0  0  0  0  0  0  0  0  0  0  # atno 17370 bound_to 10713
  157.3017  130.6846  149.6167 LP  0  0  0  0  0  0  0  0  0  0  0  0  # atno 17371 bound_to 10713
  139.9398  134.7808  156.0708 LP  0  0  0  0  0  0  0  0  0  0  0  0  # atno 17394 bound_to 11000
  141.1102  133.6646  156.2960 LP  0  0  0  0  0  0  0  0  0  0  0  0  # atno 17395 bound_to 11000

$$$$
