AV-unprocessed.smi:1795|AV-procd|sdf|7237|dock4
  -GOLD-   22720 8483D 1   1.00000     0.00000
 Structure written by MMmdl.
 47 48  0  0  0  0  0  0  0  0  1 V2000
  150.4372  132.1685  157.4752 C   0  0  0  0  0  0  0  0  0  0  0  0
  151.3400  132.5351  156.2844 C   0  0  2  0  0  0  0  0  0  0  0  0
  151.8535  133.9881  156.3320 C   0  0  0  0  0  0  0  0  0  0  0  0
  150.8274  134.9870  156.0108 N   0  0  0  0  0  0  0  0  0  0  0  0
  151.3536  136.3724  156.0416 C   0  0  2  0  0  0  0  0  0  0  0  0
  151.9477  136.7590  157.4207 C   0  0  0  0  0  0  0  0  0  0  0  0
  150.2954  137.4397  155.6329 C   0  0  0  0  0  0  0  0  0  0  0  0
  150.8086  138.8067  155.6487 N   0  0  0  0  0  0  0  0  0  0  0  0
  150.4968  139.7375  156.5628 C   0  0  0  0  0  0  0  0  0  0  0  0
  149.7541  139.5202  157.5209 O   0  0  0  0  0  0  0  0  0  0  0  0
  151.1400  141.1171  156.3651 C   0  0  0  0  0  0  0  0  0  0  0  0
  151.8315  141.6099  157.5678 N   0  0  0  0  0  0  0  0  0  0  0  0
  151.4232  142.8584  158.0787 C   0  0  0  0  0  0  0  0  0  0  0  0
  151.9876  143.3973  159.1711 C   0  0  0  0  0  0  0  0  0  0  0  0
  153.0417  142.6616  159.8281 C   0  0  0  0  0  0  0  0  0  0  0  0
  153.4428  141.4685  159.3455 C   0  0  0  0  0  0  0  0  0  0  0  0
  152.8299  140.8763  158.1508 C   0  0  0  0  0  0  0  0  0  0  0  0
  153.1908  139.7877  157.7018 O   0  0  0  0  0  0  0  0  0  0  0  0
  150.2442  134.6301  154.7137 C   0  0  0  0  0  0  0  0  0  0  0  0
  149.6815  133.1975  154.6829 C   0  0  1  0  0  0  0  0  0  0  0  0
  149.1560  132.8161  153.2949 C   0  0  0  0  0  0  0  0  0  0  0  0
  150.7056  132.2736  155.0350 O   0  0  0  0  0  0  0  0  0  0  0  0
  150.9817  132.2574  158.4156 H   0  0  0  0  0  0  0  0  0  0  0  0
  150.0850  131.1402  157.3936 H   0  0  0  0  0  0  0  0  0  0  0  0
  149.5643  132.8172  157.5440 H   0  0  0  0  0  0  0  0  0  0  0  0
  152.2059  131.8741  156.3294 H   0  0  0  0  0  0  0  0  0  0  0  0
  152.2590  134.1533  157.3285 H   0  0  0  0  0  0  0  0  0  0  0  0
  152.6870  134.0908  155.6355 H   0  0  0  0  0  0  0  0  0  0  0  0
  152.1689  136.4339  155.3189 H   0  0  0  0  0  0  0  0  0  0  0  0
  152.2886  137.7933  157.4536 H   0  0  0  0  0  0  0  0  0  0  0  0
  152.8268  136.1680  157.6731 H   0  0  0  0  0  0  0  0  0  0  0  0
  151.2133  136.6304  158.2164 H   0  0  0  0  0  0  0  0  0  0  0  0
  149.9045  137.2676  154.6312 H   0  0  0  0  0  0  0  0  0  0  0  0
  149.4415  137.3917  156.3094 H   0  0  0  0  0  0  0  0  0  0  0  0
  151.4312  139.0675  154.8978 H   0  0  0  0  0  0  0  0  0  0  0  0
  151.8301  141.0510  155.5228 H   0  0  0  0  0  0  0  0  0  0  0  0
  150.3790  141.8360  156.0548 H   0  0  0  0  0  0  0  0  0  0  0  0
  150.6340  143.3471  157.5261 H   0  0  0  0  0  0  0  0  0  0  0  0
  151.6644  144.3572  159.5462 H   0  0  0  0  0  0  0  0  0  0  0  0
  153.5131  143.0705  160.7097 H   0  0  0  0  0  0  0  0  0  0  0  0
  154.2344  140.9336  159.8495 H   0  0  0  0  0  0  0  0  0  0  0  0
  149.4179  135.2927  154.4665 H   0  0  0  0  0  0  0  0  0  0  0  0
  150.9925  134.7490  153.9284 H   0  0  0  0  0  0  0  0  0  0  0  0
  148.8580  133.1151  155.3927 H   0  0  0  0  0  0  0  0  0  0  0  0
  148.3559  133.4865  152.9794 H   0  0  0  0  0  0  0  0  0  0  0  0
  148.7579  131.8012  153.2947 H   0  0  0  0  0  0  0  0  0  0  0  0
  149.9475  132.8634  152.5464 H   0  0  0  0  0  0  0  0  0  0  0  0
  1  2  1  0  0  0  0
  1 23  1  0  0  0  0
  1 24  1  0  0  0  0
  1 25  1  0  0  0  0
  2 22  1  0  0  0  0
  2  3  1  0  0  0  0
  2 26  1  0  0  0  0
  3  4  1  0  0  0  0
  3 27  1  0  0  0  0
  3 28  1  0  0  0  0
  4  5  1  0  0  0  0
  4 19  1  0  0  0  0
  5  6  1  0  0  0  0
  5  7  1  0  0  0  0
  5 29  1  0  0  0  0
  6 30  1  0  0  0  0
  6 31  1  0  0  0  0
  6 32  1  0  0  0  0
  7  8  1  0  0  0  0
  7 33  1  0  0  0  0
  7 34  1  0  0  0  0
  8  9  1  0  0  0  0
  8 35  1  0  0  0  0
  9 10  2  0  0  0  0
  9 11  1  0  0  0  0
 11 12  1  0  0  0  0
 11 36  1  0  0  0  0
 11 37  1  0  0  0  0
 12 17  1  0  0  0  0
 12 13  1  0  0  0  0
 13 14  2  0  0  0  0
 13 38  1  0  0  0  0
 14 15  1  0  0  0  0
 14 39  1  0  0  0  0
 15 16  2  0  0  0  0
 15 40  1  0  0  0  0
 16 17  1  0  0  0  0
 16 41  1  0  0  0  0
 17 18  2  0  0  0  0
 19 20  1  0  0  0  0
 19 42  1  0  0  0  0
 19 43  1  0  0  0  0
 20 21  1  0  0  0  0
 20 22  1  0  0  0  0
 20 44  1  0  0  0  0
 21 45  1  0  0  0  0
 21 46  1  0  0  0  0
 21 47  1  0  0  0  0
M  END
> <s_m_source_file>
AV-unprocessed.smi

> <i_m_source_file_index>
1795

> <i_lp_mmshare_version>
43012

> <i_f3d_flags>
0

> <s_epik_input>
W0NIM11bQ0BASF0xW0NIMl1OKFtDSDJdW0NASF0oTzEpW0NIM10pW0NASF0oW0NIM10pW0NIMl1bTkhdQyg9TylbQ0gyXW4yW2NIXVtjSF1bY0hdW2NIXWMyPU8=

> <s_epik_cmdline>
J2VwaWtfcHl0aG9uJywgJy1waCcsICc3LjAnLCAnLXRuJywgJzgnLCAnLW1hJywgJzIwMCcsICctbWV0YWxfYmluZGluZycsICctaW1hZScsICc8aW5maWxlLm1hZT4nLCAnLW9tYWUnLCAnPG91dGZpbGUubWFlPic=

> <r_lp_tautomer_probability>
1

> <r_epik_Ionization_Penalty>
0.237383

> <r_epik_Ionization_Penalty_Charging>
3.58805e-07

> <r_epik_Ionization_Penalty_Neutral>
0.237382

> <r_epik_State_Penalty>
0.228245

> <r_epik_Charging_Adjusted_Penalty>
0.228245

> <i_epik_Tot_Q>
0

> <i_epik_Tot_abs_Q>
0

> <r_epik_Metal_State_Penalty>
0.228221

> <b_epik_Metal_Only>
0

> <s_lp_Force_Field>
OPLS_2005

> <r_lp_Energy>
40.3044

> <b_lp_Chiralities_Consistent>
1

> <s_lp_Variant>
AV-unprocessed.smi:1795-1

> <Gold.Version>
5.8.1

> <Gold.Id.Protein>
6NUR|6NUR_protein|mol2

> <Gold.PLP.Fitness>
41.0838

> <Gold.PLP.PLP>
-35.3651

> <Gold.PLP.part.hbond>
-1.0000

> <Gold.PLP.part.metal>
0.0000

> <Gold.PLP.part.buried>
-5.2630

> <Gold.PLP.part.nonpolar>
-28.5439

> <Gold.PLP.part.repulsive>
0.0933

> <Gold.PLP.ligand.clash>
0.0000

> <Gold.PLP.ligand.torsion>
0.1654

> <Gold.PLP.Chemscore.Hbond>
1.0000

> <Gold.PLP.Chemscore.CHOScore>
1.0000

> <Gold.PLP.Chemscore.Metal>
0.0000

> <Gold.Chemscore.Hbonds>
donor molecule, donor type, donor heavy atom, donor atom, acceptor molecule, acceptor atom, score
      P1  H  7997  8008       L1    18  1.00
      L1  C    13    38       P1  8028  0.11

> <Gold.PLP.Chemscore.Internal.Correction>
0.0495

> <Gold.Rescore>
     Score         DG    S(hbond)    S(metal)    S(lipo)     H(rot)  DE(clash)    DE(int)     intcor
     13.53     -14.49       0.96        0.00      89.46       1.83       0.02       0.94       ----

> <Gold.Chemscore.Fitness>
13.5260

> <Gold.Chemscore.DG>
-14.4932

> <Gold.Chemscore.ZeroCoef>
-5.4800

> <Gold.Chemscore.Hbond>
0.9638

> <Gold.Chemscore.Metal>
0.0000

> <Gold.Chemscore.Lipo>
89.4580

> <Gold.Chemscore.Internal_Hbond>
0.0000

> <Gold.Chemscore.DEClash>
0.0237

> <Gold.Chemscore.DEInternal>
0.9435

> <Gold.Chemscore.Rot>
1.8251

> <Gold.Chemscore.Internal.Correction>
   9.000000E+99

> <Gold.Chemscore.Hbonds>
donor molecule, donor type, donor heavy atom, donor atom, acceptor molecule, acceptor atom, score
      P1  H  7997  8008       L1    18  0.58

> <Gold.Chemscore.Hbond.Weighted>
-3.2189

> <Gold.Chemscore.Metal.Weighted>
-0.0000

> <Gold.Chemscore.Lipo.Weighted>
-10.4666

> <Gold.Chemscore.Internal_Hbond.Weighted>
0.0000

> <Gold.Chemscore.DEClash.Weighted>
0.0237

> <Gold.Chemscore.DEInternal.Weighted>
0.9435

> <Gold.Chemscore.Rot.Weighted>
4.6724

> <Gold.Chemscore.Internal.Correction.Weighted>
   9.000000E+99

> <Gold.Protein.RotatedTorsions>
[ 6907 6896 6895 6894 ] final   69.49 input  -60.11 | X-H torsion
[ 7974 7965 7964 7962 ] final  -78.43 input  175.53 | X-H torsion
[ 8008 7997 7996 7995 ] final  -63.55 input   59.86 | X-H torsion
[ 10167 10162 10161 10158 ] final -113.64 input  -65.29 | X-H torsion
[ 10718 10713 10712 10709 ] final  140.17 input   66.30 | X-H torsion
[ 10763 10752 10751 10750 ] final   79.67 input  -60.55 | X-H torsion
[ 11005 11000 10999 10996 ] final  -24.81 input  -57.11 | X-H torsion

> <Gold.Protein.ActiveResidues>
 VAL166  LYS551  ARG553  GLY616  TRP617  ASP618  TYR619  PRO620  LYS621  CYS622 
 ASP623  PHE694  ASN695  SER759  ASP760  ASP761  ALA762  ILE779  LEU786  VAL792 
 PHE793  MET794  SER795  GLU796  ALA797  LYS798  CYS799  TRP800  GLU811  SER814 

> <Gold.Protein.RotatedAtoms>
  152.4689  134.5007  159.9723 H   0  0  0  0  0  0  0  0  0  0  0  0  # atno 6907 bound_to 6896
  151.5039  133.3493  159.2881 H   0  0  0  0  0  0  0  0  0  0  0  0  # atno 6908 bound_to 6896
  150.8689  134.8086  159.7201 H   0  0  0  0  0  0  0  0  0  0  0  0  # atno 6909 bound_to 6896
  145.5866  140.9438  143.1315 H   0  0  0  0  0  0  0  0  0  0  0  0  # atno 7974 bound_to 7965
  154.4560  140.0972  156.6759 H   0  0  0  0  0  0  0  0  0  0  0  0  # atno 8008 bound_to 7997
  155.5136  140.3477  155.4374 H   0  0  0  0  0  0  0  0  0  0  0  0  # atno 8009 bound_to 7997
  156.0779  140.1365  156.9737 H   0  0  0  0  0  0  0  0  0  0  0  0  # atno 8010 bound_to 7997
  140.1096  143.4539  152.1760 H   0  0  0  0  0  0  0  0  0  0  0  0  # atno 10167 bound_to 10162
  157.4062  131.1022  151.0501 H   0  0  0  0  0  0  0  0  0  0  0  0  # atno 10718 bound_to 10713
  153.0971  135.4831  154.8799 H   0  0  0  0  0  0  0  0  0  0  0  0  # atno 10763 bound_to 10752
  154.7337  135.3066  154.8850 H   0  0  0  0  0  0  0  0  0  0  0  0  # atno 10764 bound_to 10752
  153.9478  135.6827  153.4797 H   0  0  0  0  0  0  0  0  0  0  0  0  # atno 10765 bound_to 10752
  140.8879  133.7608  156.0384 H   0  0  0  0  0  0  0  0  0  0  0  0  # atno 11005 bound_to 11000
  144.7370  139.7558  143.7325 LP  0  0  0  0  0  0  0  0  0  0  0  0  # atno 17320 bound_to 7965
  146.1677  139.4815  142.9947 LP  0  0  0  0  0  0  0  0  0  0  0  0  # atno 17321 bound_to 7965
  139.5626  144.7415  151.4112 LP  0  0  0  0  0  0  0  0  0  0  0  0  # atno 17342 bound_to 10162
  140.6933  143.7810  150.7288 LP  0  0  0  0  0  0  0  0  0  0  0  0  # atno 17343 bound_to 10162
  157.1482  130.6172  149.5574 LP  0  0  0  0  0  0  0  0  0  0  0  0  # atno 17370 bound_to 10713
  155.9837  130.4858  150.6947 LP  0  0  0  0  0  0  0  0  0  0  0  0  # atno 17371 bound_to 10713
  140.8382  134.3098  157.5323 LP  0  0  0  0  0  0  0  0  0  0  0  0  # atno 17394 bound_to 11000
  139.8726  134.9401  156.3761 LP  0  0  0  0  0  0  0  0  0  0  0  0  # atno 17395 bound_to 11000

$$$$
