AV-unprocessed.smi:458|AV-procd|sdf|2620|dock2
  -GOLD-   2262023 23D 1   1.00000     0.00000
 Structure written by MMmdl.
 36 38  0  0  0  0  0  0  0  0  1 V2000
  152.2010  137.3608  153.7687 O   0  0  0  0  0  0  0  0  0  0  0  0
  151.4488  137.7531  154.8962 C   0  0  0  0  0  0  0  0  0  0  0  0
  150.3177  138.6761  154.5553 C   0  0  0  0  0  0  0  0  0  0  0  0
  149.3081  138.2845  153.7767 N   0  0  0  0  0  0  0  0  0  0  0  0
  148.4984  139.4021  153.7416 C   0  0  0  0  0  0  0  0  0  0  0  0
  147.2667  139.6229  153.0843 C   0  0  0  0  0  0  0  0  0  0  0  0
  146.6080  140.8643  153.2011 C   0  0  0  0  0  0  0  0  0  0  0  0
  147.1685  141.8995  153.9770 C   0  0  0  0  0  0  0  0  0  0  0  0
  148.3949  141.7002  154.6396 C   0  0  0  0  0  0  0  0  0  0  0  0
  149.0512  140.4606  154.5162 C   0  0  0  0  0  0  0  0  0  0  0  0
  150.2442  139.9506  155.0201 N   0  0  0  0  0  0  0  0  0  0  0  0
  151.1819  140.6644  155.8794 C   0  0  0  0  0  0  0  0  0  0  0  0
  150.5720  141.0532  157.2425 C   0  0  2  0  0  0  0  0  0  0  0  0
  149.9241  142.3063  157.1484 O   0  0  0  0  0  0  0  0  0  0  0  0
  151.6220  141.0312  158.3422 C   0  0  0  0  0  0  0  0  0  0  0  0
  152.3525  139.8505  158.5968 C   0  0  0  0  0  0  0  0  0  0  0  0
  153.3320  139.8265  159.6090 C   0  0  0  0  0  0  0  0  0  0  0  0
  153.5880  140.9831  160.3703 C   0  0  0  0  0  0  0  0  0  0  0  0
  154.5299  140.9593  161.3426 F   0  0  0  0  0  0  0  0  0  0  0  0
  152.8652  142.1648  160.1181 C   0  0  0  0  0  0  0  0  0  0  0  0
  151.8858  142.1896  159.1064 C   0  0  0  0  0  0  0  0  0  0  0  0
  151.6041  137.1531  153.0666 H   0  0  0  0  0  0  0  0  0  0  0  0
  151.0498  136.8561  155.3708 H   0  0  0  0  0  0  0  0  0  0  0  0
  152.1024  138.2260  155.6292 H   0  0  0  0  0  0  0  0  0  0  0  0
  146.8278  138.8353  152.4901 H   0  0  0  0  0  0  0  0  0  0  0  0
  145.6671  141.0225  152.6946 H   0  0  0  0  0  0  0  0  0  0  0  0
  146.6561  142.8465  154.0631 H   0  0  0  0  0  0  0  0  0  0  0  0
  148.8254  142.4912  155.2352 H   0  0  0  0  0  0  0  0  0  0  0  0
  152.0484  140.0202  156.0331 H   0  0  0  0  0  0  0  0  0  0  0  0
  151.5525  141.5514  155.3676 H   0  0  0  0  0  0  0  0  0  0  0  0
  149.7982  140.3306  157.5025 H   0  0  0  0  0  0  0  0  0  0  0  0
  148.9904  142.1634  157.1666 H   0  0  0  0  0  0  0  0  0  0  0  0
  152.1660  138.9588  158.0162 H   0  0  0  0  0  0  0  0  0  0  0  0
  153.8883  138.9206  159.8005 H   0  0  0  0  0  0  0  0  0  0  0  0
  153.0628  143.0533  160.6997 H   0  0  0  0  0  0  0  0  0  0  0  0
  151.3388  143.1018  158.9171 H   0  0  0  0  0  0  0  0  0  0  0  0
  1  2  1  0  0  0  0
  1 22  1  0  0  0  0
  2  3  1  0  0  0  0
  2 23  1  0  0  0  0
  2 24  1  0  0  0  0
  3 11  1  0  0  0  0
  3  4  2  0  0  0  0
  4  5  1  0  0  0  0
  5 10  2  0  0  0  0
  5  6  1  0  0  0  0
  6  7  2  0  0  0  0
  6 25  1  0  0  0  0
  7  8  1  0  0  0  0
  7 26  1  0  0  0  0
  8  9  2  0  0  0  0
  8 27  1  0  0  0  0
  9 10  1  0  0  0  0
  9 28  1  0  0  0  0
 10 11  1  0  0  0  0
 11 12  1  0  0  0  0
 12 13  1  0  0  0  0
 12 29  1  0  0  0  0
 12 30  1  0  0  0  0
 13 14  1  0  0  0  0
 13 15  1  0  0  0  0
 13 31  1  0  0  0  0
 14 32  1  0  0  0  0
 15 21  1  0  0  0  0
 15 16  2  0  0  0  0
 16 17  1  0  0  0  0
 16 33  1  0  0  0  0
 17 18  2  0  0  0  0
 17 34  1  0  0  0  0
 18 19  1  0  0  0  0
 18 20  1  0  0  0  0
 20 21  2  0  0  0  0
 20 35  1  0  0  0  0
 21 36  1  0  0  0  0
M  END
> <s_m_source_file>
AV-unprocessed.smi

> <i_m_source_file_index>
458

> <i_lp_mmshare_version>
43012

> <i_f3d_flags>
0

> <s_epik_input>
W2NIXTFbY0hdW2NIXVtjSF1jKGMxMiluKGMobjIpW0NIMl1bT0hdKVtDSDJdW0NASF0oW09IXSljM1tjSF1bY0hdYyhGKVtjSF1bY0hdMw==

> <s_epik_cmdline>
J2VwaWtfcHl0aG9uJywgJy1waCcsICc3LjAnLCAnLXRuJywgJzgnLCAnLW1hJywgJzIwMCcsICctbWV0YWxfYmluZGluZycsICctaW1hZScsICc8aW5maWxlLm1hZT4nLCAnLW9tYWUnLCAnPG91dGZpbGUubWFlPic=

> <r_epik_Ionization_Penalty>
0.0634724

> <r_epik_Ionization_Penalty_Charging>
0

> <r_epik_Ionization_Penalty_Neutral>
0.0634724

> <r_epik_State_Penalty>
0.0551572

> <r_epik_Charging_Adjusted_Penalty>
0.0551572

> <i_epik_Tot_Q>
0

> <i_epik_Tot_abs_Q>
0

> <r_epik_Metal_State_Penalty>
5.78034e-05

> <b_epik_Metal_Only>
0

> <s_lp_Force_Field>
OPLS_2005

> <r_lp_Energy>
12.4444

> <b_lp_Chiralities_Consistent>
1

> <s_lp_Variant>
AV-unprocessed.smi:458-1

> <Gold.Version>
5.8.1

> <Gold.Id.Protein>
6NUR|6NUR_protein|mol2

> <Gold.PLP.Fitness>
48.7545

> <Gold.PLP.PLP>
-43.9479

> <Gold.PLP.part.hbond>
-3.0000

> <Gold.PLP.part.metal>
0.0000

> <Gold.PLP.part.buried>
-0.9604

> <Gold.PLP.part.nonpolar>
-42.7297

> <Gold.PLP.part.repulsive>
2.0516

> <Gold.PLP.ligand.clash>
0.0000

> <Gold.PLP.ligand.torsion>
0.4113

> <Gold.PLP.Chemscore.Hbond>
1.8560

> <Gold.PLP.Chemscore.CHOScore>
0.0000

> <Gold.PLP.Chemscore.Metal>
0.0000

> <Gold.Chemscore.Hbonds>
donor molecule, donor type, donor heavy atom, donor atom, acceptor molecule, acceptor atom, score
      L1  H     1    22       P1  7949  0.96
      P1  H 10752 10765       L1     1  0.93

> <Gold.PLP.Chemscore.Internal.Correction>
0.0612

> <Gold.Rescore>
     Score         DG    S(hbond)    S(metal)    S(lipo)     H(rot)  DE(clash)    DE(int)     intcor
     14.15     -15.50       1.32        0.00     108.20       2.75       0.79       0.55       ----

> <Gold.Chemscore.Fitness>
14.1534

> <Gold.Chemscore.DG>
-15.4978

> <Gold.Chemscore.ZeroCoef>
-5.4800

> <Gold.Chemscore.Hbond>
1.3170

> <Gold.Chemscore.Metal>
0.0000

> <Gold.Chemscore.Lipo>
108.1967

> <Gold.Chemscore.Internal_Hbond>
0.0000

> <Gold.Chemscore.DEClash>
0.7926

> <Gold.Chemscore.DEInternal>
0.5518

> <Gold.Chemscore.Rot>
2.7500

> <Gold.Chemscore.Internal.Correction>
   9.000000E+99

> <Gold.Chemscore.Hbonds>
donor molecule, donor type, donor heavy atom, donor atom, acceptor molecule, acceptor atom, score
      L1  H     1    22       P1  7949  0.84
      P1  H 10752 10765       L1     1  0.22

> <Gold.Chemscore.Hbond.Weighted>
-4.3987

> <Gold.Chemscore.Metal.Weighted>
-0.0000

> <Gold.Chemscore.Lipo.Weighted>
-12.6590

> <Gold.Chemscore.Internal_Hbond.Weighted>
0.0000

> <Gold.Chemscore.DEClash.Weighted>
0.7926

> <Gold.Chemscore.DEInternal.Weighted>
0.5518

> <Gold.Chemscore.Rot.Weighted>
7.0399

> <Gold.Chemscore.Internal.Correction.Weighted>
   9.000000E+99

> <Gold.Protein.RotatedTorsions>
[ 6907 6896 6895 6894 ] final  141.33 input  -60.11 | X-H torsion
[ 7974 7965 7964 7962 ] final  -17.49 input  175.53 | X-H torsion
[ 8008 7997 7996 7995 ] final   -4.22 input   59.86 | X-H torsion
[ 10167 10162 10161 10158 ] final  -82.84 input  -65.29 | X-H torsion
[ 10718 10713 10712 10709 ] final   23.05 input   66.30 | X-H torsion
[ 10763 10752 10751 10750 ] final  134.79 input  -60.55 | X-H torsion
[ 11005 11000 10999 10996 ] final  -39.96 input  -57.11 | X-H torsion

> <Gold.Protein.ActiveResidues>
 VAL166  LYS551  ARG553  GLY616  TRP617  ASP618  TYR619  PRO620  LYS621  CYS622 
 ASP623  PHE694  ASN695  SER759  ASP760  ASP761  ALA762  ILE779  LEU786  VAL792 
 PHE793  MET794  SER795  GLU796  ALA797  LYS798  CYS799  TRP800  GLU811  SER814 

> <Gold.Protein.RotatedAtoms>
  152.2323  133.5068  159.5222 H   0  0  0  0  0  0  0  0  0  0  0  0  # atno 6907 bound_to 6896
  150.7041  134.1200  159.4040 H   0  0  0  0  0  0  0  0  0  0  0  0  # atno 6908 bound_to 6896
  151.9121  135.0334  160.0566 H   0  0  0  0  0  0  0  0  0  0  0  0  # atno 6909 bound_to 6896
  146.1938  140.3786  142.8448 H   0  0  0  0  0  0  0  0  0  0  0  0  # atno 7974 bound_to 7965
  154.6166  140.2489  155.7601 H   0  0  0  0  0  0  0  0  0  0  0  0  # atno 8008 bound_to 7997
  156.2402  140.2935  156.0374 H   0  0  0  0  0  0  0  0  0  0  0  0  # atno 8009 bound_to 7997
  155.1964  140.0393  157.2900 H   0  0  0  0  0  0  0  0  0  0  0  0  # atno 8010 bound_to 7997
  140.4282  143.2558  151.8796 H   0  0  0  0  0  0  0  0  0  0  0  0  # atno 10167 bound_to 10162
  157.1607  130.6716  149.6043 H   0  0  0  0  0  0  0  0  0  0  0  0  # atno 10718 bound_to 10713
  153.8293  135.3106  155.3417 H   0  0  0  0  0  0  0  0  0  0  0  0  # atno 10763 bound_to 10752
  154.7980  135.4744  154.0210 H   0  0  0  0  0  0  0  0  0  0  0  0  # atno 10764 bound_to 10752
  153.1644  135.6867  153.8787 H   0  0  0  0  0  0  0  0  0  0  0  0  # atno 10765 bound_to 10752
  141.0140  133.6894  156.2256 H   0  0  0  0  0  0  0  0  0  0  0  0  # atno 11005 bound_to 11000
  144.8540  140.7043  143.6150 LP  0  0  0  0  0  0  0  0  0  0  0  0  # atno 17320 bound_to 7965
  145.3708  139.1659  143.4333 LP  0  0  0  0  0  0  0  0  0  0  0  0  # atno 17321 bound_to 7965
  139.4784  144.5364  151.8593 LP  0  0  0  0  0  0  0  0  0  0  0  0  # atno 17342 bound_to 10162
  140.4457  144.1925  150.5894 LP  0  0  0  0  0  0  0  0  0  0  0  0  # atno 17343 bound_to 10162
  155.9754  130.4712  150.6458 LP  0  0  0  0  0  0  0  0  0  0  0  0  # atno 17370 bound_to 10713
  157.4135  131.0827  151.1199 LP  0  0  0  0  0  0  0  0  0  0  0  0  # atno 17371 bound_to 10713
  140.6686  134.4891  157.5586 LP  0  0  0  0  0  0  0  0  0  0  0  0  # atno 17394 bound_to 11000
  139.9106  134.8353  156.1543 LP  0  0  0  0  0  0  0  0  0  0  0  0  # atno 17395 bound_to 11000

$$$$
