AV-unprocessed.smi:2446|AV-procd|sdf|9646|dock2
  -GOLD-   2272013283D 1   1.00000     0.00000
 Structure written by MMmdl.
 40 41  0  0  0  0  0  0  0  0  2 V2000
  150.5115  138.9316  154.2917 C   0  0  0  0  0  0  0  0  0  0  0  0
  149.4078  139.9731  154.3673 C   0  0  0  0  0  0  0  0  0  0  0  0
  149.7098  141.2741  154.8254 C   0  0  0  0  0  0  0  0  0  0  0  0
  148.7393  142.2086  154.9008 N   0  3  0  0  0  0  0  0  0  0  0  0
  147.4583  141.9594  154.5585 C   0  0  0  0  0  0  0  0  0  0  0  0
  147.0906  140.6809  154.0943 C   0  0  0  0  0  0  0  0  0  0  0  0
  148.0772  139.6678  153.9809 C   0  0  0  0  0  0  0  0  0  0  0  0
  147.7908  138.3463  153.5365 N   0  0  0  0  0  0  0  0  0  0  0  0
  146.7154  137.5749  153.7897 C   0  0  0  0  0  0  0  0  0  0  0  0
  145.7738  137.8997  154.5093 O   0  0  0  0  0  0  0  0  0  0  0  0
  146.7342  136.3829  153.1647 N   0  0  0  0  0  0  0  0  0  0  0  0
  145.7363  135.3115  153.2164 C   0  0  1  0  0  0  0  0  0  0  0  0
  144.3898  135.8381  152.6886 C   0  0  0  0  0  0  0  0  0  0  0  0
  143.3263  134.7296  152.6683 C   0  0  0  0  0  0  0  0  0  0  0  0
  143.7995  133.5156  151.8532 C   0  0  0  0  0  0  0  0  0  0  0  0
  145.1436  132.9686  152.3781 C   0  0  1  0  0  0  0  0  0  0  0  0
  145.6210  131.7369  151.5815 C   0  0  0  0  0  0  0  0  0  0  0  0
  145.9545  132.0766  150.3361 F   0  0  0  0  0  0  0  0  0  0  0  0
  146.6812  131.1924  152.1788 F   0  0  0  0  0  0  0  0  0  0  0  0
  144.6541  130.8204  151.5346 F   0  0  0  0  0  0  0  0  0  0  0  0
  146.2017  134.0919  152.3924 C   0  0  0  0  0  0  0  0  0  0  0  0
  151.4595  139.3327  154.6511 H   0  0  0  0  0  0  0  0  0  0  0  0
  150.6542  138.6016  153.2623 H   0  0  0  0  0  0  0  0  0  0  0  0
  150.2612  138.0628  154.9014 H   0  0  0  0  0  0  0  0  0  0  0  0
  150.6943  141.5945  155.1341 H   0  0  0  0  0  0  0  0  0  0  0  0
  146.7681  142.7829  154.6711 H   0  0  0  0  0  0  0  0  0  0  0  0
  146.0557  140.5019  153.8474 H   0  0  0  0  0  0  0  0  0  0  0  0
  148.4491  137.9660  152.8723 H   0  0  0  0  0  0  0  0  0  0  0  0
  147.5452  136.1930  152.5934 H   0  0  0  0  0  0  0  0  0  0  0  0
  145.5844  135.0053  154.2532 H   0  0  0  0  0  0  0  0  0  0  0  0
  144.0434  136.6667  153.3074 H   0  0  0  0  0  0  0  0  0  0  0  0
  144.5155  136.2363  151.6805 H   0  0  0  0  0  0  0  0  0  0  0  0
  143.1018  134.4195  153.6894 H   0  0  0  0  0  0  0  0  0  0  0  0
  142.3959  135.1163  152.2515 H   0  0  0  0  0  0  0  0  0  0  0  0
  143.0368  132.7374  151.8898 H   0  0  0  0  0  0  0  0  0  0  0  0
  143.8987  133.7996  150.8047 H   0  0  0  0  0  0  0  0  0  0  0  0
  144.9894  132.6467  153.4094 H   0  0  0  0  0  0  0  0  0  0  0  0
  146.4183  134.4029  151.3692 H   0  0  0  0  0  0  0  0  0  0  0  0
  147.1374  133.7060  152.7966 H   0  0  0  0  0  0  0  0  0  0  0  0
  148.9830  143.1411  155.2358 H   0  0  0  0  0  0  0  0  0  0  0  0
  1  2  1  0  0  0  0
  1 22  1  0  0  0  0
  1 23  1  0  0  0  0
  1 24  1  0  0  0  0
  2  7  1  0  0  0  0
  2  3  2  0  0  0  0
  3  4  1  0  0  0  0
  3 25  1  0  0  0  0
  4  5  2  0  0  0  0
  4 40  1  0  0  0  0
  5  6  1  0  0  0  0
  5 26  1  0  0  0  0
  6  7  2  0  0  0  0
  6 27  1  0  0  0  0
  7  8  1  0  0  0  0
  8  9  1  0  0  0  0
  8 28  1  0  0  0  0
  9 10  2  0  0  0  0
  9 11  1  0  0  0  0
 11 12  1  0  0  0  0
 11 29  1  0  0  0  0
 12 21  1  0  0  0  0
 12 13  1  0  0  0  0
 12 30  1  0  0  0  0
 13 14  1  0  0  0  0
 13 31  1  0  0  0  0
 13 32  1  0  0  0  0
 14 15  1  0  0  0  0
 14 33  1  0  0  0  0
 14 34  1  0  0  0  0
 15 16  1  0  0  0  0
 15 35  1  0  0  0  0
 15 36  1  0  0  0  0
 16 17  1  0  0  0  0
 16 21  1  0  0  0  0
 16 37  1  0  0  0  0
 17 18  1  0  0  0  0
 17 19  1  0  0  0  0
 17 20  1  0  0  0  0
 21 38  1  0  0  0  0
 21 39  1  0  0  0  0
M  CHG  1   4   1
M  END
> <s_m_source_file>
AV-unprocessed.smi

> <i_m_source_file_index>
2446

> <i_lp_mmshare_version>
43012

> <i_f3d_flags>
0

> <s_epik_input>
W0NIM11jMVtjSF1uW2NIXVtjSF1jMVtOSF1DKD1PKVtOSF1bQ0BASF0yW0NIMl1bQ0gyXVtDSDJdW0NAQEhdKEMoRikoRilGKVtDSDJdMg==

> <s_epik_cmdline>
J2VwaWtfcHl0aG9uJywgJy1waCcsICc3LjAnLCAnLXRuJywgJzgnLCAnLW1hJywgJzIwMCcsICctbWV0YWxfYmluZGluZycsICctaW1hZScsICc8aW5maWxlLm1hZT4nLCAnLW9tYWUnLCAnPG91dGZpbGUubWFlPic=

> <r_epik_Ionization_Penalty>
0.736582

> <r_epik_Ionization_Penalty_Charging>
0.736562

> <r_epik_Ionization_Penalty_Neutral>
1.98379e-05

> <r_epik_State_Penalty>
0.762314

> <r_epik_Charging_Adjusted_Penalty>
1.49888

> <i_epik_Tot_Q>
1

> <i_epik_Tot_abs_Q>
1

> <r_epik_Metal_State_Penalty>
0.914579

> <b_epik_Metal_Only>
0

> <s_lp_Force_Field>
OPLS_2005

> <r_lp_Energy>
31.4788

> <b_lp_Chiralities_Consistent>
1

> <s_lp_Variant>
AV-unprocessed.smi:2446-6

> <Gold.Version>
5.8.1

> <Gold.Id.Protein>
6NUR|6NUR_protein|mol2

> <Gold.PLP.Fitness>
48.6432

> <Gold.PLP.PLP>
-37.6766

> <Gold.PLP.part.hbond>
-3.0000

> <Gold.PLP.part.metal>
0.0000

> <Gold.PLP.part.buried>
-3.5530

> <Gold.PLP.part.nonpolar>
-32.7426

> <Gold.PLP.part.repulsive>
0.3650

> <Gold.PLP.ligand.clash>
0.0000

> <Gold.PLP.ligand.torsion>
0.3601

> <Gold.PLP.Chemscore.Hbond>
3.8882

> <Gold.PLP.Chemscore.CHOScore>
0.0000

> <Gold.PLP.Chemscore.Metal>
0.0000

> <Gold.Chemscore.Hbonds>
donor molecule, donor type, donor heavy atom, donor atom, acceptor molecule, acceptor atom, score
      L1  H     4    40       P1  8028  2.00
      L1  H     8    28       P1  7948  0.84
      L1  H    11    29       P1  7948  1.00

> <Gold.PLP.Chemscore.Internal.Correction>
0.0223

> <Gold.Rescore>
     Score         DG    S(hbond)    S(metal)    S(lipo)     H(rot)  DE(clash)    DE(int)     intcor
     20.86     -21.49       2.92        0.00      75.39       1.00       0.26       0.37       ----

> <Gold.Chemscore.Fitness>
20.8601

> <Gold.Chemscore.DG>
-21.4928

> <Gold.Chemscore.ZeroCoef>
-5.4800

> <Gold.Chemscore.Hbond>
2.9199

> <Gold.Chemscore.Metal>
0.0000

> <Gold.Chemscore.Lipo>
75.3862

> <Gold.Chemscore.Internal_Hbond>
0.0000

> <Gold.Chemscore.DEClash>
0.2599

> <Gold.Chemscore.DEInternal>
0.3729

> <Gold.Chemscore.Rot>
1.0000

> <Gold.Chemscore.Internal.Correction>
   9.000000E+99

> <Gold.Chemscore.Hbonds>
donor molecule, donor type, donor heavy atom, donor atom, acceptor molecule, acceptor atom, score
      L1  H     4    40       P1  8028  0.99
      L1  H     8    28       P1  7948  0.78
      L1  H    11    29       P1  7948  0.97

> <Gold.Chemscore.Hbond.Weighted>
-9.7526

> <Gold.Chemscore.Metal.Weighted>
-0.0000

> <Gold.Chemscore.Lipo.Weighted>
-8.8202

> <Gold.Chemscore.Internal_Hbond.Weighted>
0.0000

> <Gold.Chemscore.DEClash.Weighted>
0.2599

> <Gold.Chemscore.DEInternal.Weighted>
0.3729

> <Gold.Chemscore.Rot.Weighted>
2.5600

> <Gold.Chemscore.Internal.Correction.Weighted>
   9.000000E+99

> <Gold.Protein.RotatedTorsions>
[ 6907 6896 6895 6894 ] final  126.58 input  -60.11 | X-H torsion
[ 7974 7965 7964 7962 ] final  160.99 input  175.53 | X-H torsion
[ 8008 7997 7996 7995 ] final  175.53 input   59.86 | X-H torsion
[ 10167 10162 10161 10158 ] final  -63.03 input  -65.29 | X-H torsion
[ 10718 10713 10712 10709 ] final  -18.67 input   66.30 | X-H torsion
[ 10763 10752 10751 10750 ] final  149.24 input  -60.55 | X-H torsion
[ 11005 11000 10999 10996 ] final  153.46 input  -57.11 | X-H torsion

> <Gold.Protein.ActiveResidues>
 VAL166  LYS551  ARG553  GLY616  TRP617  ASP618  TYR619  PRO620  LYS621  CYS622 
 ASP623  PHE694  ASN695  SER759  ASP760  ASP761  ALA762  ILE779  LEU786  VAL792 
 PHE793  MET794  SER795  GLU796  ALA797  LYS798  CYS799  TRP800  GLU811  SER814 

> <Gold.Protein.RotatedAtoms>
  152.3890  133.6652  159.6222 H   0  0  0  0  0  0  0  0  0  0  0  0  # atno 6907 bound_to 6896
  150.7803  133.8986  159.3343 H   0  0  0  0  0  0  0  0  0  0  0  0  # atno 6908 bound_to 6896
  151.6776  135.0968  160.0261 H   0  0  0  0  0  0  0  0  0  0  0  0  # atno 6909 bound_to 6896
  144.7708  139.7835  143.6297 H   0  0  0  0  0  0  0  0  0  0  0  0  # atno 7974 bound_to 7965
  156.0861  140.1406  156.9651 H   0  0  0  0  0  0  0  0  0  0  0  0  # atno 8008 bound_to 7997
  154.4613  140.0942  156.6950 H   0  0  0  0  0  0  0  0  0  0  0  0  # atno 8009 bound_to 7997
  155.4996  140.3450  155.4371 H   0  0  0  0  0  0  0  0  0  0  0  0  # atno 8010 bound_to 7997
  140.5899  143.2340  151.6163 H   0  0  0  0  0  0  0  0  0  0  0  0  # atno 10167 bound_to 10162
  156.5563  130.4714  149.6428 H   0  0  0  0  0  0  0  0  0  0  0  0  # atno 10718 bound_to 10713
  154.0680  135.2869  155.3313 H   0  0  0  0  0  0  0  0  0  0  0  0  # atno 10763 bound_to 10752
  154.6765  135.5279  153.8210 H   0  0  0  0  0  0  0  0  0  0  0  0  # atno 10764 bound_to 10752
  153.0496  135.6571  154.0863 H   0  0  0  0  0  0  0  0  0  0  0  0  # atno 10765 bound_to 10752
  140.1400  134.8745  157.2318 H   0  0  0  0  0  0  0  0  0  0  0  0  # atno 11005 bound_to 11000
  146.1853  139.5066  142.9840 LP  0  0  0  0  0  0  0  0  0  0  0  0  # atno 17320 bound_to 7965
  145.6329  141.0300  143.1853 LP  0  0  0  0  0  0  0  0  0  0  0  0  # atno 17321 bound_to 7965
  139.5221  144.3174  152.0940 LP  0  0  0  0  0  0  0  0  0  0  0  0  # atno 17342 bound_to 10162
  140.2337  144.4342  150.6289 LP  0  0  0  0  0  0  0  0  0  0  0  0  # atno 17343 bound_to 10162
  156.2839  130.7086  151.1918 LP  0  0  0  0  0  0  0  0  0  0  0  0  # atno 17370 bound_to 10713
  157.7377  131.0548  150.5336 LP  0  0  0  0  0  0  0  0  0  0  0  0  # atno 17371 bound_to 10713
  140.2734  134.3433  155.7366 LP  0  0  0  0  0  0  0  0  0  0  0  0  # atno 17394 bound_to 11000
  141.2184  133.7436  156.9257 LP  0  0  0  0  0  0  0  0  0  0  0  0  # atno 17395 bound_to 11000

$$$$
