AV-unprocessed.smi:1393|AV-procd|sdf|5664|dock2
  -GOLD-   22720 5283D 1   1.00000     0.00000
 Structure written by MMmdl.
 39 40  0  0  0  0  0  0  0  0  1 V2000
  150.5951  140.6314  157.5753 O   0  0  0  0  0  0  0  0  0  0  0  0
  150.5940  141.7233  157.0045 C   0  0  0  0  0  0  0  0  0  0  0  0
  151.4453  142.8917  157.5226 C   0  0  0  0  0  0  0  0  0  0  0  0
  152.1551  142.5914  158.7782 N   0  0  0  0  0  0  0  0  0  0  0  0
  151.9809  143.5017  159.8358 C   0  0  0  0  0  0  0  0  0  0  0  0
  152.5692  143.3219  161.0259 C   0  0  0  0  0  0  0  0  0  0  0  0
  153.3985  142.1556  161.2071 C   0  0  0  0  0  0  0  0  0  0  0  0
  153.5825  141.2601  160.2094 C   0  0  0  0  0  0  0  0  0  0  0  0
  154.4543  140.0189  160.3865 C   0  0  0  0  0  0  0  0  0  0  0  0
  155.5045  140.0625  159.5657 F   0  0  0  0  0  0  0  0  0  0  0  0
  154.9165  139.9121  161.6333 F   0  0  0  0  0  0  0  0  0  0  0  0
  153.7580  138.9146  160.1143 F   0  0  0  0  0  0  0  0  0  0  0  0
  152.9293  141.4686  158.9008 C   0  0  0  0  0  0  0  0  0  0  0  0
  153.0650  140.6807  157.9633 O   0  0  0  0  0  0  0  0  0  0  0  0
  149.8609  141.9763  155.9086 N   0  0  0  0  0  0  0  0  0  0  0  0
  148.9887  141.0135  155.2318 C   0  0  1  0  0  0  0  0  0  0  0  0
  148.1967  141.7788  154.1473 C   0  0  0  0  0  0  0  0  0  0  0  0
  146.8897  141.0823  153.7301 C   0  0  0  0  0  0  0  0  0  0  0  0
  147.0708  139.7252  153.0323 C   0  0  0  0  0  0  0  0  0  0  0  0
  147.7446  138.6596  153.9140 C   0  0  0  0  0  0  0  0  0  0  0  0
  149.1856  138.8552  154.0065 N   0  0  0  0  0  0  0  0  0  0  0  0
  149.8230  139.8993  154.5576 C   0  0  0  0  0  0  0  0  0  0  0  0
  151.0515  139.9682  154.5203 O   0  0  0  0  0  0  0  0  0  0  0  0
  152.1511  143.1859  156.7435 H   0  0  0  0  0  0  0  0  0  0  0  0
  150.7955  143.7578  157.6565 H   0  0  0  0  0  0  0  0  0  0  0  0
  151.3380  144.3428  159.6199 H   0  0  0  0  0  0  0  0  0  0  0  0
  152.4220  144.0278  161.8299 H   0  0  0  0  0  0  0  0  0  0  0  0
  153.8727  142.0083  162.1659 H   0  0  0  0  0  0  0  0  0  0  0  0
  149.9251  142.8965  155.4985 H   0  0  0  0  0  0  0  0  0  0  0  0
  148.3022  140.5787  155.9606 H   0  0  0  0  0  0  0  0  0  0  0  0
  147.9238  142.7622  154.5340 H   0  0  0  0  0  0  0  0  0  0  0  0
  148.8181  141.9732  153.2712 H   0  0  0  0  0  0  0  0  0  0  0  0
  146.2519  140.9567  154.6061 H   0  0  0  0  0  0  0  0  0  0  0  0
  146.3423  141.7452  153.0593 H   0  0  0  0  0  0  0  0  0  0  0  0
  146.0849  139.3600  152.7431 H   0  0  0  0  0  0  0  0  0  0  0  0
  147.6266  139.8505  152.1021 H   0  0  0  0  0  0  0  0  0  0  0  0
  147.2972  138.6271  154.9084 H   0  0  0  0  0  0  0  0  0  0  0  0
  147.5826  137.6756  153.4733 H   0  0  0  0  0  0  0  0  0  0  0  0
  149.7600  138.1398  153.5845 H   0  0  0  0  0  0  0  0  0  0  0  0
  1  2  2  0  0  0  0
  2  3  1  0  0  0  0
  2 15  1  0  0  0  0
  3  4  1  0  0  0  0
  3 24  1  0  0  0  0
  3 25  1  0  0  0  0
  4 13  1  0  0  0  0
  4  5  1  0  0  0  0
  5  6  2  0  0  0  0
  5 26  1  0  0  0  0
  6  7  1  0  0  0  0
  6 27  1  0  0  0  0
  7  8  2  0  0  0  0
  7 28  1  0  0  0  0
  8  9  1  0  0  0  0
  8 13  1  0  0  0  0
  9 10  1  0  0  0  0
  9 11  1  0  0  0  0
  9 12  1  0  0  0  0
 13 14  2  0  0  0  0
 15 16  1  0  0  0  0
 15 29  1  0  0  0  0
 16 22  1  0  0  0  0
 16 17  1  0  0  0  0
 16 30  1  0  0  0  0
 17 18  1  0  0  0  0
 17 31  1  0  0  0  0
 17 32  1  0  0  0  0
 18 19  1  0  0  0  0
 18 33  1  0  0  0  0
 18 34  1  0  0  0  0
 19 20  1  0  0  0  0
 19 35  1  0  0  0  0
 19 36  1  0  0  0  0
 20 21  1  0  0  0  0
 20 37  1  0  0  0  0
 20 38  1  0  0  0  0
 21 22  1  0  0  0  0
 21 39  1  0  0  0  0
 22 23  2  0  0  0  0
M  END
> <s_m_source_file>
AV-unprocessed.smi

> <i_m_source_file_index>
1393

> <i_lp_mmshare_version>
43012

> <i_f3d_flags>
0

> <s_epik_input>
RkMoRikoRiljKGMxPU8pW2NIXVtjSF1bY0hdbjFbQ0gyXUMoPU8pW05IXVtDQEBIXTJbQ0gyXVtDSDJdW0NIMl1bQ0gyXVtOSF1DMj1P

> <s_epik_cmdline>
J2VwaWtfcHl0aG9uJywgJy1waCcsICc3LjAnLCAnLXRuJywgJzgnLCAnLW1hJywgJzIwMCcsICctbWV0YWxfYmluZGluZycsICctaW1hZScsICc8aW5maWxlLm1hZT4nLCAnLW9tYWUnLCAnPG91dGZpbGUubWFlPic=

> <r_lp_tautomer_probability>
1

> <r_epik_Ionization_Penalty>
5.5009e-08

> <r_epik_Ionization_Penalty_Charging>
1.68727e-09

> <r_epik_Ionization_Penalty_Neutral>
5.33217e-08

> <r_epik_State_Penalty>
-0

> <r_epik_Charging_Adjusted_Penalty>
1.68727e-09

> <i_epik_Tot_Q>
0

> <i_epik_Tot_abs_Q>
0

> <r_epik_Metal_State_Penalty>
-0

> <b_epik_Metal_Only>
0

> <s_lp_Force_Field>
OPLS_2005

> <r_lp_Energy>
21.4226

> <b_lp_Chiralities_Consistent>
1

> <s_lp_Variant>
AV-unprocessed.smi:1393-2

> <Gold.Version>
5.8.1

> <Gold.Id.Protein>
6NUR|6NUR_protein|mol2

> <Gold.PLP.Fitness>
55.1349

> <Gold.PLP.PLP>
-48.6534

> <Gold.PLP.part.hbond>
-3.6219

> <Gold.PLP.part.metal>
0.0000

> <Gold.PLP.part.buried>
-2.2241

> <Gold.PLP.part.nonpolar>
-43.3449

> <Gold.PLP.part.repulsive>
0.2663

> <Gold.PLP.ligand.clash>
0.2849

> <Gold.PLP.ligand.torsion>
0.1837

> <Gold.PLP.Chemscore.Hbond>
2.2660

> <Gold.PLP.Chemscore.CHOScore>
0.0000

> <Gold.PLP.Chemscore.Metal>
0.0000

> <Gold.Chemscore.Hbonds>
donor molecule, donor type, donor heavy atom, donor atom, acceptor molecule, acceptor atom, score
      L1  H    15    29       P1  8028  0.62
      P1  H  7989  7998       L1    23  0.88
      P1  H  7997  8009       L1    14  0.69

> <Gold.PLP.Chemscore.Internal.Correction>
0.3359

> <Gold.Rescore>
     Score         DG    S(hbond)    S(metal)    S(lipo)     H(rot)  DE(clash)    DE(int)     intcor
     13.86     -20.20       2.57        0.00      89.99       1.72       0.09       6.25       ----

> <Gold.Chemscore.Fitness>
13.8599

> <Gold.Chemscore.DG>
-20.1968

> <Gold.Chemscore.ZeroCoef>
-5.4800

> <Gold.Chemscore.Hbond>
2.5730

> <Gold.Chemscore.Metal>
0.0000

> <Gold.Chemscore.Lipo>
89.9937

> <Gold.Chemscore.Internal_Hbond>
0.0000

> <Gold.Chemscore.DEClash>
0.0868

> <Gold.Chemscore.DEInternal>
6.2501

> <Gold.Chemscore.Rot>
1.7212

> <Gold.Chemscore.Internal.Correction>
   9.000000E+99

> <Gold.Chemscore.Hbonds>
donor molecule, donor type, donor heavy atom, donor atom, acceptor molecule, acceptor atom, score
      L1  H    15    29       P1  8028  0.59
      P1  H  7989  7998       L1    23  0.81
      P1  H  7997  8009       L1    14  0.70

> <Gold.Chemscore.Hbond.Weighted>
-8.5937

> <Gold.Chemscore.Metal.Weighted>
-0.0000

> <Gold.Chemscore.Lipo.Weighted>
-10.5293

> <Gold.Chemscore.Internal_Hbond.Weighted>
0.0000

> <Gold.Chemscore.DEClash.Weighted>
0.0868

> <Gold.Chemscore.DEInternal.Weighted>
6.2501

> <Gold.Chemscore.Rot.Weighted>
4.4062

> <Gold.Chemscore.Internal.Correction.Weighted>
   9.000000E+99

> <Gold.Protein.RotatedTorsions>
[ 6907 6896 6895 6894 ] final -123.67 input  -60.11 | X-H torsion
[ 7974 7965 7964 7962 ] final   44.04 input  175.53 | X-H torsion
[ 8008 7997 7996 7995 ] final  160.98 input   59.86 | X-H torsion
[ 10167 10162 10161 10158 ] final   78.56 input  -65.29 | X-H torsion
[ 10718 10713 10712 10709 ] final -156.74 input   66.30 | X-H torsion
[ 10763 10752 10751 10750 ] final   44.55 input  -60.55 | X-H torsion
[ 11005 11000 10999 10996 ] final  -78.50 input  -57.11 | X-H torsion

> <Gold.Protein.ActiveResidues>
 VAL166  LYS551  ARG553  GLY616  TRP617  ASP618  TYR619  PRO620  LYS621  CYS622 
 ASP623  PHE694  ASN695  SER759  ASP760  ASP761  ALA762  ILE779  LEU786  VAL792 
 PHE793  MET794  SER795  GLU796  ALA797  LYS798  CYS799  TRP800  GLU811  SER814 

> <Gold.Protein.RotatedAtoms>
  150.8693  133.7528  159.2966 H   0  0  0  0  0  0  0  0  0  0  0  0  # atno 6907 bound_to 6896
  151.5145  135.1064  159.9872 H   0  0  0  0  0  0  0  0  0  0  0  0  # atno 6908 bound_to 6896
  152.4684  133.7929  159.6967 H   0  0  0  0  0  0  0  0  0  0  0  0  # atno 6909 bound_to 6896
  146.0603  139.5118  142.9662 H   0  0  0  0  0  0  0  0  0  0  0  0  # atno 7974 bound_to 7965
  156.2135  140.1789  156.7642 H   0  0  0  0  0  0  0  0  0  0  0  0  # atno 8008 bound_to 7997
  154.5757  140.0675  156.9060 H   0  0  0  0  0  0  0  0  0  0  0  0  # atno 8009 bound_to 7997
  155.2592  140.3334  155.4277 H   0  0  0  0  0  0  0  0  0  0  0  0  # atno 8010 bound_to 7997
  139.9696  144.5904  150.7997 H   0  0  0  0  0  0  0  0  0  0  0  0  # atno 10167 bound_to 10162
  156.5306  130.8519  151.2715 H   0  0  0  0  0  0  0  0  0  0  0  0  # atno 10718 bound_to 10713
  152.9839  135.6067  154.3292 H   0  0  0  0  0  0  0  0  0  0  0  0  # atno 10763 bound_to 10752
  154.2997  135.2773  155.2618 H   0  0  0  0  0  0  0  0  0  0  0  0  # atno 10764 bound_to 10752
  154.4876  135.5900  153.6492 H   0  0  0  0  0  0  0  0  0  0  0  0  # atno 10765 bound_to 10752
  141.1665  133.7066  156.7980 H   0  0  0  0  0  0  0  0  0  0  0  0  # atno 11005 bound_to 11000
  145.6572  141.0249  143.1728 LP  0  0  0  0  0  0  0  0  0  0  0  0  # atno 17320 bound_to 7965
  144.7171  139.8159  143.7395 LP  0  0  0  0  0  0  0  0  0  0  0  0  # atno 17321 bound_to 7965
  140.7526  143.2994  151.3121 LP  0  0  0  0  0  0  0  0  0  0  0  0  # atno 17342 bound_to 10162
  139.6491  144.0395  152.2613 LP  0  0  0  0  0  0  0  0  0  0  0  0  # atno 17343 bound_to 10162
  157.7422  130.9886  150.2501 LP  0  0  0  0  0  0  0  0  0  0  0  0  # atno 17370 bound_to 10713
  156.3063  130.3765  149.7703 LP  0  0  0  0  0  0  0  0  0  0  0  0  # atno 17371 bound_to 10713
  140.2277  134.8709  157.3443 LP  0  0  0  0  0  0  0  0  0  0  0  0  # atno 17394 bound_to 11000
  140.1923  134.4356  155.7709 LP  0  0  0  0  0  0  0  0  0  0  0  0  # atno 17395 bound_to 11000

$$$$
