AV-unprocessed.smi:22|AV-procd|sdf|170|dock1
  -GOLD-   2262015423D 1   1.00000     0.00000
 Structure written by MMmdl.
 56 59  0  0  0  0  0  0  0  0  2 V2000
  143.3728  136.1156  155.7710 C   0  0  0  0  0  0  0  0  0  0  0  0
  143.9911  135.6975  154.4866 N   0  3  1  0  0  0  0  0  0  0  0  0
  143.1015  136.0184  153.3363 C   0  0  0  0  0  0  0  0  0  0  0  0
  141.7182  135.3638  153.4825 C   0  0  0  0  0  0  0  0  0  0  0  0
  141.7861  134.0050  153.1055 O   0  0  0  0  0  0  0  0  0  0  0  0
  145.3998  136.1611  154.2808 C   0  0  0  0  0  0  0  0  0  0  0  0
  146.1910  136.0956  155.6097 C   0  0  0  0  0  0  0  0  0  0  0  0
  147.6451  136.5595  155.4316 C   0  0  0  0  0  0  0  0  0  0  0  0
  147.6950  137.9024  154.8567 N   0  0  0  0  0  0  0  0  0  0  0  0
  148.8752  138.5704  154.9174 C   0  0  0  0  0  0  0  0  0  0  0  0
  149.9861  138.0426  154.3366 N   0  0  0  0  0  0  0  0  0  0  0  0
  151.1492  138.6991  154.3835 C   0  0  0  0  0  0  0  0  0  0  0  0
  151.4211  139.8744  154.9528 N   0  0  0  0  0  0  0  0  0  0  0  0
  150.3134  140.4059  155.5444 C   0  0  0  0  0  0  0  0  0  0  0  0
  149.0130  139.8272  155.5715 C   0  0  0  0  0  0  0  0  0  0  0  0
  148.1419  140.6539  156.2716 N   0  0  0  0  0  0  0  0  0  0  0  0
  148.8834  141.6662  156.6310 C   0  0  0  0  0  0  0  0  0  0  0  0
  150.2020  141.5960  156.2420 N   0  0  0  0  0  0  0  0  0  0  0  0
  151.2423  142.5765  156.5122 C   0  0  0  0  0  0  0  0  0  0  0  0
  151.4388  142.8616  158.0191 C   0  0  1  0  0  0  0  0  0  0  0  0
  151.7925  141.6540  158.6713 O   0  0  0  0  0  0  0  0  0  0  0  0
  152.5057  143.9092  158.3234 C   0  0  0  0  0  0  0  0  0  0  0  0
  151.9902  144.5552  159.6015 C   0  0  0  0  0  0  0  0  0  0  0  0
  150.5938  144.6262  159.3690 O   0  0  0  0  0  0  0  0  0  0  0  0
  150.1824  143.4353  158.7043 C   0  0  0  0  0  0  0  0  0  0  0  0
  146.9787  138.0519  153.5929 C   0  0  0  0  0  0  0  0  0  0  0  0
  145.5136  137.6073  153.7327 C   0  0  0  0  0  0  0  0  0  0  0  0
  143.3996  137.2005  155.8833 H   0  0  0  0  0  0  0  0  0  0  0  0
  143.8775  135.6624  156.6241 H   0  0  0  0  0  0  0  0  0  0  0  0
  142.3310  135.8010  155.8288 H   0  0  0  0  0  0  0  0  0  0  0  0
  142.9958  137.1013  153.2522 H   0  0  0  0  0  0  0  0  0  0  0  0
  143.5347  135.7026  152.3878 H   0  0  0  0  0  0  0  0  0  0  0  0
  141.3335  135.4437  154.4990 H   0  0  0  0  0  0  0  0  0  0  0  0
  141.0016  135.8635  152.8303 H   0  0  0  0  0  0  0  0  0  0  0  0
  142.2028  133.5189  153.8014 H   0  0  0  0  0  0  0  0  0  0  0  0
  145.8674  135.4968  153.5517 H   0  0  0  0  0  0  0  0  0  0  0  0
  145.7028  136.7247  156.3558 H   0  0  0  0  0  0  0  0  0  0  0  0
  146.1998  135.0890  156.0251 H   0  0  0  0  0  0  0  0  0  0  0  0
  148.1484  136.5499  156.3996 H   0  0  0  0  0  0  0  0  0  0  0  0
  148.1807  135.8659  154.7818 H   0  0  0  0  0  0  0  0  0  0  0  0
  151.9805  138.2134  153.8940 H   0  0  0  0  0  0  0  0  0  0  0  0
  148.4883  142.4948  157.2011 H   0  0  0  0  0  0  0  0  0  0  0  0
  152.1737  142.2139  156.0753 H   0  0  0  0  0  0  0  0  0  0  0  0
  150.9944  143.4966  155.9808 H   0  0  0  0  0  0  0  0  0  0  0  0
  151.1080  141.4340  159.2848 H   0  0  0  0  0  0  0  0  0  0  0  0
  153.5126  143.5006  158.4199 H   0  0  0  0  0  0  0  0  0  0  0  0
  152.5274  144.6647  157.5376 H   0  0  0  0  0  0  0  0  0  0  0  0
  152.1893  143.9250  160.4697 H   0  0  0  0  0  0  0  0  0  0  0  0
  152.4204  145.5406  159.7812 H   0  0  0  0  0  0  0  0  0  0  0  0
  149.3974  143.6835  157.9893 H   0  0  0  0  0  0  0  0  0  0  0  0
  149.7542  142.7405  159.4288 H   0  0  0  0  0  0  0  0  0  0  0  0
  147.0076  139.0824  153.2399 H   0  0  0  0  0  0  0  0  0  0  0  0
  147.4790  137.4494  152.8336 H   0  0  0  0  0  0  0  0  0  0  0  0
  145.0473  137.6940  152.7513 H   0  0  0  0  0  0  0  0  0  0  0  0
  144.9906  138.2995  154.3944 H   0  0  0  0  0  0  0  0  0  0  0  0
  144.0456  134.6891  154.5206 H   0  0  0  0  0  0  0  0  0  0  0  0
  1  2  1  0  0  0  0
  1 28  1  0  0  0  0
  1 29  1  0  0  0  0
  1 30  1  0  0  0  0
  2  3  1  0  0  0  0
  2  6  1  0  0  0  0
  2 56  1  0  0  0  0
  3  4  1  0  0  0  0
  3 31  1  0  0  0  0
  3 32  1  0  0  0  0
  4  5  1  0  0  0  0
  4 33  1  0  0  0  0
  4 34  1  0  0  0  0
  5 35  1  0  0  0  0
  6 27  1  0  0  0  0
  6  7  1  0  0  0  0
  6 36  1  0  0  0  0
  7  8  1  0  0  0  0
  7 37  1  0  0  0  0
  7 38  1  0  0  0  0
  8  9  1  0  0  0  0
  8 39  1  0  0  0  0
  8 40  1  0  0  0  0
  9 10  1  0  0  0  0
  9 26  1  0  0  0  0
 10 15  1  0  0  0  0
 10 11  2  0  0  0  0
 11 12  1  0  0  0  0
 12 13  2  0  0  0  0
 12 41  1  0  0  0  0
 13 14  1  0  0  0  0
 14 18  1  0  0  0  0
 14 15  2  0  0  0  0
 15 16  1  0  0  0  0
 16 17  2  0  0  0  0
 17 18  1  0  0  0  0
 17 42  1  0  0  0  0
 18 19  1  0  0  0  0
 19 20  1  0  0  0  0
 19 43  1  0  0  0  0
 19 44  1  0  0  0  0
 20 25  1  0  0  0  0
 20 21  1  0  0  0  0
 20 22  1  0  0  0  0
 21 45  1  0  0  0  0
 22 23  1  0  0  0  0
 22 46  1  0  0  0  0
 22 47  1  0  0  0  0
 23 24  1  0  0  0  0
 23 48  1  0  0  0  0
 23 49  1  0  0  0  0
 24 25  1  0  0  0  0
 25 50  1  0  0  0  0
 25 51  1  0  0  0  0
 26 27  1  0  0  0  0
 26 52  1  0  0  0  0
 26 53  1  0  0  0  0
 27 54  1  0  0  0  0
 27 55  1  0  0  0  0
M  CHG  1   2   1
M  END
> <s_m_source_file>
AV-unprocessed.smi

> <i_m_source_file_index>
22

> <i_lp_mmshare_version>
43012

> <i_f3d_flags>
0

> <s_epik_input>
W09IXVtDSDJdW0NIMl1OKFtDSDNdKVtDSF0xW0NIMl1bQ0gyXU4oW0NIMl1bQ0gyXTEpYyhuW2NIXW4yKWMoYzIzKW5bY0hdbjNbQ0gyXVtDQEBdNChbT0hdKVtDSDJdW0NIMl1PW0NIMl00

> <s_epik_cmdline>
J2VwaWtfcHl0aG9uJywgJy1waCcsICc3LjAnLCAnLXRuJywgJzgnLCAnLW1hJywgJzIwMCcsICctbWV0YWxfYmluZGluZycsICctaW1hZScsICc8aW5maWxlLm1hZT4nLCAnLW9tYWUnLCAnPG91dGZpbGUubWFlPic=

> <r_lp_tautomer_probability>
1

> <r_epik_Ionization_Penalty>
0.00317524

> <r_epik_Ionization_Penalty_Charging>
0.00191487

> <r_epik_Ionization_Penalty_Neutral>
0.00126037

> <r_epik_State_Penalty>
-0

> <r_epik_Charging_Adjusted_Penalty>
0.00191487

> <i_epik_Tot_Q>
1

> <i_epik_Tot_abs_Q>
1

> <r_epik_Metal_State_Penalty>
-0

> <b_epik_Metal_Only>
0

> <s_lp_Force_Field>
OPLS_2005

> <r_lp_Energy>
47.7053

> <b_lp_Chiralities_Consistent>
1

> <s_lp_Variant>
AV-unprocessed.smi:22-2

> <Gold.Version>
5.8.1

> <Gold.Id.Protein>
6NUR|6NUR_protein|mol2

> <Gold.PLP.Fitness>
41.3225

> <Gold.PLP.PLP>
-35.0513

> <Gold.PLP.part.hbond>
-2.0000

> <Gold.PLP.part.metal>
0.0000

> <Gold.PLP.part.buried>
-7.3505

> <Gold.PLP.part.nonpolar>
-26.2146

> <Gold.PLP.part.repulsive>
0.5539

> <Gold.PLP.ligand.clash>
0.0000

> <Gold.PLP.ligand.torsion>
0.7209

> <Gold.PLP.Chemscore.Hbond>
2.0000

> <Gold.PLP.Chemscore.CHOScore>
0.3711

> <Gold.PLP.Chemscore.Metal>
0.0000

> <Gold.Chemscore.Hbonds>
donor molecule, donor type, donor heavy atom, donor atom, acceptor molecule, acceptor atom, score
      L1  H     5    35       P1 10957  0.96
      P1  H  7989  7998       L1    13  1.00
      L1  C    17    42       P1  8028  0.27

> <Gold.PLP.Chemscore.Internal.Correction>
0.5996

> <Gold.Rescore>
     Score         DG    S(hbond)    S(metal)    S(lipo)     H(rot)  DE(clash)    DE(int)     intcor
      7.77      -8.57       1.22        0.00      73.98       3.76       0.09       0.71       ----

> <Gold.Chemscore.Fitness>
7.7732

> <Gold.Chemscore.DG>
-8.5731

> <Gold.Chemscore.ZeroCoef>
-5.4800

> <Gold.Chemscore.Hbond>
1.2151

> <Gold.Chemscore.Metal>
0.0000

> <Gold.Chemscore.Lipo>
73.9817

> <Gold.Chemscore.Internal_Hbond>
0.0000

> <Gold.Chemscore.DEClash>
0.0876

> <Gold.Chemscore.DEInternal>
0.7123

> <Gold.Chemscore.Rot>
3.7583

> <Gold.Chemscore.Internal.Correction>
   9.000000E+99

> <Gold.Chemscore.Hbonds>
donor molecule, donor type, donor heavy atom, donor atom, acceptor molecule, acceptor atom, score
      L1  H     5    35       P1 10957  0.87
      P1  H  7989  7998       L1    13  0.11

> <Gold.Chemscore.Hbond.Weighted>
-4.0585

> <Gold.Chemscore.Metal.Weighted>
-0.0000

> <Gold.Chemscore.Lipo.Weighted>
-8.6559

> <Gold.Chemscore.Internal_Hbond.Weighted>
0.0000

> <Gold.Chemscore.DEClash.Weighted>
0.0876

> <Gold.Chemscore.DEInternal.Weighted>
0.7123

> <Gold.Chemscore.Rot.Weighted>
9.6213

> <Gold.Chemscore.Internal.Correction.Weighted>
   9.000000E+99

> <Gold.Protein.RotatedTorsions>
[ 6907 6896 6895 6894 ] final  136.92 input  -60.11 | X-H torsion
[ 7974 7965 7964 7962 ] final -170.08 input  175.53 | X-H torsion
[ 8008 7997 7996 7995 ] final  144.59 input   59.86 | X-H torsion
[ 10167 10162 10161 10158 ] final    3.17 input  -65.29 | X-H torsion
[ 10718 10713 10712 10709 ] final  -25.34 input   66.30 | X-H torsion
[ 10763 10752 10751 10750 ] final -132.48 input  -60.55 | X-H torsion
[ 11005 11000 10999 10996 ] final   55.87 input  -57.11 | X-H torsion

> <Gold.Protein.ActiveResidues>
 VAL166  LYS551  ARG553  GLY616  TRP617  ASP618  TYR619  PRO620  LYS621  CYS622 
 ASP623  PHE694  ASN695  SER759  ASP760  ASP761  ALA762  ILE779  LEU786  VAL792 
 PHE793  MET794  SER795  GLU796  ALA797  LYS798  CYS799  TRP800  GLU811  SER814 

> <Gold.Protein.RotatedAtoms>
  152.2839  133.5497  159.5514 H   0  0  0  0  0  0  0  0  0  0  0  0  # atno 6907 bound_to 6896
  150.7207  134.0524  159.3812 H   0  0  0  0  0  0  0  0  0  0  0  0  # atno 6908 bound_to 6896
  151.8434  135.0583  160.0501 H   0  0  0  0  0  0  0  0  0  0  0  0  # atno 6909 bound_to 6896
  144.7175  140.2126  143.6325 H   0  0  0  0  0  0  0  0  0  0  0  0  # atno 7974 bound_to 7965
  156.2904  140.2231  156.5078 H   0  0  0  0  0  0  0  0  0  0  0  0  # atno 8008 bound_to 7997
  154.7634  140.0471  157.1014 H   0  0  0  0  0  0  0  0  0  0  0  0  # atno 8009 bound_to 7997
  154.9962  140.3096  155.4889 H   0  0  0  0  0  0  0  0  0  0  0  0  # atno 8010 bound_to 7997
  140.6599  143.7331  150.7720 H   0  0  0  0  0  0  0  0  0  0  0  0  # atno 10167 bound_to 10162
  156.4657  130.4513  149.6900 H   0  0  0  0  0  0  0  0  0  0  0  0  # atno 10718 bound_to 10713
  154.8742  135.3796  154.4416 H   0  0  0  0  0  0  0  0  0  0  0  0  # atno 10763 bound_to 10752
  153.5100  135.7029  153.5791 H   0  0  0  0  0  0  0  0  0  0  0  0  # atno 10764 bound_to 10752
  153.4084  135.3931  155.2000 H   0  0  0  0  0  0  0  0  0  0  0  0  # atno 10765 bound_to 10752
  140.0573  134.5652  155.9193 H   0  0  0  0  0  0  0  0  0  0  0  0  # atno 11005 bound_to 11000
  145.8576  139.2207  143.1735 LP  0  0  0  0  0  0  0  0  0  0  0  0  # atno 17320 bound_to 7965
  146.0203  140.8354  142.9927 LP  0  0  0  0  0  0  0  0  0  0  0  0  # atno 17321 bound_to 7965
  140.0998  143.4799  152.2432 LP  0  0  0  0  0  0  0  0  0  0  0  0  # atno 17342 bound_to 10162
  139.5830  144.7519  151.3591 LP  0  0  0  0  0  0  0  0  0  0  0  0  # atno 17343 bound_to 10162
  156.3670  130.7511  151.2490 LP  0  0  0  0  0  0  0  0  0  0  0  0  # atno 17370 bound_to 10713
  157.7495  131.0334  150.4269 LP  0  0  0  0  0  0  0  0  0  0  0  0  # atno 17371 bound_to 10713
  141.1957  133.6588  156.5658 LP  0  0  0  0  0  0  0  0  0  0  0  0  # atno 17394 bound_to 11000
  140.3825  134.7511  157.4670 LP  0  0  0  0  0  0  0  0  0  0  0  0  # atno 17395 bound_to 11000

$$$$
