AV-unprocessed.smi:317|AV-procd|sdf|2326|dock7
  -GOLD-   2262022233D 1   1.00000     0.00000
 Structure written by MMmdl.
 39 40  0  0  0  0  0  0  0  0  1 V2000
  148.6132  140.3127  154.2397 C   0  0  0  0  0  0  0  0  0  0  0  0
  150.0027  139.7870  154.6367 C   0  0  2  0  0  0  0  0  0  0  0  0
  150.0432  138.2484  154.6129 C   0  0  0  0  0  0  0  0  0  0  0  0
  149.7744  137.7709  153.3116 O   0  0  0  0  0  0  0  0  0  0  0  0
  150.3305  140.2597  155.9793 N   0  0  0  0  0  0  0  0  0  0  0  0
  151.4364  139.9389  156.6654 C   0  0  0  0  0  0  0  0  0  0  0  0
  152.3244  139.2072  156.2276 O   0  0  0  0  0  0  0  0  0  0  0  0
  151.4497  140.5362  157.8682 N   0  0  0  0  0  0  0  0  0  0  0  0
  152.4705  140.4829  158.8579 C   0  0  0  0  0  0  0  0  0  0  0  0
  153.1898  139.2892  159.1090 C   0  0  0  0  0  0  0  0  0  0  0  0
  154.1381  139.2609  160.1457 C   0  0  0  0  0  0  0  0  0  0  0  0
  154.3233  140.4261  160.9084 C   0  0  0  0  0  0  0  0  0  0  0  0
  153.6380  141.5662  160.6903 N   0  0  0  0  0  0  0  0  0  0  0  0
  152.7300  141.6140  159.6841 C   0  0  0  0  0  0  0  0  0  0  0  0
  152.0552  142.8414  159.4899 N   0  0  0  0  0  0  0  0  0  0  0  0
  152.1057  143.8845  160.5089 C   0  0  0  0  0  0  0  0  0  0  0  0
  151.6297  145.1506  159.8028 C   0  0  0  0  0  0  0  0  0  0  0  0
  152.1952  144.9713  158.3978 C   0  0  0  0  0  0  0  0  0  0  0  0
  152.1189  143.4582  158.1677 C   0  0  0  0  0  0  0  0  0  0  0  0
  148.3425  139.9857  153.2354 H   0  0  0  0  0  0  0  0  0  0  0  0
  148.5849  141.4029  154.2451 H   0  0  0  0  0  0  0  0  0  0  0  0
  147.8427  139.9563  154.9243 H   0  0  0  0  0  0  0  0  0  0  0  0
  150.7264  140.1717  153.9151 H   0  0  0  0  0  0  0  0  0  0  0  0
  150.9997  137.8630  154.9684 H   0  0  0  0  0  0  0  0  0  0  0  0
  149.2729  137.8401  155.2680 H   0  0  0  0  0  0  0  0  0  0  0  0
  149.8569  138.4900  152.7041 H   0  0  0  0  0  0  0  0  0  0  0  0
  149.6570  140.8666  156.4228 H   0  0  0  0  0  0  0  0  0  0  0  0
  150.7016  141.1886  158.0520 H   0  0  0  0  0  0  0  0  0  0  0  0
  153.0119  138.3900  158.5389 H   0  0  0  0  0  0  0  0  0  0  0  0
  154.6992  138.3634  160.3588 H   0  0  0  0  0  0  0  0  0  0  0  0
  155.0364  140.4421  161.7193 H   0  0  0  0  0  0  0  0  0  0  0  0
  151.4759  143.6357  161.3632 H   0  0  0  0  0  0  0  0  0  0  0  0
  153.1264  144.0311  160.8650 H   0  0  0  0  0  0  0  0  0  0  0  0
  150.5397  145.1712  159.7663 H   0  0  0  0  0  0  0  0  0  0  0  0
  151.9722  146.0642  160.2896 H   0  0  0  0  0  0  0  0  0  0  0  0
  151.6540  145.5424  157.6433 H   0  0  0  0  0  0  0  0  0  0  0  0
  153.2373  145.2926  158.3796 H   0  0  0  0  0  0  0  0  0  0  0  0
  152.9695  143.1003  157.5859 H   0  0  0  0  0  0  0  0  0  0  0  0
  151.2082  143.2122  157.6215 H   0  0  0  0  0  0  0  0  0  0  0  0
  1  2  1  0  0  0  0
  1 20  1  0  0  0  0
  1 21  1  0  0  0  0
  1 22  1  0  0  0  0
  2  3  1  0  0  0  0
  2  5  1  0  0  0  0
  2 23  1  0  0  0  0
  3  4  1  0  0  0  0
  3 24  1  0  0  0  0
  3 25  1  0  0  0  0
  4 26  1  0  0  0  0
  5  6  1  0  0  0  0
  5 27  1  0  0  0  0
  6  7  2  0  0  0  0
  6  8  1  0  0  0  0
  8  9  1  0  0  0  0
  8 28  1  0  0  0  0
  9 14  1  0  0  0  0
  9 10  2  0  0  0  0
 10 11  1  0  0  0  0
 10 29  1  0  0  0  0
 11 12  2  0  0  0  0
 11 30  1  0  0  0  0
 12 13  1  0  0  0  0
 12 31  1  0  0  0  0
 13 14  2  0  0  0  0
 14 15  1  0  0  0  0
 15 19  1  0  0  0  0
 15 16  1  0  0  0  0
 16 17  1  0  0  0  0
 16 32  1  0  0  0  0
 16 33  1  0  0  0  0
 17 18  1  0  0  0  0
 17 34  1  0  0  0  0
 17 35  1  0  0  0  0
 18 19  1  0  0  0  0
 18 36  1  0  0  0  0
 18 37  1  0  0  0  0
 19 38  1  0  0  0  0
 19 39  1  0  0  0  0
M  END
> <s_m_source_file>
AV-unprocessed.smi

> <i_m_source_file_index>
317

> <i_lp_mmshare_version>
43012

> <i_f3d_flags>
0

> <s_epik_input>
W09IXVtDSDJdW0NAQEhdKFtDSDNdKVtOSF1DKD1PKVtOSF1jMVtjSF1bY0hdW2NIXW5jMU4yW0NIMl1bQ0gyXVtDSDJdW0NIMl0y

> <s_epik_cmdline>
J2VwaWtfcHl0aG9uJywgJy1waCcsICc3LjAnLCAnLXRuJywgJzgnLCAnLW1hJywgJzIwMCcsICctbWV0YWxfYmluZGluZycsICctaW1hZScsICc8aW5maWxlLm1hZT4nLCAnLW9tYWUnLCAnPG91dGZpbGUubWFlPic=

> <r_lp_tautomer_probability>
1

> <r_epik_Ionization_Penalty>
0.098371

> <r_epik_Ionization_Penalty_Charging>
0

> <r_epik_Ionization_Penalty_Neutral>
0.098371

> <r_epik_State_Penalty>
0.0879016

> <r_epik_Charging_Adjusted_Penalty>
0.0879016

> <i_epik_Tot_Q>
0

> <i_epik_Tot_abs_Q>
0

> <r_epik_Metal_State_Penalty>
0.0753294

> <b_epik_Metal_Only>
0

> <s_lp_Force_Field>
OPLS_2005

> <r_lp_Energy>
32.6275

> <b_lp_Chiralities_Consistent>
1

> <s_lp_Variant>
AV-unprocessed.smi:317-1

> <Gold.Version>
5.8.1

> <Gold.Id.Protein>
6NUR|6NUR_protein|mol2

> <Gold.PLP.Fitness>
49.2339

> <Gold.PLP.PLP>
-43.8408

> <Gold.PLP.part.hbond>
-3.4061

> <Gold.PLP.part.metal>
0.0000

> <Gold.PLP.part.buried>
-5.6748

> <Gold.PLP.part.nonpolar>
-35.5005

> <Gold.PLP.part.repulsive>
0.1653

> <Gold.PLP.ligand.clash>
0.0000

> <Gold.PLP.ligand.torsion>
0.4683

> <Gold.PLP.Chemscore.Hbond>
2.0000

> <Gold.PLP.Chemscore.CHOScore>
0.0000

> <Gold.PLP.Chemscore.Metal>
0.0000

> <Gold.Chemscore.Hbonds>
donor molecule, donor type, donor heavy atom, donor atom, acceptor molecule, acceptor atom, score
      L1  H     4    26       P1  7957  0.63
      P1  H  7997  8008       L1     7  0.44

> <Gold.PLP.Chemscore.Internal.Correction>
0.3298

> <Gold.Rescore>
     Score         DG    S(hbond)    S(metal)    S(lipo)     H(rot)  DE(clash)    DE(int)     intcor
     15.24     -18.41       1.87        0.00     102.65       2.08       0.12       3.05       ----

> <Gold.Chemscore.Fitness>
15.2443

> <Gold.Chemscore.DG>
-18.4121

> <Gold.Chemscore.ZeroCoef>
-5.4800

> <Gold.Chemscore.Hbond>
1.8682

> <Gold.Chemscore.Metal>
0.0000

> <Gold.Chemscore.Lipo>
102.6502

> <Gold.Chemscore.Internal_Hbond>
0.0000

> <Gold.Chemscore.DEClash>
0.1184

> <Gold.Chemscore.DEInternal>
3.0494

> <Gold.Chemscore.Rot>
2.0773

> <Gold.Chemscore.Internal.Correction>
   9.000000E+99

> <Gold.Chemscore.Hbonds>
donor molecule, donor type, donor heavy atom, donor atom, acceptor molecule, acceptor atom, score
      L1  H     4    26       P1  7957  0.28
      P1  H  7997  8008       L1     7  0.41

> <Gold.Chemscore.Hbond.Weighted>
-6.2399

> <Gold.Chemscore.Metal.Weighted>
-0.0000

> <Gold.Chemscore.Lipo.Weighted>
-12.0101

> <Gold.Chemscore.Internal_Hbond.Weighted>
0.0000

> <Gold.Chemscore.DEClash.Weighted>
0.1184

> <Gold.Chemscore.DEInternal.Weighted>
3.0494

> <Gold.Chemscore.Rot.Weighted>
5.3178

> <Gold.Chemscore.Internal.Correction.Weighted>
   9.000000E+99

> <Gold.Protein.RotatedTorsions>
[ 6907 6896 6895 6894 ] final -125.49 input  -60.11 | X-H torsion
[ 7974 7965 7964 7962 ] final   93.27 input  175.53 | X-H torsion
[ 8008 7997 7996 7995 ] final  -29.49 input   59.86 | X-H torsion
[ 10167 10162 10161 10158 ] final  124.47 input  -65.29 | X-H torsion
[ 10718 10713 10712 10709 ] final   49.26 input   66.30 | X-H torsion
[ 10763 10752 10751 10750 ] final   72.54 input  -60.55 | X-H torsion
[ 11005 11000 10999 10996 ] final   49.06 input  -57.11 | X-H torsion

> <Gold.Protein.ActiveResidues>
 VAL166  LYS551  ARG553  GLY616  TRP617  ASP618  TYR619  PRO620  LYS621  CYS622 
 ASP623  PHE694  ASN695  SER759  ASP760  ASP761  ALA762  ILE779  LEU786  VAL792 
 PHE793  MET794  SER795  GLU796  ALA797  LYS798  CYS799  TRP800  GLU811  SER814 

> <Gold.Protein.RotatedAtoms>
  150.8873  133.7290  159.2914 H   0  0  0  0  0  0  0  0  0  0  0  0  # atno 6907 bound_to 6896
  151.4852  135.1053  159.9798 H   0  0  0  0  0  0  0  0  0  0  0  0  # atno 6908 bound_to 6896
  152.4798  133.8180  159.7094 H   0  0  0  0  0  0  0  0  0  0  0  0  # atno 6909 bound_to 6896
  145.4811  139.2278  143.2882 H   0  0  0  0  0  0  0  0  0  0  0  0  # atno 7974 bound_to 7965
  154.4288  140.1817  156.1256 H   0  0  0  0  0  0  0  0  0  0  0  0  # atno 8008 bound_to 7997
  156.0108  140.3351  155.6914 H   0  0  0  0  0  0  0  0  0  0  0  0  # atno 8009 bound_to 7997
  155.6113  140.0650  157.2696 H   0  0  0  0  0  0  0  0  0  0  0  0  # atno 8010 bound_to 7997
  139.5740  144.6954  151.3703 H   0  0  0  0  0  0  0  0  0  0  0  0  # atno 10167 bound_to 10162
  157.4769  130.8290  149.8050 H   0  0  0  0  0  0  0  0  0  0  0  0  # atno 10718 bound_to 10713
  153.0465  135.5096  154.7760 H   0  0  0  0  0  0  0  0  0  0  0  0  # atno 10763 bound_to 10752
  154.6655  135.2945  154.9813 H   0  0  0  0  0  0  0  0  0  0  0  0  # atno 10764 bound_to 10752
  154.0649  135.6685  153.4869 H   0  0  0  0  0  0  0  0  0  0  0  0  # atno 10765 bound_to 10752
  140.1136  134.4922  155.8657 H   0  0  0  0  0  0  0  0  0  0  0  0  # atno 11005 bound_to 11000
  146.2340  140.5598  142.8963 LP  0  0  0  0  0  0  0  0  0  0  0  0  # atno 17320 bound_to 7965
  144.7888  140.5990  143.6555 LP  0  0  0  0  0  0  0  0  0  0  0  0  # atno 17321 bound_to 7965
  140.7023  143.7601  150.7424 LP  0  0  0  0  0  0  0  0  0  0  0  0  # atno 17342 bound_to 10162
  140.1115  143.4695  152.2367 LP  0  0  0  0  0  0  0  0  0  0  0  0  # atno 17343 bound_to 10162
  156.0101  130.3837  150.2293 LP  0  0  0  0  0  0  0  0  0  0  0  0  # atno 17370 bound_to 10713
  157.0478  131.0054  151.3263 LP  0  0  0  0  0  0  0  0  0  0  0  0  # atno 17371 bound_to 10713
  141.2136  133.6736  156.6752 LP  0  0  0  0  0  0  0  0  0  0  0  0  # atno 17394 bound_to 11000
  140.3058  134.8126  157.4136 LP  0  0  0  0  0  0  0  0  0  0  0  0  # atno 17395 bound_to 11000

$$$$
