AV-unprocessed.smi:1965|AV-procd|sdf|7934|dock10
  -GOLD-   2272010103D 1   1.00000     0.00000
 Structure written by MMmdl.
 37 39  0  0  0  0  0  0  0  0  2 V2000
  146.3540  139.2042  153.9820 O   0  0  0  0  0  0  0  0  0  0  0  0
  147.1610  139.3999  153.0751 C   0  0  0  0  0  0  0  0  0  0  0  0
  147.1874  138.6066  151.9830 N   0  0  0  0  0  0  0  0  0  0  0  0
  146.4003  137.4767  151.6138 C   0  0  0  0  0  0  0  0  0  0  0  0
  145.9401  136.5442  152.4578 N   0  0  0  0  0  0  0  0  0  0  0  0
  145.1930  135.5612  151.8037 C   0  0  0  0  0  0  0  0  0  0  0  0
  145.0896  135.7621  150.4502 C   0  0  0  0  0  0  0  0  0  0  0  0
  145.9325  137.2005  149.9416 S   0  0  0  0  0  0  0  0  0  0  0  0
  148.0593  140.3976  153.1088 N   0  0  0  0  0  0  0  0  0  0  0  0
  148.2189  141.3624  154.1916 C   0  0  2  0  0  0  0  0  0  0  0  0
  148.8716  140.7515  155.4443 C   0  0  0  0  0  0  0  0  0  0  0  0
  148.1473  141.3998  156.6405 C   0  0  0  0  0  0  0  0  0  0  0  0
  147.2266  142.3898  156.0501 N   0  3  2  0  0  0  0  0  0  0  0  0
  146.0427  142.7704  156.8509 C   0  0  0  0  0  0  0  0  0  0  0  0
  145.2579  143.8691  156.1066 C   0  0  0  0  0  0  0  0  0  0  0  0
  144.9162  143.4492  154.6625 C   0  0  0  0  0  0  0  0  0  0  0  0
  146.1731  142.9736  153.9085 C   0  0  0  0  0  0  0  0  0  0  0  0
  146.8752  141.8709  154.7196 C   0  0  1  0  0  0  0  0  0  0  0  0
  147.8762  138.8720  151.2939 H   0  0  0  0  0  0  0  0  0  0  0  0
  144.7687  134.7525  152.3801 H   0  0  0  0  0  0  0  0  0  0  0  0
  144.5706  135.1536  149.7245 H   0  0  0  0  0  0  0  0  0  0  0  0
  148.6847  140.4877  152.3203 H   0  0  0  0  0  0  0  0  0  0  0  0
  148.8274  142.2089  153.8660 H   0  0  0  0  0  0  0  0  0  0  0  0
  148.7384  139.6689  155.4763 H   0  0  0  0  0  0  0  0  0  0  0  0
  149.9439  140.9492  155.4628 H   0  0  0  0  0  0  0  0  0  0  0  0
  147.5839  140.6440  157.1900 H   0  0  0  0  0  0  0  0  0  0  0  0
  148.8373  141.8799  157.3350 H   0  0  0  0  0  0  0  0  0  0  0  0
  145.4114  141.8966  157.0201 H   0  0  0  0  0  0  0  0  0  0  0  0
  146.3625  143.1326  157.8285 H   0  0  0  0  0  0  0  0  0  0  0  0
  144.3447  144.1105  156.6513 H   0  0  0  0  0  0  0  0  0  0  0  0
  145.8524  144.7834  156.0829 H   0  0  0  0  0  0  0  0  0  0  0  0
  144.1810  142.6437  154.6844 H   0  0  0  0  0  0  0  0  0  0  0  0
  144.4501  144.2788  154.1298 H   0  0  0  0  0  0  0  0  0  0  0  0
  145.8941  142.6021  152.9222 H   0  0  0  0  0  0  0  0  0  0  0  0
  146.8511  143.8128  153.7478 H   0  0  0  0  0  0  0  0  0  0  0  0
  146.1961  141.0240  154.8451 H   0  0  0  0  0  0  0  0  0  0  0  0
  147.7677  143.2282  155.8944 H   0  0  0  0  0  0  0  0  0  0  0  0
  1  2  2  0  0  0  0
  2  3  1  0  0  0  0
  2  9  1  0  0  0  0
  3  4  1  0  0  0  0
  3 19  1  0  0  0  0
  4  8  1  0  0  0  0
  4  5  2  0  0  0  0
  5  6  1  0  0  0  0
  6  7  2  0  0  0  0
  6 20  1  0  0  0  0
  7  8  1  0  0  0  0
  7 21  1  0  0  0  0
  9 10  1  0  0  0  0
  9 22  1  0  0  0  0
 10 18  1  0  0  0  0
 10 11  1  0  0  0  0
 10 23  1  0  0  0  0
 11 12  1  0  0  0  0
 11 24  1  0  0  0  0
 11 25  1  0  0  0  0
 12 13  1  0  0  0  0
 12 26  1  0  0  0  0
 12 27  1  0  0  0  0
 13 18  1  0  0  0  0
 13 14  1  0  0  0  0
 13 37  1  0  0  0  0
 14 15  1  0  0  0  0
 14 28  1  0  0  0  0
 14 29  1  0  0  0  0
 15 16  1  0  0  0  0
 15 30  1  0  0  0  0
 15 31  1  0  0  0  0
 16 17  1  0  0  0  0
 16 32  1  0  0  0  0
 16 33  1  0  0  0  0
 17 18  1  0  0  0  0
 17 34  1  0  0  0  0
 17 35  1  0  0  0  0
 18 36  1  0  0  0  0
M  CHG  1  13   1
M  END
> <s_m_source_file>
AV-unprocessed.smi

> <i_m_source_file_index>
1965

> <i_lp_mmshare_version>
43012

> <i_f3d_flags>
0

> <s_epik_input>
czFbY0hdW2NIXW5jMVtOSF1DKD1PKVtOSF1bQ0BIXShbQ0gyXVtDSDJdMilbQ0BASF0oTjIzKVtDSDJdW0NIMl1bQ0gyXVtDSDJdMw==

> <s_epik_cmdline>
J2VwaWtfcHl0aG9uJywgJy1waCcsICc3LjAnLCAnLXRuJywgJzgnLCAnLW1hJywgJzIwMCcsICctbWV0YWxfYmluZGluZycsICctaW1hZScsICc8aW5maWxlLm1hZT4nLCAnLW9tYWUnLCAnPG91dGZpbGUubWFlPic=

> <r_lp_tautomer_probability>
1

> <r_epik_Ionization_Penalty>
0.00125962

> <r_epik_Ionization_Penalty_Charging>
0.00107044

> <r_epik_Ionization_Penalty_Neutral>
0.000189176

> <r_epik_State_Penalty>
-0

> <r_epik_Charging_Adjusted_Penalty>
0.00107044

> <i_epik_Tot_Q>
1

> <i_epik_Tot_abs_Q>
1

> <r_epik_Metal_State_Penalty>
0.0179285

> <b_epik_Metal_Only>
0

> <s_lp_Force_Field>
OPLS_2005

> <r_lp_Energy>
35.2759

> <b_lp_Chiralities_Consistent>
1

> <s_lp_Variant>
AV-unprocessed.smi:1965-3

> <Gold.Version>
5.8.1

> <Gold.Id.Protein>
6NUR|6NUR_protein|mol2

> <Gold.PLP.Fitness>
39.6221

> <Gold.PLP.PLP>
-28.0176

> <Gold.PLP.part.hbond>
-3.9313

> <Gold.PLP.part.metal>
0.0000

> <Gold.PLP.part.buried>
4.6061

> <Gold.PLP.part.nonpolar>
-29.0442

> <Gold.PLP.part.repulsive>
1.0402

> <Gold.PLP.ligand.clash>
0.0000

> <Gold.PLP.ligand.torsion>
0.4588

> <Gold.PLP.Chemscore.Hbond>
3.7823

> <Gold.PLP.Chemscore.CHOScore>
0.3885

> <Gold.PLP.Chemscore.Metal>
0.0000

> <Gold.Chemscore.Hbonds>
donor molecule, donor type, donor heavy atom, donor atom, acceptor molecule, acceptor atom, score
      L1  H     3    19       P1  7957  0.80
      L1  H     9    22       P1  7957  1.00
      L1  H    13    37       P1  8028  1.90
      L1  C     7    21       P1  7921  0.43

> <Gold.PLP.Chemscore.Internal.Correction>
0.0094

> <Gold.Rescore>
     Score         DG    S(hbond)    S(metal)    S(lipo)     H(rot)  DE(clash)    DE(int)     intcor
     11.98     -15.68       1.83        0.00      56.87       1.00       1.81       1.90       ----

> <Gold.Chemscore.Fitness>
11.9760

> <Gold.Chemscore.DG>
-15.6831

> <Gold.Chemscore.ZeroCoef>
-5.4800

> <Gold.Chemscore.Hbond>
1.8292

> <Gold.Chemscore.Metal>
0.0000

> <Gold.Chemscore.Lipo>
56.8668

> <Gold.Chemscore.Internal_Hbond>
0.0000

> <Gold.Chemscore.DEClash>
1.8054

> <Gold.Chemscore.DEInternal>
1.9017

> <Gold.Chemscore.Rot>
1.0000

> <Gold.Chemscore.Internal.Correction>
   9.000000E+99

> <Gold.Chemscore.Hbonds>
donor molecule, donor type, donor heavy atom, donor atom, acceptor molecule, acceptor atom, score
      L1  H     3    19       P1  7957  0.41
      L1  H     9    22       P1  7957  0.94
      L1  H    13    37       P1  8028  0.22

> <Gold.Chemscore.Hbond.Weighted>
-6.1097

> <Gold.Chemscore.Metal.Weighted>
-0.0000

> <Gold.Chemscore.Lipo.Weighted>
-6.6534

> <Gold.Chemscore.Internal_Hbond.Weighted>
0.0000

> <Gold.Chemscore.DEClash.Weighted>
1.8054

> <Gold.Chemscore.DEInternal.Weighted>
1.9017

> <Gold.Chemscore.Rot.Weighted>
2.5600

> <Gold.Chemscore.Internal.Correction.Weighted>
   9.000000E+99

> <Gold.Protein.RotatedTorsions>
[ 6907 6896 6895 6894 ] final -114.61 input  -60.11 | X-H torsion
[ 7974 7965 7964 7962 ] final  179.65 input  175.53 | X-H torsion
[ 8008 7997 7996 7995 ] final  169.82 input   59.86 | X-H torsion
[ 10167 10162 10161 10158 ] final   41.16 input  -65.29 | X-H torsion
[ 10718 10713 10712 10709 ] final -122.18 input   66.30 | X-H torsion
[ 10763 10752 10751 10750 ] final  -63.77 input  -60.55 | X-H torsion
[ 11005 11000 10999 10996 ] final   13.53 input  -57.11 | X-H torsion

> <Gold.Protein.ActiveResidues>
 VAL166  LYS551  ARG553  GLY616  TRP617  ASP618  TYR619  PRO620  LYS621  CYS622 
 ASP623  PHE694  ASN695  SER759  ASP760  ASP761  ALA762  ILE779  LEU786  VAL792 
 PHE793  MET794  SER795  GLU796  ALA797  LYS798  CYS799  TRP800  GLU811  SER814 

> <Gold.Protein.RotatedAtoms>
  150.7915  133.8776  159.3276 H   0  0  0  0  0  0  0  0  0  0  0  0  # atno 6907 bound_to 6896
  151.6613  135.0987  160.0189 H   0  0  0  0  0  0  0  0  0  0  0  0  # atno 6908 bound_to 6896
  152.3990  133.6750  159.6335 H   0  0  0  0  0  0  0  0  0  0  0  0  # atno 6909 bound_to 6896
  144.7144  140.0580  143.6433 H   0  0  0  0  0  0  0  0  0  0  0  0  # atno 7974 bound_to 7965
  156.1422  140.1554  156.8903 H   0  0  0  0  0  0  0  0  0  0  0  0  # atno 8008 bound_to 7997
  154.4997  140.0828  156.7810 H   0  0  0  0  0  0  0  0  0  0  0  0  # atno 8009 bound_to 7997
  155.4057  140.3416  155.4262 H   0  0  0  0  0  0  0  0  0  0  0  0  # atno 8010 bound_to 7997
  140.3671  144.2154  150.6135 H   0  0  0  0  0  0  0  0  0  0  0  0  # atno 10167 bound_to 10162
  156.1397  130.6457  150.9752 H   0  0  0  0  0  0  0  0  0  0  0  0  # atno 10718 bound_to 10713
  154.3201  135.6198  153.5504 H   0  0  0  0  0  0  0  0  0  0  0  0  # atno 10763 bound_to 10752
  152.9821  135.5722  154.5080 H   0  0  0  0  0  0  0  0  0  0  0  0  # atno 10764 bound_to 10752
  154.4746  135.2860  155.1593 H   0  0  0  0  0  0  0  0  0  0  0  0  # atno 10765 bound_to 10752
  140.4797  134.0947  155.7748 H   0  0  0  0  0  0  0  0  0  0  0  0  # atno 11005 bound_to 11000
  145.9888  139.2998  143.0997 LP  0  0  0  0  0  0  0  0  0  0  0  0  # atno 17320 bound_to 7965
  145.8927  140.9294  143.0544 LP  0  0  0  0  0  0  0  0  0  0  0  0  # atno 17321 bound_to 7965
  140.5070  143.2301  151.8592 LP  0  0  0  0  0  0  0  0  0  0  0  0  # atno 17342 bound_to 10162
  139.4807  144.4993  151.9081 LP  0  0  0  0  0  0  0  0  0  0  0  0  # atno 17343 bound_to 10162
  157.6565  131.0888  150.7936 LP  0  0  0  0  0  0  0  0  0  0  0  0  # atno 17370 bound_to 10713
  156.8013  130.4922  149.5369 LP  0  0  0  0  0  0  0  0  0  0  0  0  # atno 17371 bound_to 10713
  141.1537  133.8922  157.2032 LP  0  0  0  0  0  0  0  0  0  0  0  0  # atno 17394 bound_to 11000
  139.9834  135.0090  156.9804 LP  0  0  0  0  0  0  0  0  0  0  0  0  # atno 17395 bound_to 11000

$$$$
