AV-unprocessed.smi:21|AV-procd|sdf|130|dock3
  -GOLD-   2262015313D 1   1.00000     0.00000
 Structure written by MMmdl.
 62 65  0  0  0  0  0  0  0  0  2 V2000
  144.1935  131.6936  150.8696 C   0  0  0  0  0  0  0  0  0  0  0  0
  145.3827  132.0432  150.1803 O   0  0  0  0  0  0  0  0  0  0  0  0
  146.2958  132.7901  150.9699 C   0  0  2  0  0  0  0  0  0  0  0  0
  146.7845  131.9572  152.1487 C   0  0  0  0  0  0  0  0  0  0  0  0
  147.2204  132.9909  153.2034 C   0  0  1  0  0  0  0  0  0  0  0  0
  148.7448  133.2365  153.2312 C   0  0  0  0  0  0  0  0  0  0  0  0
  149.4520  132.4095  154.2091 N   0  0  0  0  0  0  0  0  0  0  0  0
  149.8552  133.0151  155.4778 C   0  0  0  0  0  0  0  0  0  0  0  0
  149.9191  131.1663  153.8892 C   0  0  0  0  0  0  0  0  0  0  0  0
  149.1445  130.3766  153.0964 N   0  0  0  0  0  0  0  0  0  0  0  0
  149.5391  129.1501  152.7475 C   0  0  0  0  0  0  0  0  0  0  0  0
  150.6646  128.5156  153.0716 N   0  0  0  0  0  0  0  0  0  0  0  0
  151.4570  129.2932  153.8612 C   0  0  0  0  0  0  0  0  0  0  0  0
  151.1686  130.6145  154.3155 C   0  0  0  0  0  0  0  0  0  0  0  0
  152.2301  131.0695  155.0932 N   0  0  0  0  0  0  0  0  0  0  0  0
  153.0871  130.0862  155.0945 C   0  0  0  0  0  0  0  0  0  0  0  0
  152.7045  128.9814  154.3728 N   0  0  0  0  0  0  0  0  0  0  0  0
  153.4633  127.7536  154.2014 C   0  0  0  0  0  0  0  0  0  0  0  0
  154.6178  127.8804  153.1747 C   0  0  2  0  0  0  0  0  0  0  0  0
  154.9354  126.5129  152.5157 C   0  0  0  0  0  0  0  0  0  0  0  0
  153.9160  126.1082  151.6266 O   0  0  0  0  0  0  0  0  0  0  0  0
  155.8670  128.5125  153.8494 C   0  0  1  0  0  0  0  0  0  0  0  0
  157.1898  128.2923  153.1348 C   0  0  0  0  0  0  0  0  0  0  0  0
  158.0755  129.3694  153.7493 C   0  0  0  0  0  0  0  0  0  0  0  0
  157.2093  130.4636  154.0214 O   0  0  0  0  0  0  0  0  0  0  0  0
  155.8519  130.0451  153.9194 C   0  0  0  0  0  0  0  0  0  0  0  0
  146.5202  134.2506  152.8446 N   0  3  2  0  0  0  0  0  0  0  0  0
  145.8198  134.9088  153.9682 C   0  0  0  0  0  0  0  0  0  0  0  0
  145.6570  133.9857  151.6746 C   0  0  0  0  0  0  0  0  0  0  0  0
  147.1557  133.1105  150.3782 H   0  0  0  0  0  0  0  0  0  0  0  0
  146.8863  132.6489  154.1843 H   0  0  0  0  0  0  0  0  0  0  0  0
  143.5305  131.1494  150.1973 H   0  0  0  0  0  0  0  0  0  0  0  0
  143.6631  132.5808  151.2173 H   0  0  0  0  0  0  0  0  0  0  0  0
  144.4007  131.0511  151.7256 H   0  0  0  0  0  0  0  0  0  0  0  0
  145.9544  131.3721  152.5473 H   0  0  0  0  0  0  0  0  0  0  0  0
  147.5640  131.2525  151.8632 H   0  0  0  0  0  0  0  0  0  0  0  0
  149.1527  133.0409  152.2391 H   0  0  0  0  0  0  0  0  0  0  0  0
  148.9673  134.2864  153.4129 H   0  0  0  0  0  0  0  0  0  0  0  0
  149.5976  132.3631  156.3131 H   0  0  0  0  0  0  0  0  0  0  0  0
  149.3570  133.9707  155.6415 H   0  0  0  0  0  0  0  0  0  0  0  0
  150.9309  133.1934  155.4979 H   0  0  0  0  0  0  0  0  0  0  0  0
  148.8572  128.5999  152.1159 H   0  0  0  0  0  0  0  0  0  0  0  0
  154.0297  130.1417  155.6198 H   0  0  0  0  0  0  0  0  0  0  0  0
  153.8459  127.4766  155.1834 H   0  0  0  0  0  0  0  0  0  0  0  0
  152.7811  126.9565  153.9034 H   0  0  0  0  0  0  0  0  0  0  0  0
  154.2744  128.5575  152.3906 H   0  0  0  0  0  0  0  0  0  0  0  0
  155.8898  126.5484  151.9896 H   0  0  0  0  0  0  0  0  0  0  0  0
  155.0160  125.7183  153.2555 H   0  0  0  0  0  0  0  0  0  0  0  0
  153.6933  126.8405  151.0719 H   0  0  0  0  0  0  0  0  0  0  0  0
  155.9607  128.1240  154.8650 H   0  0  0  0  0  0  0  0  0  0  0  0
  157.6001  127.2929  153.2815 H   0  0  0  0  0  0  0  0  0  0  0  0
  157.0791  128.4649  152.0631 H   0  0  0  0  0  0  0  0  0  0  0  0
  158.5002  129.0201  154.6912 H   0  0  0  0  0  0  0  0  0  0  0  0
  158.8961  129.6615  153.0938 H   0  0  0  0  0  0  0  0  0  0  0  0
  155.4332  130.4701  153.0061 H   0  0  0  0  0  0  0  0  0  0  0  0
  155.2700  130.4180  154.7625 H   0  0  0  0  0  0  0  0  0  0  0  0
  145.0404  134.2650  154.3780 H   0  0  0  0  0  0  0  0  0  0  0  0
  145.3576  135.8389  153.6364 H   0  0  0  0  0  0  0  0  0  0  0  0
  146.5214  135.1498  154.7669 H   0  0  0  0  0  0  0  0  0  0  0  0
  145.5749  134.8628  151.0321 H   0  0  0  0  0  0  0  0  0  0  0  0
  144.6533  133.7181  152.0106 H   0  0  0  0  0  0  0  0  0  0  0  0
  147.2382  134.8863  152.5274 H   0  0  0  0  0  0  0  0  0  0  0  0
  1  2  1  0  0  0  0
  1 32  1  0  0  0  0
  1 33  1  0  0  0  0
  1 34  1  0  0  0  0
  2  3  1  0  0  0  0
  3 30  1  0  0  0  0
  3 29  1  0  0  0  0
  3  4  1  0  0  0  0
  4  5  1  0  0  0  0
  4 35  1  0  0  0  0
  4 36  1  0  0  0  0
  5 31  1  0  0  0  0
  5  6  1  0  0  0  0
  5 27  1  0  0  0  0
  6  7  1  0  0  0  0
  6 37  1  0  0  0  0
  6 38  1  0  0  0  0
  7  8  1  0  0  0  0
  7  9  1  0  0  0  0
  8 39  1  0  0  0  0
  8 40  1  0  0  0  0
  8 41  1  0  0  0  0
  9 14  1  0  0  0  0
  9 10  2  0  0  0  0
 10 11  1  0  0  0  0
 11 12  2  0  0  0  0
 11 42  1  0  0  0  0
 12 13  1  0  0  0  0
 13 17  1  0  0  0  0
 13 14  2  0  0  0  0
 14 15  1  0  0  0  0
 15 16  2  0  0  0  0
 16 17  1  0  0  0  0
 16 43  1  0  0  0  0
 17 18  1  0  0  0  0
 18 19  1  0  0  0  0
 18 44  1  0  0  0  0
 18 45  1  0  0  0  0
 19 20  1  0  0  0  0
 19 22  1  0  0  0  0
 19 46  1  0  0  0  0
 20 21  1  0  0  0  0
 20 47  1  0  0  0  0
 20 48  1  0  0  0  0
 21 49  1  0  0  0  0
 22 26  1  0  0  0  0
 22 23  1  0  0  0  0
 22 50  1  0  0  0  0
 23 24  1  0  0  0  0
 23 51  1  0  0  0  0
 23 52  1  0  0  0  0
 24 25  1  0  0  0  0
 24 53  1  0  0  0  0
 24 54  1  0  0  0  0
 25 26  1  0  0  0  0
 26 55  1  0  0  0  0
 26 56  1  0  0  0  0
 27 28  1  0  0  0  0
 27 29  1  0  0  0  0
 27 62  1  0  0  0  0
 28 57  1  0  0  0  0
 28 58  1  0  0  0  0
 28 59  1  0  0  0  0
 29 60  1  0  0  0  0
 29 61  1  0  0  0  0
M  CHG  1  27   1
M  END
> <s_m_source_file>
AV-unprocessed.smi

> <i_m_source_file_index>
21

> <i_lp_mmshare_version>
43012

> <i_f3d_flags>
0

> <s_epik_input>
W0NIM11PW0NASF0xW0NIMl1bQ0BIXShOKFtDSDNdKVtDSDJdMSlbQ0gyXU4oW0NIM10pYyhuW2NIXW4yKWMoYzIzKW5bY0hdbjNbQ0gyXVtDQEhdKFtDSDJdW09IXSlbQ0BASF00W0NIMl1bQ0gyXU9bQ0gyXTQ=

> <s_epik_cmdline>
J2VwaWtfcHl0aG9uJywgJy1waCcsICc3LjAnLCAnLXRuJywgJzgnLCAnLW1hJywgJzIwMCcsICctbWV0YWxfYmluZGluZycsICctaW1hZScsICc8aW5maWxlLm1hZT4nLCAnLW9tYWUnLCAnPG91dGZpbGUubWFlPic=

> <r_lp_tautomer_probability>
1

> <r_epik_Ionization_Penalty>
0.0157465

> <r_epik_Ionization_Penalty_Charging>
0.015354

> <r_epik_Ionization_Penalty_Neutral>
0.000392529

> <r_epik_State_Penalty>
0.0120612

> <r_epik_Charging_Adjusted_Penalty>
0.0274152

> <i_epik_Tot_Q>
1

> <i_epik_Tot_abs_Q>
1

> <r_epik_Metal_State_Penalty>
0.0121253

> <b_epik_Metal_Only>
0

> <s_lp_Force_Field>
OPLS_2005

> <r_lp_Energy>
59.1571

> <b_lp_Chiralities_Consistent>
1

> <s_lp_Variant>
AV-unprocessed.smi:21-10

> <Gold.Version>
5.8.1

> <Gold.Id.Protein>
6NUR|6NUR_protein|mol2

> <Gold.PLP.Fitness>
46.7999

> <Gold.PLP.PLP>
-41.8079

> <Gold.PLP.part.hbond>
-2.0000

> <Gold.PLP.part.metal>
0.0000

> <Gold.PLP.part.buried>
-3.9452

> <Gold.PLP.part.nonpolar>
-34.4818

> <Gold.PLP.part.repulsive>
0.6434

> <Gold.PLP.ligand.clash>
0.0000

> <Gold.PLP.ligand.torsion>
2.3514

> <Gold.PLP.Chemscore.Hbond>
3.0000

> <Gold.PLP.Chemscore.CHOScore>
0.0000

> <Gold.PLP.Chemscore.Metal>
0.0000

> <Gold.Chemscore.Hbonds>
donor molecule, donor type, donor heavy atom, donor atom, acceptor molecule, acceptor atom, score
      L1  H    27    62       P1  7948  0.91
      L1  C    11    42       P1 10747  0.01

> <Gold.PLP.Chemscore.Internal.Correction>
0.6947

> <Gold.Rescore>
     Score         DG    S(hbond)    S(metal)    S(lipo)     H(rot)  DE(clash)    DE(int)     intcor
      9.28     -12.45       1.99        0.00      69.99       3.08       0.01       3.16       ----

> <Gold.Chemscore.Fitness>
9.2751

> <Gold.Chemscore.DG>
-12.4452

> <Gold.Chemscore.ZeroCoef>
-5.4800

> <Gold.Chemscore.Hbond>
1.9913

> <Gold.Chemscore.Metal>
0.0000

> <Gold.Chemscore.Lipo>
69.9858

> <Gold.Chemscore.Internal_Hbond>
0.0000

> <Gold.Chemscore.DEClash>
0.0052

> <Gold.Chemscore.DEInternal>
3.1649

> <Gold.Chemscore.Rot>
3.0758

> <Gold.Chemscore.Internal.Correction>
   9.000000E+99

> <Gold.Chemscore.Hbonds>
donor molecule, donor type, donor heavy atom, donor atom, acceptor molecule, acceptor atom, score
      L1  H    27    62       P1  7948  0.45

> <Gold.Chemscore.Hbond.Weighted>
-6.6510

> <Gold.Chemscore.Metal.Weighted>
-0.0000

> <Gold.Chemscore.Lipo.Weighted>
-8.1883

> <Gold.Chemscore.Internal_Hbond.Weighted>
0.0000

> <Gold.Chemscore.DEClash.Weighted>
0.0052

> <Gold.Chemscore.DEInternal.Weighted>
3.1649

> <Gold.Chemscore.Rot.Weighted>
7.8741

> <Gold.Chemscore.Internal.Correction.Weighted>
   9.000000E+99

> <Gold.Protein.RotatedTorsions>
[ 6907 6896 6895 6894 ] final -155.34 input  -60.11 | X-H torsion
[ 7974 7965 7964 7962 ] final  -37.11 input  175.53 | X-H torsion
[ 8008 7997 7996 7995 ] final   90.31 input   59.86 | X-H torsion
[ 10167 10162 10161 10158 ] final   95.02 input  -65.29 | X-H torsion
[ 10718 10713 10712 10709 ] final   45.78 input   66.30 | X-H torsion
[ 10763 10752 10751 10750 ] final -139.46 input  -60.55 | X-H torsion
[ 11005 11000 10999 10996 ] final   90.23 input  -57.11 | X-H torsion

> <Gold.Protein.ActiveResidues>
 VAL166  LYS551  ARG553  GLY616  TRP617  ASP618  TYR619  PRO620  LYS621  CYS622 
 ASP623  PHE694  ASN695  SER759  ASP760  ASP761  ALA762  ILE779  LEU786  VAL792 
 PHE793  MET794  SER795  GLU796  ALA797  LYS798  CYS799  TRP800  GLU811  SER814 

> <Gold.Protein.RotatedAtoms>
  151.2710  133.4255  159.2621 H   0  0  0  0  0  0  0  0  0  0  0  0  # atno 6907 bound_to 6896
  151.0445  134.9631  159.8189 H   0  0  0  0  0  0  0  0  0  0  0  0  # atno 6908 bound_to 6896
  152.5371  134.2667  159.9008 H   0  0  0  0  0  0  0  0  0  0  0  0  # atno 6909 bound_to 6896
  146.0603  140.6357  142.9000 H   0  0  0  0  0  0  0  0  0  0  0  0  # atno 7974 bound_to 7965
  156.0105  140.3351  155.6935 H   0  0  0  0  0  0  0  0  0  0  0  0  # atno 8008 bound_to 7997
  155.6165  140.0670  157.2708 H   0  0  0  0  0  0  0  0  0  0  0  0  # atno 8009 bound_to 7997
  154.4279  140.1784  156.1314 H   0  0  0  0  0  0  0  0  0  0  0  0  # atno 8010 bound_to 7997
  139.8028  144.6806  150.9742 H   0  0  0  0  0  0  0  0  0  0  0  0  # atno 10167 bound_to 10162
  157.4412  130.8082  149.7696 H   0  0  0  0  0  0  0  0  0  0  0  0  # atno 10718 bound_to 10713
  154.8608  135.3581  154.5551 H   0  0  0  0  0  0  0  0  0  0  0  0  # atno 10763 bound_to 10752
  153.6168  135.7007  153.5330 H   0  0  0  0  0  0  0  0  0  0  0  0  # atno 10764 bound_to 10752
  153.3163  135.4164  155.1339 H   0  0  0  0  0  0  0  0  0  0  0  0  # atno 10765 bound_to 10752
  139.8860  134.8600  156.3254 H   0  0  0  0  0  0  0  0  0  0  0  0  # atno 11005 bound_to 11000
  144.7171  140.4248  143.7036 LP  0  0  0  0  0  0  0  0  0  0  0  0  # atno 17320 bound_to 7965
  145.6571  139.1575  143.2829 LP  0  0  0  0  0  0  0  0  0  0  0  0  # atno 17321 bound_to 7965
  140.7820  143.4264  151.0761 LP  0  0  0  0  0  0  0  0  0  0  0  0  # atno 17342 bound_to 10162
  139.7935  143.8185  152.3154 LP  0  0  0  0  0  0  0  0  0  0  0  0  # atno 17343 bound_to 10162
  155.9949  130.3915  150.2838 LP  0  0  0  0  0  0  0  0  0  0  0  0  # atno 17370 bound_to 10713
  157.1003  131.0194  151.3088 LP  0  0  0  0  0  0  0  0  0  0  0  0  # atno 17371 bound_to 10713
  140.9758  133.7298  156.0600 LP  0  0  0  0  0  0  0  0  0  0  0  0  # atno 17394 bound_to 11000
  140.7812  134.3723  157.5487 LP  0  0  0  0  0  0  0  0  0  0  0  0  # atno 17395 bound_to 11000

$$$$
