AV-unprocessed.smi:1041|AV-procd|sdf|4531|dock2
  -GOLD-   22720 2553D 1   1.00000     0.00000
 Structure written by MMmdl.
 53 54  0  0  0  0  0  0  0  0  2 V2000
  141.8985  135.9444  154.0054 C   0  0  0  0  0  0  0  0  0  0  0  0
  143.1690  136.3575  154.4779 O   0  0  0  0  0  0  0  0  0  0  0  0
  143.4206  137.7312  154.2325 C   0  0  0  0  0  0  0  0  0  0  0  0
  144.9241  137.9999  154.4008 C   0  0  0  0  0  0  0  0  0  0  0  0
  145.2450  139.4492  154.4506 N   0  3  2  0  0  0  0  0  0  0  0  0
  146.7062  139.7002  154.3464 C   0  0  0  0  0  0  0  0  0  0  0  0
  147.0191  141.2075  154.2847 C   0  0  0  0  0  0  0  0  0  0  0  0
  146.4216  141.9770  155.4771 C   0  0  2  0  0  0  0  0  0  0  0  0
  147.2046  141.7208  156.7866 C   0  0  0  0  0  0  0  0  0  0  0  0
  148.5598  142.2561  156.7201 N   0  0  0  0  0  0  0  0  0  0  0  0
  149.6878  141.5422  156.8599 C   0  0  0  0  0  0  0  0  0  0  0  0
  149.7100  140.3182  156.9860 O   0  0  0  0  0  0  0  0  0  0  0  0
  150.9886  142.3419  156.9127 C   0  0  0  0  0  0  0  0  0  0  0  0
  151.7360  142.2419  158.2405 C   0  0  0  0  0  0  0  0  0  0  0  0
  151.7800  143.2516  159.1467 C   0  0  0  0  0  0  0  0  0  0  0  0
  151.0882  144.5925  158.9738 C   0  0  0  0  0  0  0  0  0  0  0  0
  152.4862  143.1207  160.3296 N   0  0  0  0  0  0  0  0  0  0  0  0
  153.1580  141.9309  160.5563 C   0  0  0  0  0  0  0  0  0  0  0  0
  153.9021  141.8934  161.8736 C   0  0  0  0  0  0  0  0  0  0  0  0
  153.1795  140.9126  159.7512 N   0  0  0  0  0  0  0  0  0  0  0  0
  152.4732  140.9916  158.5405 C   0  0  0  0  0  0  0  0  0  0  0  0
  152.4814  140.0463  157.7530 O   0  0  0  0  0  0  0  0  0  0  0  0
  144.9140  141.6579  155.5593 C   0  0  0  0  0  0  0  0  0  0  0  0
  144.6495  140.1445  155.6225 C   0  0  0  0  0  0  0  0  0  0  0  0
  152.4869  143.8934  160.9798 H   0  0  0  0  0  0  0  0  0  0  0  0
  141.7520  134.8870  154.2252 H   0  0  0  0  0  0  0  0  0  0  0  0
  141.8168  136.0781  152.9258 H   0  0  0  0  0  0  0  0  0  0  0  0
  141.0962  136.5027  154.4893 H   0  0  0  0  0  0  0  0  0  0  0  0
  143.0671  138.0185  153.2422 H   0  0  0  0  0  0  0  0  0  0  0  0
  142.8664  138.3341  154.9535 H   0  0  0  0  0  0  0  0  0  0  0  0
  145.3002  137.5119  155.3011 H   0  0  0  0  0  0  0  0  0  0  0  0
  145.4437  137.5358  153.5612 H   0  0  0  0  0  0  0  0  0  0  0  0
  147.2182  139.2343  155.1891 H   0  0  0  0  0  0  0  0  0  0  0  0
  147.0936  139.2233  153.4453 H   0  0  0  0  0  0  0  0  0  0  0  0
  148.0972  141.3642  154.2343 H   0  0  0  0  0  0  0  0  0  0  0  0
  146.6128  141.6141  153.3574 H   0  0  0  0  0  0  0  0  0  0  0  0
  146.5171  143.0422  155.2605 H   0  0  0  0  0  0  0  0  0  0  0  0
  146.6700  142.1195  157.6491 H   0  0  0  0  0  0  0  0  0  0  0  0
  147.2853  140.6469  156.9583 H   0  0  0  0  0  0  0  0  0  0  0  0
  148.6469  143.2576  156.6221 H   0  0  0  0  0  0  0  0  0  0  0  0
  151.6291  141.9926  156.1030 H   0  0  0  0  0  0  0  0  0  0  0  0
  150.7902  143.3879  156.6734 H   0  0  0  0  0  0  0  0  0  0  0  0
  150.0084  144.4582  158.9070 H   0  0  0  0  0  0  0  0  0  0  0  0
  151.4327  145.0864  158.0654 H   0  0  0  0  0  0  0  0  0  0  0  0
  151.2901  145.2598  159.8127 H   0  0  0  0  0  0  0  0  0  0  0  0
  154.5847  141.0437  161.9112 H   0  0  0  0  0  0  0  0  0  0  0  0
  153.1990  141.8041  162.7020 H   0  0  0  0  0  0  0  0  0  0  0  0
  154.4867  142.8039  162.0112 H   0  0  0  0  0  0  0  0  0  0  0  0
  144.4502  142.1565  156.4102 H   0  0  0  0  0  0  0  0  0  0  0  0
  144.4165  142.0650  154.6780 H   0  0  0  0  0  0  0  0  0  0  0  0
  143.5730  139.9831  155.6526 H   0  0  0  0  0  0  0  0  0  0  0  0
  145.0530  139.7247  156.5446 H   0  0  0  0  0  0  0  0  0  0  0  0
  144.8322  139.8591  153.6246 H   0  0  0  0  0  0  0  0  0  0  0  0
  1  2  1  0  0  0  0
  1 26  1  0  0  0  0
  1 27  1  0  0  0  0
  1 28  1  0  0  0  0
  2  3  1  0  0  0  0
  3  4  1  0  0  0  0
  3 29  1  0  0  0  0
  3 30  1  0  0  0  0
  4  5  1  0  0  0  0
  4 31  1  0  0  0  0
  4 32  1  0  0  0  0
  5 24  1  0  0  0  0
  5  6  1  0  0  0  0
  5 53  1  0  0  0  0
  6  7  1  0  0  0  0
  6 33  1  0  0  0  0
  6 34  1  0  0  0  0
  7  8  1  0  0  0  0
  7 35  1  0  0  0  0
  7 36  1  0  0  0  0
  8  9  1  0  0  0  0
  8 23  1  0  0  0  0
  8 37  1  0  0  0  0
  9 10  1  0  0  0  0
  9 38  1  0  0  0  0
  9 39  1  0  0  0  0
 10 11  1  0  0  0  0
 10 40  1  0  0  0  0
 11 12  2  0  0  0  0
 11 13  1  0  0  0  0
 13 41  1  0  0  0  0
 13 42  1  0  0  0  0
 13 14  1  0  0  0  0
 14 21  1  0  0  0  0
 14 15  2  0  0  0  0
 15 16  1  0  0  0  0
 15 17  1  0  0  0  0
 16 43  1  0  0  0  0
 16 44  1  0  0  0  0
 16 45  1  0  0  0  0
 17 25  1  0  0  0  0
 17 18  1  0  0  0  0
 18 19  1  0  0  0  0
 18 20  2  0  0  0  0
 19 46  1  0  0  0  0
 19 47  1  0  0  0  0
 19 48  1  0  0  0  0
 20 21  1  0  0  0  0
 21 22  2  0  0  0  0
 23 24  1  0  0  0  0
 23 49  1  0  0  0  0
 23 50  1  0  0  0  0
 24 51  1  0  0  0  0
 24 52  1  0  0  0  0
M  CHG  1   5   1
M  END
> <s_m_source_file>
AV-unprocessed.smi

> <i_m_source_file_index>
1041

> <i_lp_mmshare_version>
43012

> <i_f3d_flags>
0

> <s_epik_input>
W0NIM11PW0NIMl1bQ0gyXU4xW0NIMl1bQ0gyXVtDSF0oW0NIMl1bQ0gyXTEpW0NIMl1bTkhdQyg9TylbQ0gyXWMyYyhbQ0gzXSluYyhbQ0gzXSlbbkhdYzI9Tw==

> <s_epik_cmdline>
J2VwaWtfcHl0aG9uJywgJy1waCcsICc3LjAnLCAnLXRuJywgJzgnLCAnLW1hJywgJzIwMCcsICctbWV0YWxfYmluZGluZycsICctaW1hZScsICc8aW5maWxlLm1hZT4nLCAnLW9tYWUnLCAnPG91dGZpbGUubWFlPic=

> <r_lp_tautomer_probability>
0.156392

> <r_epik_Ionization_Penalty>
0.0240251

> <r_epik_Ionization_Penalty_Charging>
0.0239146

> <r_epik_Ionization_Penalty_Neutral>
0.000110474

> <r_epik_State_Penalty>
1.15942

> <r_epik_Charging_Adjusted_Penalty>
1.18333

> <i_epik_Tot_Q>
1

> <i_epik_Tot_abs_Q>
1

> <r_epik_Metal_State_Penalty>
1.33297

> <b_epik_Metal_Only>
0

> <s_lp_Force_Field>
OPLS_2005

> <r_lp_Energy>
25.6342

> <b_lp_Chiralities_Consistent>
1

> <s_lp_Variant>
AV-unprocessed.smi:1041-4

> <Gold.Version>
5.8.1

> <Gold.Id.Protein>
6NUR|6NUR_protein|mol2

> <Gold.PLP.Fitness>
46.1934

> <Gold.PLP.PLP>
-34.6882

> <Gold.PLP.part.hbond>
-3.0000

> <Gold.PLP.part.metal>
0.0000

> <Gold.PLP.part.buried>
-5.7123

> <Gold.PLP.part.nonpolar>
-26.3479

> <Gold.PLP.part.repulsive>
0.1109

> <Gold.PLP.ligand.clash>
0.0000

> <Gold.PLP.ligand.torsion>
0.3530

> <Gold.PLP.Chemscore.Hbond>
3.9913

> <Gold.PLP.Chemscore.CHOScore>
0.0000

> <Gold.PLP.Chemscore.Metal>
0.0000

> <Gold.Chemscore.Hbonds>
donor molecule, donor type, donor heavy atom, donor atom, acceptor molecule, acceptor atom, score
      L1  H     5    53       P1 10175  2.00
      L1  H    10    40       P1  8028  1.00
      P1  H  7997  8010       L1    22  0.62

> <Gold.PLP.Chemscore.Internal.Correction>
0.2375

> <Gold.Rescore>
     Score         DG    S(hbond)    S(metal)    S(lipo)     H(rot)  DE(clash)    DE(int)     intcor
     17.15     -17.89       2.82        0.00      78.54       2.43       0.15       0.58       ----

> <Gold.Chemscore.Fitness>
17.1543

> <Gold.Chemscore.DG>
-17.8857

> <Gold.Chemscore.ZeroCoef>
-5.4800

> <Gold.Chemscore.Hbond>
2.8248

> <Gold.Chemscore.Metal>
0.0000

> <Gold.Chemscore.Lipo>
78.5439

> <Gold.Chemscore.Internal_Hbond>
0.0000

> <Gold.Chemscore.DEClash>
0.1498

> <Gold.Chemscore.DEInternal>
0.5816

> <Gold.Chemscore.Rot>
2.4291

> <Gold.Chemscore.Internal.Correction>
   9.000000E+99

> <Gold.Chemscore.Hbonds>
donor molecule, donor type, donor heavy atom, donor atom, acceptor molecule, acceptor atom, score
      L1  H     5    53       P1 10175  1.00
      L1  H    10    40       P1  8028  0.72
      P1  H  7997  8010       L1    22  0.37

> <Gold.Chemscore.Hbond.Weighted>
-9.4347

> <Gold.Chemscore.Metal.Weighted>
-0.0000

> <Gold.Chemscore.Lipo.Weighted>
-9.1896

> <Gold.Chemscore.Internal_Hbond.Weighted>
0.0000

> <Gold.Chemscore.DEClash.Weighted>
0.1498

> <Gold.Chemscore.DEInternal.Weighted>
0.5816

> <Gold.Chemscore.Rot.Weighted>
6.2186

> <Gold.Chemscore.Internal.Correction.Weighted>
   9.000000E+99

> <Gold.Protein.RotatedTorsions>
[ 6907 6896 6895 6894 ] final   93.29 input  -60.11 | X-H torsion
[ 7974 7965 7964 7962 ] final  -78.62 input  175.53 | X-H torsion
[ 8008 7997 7996 7995 ] final   56.47 input   59.86 | X-H torsion
[ 10167 10162 10161 10158 ] final  -72.11 input  -65.29 | X-H torsion
[ 10718 10713 10712 10709 ] final  -96.10 input   66.30 | X-H torsion
[ 10763 10752 10751 10750 ] final -127.48 input  -60.55 | X-H torsion
[ 11005 11000 10999 10996 ] final   45.14 input  -57.11 | X-H torsion

> <Gold.Protein.ActiveResidues>
 VAL166  LYS551  ARG553  GLY616  TRP617  ASP618  TYR619  PRO620  LYS621  CYS622 
 ASP623  PHE694  ASN695  SER759  ASP760  ASP761  ALA762  ILE779  LEU786  VAL792 
 PHE793  MET794  SER795  GLU796  ALA797  LYS798  CYS799  TRP800  GLU811  SER814 

> <Gold.Protein.RotatedAtoms>
  152.5452  134.1371  159.8463 H   0  0  0  0  0  0  0  0  0  0  0  0  # atno 6907 bound_to 6896
  151.1411  133.4964  159.2604 H   0  0  0  0  0  0  0  0  0  0  0  0  # atno 6908 bound_to 6896
  151.1572  135.0266  159.8749 H   0  0  0  0  0  0  0  0  0  0  0  0  # atno 6909 bound_to 6896
  145.5841  140.9442  143.1328 H   0  0  0  0  0  0  0  0  0  0  0  0  # atno 7974 bound_to 7965
  155.5181  140.3479  155.4401 H   0  0  0  0  0  0  0  0  0  0  0  0  # atno 8008 bound_to 7997
  156.0803  140.1385  156.9747 H   0  0  0  0  0  0  0  0  0  0  0  0  # atno 8009 bound_to 7997
  154.4576  140.0947  156.6778 H   0  0  0  0  0  0  0  0  0  0  0  0  # atno 8010 bound_to 7997
  140.5219  143.2330  151.7415 H   0  0  0  0  0  0  0  0  0  0  0  0  # atno 10167 bound_to 10162
  156.0055  130.5137  150.6176 H   0  0  0  0  0  0  0  0  0  0  0  0  # atno 10718 bound_to 10713
  154.8752  135.3960  154.3601 H   0  0  0  0  0  0  0  0  0  0  0  0  # atno 10763 bound_to 10752
  153.4375  135.7026  153.6196 H   0  0  0  0  0  0  0  0  0  0  0  0  # atno 10764 bound_to 10752
  153.4791  135.3773  155.2402 H   0  0  0  0  0  0  0  0  0  0  0  0  # atno 10765 bound_to 10752
  140.1487  134.4489  155.8397 H   0  0  0  0  0  0  0  0  0  0  0  0  # atno 11005 bound_to 11000
  144.7381  139.7528  143.7321 LP  0  0  0  0  0  0  0  0  0  0  0  0  # atno 17320 bound_to 7965
  146.1695  139.4840  142.9937 LP  0  0  0  0  0  0  0  0  0  0  0  0  # atno 17321 bound_to 7965
  139.4926  144.4242  151.9944 LP  0  0  0  0  0  0  0  0  0  0  0  0  # atno 17342 bound_to 10162
  140.3339  144.3284  150.5981 LP  0  0  0  0  0  0  0  0  0  0  0  0  # atno 17343 bound_to 10162
  157.3997  131.0808  151.1320 LP  0  0  0  0  0  0  0  0  0  0  0  0  # atno 17370 bound_to 10713
  157.1985  130.6384  149.5730 LP  0  0  0  0  0  0  0  0  0  0  0  0  # atno 17371 bound_to 10713
  141.2196  133.6863  156.7382 LP  0  0  0  0  0  0  0  0  0  0  0  0  # atno 17394 bound_to 11000
  140.2631  134.8451  157.3777 LP  0  0  0  0  0  0  0  0  0  0  0  0  # atno 17395 bound_to 11000

$$$$
