#       Name:                AV-unprocessed.smi:2207
#       Creating user name   scv26
#       Creation time:       Fri Mar 27 12:16:12 2020


#       File generated by GOLD software.
#

@<TRIPOS>MOLECULE
AV-unprocessed.smi:2207
    21    21     1
SMALL
NO_CHARGES


@<TRIPOS>ATOM
      1 ****        -2.4753   1.2830   0.5128 N.am           1 S1                 0.0000
      2 ****        -2.2120   0.7134  -0.6664 C.2            1 S1                 0.0000
      3 ****        -2.5312   1.2321  -1.7340 O.2            1 S1                 0.0000
      4 ****        -1.4898  -0.6349  -0.6450 C.3            1 S1                 0.0000
      5 ****        -0.0694  -0.4670  -0.3936 N.pl3          1 S1                 0.0000
      6 ****         0.9201  -0.0969  -1.2851 C.2            1 S1                 0.0000
      7 ****         2.1016  -0.0670  -0.5997 C.2            1 S1                 0.0000
      8 ****         1.7148  -0.4396   0.7155 C.2            1 S1                 0.0000
      9 ****         2.6135  -0.5428   1.7738 N.pl3          1 S1                 0.0000
     10 ****         0.4233  -0.6803   0.8481 N.2            1 S1                 0.0000
     11 ****        -2.9456   2.1759   0.5452 H              1 S1                 0.0000
     12 ****        -2.1983   0.8215   1.3672 H              1 S1                 0.0000
     13 ****        -1.9245  -1.2827   0.1181 H              1 S1                 0.0000
     14 ****        -1.6169  -1.1397  -1.6036 H              1 S1                 0.0000
     15 ****         0.7012   0.1133  -2.3218 H              1 S1                 0.0000
     16 ****         3.0813   0.1818  -0.9800 H              1 S1                 0.0000
     17 ****         3.5979  -0.3541   1.6519 H              1 S1                 0.0000
     18 ****         2.3089  -0.8166   2.6968 H              1 S1                 0.0000
     19 ****        -3.0058   2.1123  -1.7401 LP             1 S1                 0.0000
     20 ****        -2.3162   0.7740  -2.5965 LP             1 S1                 0.0000
     21 ****        -0.0731  -0.9552   1.6715 LP             1 S1                 0.0000
@<TRIPOS>BOND
    1    1    2 am    
    2    1   11 1     
    3    1   12 1     
    4    2    3 2     
    5    2    4 1     
    6    4    5 1     
    7    4   13 1     
    8    4   14 1     
    9    5   10 1     
   10    5    6 1     
   11    6    7 2     
   12    6   15 1     
   13    7    8 1     
   14    7   16 1     
   15    8    9 1     
   16    8   10 2     
   17    9   17 1     
   18    9   18 1     
   19    3   19 1     
   20    3   20 1     
   21   10   21 1     
@<TRIPOS>SUBSTRUCTURE
      1 S1             1
@<TRIPOS>SET
LONE_PAIRS      STATIC     ATOMS    <user>   **** ""
3 19 20 21
DONOR_HYDROGENS      STATIC     ATOMS    <user>   **** ""
4 11 12 17 18
ATOM$BLUE        STATIC     ATOMS    COLORGROUP SYSTEM
3 19 20 21
ATOM$RED        STATIC     ATOMS    COLORGROUP SYSTEM
4 11 12 17 18
