AV-unprocessed.smi:3039|AV-procd|sdf|11591|dock3
  -GOLD-   2272016563D 1   1.00000     0.00000
 Structure written by MMmdl.
 38 39  0  0  0  0  0  0  0  0  1 V2000
  147.6691  132.5432  154.4330 O   0  0  0  0  0  0  0  0  0  0  0  0
  148.1753  133.4386  153.7570 C   0  0  0  0  0  0  0  0  0  0  0  0
  149.5765  133.9468  154.0951 C   0  0  0  0  0  0  0  0  0  0  0  0
  150.0616  133.3126  155.3703 C   0  0  0  0  0  0  0  0  0  0  0  0
  150.3442  131.9412  155.6228 C   0  0  0  0  0  0  0  0  0  0  0  0
  150.7435  131.9327  156.9281 C   0  0  0  0  0  0  0  0  0  0  0  0
  150.7169  133.1884  157.4416 O   0  0  0  0  0  0  0  0  0  0  0  0
  150.2824  134.0631  156.4392 N   0  0  0  0  0  0  0  0  0  0  0  0
  147.5672  134.0213  152.7087 N   0  0  0  0  0  0  0  0  0  0  0  0
  146.2279  133.7376  152.1825 C   0  0  2  0  0  0  0  0  0  0  0  0
  146.1286  132.2544  151.7462 C   0  0  0  0  0  0  0  0  0  0  0  0
  144.6827  131.7444  151.6305 C   0  0  0  0  0  0  0  0  0  0  0  0
  144.0168  131.9707  150.2640 C   0  0  0  0  0  0  0  0  0  0  0  0
  144.3204  133.3135  149.5806 C   0  0  0  0  0  0  0  0  0  0  0  0
  144.3804  134.5276  150.5222 C   0  0  0  0  0  0  0  0  0  0  0  0
  145.7873  134.7834  151.1129 C   0  0  1  0  0  0  0  0  0  0  0  0
  145.8974  136.2410  151.6224 C   0  0  0  0  0  0  0  0  0  0  0  0
  146.2577  137.1308  150.5852 O   0  0  0  0  0  0  0  0  0  0  0  0
  150.2514  133.7070  153.2727 H   0  0  0  0  0  0  0  0  0  0  0  0
  149.5657  135.0348  154.1779 H   0  0  0  0  0  0  0  0  0  0  0  0
  150.2624  131.0983  154.9527 H   0  0  0  0  0  0  0  0  0  0  0  0
  151.0639  131.1514  157.6012 H   0  0  0  0  0  0  0  0  0  0  0  0
  148.0810  134.7464  152.2287 H   0  0  0  0  0  0  0  0  0  0  0  0
  145.5722  133.8560  153.0455 H   0  0  0  0  0  0  0  0  0  0  0  0
  146.6734  132.0720  150.8193 H   0  0  0  0  0  0  0  0  0  0  0  0
  146.6246  131.6457  152.5041 H   0  0  0  0  0  0  0  0  0  0  0  0
  144.6681  130.6732  151.8350 H   0  0  0  0  0  0  0  0  0  0  0  0
  144.0728  132.1927  152.4158 H   0  0  0  0  0  0  0  0  0  0  0  0
  144.3099  131.1697  149.5845 H   0  0  0  0  0  0  0  0  0  0  0  0
  142.9384  131.8677  150.3905 H   0  0  0  0  0  0  0  0  0  0  0  0
  145.2525  133.2381  149.0193 H   0  0  0  0  0  0  0  0  0  0  0  0
  143.5492  133.4859  148.8290 H   0  0  0  0  0  0  0  0  0  0  0  0
  144.0961  135.4005  149.9335 H   0  0  0  0  0  0  0  0  0  0  0  0
  143.6290  134.4502  151.3087 H   0  0  0  0  0  0  0  0  0  0  0  0
  146.4853  134.7162  150.2782 H   0  0  0  0  0  0  0  0  0  0  0  0
  144.9601  136.5779  152.0651 H   0  0  0  0  0  0  0  0  0  0  0  0
  146.6453  136.3106  152.4129 H   0  0  0  0  0  0  0  0  0  0  0  0
  145.4689  137.4329  150.1612 H   0  0  0  0  0  0  0  0  0  0  0  0
  1  2  2  0  0  0  0
  2  3  1  0  0  0  0
  2  9  1  0  0  0  0
  3  4  1  0  0  0  0
  3 19  1  0  0  0  0
  3 20  1  0  0  0  0
  4  8  2  0  0  0  0
  4  5  1  0  0  0  0
  5  6  2  0  0  0  0
  5 21  1  0  0  0  0
  6  7  1  0  0  0  0
  6 22  1  0  0  0  0
  7  8  1  0  0  0  0
  9 10  1  0  0  0  0
  9 23  1  0  0  0  0
 10 16  1  0  0  0  0
 10 11  1  0  0  0  0
 10 24  1  0  0  0  0
 11 12  1  0  0  0  0
 11 25  1  0  0  0  0
 11 26  1  0  0  0  0
 12 13  1  0  0  0  0
 12 27  1  0  0  0  0
 12 28  1  0  0  0  0
 13 14  1  0  0  0  0
 13 29  1  0  0  0  0
 13 30  1  0  0  0  0
 14 15  1  0  0  0  0
 14 31  1  0  0  0  0
 14 32  1  0  0  0  0
 15 16  1  0  0  0  0
 15 33  1  0  0  0  0
 15 34  1  0  0  0  0
 16 17  1  0  0  0  0
 16 35  1  0  0  0  0
 17 18  1  0  0  0  0
 17 36  1  0  0  0  0
 17 37  1  0  0  0  0
 18 38  1  0  0  0  0
M  END
> <s_m_source_file>
AV-unprocessed.smi

> <i_m_source_file_index>
3039

> <i_lp_mmshare_version>
43012

> <i_f3d_flags>
0

> <s_epik_input>
bjFvW2NIXVtjSF1jMVtDSDJdQyg9TylbTkhdW0NAQEhdMltDSDJdW0NIMl1bQ0gyXVtDSDJdW0NIMl1bQ0BIXTJbQ0gyXVtPSF0=

> <s_epik_cmdline>
J2VwaWtfcHl0aG9uJywgJy1waCcsICc3LjAnLCAnLXRuJywgJzgnLCAnLW1hJywgJzIwMCcsICctbWV0YWxfYmluZGluZycsICctaW1hZScsICc8aW5maWxlLm1hZT4nLCAnLW9tYWUnLCAnPG91dGZpbGUubWFlPic=

> <r_lp_tautomer_probability>
1

> <r_epik_Ionization_Penalty>
3.05817e-07

> <r_epik_Ionization_Penalty_Charging>
0

> <r_epik_Ionization_Penalty_Neutral>
3.05817e-07

> <r_epik_State_Penalty>
-0

> <r_epik_Charging_Adjusted_Penalty>
0

> <i_epik_Tot_Q>
0

> <i_epik_Tot_abs_Q>
0

> <r_epik_Metal_State_Penalty>
-0

> <b_epik_Metal_Only>
0

> <s_lp_Force_Field>
OPLS_2005

> <r_lp_Energy>
18.2522

> <b_lp_Chiralities_Consistent>
1

> <s_lp_Variant>
AV-unprocessed.smi:3039-1

> <Gold.Version>
5.8.1

> <Gold.Id.Protein>
6NUR|6NUR_protein|mol2

> <Gold.PLP.Fitness>
44.3050

> <Gold.PLP.PLP>
-33.7991

> <Gold.PLP.part.hbond>
-5.0000

> <Gold.PLP.part.metal>
0.0000

> <Gold.PLP.part.buried>
-1.9292

> <Gold.PLP.part.nonpolar>
-27.0503

> <Gold.PLP.part.repulsive>
0.0434

> <Gold.PLP.ligand.clash>
0.0000

> <Gold.PLP.ligand.torsion>
0.4745

> <Gold.PLP.Chemscore.Hbond>
3.7811

> <Gold.PLP.Chemscore.CHOScore>
0.0000

> <Gold.PLP.Chemscore.Metal>
0.0000

> <Gold.Chemscore.Hbonds>
donor molecule, donor type, donor heavy atom, donor atom, acceptor molecule, acceptor atom, score
      L1  H     9    23       P1  7948  1.00
      L1  H    18    38       P1 10171  1.00
      P1  H  6896  6907       L1     7  0.98
      P1  H  7954  7966       L1    18  0.64

> <Gold.PLP.Chemscore.Internal.Correction>
0.1114

> <Gold.Rescore>
     Score         DG    S(hbond)    S(metal)    S(lipo)     H(rot)  DE(clash)    DE(int)     intcor
     15.84     -17.47       2.75        0.00      73.39       2.26       0.05       1.59       ----

> <Gold.Chemscore.Fitness>
15.8358

> <Gold.Chemscore.DG>
-17.4740

> <Gold.Chemscore.ZeroCoef>
-5.4800

> <Gold.Chemscore.Hbond>
2.7535

> <Gold.Chemscore.Metal>
0.0000

> <Gold.Chemscore.Lipo>
73.3914

> <Gold.Chemscore.Internal_Hbond>
0.0000

> <Gold.Chemscore.DEClash>
0.0515

> <Gold.Chemscore.DEInternal>
1.5866

> <Gold.Chemscore.Rot>
2.2616

> <Gold.Chemscore.Internal.Correction>
   9.000000E+99

> <Gold.Chemscore.Hbonds>
donor molecule, donor type, donor heavy atom, donor atom, acceptor molecule, acceptor atom, score
      L1  H     9    23       P1  7948  0.40
      L1  H    18    38       P1 10171  0.96
      P1  H  6896  6907       L1     7  0.93
      P1  H  7954  7966       L1    18  0.60

> <Gold.Chemscore.Hbond.Weighted>
-9.1968

> <Gold.Chemscore.Metal.Weighted>
-0.0000

> <Gold.Chemscore.Lipo.Weighted>
-8.5868

> <Gold.Chemscore.Internal_Hbond.Weighted>
0.0000

> <Gold.Chemscore.DEClash.Weighted>
0.0515

> <Gold.Chemscore.DEInternal.Weighted>
1.5866

> <Gold.Chemscore.Rot.Weighted>
5.7896

> <Gold.Chemscore.Internal.Correction.Weighted>
   9.000000E+99

> <Gold.Protein.RotatedTorsions>
[ 6907 6896 6895 6894 ] final -137.91 input  -60.11 | X-H torsion
[ 7974 7965 7964 7962 ] final  -58.89 input  175.53 | X-H torsion
[ 8008 7997 7996 7995 ] final   18.97 input   59.86 | X-H torsion
[ 10167 10162 10161 10158 ] final  123.82 input  -65.29 | X-H torsion
[ 10718 10713 10712 10709 ] final   85.26 input   66.30 | X-H torsion
[ 10763 10752 10751 10750 ] final   39.59 input  -60.55 | X-H torsion
[ 11005 11000 10999 10996 ] final  -15.11 input  -57.11 | X-H torsion

> <Gold.Protein.ActiveResidues>
 VAL166  LYS551  ARG553  GLY616  TRP617  ASP618  TYR619  PRO620  LYS621  CYS622 
 ASP623  PHE694  ASN695  SER759  ASP760  ASP761  ALA762  ILE779  LEU786  VAL792 
 PHE793  MET794  SER795  GLU796  ALA797  LYS798  CYS799  TRP800  GLU811  SER814 

> <Gold.Protein.RotatedAtoms>
  151.0284  133.5812  159.2663 H   0  0  0  0  0  0  0  0  0  0  0  0  # atno 6907 bound_to 6896
  151.2903  135.0739  159.9211 H   0  0  0  0  0  0  0  0  0  0  0  0  # atno 6908 bound_to 6896
  152.5339  133.9984  159.7937 H   0  0  0  0  0  0  0  0  0  0  0  0  # atno 6909 bound_to 6896
  145.8340  140.8461  143.0069 H   0  0  0  0  0  0  0  0  0  0  0  0  # atno 7974 bound_to 7965
  154.9139  140.3018  155.5252 H   0  0  0  0  0  0  0  0  0  0  0  0  # atno 8008 bound_to 7997
  156.3013  140.2384  156.4117 H   0  0  0  0  0  0  0  0  0  0  0  0  # atno 8009 bound_to 7997
  154.8398  140.0414  157.1522 H   0  0  0  0  0  0  0  0  0  0  0  0  # atno 8010 bound_to 7997
  139.5777  144.6971  151.3610 H   0  0  0  0  0  0  0  0  0  0  0  0  # atno 10167 bound_to 10162
  157.6912  131.0167  150.2796 H   0  0  0  0  0  0  0  0  0  0  0  0  # atno 10718 bound_to 10713
  152.9962  135.6216  154.2490 H   0  0  0  0  0  0  0  0  0  0  0  0  # atno 10763 bound_to 10752
  154.2229  135.2795  155.2920 H   0  0  0  0  0  0  0  0  0  0  0  0  # atno 10764 bound_to 10752
  154.5513  135.5732  153.6983 H   0  0  0  0  0  0  0  0  0  0  0  0  # atno 10765 bound_to 10752
  140.7932  133.8271  155.9400 H   0  0  0  0  0  0  0  0  0  0  0  0  # atno 11005 bound_to 11000
  144.6738  140.0714  143.7473 LP  0  0  0  0  0  0  0  0  0  0  0  0  # atno 17320 bound_to 7965
  145.9539  139.2753  143.1196 LP  0  0  0  0  0  0  0  0  0  0  0  0  # atno 17321 bound_to 7965
  140.7058  143.7517  150.7480 LP  0  0  0  0  0  0  0  0  0  0  0  0  # atno 17342 bound_to 10162
  140.1041  143.4760  152.2408 LP  0  0  0  0  0  0  0  0  0  0  0  0  # atno 17343 bound_to 10162
  156.3345  130.3805  149.7462 LP  0  0  0  0  0  0  0  0  0  0  0  0  # atno 17370 bound_to 10713
  156.4991  130.8120  151.3125 LP  0  0  0  0  0  0  0  0  0  0  0  0  # atno 17371 bound_to 10713
  140.9368  134.1951  157.4825 LP  0  0  0  0  0  0  0  0  0  0  0  0  # atno 17394 bound_to 11000
  139.8729  134.9855  156.5287 LP  0  0  0  0  0  0  0  0  0  0  0  0  # atno 17395 bound_to 11000

$$$$
