AV-unprocessed.smi:319|AV-procd|sdf|2331|dock10
  -GOLD-   2262022233D 1   1.00000     0.00000
 Structure written by MMmdl.
 38 39  0  0  0  0  0  0  0  0  1 V2000
  143.4901  141.8687  158.2319 C   0  0  0  0  0  0  0  0  0  0  0  0
  145.0569  141.0800  158.6986 S   0  0  0  0  0  0  0  0  0  0  0  0
  146.0379  141.4046  157.2655 C   0  0  0  0  0  0  0  0  0  0  0  0
  145.5598  142.0179  156.1819 N   0  0  0  0  0  0  0  0  0  0  0  0
  146.5143  142.1655  155.1715 C   0  0  0  0  0  0  0  0  0  0  0  0
  146.1263  142.8337  153.8873 C   0  0  0  0  0  0  0  0  0  0  0  0
  147.7456  141.6459  155.5000 C   0  0  0  0  0  0  0  0  0  0  0  0
  148.9912  141.6183  154.6709 C   0  0  0  0  0  0  0  0  0  0  0  0
  150.2342  141.6414  155.5600 C   0  0  0  0  0  0  0  0  0  0  0  0
  151.0651  140.7370  155.4803 O   0  0  0  0  0  0  0  0  0  0  0  0
  150.3508  142.6848  156.3956 N   0  0  0  0  0  0  0  0  0  0  0  0
  151.4682  142.9222  157.3033 C   0  0  0  0  0  0  0  0  0  0  0  0
  151.5667  141.7956  158.3528 C   0  0  0  0  0  0  0  0  0  0  0  0
  152.6866  142.0708  159.3695 C   0  0  0  0  0  0  0  0  0  0  0  0
  152.5042  143.4391  160.0449 C   0  0  0  0  0  0  0  0  0  0  0  0
  152.4132  144.5638  159.0017 C   0  0  0  0  0  0  0  0  0  0  0  0
  151.2923  144.2922  157.9854 C   0  0  0  0  0  0  0  0  0  0  0  0
  147.7345  140.9567  157.1036 S   0  0  0  0  0  0  0  0  0  0  0  0
  142.7590  141.7344  159.0289 H   0  0  0  0  0  0  0  0  0  0  0  0
  143.0862  141.4213  157.3238 H   0  0  0  0  0  0  0  0  0  0  0  0
  143.6251  142.9389  158.0745 H   0  0  0  0  0  0  0  0  0  0  0  0
  146.8655  143.5766  153.5880 H   0  0  0  0  0  0  0  0  0  0  0  0
  145.1671  143.3453  153.9730 H   0  0  0  0  0  0  0  0  0  0  0  0
  146.0392  142.1079  153.0787 H   0  0  0  0  0  0  0  0  0  0  0  0
  149.0051  140.7340  154.0326 H   0  0  0  0  0  0  0  0  0  0  0  0
  149.0166  142.4790  154.0017 H   0  0  0  0  0  0  0  0  0  0  0  0
  149.6161  143.3772  156.3902 H   0  0  0  0  0  0  0  0  0  0  0  0
  152.3948  142.9489  156.7262 H   0  0  0  0  0  0  0  0  0  0  0  0
  150.6167  141.6980  158.8803 H   0  0  0  0  0  0  0  0  0  0  0  0
  151.7473  140.8381  157.8630 H   0  0  0  0  0  0  0  0  0  0  0  0
  152.7057  141.2834  160.1235 H   0  0  0  0  0  0  0  0  0  0  0  0
  153.6531  142.0384  158.8646 H   0  0  0  0  0  0  0  0  0  0  0  0
  151.5986  143.4292  160.6525 H   0  0  0  0  0  0  0  0  0  0  0  0
  153.3326  143.6308  160.7275 H   0  0  0  0  0  0  0  0  0  0  0  0
  152.2403  145.5188  159.4987 H   0  0  0  0  0  0  0  0  0  0  0  0
  153.3660  144.6553  158.4788 H   0  0  0  0  0  0  0  0  0  0  0  0
  151.2780  145.0840  157.2352 H   0  0  0  0  0  0  0  0  0  0  0  0
  150.3279  144.3317  158.4941 H   0  0  0  0  0  0  0  0  0  0  0  0
  1  2  1  0  0  0  0
  1 19  1  0  0  0  0
  1 20  1  0  0  0  0
  1 21  1  0  0  0  0
  2  3  1  0  0  0  0
  3 18  1  0  0  0  0
  3  4  2  0  0  0  0
  4  5  1  0  0  0  0
  5  6  1  0  0  0  0
  5  7  2  0  0  0  0
  6 22  1  0  0  0  0
  6 23  1  0  0  0  0
  6 24  1  0  0  0  0
  7  8  1  0  0  0  0
  7 18  1  0  0  0  0
  8  9  1  0  0  0  0
  8 25  1  0  0  0  0
  8 26  1  0  0  0  0
  9 10  2  0  0  0  0
  9 11  1  0  0  0  0
 11 12  1  0  0  0  0
 11 27  1  0  0  0  0
 12 17  1  0  0  0  0
 12 13  1  0  0  0  0
 12 28  1  0  0  0  0
 13 14  1  0  0  0  0
 13 29  1  0  0  0  0
 13 30  1  0  0  0  0
 14 15  1  0  0  0  0
 14 31  1  0  0  0  0
 14 32  1  0  0  0  0
 15 16  1  0  0  0  0
 15 33  1  0  0  0  0
 15 34  1  0  0  0  0
 16 17  1  0  0  0  0
 16 35  1  0  0  0  0
 16 36  1  0  0  0  0
 17 37  1  0  0  0  0
 17 38  1  0  0  0  0
M  END
> <s_m_source_file>
AV-unprocessed.smi

> <i_m_source_file_index>
319

> <i_lp_mmshare_version>
43012

> <i_f3d_flags>
0

> <s_epik_input>
W0NIM11TYzFuYyhbQ0gzXSljKHMxKVtDSDJdQyg9TylbTkhdW0NIXTJbQ0gyXVtDSDJdW0NIMl1bQ0gyXVtDSDJdMg==

> <s_epik_cmdline>
J2VwaWtfcHl0aG9uJywgJy1waCcsICc3LjAnLCAnLXRuJywgJzgnLCAnLW1hJywgJzIwMCcsICctbWV0YWxfYmluZGluZycsICctaW1hZScsICc8aW5maWxlLm1hZT4nLCAnLW9tYWUnLCAnPG91dGZpbGUubWFlPic=

> <r_lp_tautomer_probability>
1

> <r_epik_Ionization_Penalty>
2.85285e-06

> <r_epik_Ionization_Penalty_Charging>
0

> <r_epik_Ionization_Penalty_Neutral>
2.85285e-06

> <r_epik_State_Penalty>
-0

> <r_epik_Charging_Adjusted_Penalty>
0

> <i_epik_Tot_Q>
0

> <i_epik_Tot_abs_Q>
0

> <r_epik_Metal_State_Penalty>
-0

> <b_epik_Metal_Only>
0

> <s_lp_Force_Field>
OPLS_2005

> <r_lp_Energy>
6.2973

> <b_lp_Chiralities_Consistent>
1

> <s_lp_Variant>
AV-unprocessed.smi:319-1

> <Gold.Version>
5.8.1

> <Gold.Id.Protein>
6NUR|6NUR_protein|mol2

> <Gold.PLP.Fitness>
41.6115

> <Gold.PLP.PLP>
-37.2746

> <Gold.PLP.part.hbond>
-2.0000

> <Gold.PLP.part.metal>
0.0000

> <Gold.PLP.part.buried>
-3.7923

> <Gold.PLP.part.nonpolar>
-30.8258

> <Gold.PLP.part.repulsive>
0.2203

> <Gold.PLP.ligand.clash>
0.0000

> <Gold.PLP.ligand.torsion>
0.4108

> <Gold.PLP.Chemscore.Hbond>
1.7160

> <Gold.PLP.Chemscore.CHOScore>
0.0000

> <Gold.PLP.Chemscore.Metal>
0.0000

> <Gold.Chemscore.Hbonds>
donor molecule, donor type, donor heavy atom, donor atom, acceptor molecule, acceptor atom, score
      L1  H    11    27       P1  8028  0.99
      P1  H  7989  7998       L1    10  0.77

> <Gold.PLP.Chemscore.Internal.Correction>
0.0104

> <Gold.Rescore>
     Score         DG    S(hbond)    S(metal)    S(lipo)     H(rot)  DE(clash)    DE(int)     intcor
     16.30     -17.67       1.50        0.00      90.36       1.33       0.29       1.09       ----

> <Gold.Chemscore.Fitness>
16.3004

> <Gold.Chemscore.DG>
-17.6732

> <Gold.Chemscore.ZeroCoef>
-5.4800

> <Gold.Chemscore.Hbond>
1.5040

> <Gold.Chemscore.Metal>
0.0000

> <Gold.Chemscore.Lipo>
90.3563

> <Gold.Chemscore.Internal_Hbond>
0.0000

> <Gold.Chemscore.DEClash>
0.2864

> <Gold.Chemscore.DEInternal>
1.0865

> <Gold.Chemscore.Rot>
1.3289

> <Gold.Chemscore.Internal.Correction>
   9.000000E+99

> <Gold.Chemscore.Hbonds>
donor molecule, donor type, donor heavy atom, donor atom, acceptor molecule, acceptor atom, score
      L1  H    11    27       P1  8028  0.93
      P1  H  7989  7998       L1    10  0.21

> <Gold.Chemscore.Hbond.Weighted>
-5.0235

> <Gold.Chemscore.Metal.Weighted>
-0.0000

> <Gold.Chemscore.Lipo.Weighted>
-10.5717

> <Gold.Chemscore.Internal_Hbond.Weighted>
0.0000

> <Gold.Chemscore.DEClash.Weighted>
0.2864

> <Gold.Chemscore.DEInternal.Weighted>
1.0865

> <Gold.Chemscore.Rot.Weighted>
3.4019

> <Gold.Chemscore.Internal.Correction.Weighted>
   9.000000E+99

> <Gold.Protein.RotatedTorsions>
[ 6907 6896 6895 6894 ] final    6.03 input  -60.11 | X-H torsion
[ 7974 7965 7964 7962 ] final -123.64 input  175.53 | X-H torsion
[ 8008 7997 7996 7995 ] final -109.58 input   59.86 | X-H torsion
[ 10167 10162 10161 10158 ] final -101.18 input  -65.29 | X-H torsion
[ 10718 10713 10712 10709 ] final   20.78 input   66.30 | X-H torsion
[ 10763 10752 10751 10750 ] final -179.34 input  -60.55 | X-H torsion
[ 11005 11000 10999 10996 ] final -129.73 input  -57.11 | X-H torsion

> <Gold.Protein.ActiveResidues>
 VAL166  LYS551  ARG553  GLY616  TRP617  ASP618  TYR619  PRO620  LYS621  CYS622 
 ASP623  PHE694  ASN695  SER759  ASP760  ASP761  ALA762  ILE779  LEU786  VAL792 
 PHE793  MET794  SER795  GLU796  ALA797  LYS798  CYS799  TRP800  GLU811  SER814 

> <Gold.Protein.RotatedAtoms>
  151.6671  135.0981  160.0190 H   0  0  0  0  0  0  0  0  0  0  0  0  # atno 6907 bound_to 6896
  152.3913  133.6679  159.6248 H   0  0  0  0  0  0  0  0  0  0  0  0  # atno 6908 bound_to 6896
  150.7828  133.8866  159.3342 H   0  0  0  0  0  0  0  0  0  0  0  0  # atno 6909 bound_to 6896
  145.0165  140.7952  143.4406 H   0  0  0  0  0  0  0  0  0  0  0  0  # atno 7974 bound_to 7965
  154.9615  140.0399  157.2192 H   0  0  0  0  0  0  0  0  0  0  0  0  # atno 8008 bound_to 7997
  154.7885  140.2831  155.5987 H   0  0  0  0  0  0  0  0  0  0  0  0  # atno 8009 bound_to 7997
  156.2946  140.2578  156.2727 H   0  0  0  0  0  0  0  0  0  0  0  0  # atno 8010 bound_to 7997
  140.2440  143.3518  152.0775 H   0  0  0  0  0  0  0  0  0  0  0  0  # atno 10167 bound_to 10162
  157.1293  130.6584  149.5947 H   0  0  0  0  0  0  0  0  0  0  0  0  # atno 10718 bound_to 10713
  154.5363  135.2803  155.1135 H   0  0  0  0  0  0  0  0  0  0  0  0  # atno 10763 bound_to 10752
  154.2635  135.6317  153.5287 H   0  0  0  0  0  0  0  0  0  0  0  0  # atno 10764 bound_to 10752
  152.9968  135.5611  154.5891 H   0  0  0  0  0  0  0  0  0  0  0  0  # atno 10765 bound_to 10752
  140.9406  134.1198  157.4154 H   0  0  0  0  0  0  0  0  0  0  0  0  # atno 11005 bound_to 11000
  145.1952  139.2280  143.5222 LP  0  0  0  0  0  0  0  0  0  0  0  0  # atno 17320 bound_to 7965
  146.3479  140.1757  142.8589 LP  0  0  0  0  0  0  0  0  0  0  0  0  # atno 17321 bound_to 7965
  139.5068  144.6820  151.5985 LP  0  0  0  0  0  0  0  0  0  0  0  0  # atno 17342 bound_to 10162
  140.6091  143.9468  150.6440 LP  0  0  0  0  0  0  0  0  0  0  0  0  # atno 17343 bound_to 10162
  155.9811  130.4816  150.6811 LP  0  0  0  0  0  0  0  0  0  0  0  0  # atno 17370 bound_to 10713
  157.4406  131.0861  151.0947 LP  0  0  0  0  0  0  0  0  0  0  0  0  # atno 17371 bound_to 10713
  139.8819  135.0035  156.6193 LP  0  0  0  0  0  0  0  0  0  0  0  0  # atno 17394 bound_to 11000
  140.7739  133.8716  155.8513 LP  0  0  0  0  0  0  0  0  0  0  0  0  # atno 17395 bound_to 11000

$$$$
