AV-unprocessed.smi:837|AV-procd|sdf|3892|dock5
  -GOLD-   22720 1353D 1   1.00000     0.00000
 Structure written by MMmdl.
 49 51  0  0  0  0  0  0  0  0  1 V2000
  151.6164  140.1846  159.1514 C   0  0  0  0  0  0  0  0  0  0  0  0
  152.0641  141.4994  158.4764 C   0  0  2  0  0  0  0  0  0  0  0  0
  152.6071  142.4805  159.5381 C   0  0  0  0  0  0  0  0  0  0  0  0
  153.1240  143.7838  158.9094 C   0  0  0  0  0  0  0  0  0  0  0  0
  152.0386  144.4641  158.0638 C   0  0  0  0  0  0  0  0  0  0  0  0
  151.5014  143.5067  156.9885 C   0  0  0  0  0  0  0  0  0  0  0  0
  150.9715  142.1871  157.5991 C   0  0  2  0  0  0  0  0  0  0  0  0
  149.7365  142.4097  158.3327 N   0  0  0  0  0  0  0  0  0  0  0  0
  148.6906  141.7622  157.8033 C   0  0  0  0  0  0  0  0  0  0  0  0
  147.5454  141.7807  158.2514 O   0  0  0  0  0  0  0  0  0  0  0  0
  149.1144  141.0924  156.7163 N   0  0  0  0  0  0  0  0  0  0  0  0
  148.2699  140.2191  155.8925 C   0  0  0  0  0  0  0  0  0  0  0  0
  147.4606  139.2240  156.7350 C   0  0  0  0  0  0  0  0  0  0  0  0
  146.2431  139.1174  156.5831 O   0  0  0  0  0  0  0  0  0  0  0  0
  148.1577  138.4932  157.6175 N   0  0  0  0  0  0  0  0  0  0  0  0
  147.5879  137.5077  158.5318 C   0  0  0  0  0  0  0  0  0  0  0  0
  148.6544  136.6298  159.2180 C   0  0  0  0  0  0  0  0  0  0  0  0
  148.1221  135.8339  160.3974 C   0  0  0  0  0  0  0  0  0  0  0  0
  147.7446  136.4772  161.5944 C   0  0  0  0  0  0  0  0  0  0  0  0
  147.2664  135.6958  162.6633 C   0  0  0  0  0  0  0  0  0  0  0  0
  147.1845  134.3001  162.4889 C   0  0  0  0  0  0  0  0  0  0  0  0
  147.5403  133.6733  161.3466 N   0  0  0  0  0  0  0  0  0  0  0  0
  147.9978  134.4304  160.3262 C   0  0  0  0  0  0  0  0  0  0  0  0
  150.4255  141.2754  156.5083 C   0  0  0  0  0  0  0  0  0  0  0  0
  151.1089  140.7946  155.6042 O   0  0  0  0  0  0  0  0  0  0  0  0
  150.7981  140.3508  159.8522 H   0  0  0  0  0  0  0  0  0  0  0  0
  152.4381  139.7367  159.7107 H   0  0  0  0  0  0  0  0  0  0  0  0
  151.2854  139.4431  158.4250 H   0  0  0  0  0  0  0  0  0  0  0  0
  152.8981  141.2465  157.8193 H   0  0  0  0  0  0  0  0  0  0  0  0
  151.8254  142.7129  160.2626 H   0  0  0  0  0  0  0  0  0  0  0  0
  153.4136  142.0094  160.1012 H   0  0  0  0  0  0  0  0  0  0  0  0
  153.4646  144.4633  159.6912 H   0  0  0  0  0  0  0  0  0  0  0  0
  153.9931  143.5696  158.2859 H   0  0  0  0  0  0  0  0  0  0  0  0
  151.2230  144.7957  158.7076 H   0  0  0  0  0  0  0  0  0  0  0  0
  152.4432  145.3603  157.5930 H   0  0  0  0  0  0  0  0  0  0  0  0
  150.7199  144.0060  156.4130 H   0  0  0  0  0  0  0  0  0  0  0  0
  152.3037  143.2879  156.2818 H   0  0  0  0  0  0  0  0  0  0  0  0
  149.6897  142.9833  159.1623 H   0  0  0  0  0  0  0  0  0  0  0  0
  147.5749  140.8122  155.2962 H   0  0  0  0  0  0  0  0  0  0  0  0
  148.8913  139.6787  155.1755 H   0  0  0  0  0  0  0  0  0  0  0  0
  149.1545  138.6445  157.6752 H   0  0  0  0  0  0  0  0  0  0  0  0
  146.9641  138.0025  159.2776 H   0  0  0  0  0  0  0  0  0  0  0  0
  146.9220  136.8739  157.9459 H   0  0  0  0  0  0  0  0  0  0  0  0
  149.0851  135.9390  158.4920 H   0  0  0  0  0  0  0  0  0  0  0  0
  149.4796  137.2555  159.5594 H   0  0  0  0  0  0  0  0  0  0  0  0
  147.8271  137.5490  161.6970 H   0  0  0  0  0  0  0  0  0  0  0  0
  146.9747  136.1559  163.5957 H   0  0  0  0  0  0  0  0  0  0  0  0
  146.8242  133.6702  163.2886 H   0  0  0  0  0  0  0  0  0  0  0  0
  148.2771  133.9000  159.4276 H   0  0  0  0  0  0  0  0  0  0  0  0
  1  2  1  0  0  0  0
  1 26  1  0  0  0  0
  1 27  1  0  0  0  0
  1 28  1  0  0  0  0
  2  7  1  0  0  0  0
  2  3  1  0  0  0  0
  2 29  1  0  0  0  0
  3  4  1  0  0  0  0
  3 30  1  0  0  0  0
  3 31  1  0  0  0  0
  4  5  1  0  0  0  0
  4 32  1  0  0  0  0
  4 33  1  0  0  0  0
  5  6  1  0  0  0  0
  5 34  1  0  0  0  0
  5 35  1  0  0  0  0
  6  7  1  0  0  0  0
  6 36  1  0  0  0  0
  6 37  1  0  0  0  0
  7 24  1  0  0  0  0
  7  8  1  0  0  0  0
  8  9  1  0  0  0  0
  8 38  1  0  0  0  0
  9 10  2  0  0  0  0
  9 11  1  0  0  0  0
 11 12  1  0  0  0  0
 11 24  1  0  0  0  0
 12 13  1  0  0  0  0
 12 39  1  0  0  0  0
 12 40  1  0  0  0  0
 13 14  2  0  0  0  0
 13 15  1  0  0  0  0
 15 16  1  0  0  0  0
 15 41  1  0  0  0  0
 16 17  1  0  0  0  0
 16 42  1  0  0  0  0
 16 43  1  0  0  0  0
 17 18  1  0  0  0  0
 17 44  1  0  0  0  0
 17 45  1  0  0  0  0
 18 23  1  0  0  0  0
 18 19  2  0  0  0  0
 19 20  1  0  0  0  0
 19 46  1  0  0  0  0
 20 21  2  0  0  0  0
 20 47  1  0  0  0  0
 21 22  1  0  0  0  0
 21 48  1  0  0  0  0
 22 23  2  0  0  0  0
 23 49  1  0  0  0  0
 24 25  2  0  0  0  0
M  END
> <s_m_source_file>
AV-unprocessed.smi

> <i_m_source_file_index>
837

> <i_lp_mmshare_version>
43012

> <i_f3d_flags>
0

> <s_epik_input>
W0NIMl0xW0NIMl1bQ0gyXVtDSDJdW0NAQEhdKFtDSDNdKVtDQEBdMTJbTkhdQyg9TylOKEMyPU8pW0NIMl1DKD1PKVtOSF1bQ0gyXVtDSDJdYzNbY0hdW2NIXVtjSF1uW2NIXTM=

> <s_epik_cmdline>
J2VwaWtfcHl0aG9uJywgJy1waCcsICc3LjAnLCAnLXRuJywgJzgnLCAnLW1hJywgJzIwMCcsICctbWV0YWxfYmluZGluZycsICctaW1hZScsICc8aW5maWxlLm1hZT4nLCAnLW9tYWUnLCAnPG91dGZpbGUubWFlPic=

> <r_lp_tautomer_probability>
1

> <r_epik_Ionization_Penalty>
0.0127837

> <r_epik_Ionization_Penalty_Charging>
0

> <r_epik_Ionization_Penalty_Neutral>
0.0127837

> <r_epik_State_Penalty>
0.00987657

> <r_epik_Charging_Adjusted_Penalty>
0.00987657

> <i_epik_Tot_Q>
0

> <i_epik_Tot_abs_Q>
0

> <r_epik_Metal_State_Penalty>
0.0309865

> <b_epik_Metal_Only>
0

> <s_lp_Force_Field>
OPLS_2005

> <r_lp_Energy>
21.3574

> <b_lp_Chiralities_Consistent>
1

> <s_lp_Variant>
AV-unprocessed.smi:837-1

> <Gold.Version>
5.8.1

> <Gold.Id.Protein>
6NUR|6NUR_protein|mol2

> <Gold.PLP.Fitness>
45.8074

> <Gold.PLP.PLP>
-44.9014

> <Gold.PLP.part.hbond>
-1.2876

> <Gold.PLP.part.metal>
0.0000

> <Gold.PLP.part.buried>
-5.2713

> <Gold.PLP.part.nonpolar>
-38.1982

> <Gold.PLP.part.repulsive>
0.3242

> <Gold.PLP.ligand.clash>
0.0000

> <Gold.PLP.ligand.torsion>
0.3523

> <Gold.PLP.Chemscore.Hbond>
0.5242

> <Gold.PLP.Chemscore.CHOScore>
0.0000

> <Gold.PLP.Chemscore.Metal>
0.0000

> <Gold.Chemscore.Hbonds>
donor molecule, donor type, donor heavy atom, donor atom, acceptor molecule, acceptor atom, score
      P1  H  7989  7998       L1    25  0.52

> <Gold.PLP.Chemscore.Internal.Correction>
0.0382

> <Gold.Rescore>
     Score         DG    S(hbond)    S(metal)    S(lipo)     H(rot)  DE(clash)    DE(int)     intcor
     14.28     -17.23       0.90        0.00     115.39       1.86       1.42       1.53       ----

> <Gold.Chemscore.Fitness>
14.2837

> <Gold.Chemscore.DG>
-17.2288

> <Gold.Chemscore.ZeroCoef>
-5.4800

> <Gold.Chemscore.Hbond>
0.8975

> <Gold.Chemscore.Metal>
0.0000

> <Gold.Chemscore.Lipo>
115.3912

> <Gold.Chemscore.Internal_Hbond>
0.0000

> <Gold.Chemscore.DEClash>
1.4156

> <Gold.Chemscore.DEInternal>
1.5295

> <Gold.Chemscore.Rot>
1.8553

> <Gold.Chemscore.Internal.Correction>
   9.000000E+99

> <Gold.Chemscore.Hbonds>
donor molecule, donor type, donor heavy atom, donor atom, acceptor molecule, acceptor atom, score
      P1  H  7989  7998       L1    25  0.51

> <Gold.Chemscore.Hbond.Weighted>
-2.9977

> <Gold.Chemscore.Metal.Weighted>
-0.0000

> <Gold.Chemscore.Lipo.Weighted>
-13.5008

> <Gold.Chemscore.Internal_Hbond.Weighted>
0.0000

> <Gold.Chemscore.DEClash.Weighted>
1.4156

> <Gold.Chemscore.DEInternal.Weighted>
1.5295

> <Gold.Chemscore.Rot.Weighted>
4.7497

> <Gold.Chemscore.Internal.Correction.Weighted>
   9.000000E+99

> <Gold.Protein.RotatedTorsions>
[ 6907 6896 6895 6894 ] final -144.24 input  -60.11 | X-H torsion
[ 7974 7965 7964 7962 ] final  156.09 input  175.53 | X-H torsion
[ 8008 7997 7996 7995 ] final   18.07 input   59.86 | X-H torsion
[ 10167 10162 10161 10158 ] final  133.94 input  -65.29 | X-H torsion
[ 10718 10713 10712 10709 ] final  -48.17 input   66.30 | X-H torsion
[ 10763 10752 10751 10750 ] final  -94.42 input  -60.55 | X-H torsion
[ 11005 11000 10999 10996 ] final -107.14 input  -57.11 | X-H torsion

> <Gold.Protein.ActiveResidues>
 VAL166  LYS551  ARG553  GLY616  TRP617  ASP618  TYR619  PRO620  LYS621  CYS622 
 ASP623  PHE694  ASN695  SER759  ASP760  ASP761  ALA762  ILE779  LEU786  VAL792 
 PHE793  MET794  SER795  GLU796  ALA797  LYS798  CYS799  TRP800  GLU811  SER814 

> <Gold.Protein.RotatedAtoms>
  151.1114  133.5170  159.2605 H   0  0  0  0  0  0  0  0  0  0  0  0  # atno 6907 bound_to 6896
  151.1963  135.0423  159.8863 H   0  0  0  0  0  0  0  0  0  0  0  0  # atno 6908 bound_to 6896
  152.5450  134.0948  159.8346 H   0  0  0  0  0  0  0  0  0  0  0  0  # atno 6909 bound_to 6896
  144.7984  139.7156  143.6192 H   0  0  0  0  0  0  0  0  0  0  0  0  # atno 7974 bound_to 7965
  154.9006  140.3000  155.5320 H   0  0  0  0  0  0  0  0  0  0  0  0  # atno 8008 bound_to 7997
  156.3018  140.2407  156.3968 H   0  0  0  0  0  0  0  0  0  0  0  0  # atno 8009 bound_to 7997
  154.8525  140.0409  157.1602 H   0  0  0  0  0  0  0  0  0  0  0  0  # atno 8010 bound_to 7997
  139.5276  144.6591  151.5068 H   0  0  0  0  0  0  0  0  0  0  0  0  # atno 10167 bound_to 10162
  156.2014  130.4156  149.9236 H   0  0  0  0  0  0  0  0  0  0  0  0  # atno 10718 bound_to 10713
  154.7054  135.5158  153.8587 H   0  0  0  0  0  0  0  0  0  0  0  0  # atno 10763 bound_to 10752
  153.0737  135.6609  154.0202 H   0  0  0  0  0  0  0  0  0  0  0  0  # atno 10764 bound_to 10752
  154.0053  135.3007  155.3378 H   0  0  0  0  0  0  0  0  0  0  0  0  # atno 10765 bound_to 10752
  141.0969  133.8955  157.1941 H   0  0  0  0  0  0  0  0  0  0  0  0  # atno 11005 bound_to 11000
  146.2259  139.5722  142.9587 LP  0  0  0  0  0  0  0  0  0  0  0  0  # atno 17320 bound_to 7965
  145.5614  141.0404  143.2224 LP  0  0  0  0  0  0  0  0  0  0  0  0  # atno 17321 bound_to 7965
  140.6431  143.8849  150.6711 LP  0  0  0  0  0  0  0  0  0  0  0  0  # atno 17342 bound_to 10162
  140.2190  143.3824  152.1658 LP  0  0  0  0  0  0  0  0  0  0  0  0  # atno 17343 bound_to 10162
  156.6944  130.8908  151.3592 LP  0  0  0  0  0  0  0  0  0  0  0  0  # atno 17370 bound_to 10713
  157.6988  130.9310  150.0722 LP  0  0  0  0  0  0  0  0  0  0  0  0  # atno 17371 bound_to 10713
  139.9808  135.0099  156.9745 LP  0  0  0  0  0  0  0  0  0  0  0  0  # atno 17394 bound_to 11000
  140.5118  134.0994  155.7272 LP  0  0  0  0  0  0  0  0  0  0  0  0  # atno 17395 bound_to 11000

$$$$
