AV-unprocessed.smi:1986|AV-procd|sdf|8053|dock5
  -GOLD-   2272010253D 1   1.00000     0.00000
 Structure written by MMmdl.
 48 49  0  0  0  0  0  0  0  0  2 V2000
  146.7538  133.2734  154.9990 C   0  0  0  0  0  0  0  0  0  0  0  0
  147.3664  134.6786  154.8506 C   0  0  0  0  0  0  0  0  0  0  0  0
  148.9283  134.7912  154.8688 C   0  0  2  0  0  0  0  0  0  0  0  0
  149.5128  133.7689  153.8636 C   0  0  0  0  0  0  0  0  0  0  0  0
  149.4488  134.4463  156.2981 C   0  0  0  0  0  0  0  0  0  0  0  0
  148.5335  134.9145  157.3352 N   0  0  0  0  0  0  0  0  0  0  0  0
  148.8154  135.7884  158.3155 C   0  0  0  0  0  0  0  0  0  0  0  0
  149.9462  136.2264  158.5209 O   0  0  0  0  0  0  0  0  0  0  0  0
  147.6416  136.2993  159.1680 C   0  0  0  0  0  0  0  0  0  0  0  0
  147.3570  135.4810  160.3596 N   0  0  0  0  0  0  0  0  0  0  0  0
  147.2057  134.1286  160.0965 N   0  0  0  0  0  0  0  0  0  0  0  0
  146.9358  133.3106  161.0569 C   0  0  0  0  0  0  0  0  0  0  0  0
  146.7911  131.9796  160.7512 O   0  0  0  0  0  0  0  0  0  0  0  0
  146.7876  133.7774  162.4181 C   0  0  0  0  0  0  0  0  0  0  0  0
  146.9367  135.0971  162.6656 C   0  0  0  0  0  0  0  0  0  0  0  0
  147.2372  136.0526  161.5985 C   0  0  0  0  0  0  0  0  0  0  0  0
  147.3485  137.2637  161.7895 O   0  0  0  0  0  0  0  0  0  0  0  0
  149.3560  136.1984  154.5126 N   0  3  0  0  0  0  0  0  0  0  0  0
  148.5312  137.2898  155.1050 C   0  0  0  0  0  0  0  0  0  0  0  0
  148.9010  138.6413  154.4780 C   0  0  0  0  0  0  0  0  0  0  0  0
  150.2739  138.9039  154.7275 O   0  0  0  0  0  0  0  0  0  0  0  0
  151.1110  137.9284  154.1240 C   0  0  0  0  0  0  0  0  0  0  0  0
  150.7995  136.5296  154.6878 C   0  0  0  0  0  0  0  0  0  0  0  0
  145.8591  131.8248  160.7285 H   0  0  0  0  0  0  0  0  0  0  0  0
  145.6711  133.3226  154.8821 H   0  0  0  0  0  0  0  0  0  0  0  0
  146.9424  132.8457  155.9834 H   0  0  0  0  0  0  0  0  0  0  0  0
  147.1260  132.5787  154.2472 H   0  0  0  0  0  0  0  0  0  0  0  0
  146.9852  135.0795  153.9112 H   0  0  0  0  0  0  0  0  0  0  0  0
  146.9434  135.3039  155.6379 H   0  0  0  0  0  0  0  0  0  0  0  0
  149.1879  132.7535  154.0874 H   0  0  0  0  0  0  0  0  0  0  0  0
  150.6021  133.7444  153.8856 H   0  0  0  0  0  0  0  0  0  0  0  0
  149.2057  133.9876  152.8407 H   0  0  0  0  0  0  0  0  0  0  0  0
  149.5645  133.3696  156.4163 H   0  0  0  0  0  0  0  0  0  0  0  0
  150.4536  134.8318  156.4677 H   0  0  0  0  0  0  0  0  0  0  0  0
  147.5765  134.5999  157.2604 H   0  0  0  0  0  0  0  0  0  0  0  0
  147.8621  137.3281  159.4583 H   0  0  0  0  0  0  0  0  0  0  0  0
  146.7483  136.3575  158.5434 H   0  0  0  0  0  0  0  0  0  0  0  0
  146.5644  133.0802  163.2122 H   0  0  0  0  0  0  0  0  0  0  0  0
  146.8288  135.4589  163.6775 H   0  0  0  0  0  0  0  0  0  0  0  0
  147.4675  137.1215  154.9557 H   0  0  0  0  0  0  0  0  0  0  0  0
  148.6955  137.3457  156.1816 H   0  0  0  0  0  0  0  0  0  0  0  0
  148.6961  138.6472  153.4059 H   0  0  0  0  0  0  0  0  0  0  0  0
  148.3041  139.4379  154.9227 H   0  0  0  0  0  0  0  0  0  0  0  0
  150.9815  137.9487  153.0411 H   0  0  0  0  0  0  0  0  0  0  0  0
  152.1512  138.1880  154.3213 H   0  0  0  0  0  0  0  0  0  0  0  0
  151.0658  136.4819  155.7442 H   0  0  0  0  0  0  0  0  0  0  0  0
  151.4452  135.8320  154.1577 H   0  0  0  0  0  0  0  0  0  0  0  0
  149.2015  136.2595  153.5160 H   0  0  0  0  0  0  0  0  0  0  0  0
  1  2  1  0  0  0  0
  1 25  1  0  0  0  0
  1 26  1  0  0  0  0
  1 27  1  0  0  0  0
  2  3  1  0  0  0  0
  2 28  1  0  0  0  0
  2 29  1  0  0  0  0
  3  4  1  0  0  0  0
  3  5  1  0  0  0  0
  3 18  1  0  0  0  0
  4 30  1  0  0  0  0
  4 31  1  0  0  0  0
  4 32  1  0  0  0  0
  5  6  1  0  0  0  0
  5 33  1  0  0  0  0
  5 34  1  0  0  0  0
  6  7  1  0  0  0  0
  6 35  1  0  0  0  0
  7  8  2  0  0  0  0
  7  9  1  0  0  0  0
  9 36  1  0  0  0  0
  9 37  1  0  0  0  0
  9 10  1  0  0  0  0
 10 11  1  0  0  0  0
 10 16  1  0  0  0  0
 11 12  2  0  0  0  0
 12 13  1  0  0  0  0
 12 14  1  0  0  0  0
 13 24  1  0  0  0  0
 14 38  1  0  0  0  0
 14 15  2  0  0  0  0
 15 39  1  0  0  0  0
 15 16  1  0  0  0  0
 16 17  2  0  0  0  0
 18 23  1  0  0  0  0
 18 19  1  0  0  0  0
 18 48  1  0  0  0  0
 19 20  1  0  0  0  0
 19 40  1  0  0  0  0
 19 41  1  0  0  0  0
 20 21  1  0  0  0  0
 20 42  1  0  0  0  0
 20 43  1  0  0  0  0
 21 22  1  0  0  0  0
 22 23  1  0  0  0  0
 22 44  1  0  0  0  0
 22 45  1  0  0  0  0
 23 46  1  0  0  0  0
 23 47  1  0  0  0  0
M  CHG  1  18   1
M  END
> <s_m_source_file>
AV-unprocessed.smi

> <i_m_source_file_index>
1986

> <i_lp_mmshare_version>
43012

> <i_f3d_flags>
0

> <s_epik_input>
W0NIMl0xW0NIMl1PW0NIMl1bQ0gyXU4xW0NAQF0oW0NIM10pKFtDSDJdW0NIM10pW0NIMl1bTkhdQyg9TylbQ0gyXW4yW25IXWMoPU8pW2NIXVtjSF1jMj1P

> <s_epik_cmdline>
J2VwaWtfcHl0aG9uJywgJy1waCcsICc3LjAnLCAnLXRuJywgJzgnLCAnLW1hJywgJzIwMCcsICctbWV0YWxfYmluZGluZycsICctaW1hZScsICc8aW5maWxlLm1hZT4nLCAnLW9tYWUnLCAnPG91dGZpbGUubWFlPic=

> <r_lp_tautomer_probability>
0.9996

> <r_epik_Ionization_Penalty>
2.73198

> <r_epik_Ionization_Penalty_Charging>
0.519658

> <r_epik_Ionization_Penalty_Neutral>
2.21233

> <r_epik_State_Penalty>
2.2852

> <r_epik_Charging_Adjusted_Penalty>
2.80486

> <i_epik_Tot_Q>
1

> <i_epik_Tot_abs_Q>
1

> <r_epik_Metal_State_Penalty>
2.2852

> <b_epik_Metal_Only>
0

> <s_lp_Force_Field>
OPLS_2005

> <r_lp_Energy>
41.4304

> <b_lp_Chiralities_Consistent>
1

> <s_lp_Variant>
AV-unprocessed.smi:1986-8

> <Gold.Version>
5.8.1

> <Gold.Id.Protein>
6NUR|6NUR_protein|mol2

> <Gold.PLP.Fitness>
45.9536

> <Gold.PLP.PLP>
-34.2472

> <Gold.PLP.part.hbond>
-4.0000

> <Gold.PLP.part.metal>
0.0000

> <Gold.PLP.part.buried>
-4.1474

> <Gold.PLP.part.nonpolar>
-26.4321

> <Gold.PLP.part.repulsive>
0.2156

> <Gold.PLP.ligand.clash>
0.0000

> <Gold.PLP.ligand.torsion>
1.2477

> <Gold.PLP.Chemscore.Hbond>
4.6640

> <Gold.PLP.Chemscore.CHOScore>
0.0000

> <Gold.PLP.Chemscore.Metal>
0.0000

> <Gold.Chemscore.Hbonds>
donor molecule, donor type, donor heavy atom, donor atom, acceptor molecule, acceptor atom, score
      L1  H    18    48       P1  7948  2.00
      P1  H  6896  6908       L1     8  1.00
      P1  H  6931  6943       L1    17  0.86
      P1  H  6934  6947       L1    17  0.80

> <Gold.PLP.Chemscore.Internal.Correction>
0.2098

> <Gold.Rescore>
     Score         DG    S(hbond)    S(metal)    S(lipo)     H(rot)  DE(clash)    DE(int)     intcor
     15.23     -16.44       3.52        0.00      62.14       3.15       0.13       1.08       ----

> <Gold.Chemscore.Fitness>
15.2300

> <Gold.Chemscore.DG>
-16.4390

> <Gold.Chemscore.ZeroCoef>
-5.4800

> <Gold.Chemscore.Hbond>
3.5174

> <Gold.Chemscore.Metal>
0.0000

> <Gold.Chemscore.Lipo>
62.1448

> <Gold.Chemscore.Internal_Hbond>
0.0000

> <Gold.Chemscore.DEClash>
0.1300

> <Gold.Chemscore.DEInternal>
1.0790

> <Gold.Chemscore.Rot>
3.1485

> <Gold.Chemscore.Internal.Correction>
   9.000000E+99

> <Gold.Chemscore.Hbonds>
donor molecule, donor type, donor heavy atom, donor atom, acceptor molecule, acceptor atom, score
      L1  H    18    48       P1  7948  0.92
      P1  H  6896  6908       L1     8  0.47
      P1  H  6931  6943       L1    17  0.84
      P1  H  6934  6947       L1    17  0.78

> <Gold.Chemscore.Hbond.Weighted>
-11.7482

> <Gold.Chemscore.Metal.Weighted>
-0.0000

> <Gold.Chemscore.Lipo.Weighted>
-7.2709

> <Gold.Chemscore.Internal_Hbond.Weighted>
0.0000

> <Gold.Chemscore.DEClash.Weighted>
0.1300

> <Gold.Chemscore.DEInternal.Weighted>
1.0790

> <Gold.Chemscore.Rot.Weighted>
8.0601

> <Gold.Chemscore.Internal.Correction.Weighted>
   9.000000E+99

> <Gold.Protein.RotatedTorsions>
[ 6907 6896 6895 6894 ] final -170.83 input  -60.11 | X-H torsion
[ 7974 7965 7964 7962 ] final   49.61 input  175.53 | X-H torsion
[ 8008 7997 7996 7995 ] final -133.75 input   59.86 | X-H torsion
[ 10167 10162 10161 10158 ] final  -50.10 input  -65.29 | X-H torsion
[ 10718 10713 10712 10709 ] final -148.38 input   66.30 | X-H torsion
[ 10763 10752 10751 10750 ] final  151.30 input  -60.55 | X-H torsion
[ 11005 11000 10999 10996 ] final   59.51 input  -57.11 | X-H torsion

> <Gold.Protein.ActiveResidues>
 VAL166  LYS551  ARG553  GLY616  TRP617  ASP618  TYR619  PRO620  LYS621  CYS622 
 ASP623  PHE694  ASN695  SER759  ASP760  ASP761  ALA762  ILE779  LEU786  VAL792 
 PHE793  MET794  SER795  GLU796  ALA797  LYS798  CYS799  TRP800  GLU811  SER814 

> <Gold.Protein.RotatedAtoms>
  151.5140  133.3479  159.2889 H   0  0  0  0  0  0  0  0  0  0  0  0  # atno 6907 bound_to 6896
  150.8694  134.8067  159.7154 H   0  0  0  0  0  0  0  0  0  0  0  0  # atno 6908 bound_to 6896
  152.4687  134.5022  159.9780 H   0  0  0  0  0  0  0  0  0  0  0  0  # atno 6909 bound_to 6896
  146.0092  139.4524  142.9966 H   0  0  0  0  0  0  0  0  0  0  0  0  # atno 7974 bound_to 7965
  155.3507  140.0477  157.3046 H   0  0  0  0  0  0  0  0  0  0  0  0  # atno 8008 bound_to 7997
  154.5229  140.2231  155.8907 H   0  0  0  0  0  0  0  0  0  0  0  0  # atno 8009 bound_to 7997
  156.1708  140.3096  155.8977 H   0  0  0  0  0  0  0  0  0  0  0  0  # atno 8010 bound_to 7997
  140.6654  143.2671  151.4310 H   0  0  0  0  0  0  0  0  0  0  0  0  # atno 10167 bound_to 10162
  156.4195  130.8022  151.2244 H   0  0  0  0  0  0  0  0  0  0  0  0  # atno 10718 bound_to 10713
  154.1015  135.2845  155.3250 H   0  0  0  0  0  0  0  0  0  0  0  0  # atno 10763 bound_to 10752
  154.6552  135.5354  153.7953 H   0  0  0  0  0  0  0  0  0  0  0  0  # atno 10764 bound_to 10752
  153.0377  135.6520  154.1178 H   0  0  0  0  0  0  0  0  0  0  0  0  # atno 10765 bound_to 10752
  140.0299  134.6028  155.9521 H   0  0  0  0  0  0  0  0  0  0  0  0  # atno 11005 bound_to 11000
  145.7368  141.0022  143.1322 LP  0  0  0  0  0  0  0  0  0  0  0  0  # atno 17320 bound_to 7965
  144.6947  139.9051  143.7460 LP  0  0  0  0  0  0  0  0  0  0  0  0  # atno 17321 bound_to 7965
  139.5901  144.1518  152.2077 LP  0  0  0  0  0  0  0  0  0  0  0  0  # atno 17342 bound_to 10162
  140.0870  144.5653  150.7081 LP  0  0  0  0  0  0  0  0  0  0  0  0  # atno 17343 bound_to 10162
  157.7508  131.0232  150.3826 LP  0  0  0  0  0  0  0  0  0  0  0  0  # atno 17370 bound_to 10713
  156.4140  130.3940  149.6871 LP  0  0  0  0  0  0  0  0  0  0  0  0  # atno 17371 bound_to 10713
  141.1825  133.6549  156.5078 LP  0  0  0  0  0  0  0  0  0  0  0  0  # atno 17394 bound_to 11000
  140.4243  134.7159  157.4907 LP  0  0  0  0  0  0  0  0  0  0  0  0  # atno 17395 bound_to 11000

$$$$
