AV-unprocessed.smi:3264|AV-procd|sdf|12495|dock1
  -GOLD-   2272018393D 1   1.00000     0.00000
 Structure written by MMmdl.
 32 33  0  0  0  0  0  0  0  0  1 V2000
  153.1724  142.1179  161.7911 C   0  0  0  0  0  0  0  0  0  0  0  0
  152.6569  143.1044  160.7999 C   0  0  0  0  0  0  0  0  0  0  0  0
  152.4760  142.8276  159.5058 N   0  0  0  0  0  0  0  0  0  0  0  0
  151.9887  143.9220  158.7843 C   0  0  0  0  0  0  0  0  0  0  0  0
  151.7236  143.7923  157.3150 C   0  0  0  0  0  0  0  0  0  0  0  0
  151.2831  142.3746  156.9253 C   0  0  0  0  0  0  0  0  0  0  0  0
  150.1671  142.4253  155.9905 N   0  0  0  0  0  0  0  0  0  0  0  0
  149.8599  141.4582  155.1142 C   0  0  0  0  0  0  0  0  0  0  0  0
  150.5012  140.4117  155.0133 O   0  0  0  0  0  0  0  0  0  0  0  0
  148.6317  141.7145  154.2324 C   0  0  1  0  0  0  0  0  0  0  0  0
  148.1761  140.5072  153.3894 C   0  0  0  0  0  0  0  0  0  0  0  0
  146.8414  140.1248  153.9994 C   0  0  0  0  0  0  0  0  0  0  0  0
  146.3519  141.4574  154.5474 C   0  0  0  0  0  0  0  0  0  0  0  0
  147.5329  142.0305  155.0847 O   0  0  0  0  0  0  0  0  0  0  0  0
  151.7982  145.0392  159.5588 C   0  0  0  0  0  0  0  0  0  0  0  0
  152.2276  144.7570  161.2234 S   0  0  0  0  0  0  0  0  0  0  0  0
  153.3178  141.1430  161.3244 H   0  0  0  0  0  0  0  0  0  0  0  0
  152.4640  142.0101  162.6125 H   0  0  0  0  0  0  0  0  0  0  0  0
  154.1266  142.4589  162.1930 H   0  0  0  0  0  0  0  0  0  0  0  0
  150.9548  144.5052  157.0141 H   0  0  0  0  0  0  0  0  0  0  0  0
  152.6183  144.0635  156.7527 H   0  0  0  0  0  0  0  0  0  0  0  0
  152.1097  141.8342  156.4616 H   0  0  0  0  0  0  0  0  0  0  0  0
  150.9952  141.8192  157.8199 H   0  0  0  0  0  0  0  0  0  0  0  0
  149.5854  143.2504  156.0121 H   0  0  0  0  0  0  0  0  0  0  0  0
  148.8220  142.5635  153.5733 H   0  0  0  0  0  0  0  0  0  0  0  0
  148.0357  140.8184  152.3534 H   0  0  0  0  0  0  0  0  0  0  0  0
  148.8757  139.6704  153.3810 H   0  0  0  0  0  0  0  0  0  0  0  0
  146.1532  139.6787  153.2811 H   0  0  0  0  0  0  0  0  0  0  0  0
  146.9913  139.4187  154.8171 H   0  0  0  0  0  0  0  0  0  0  0  0
  145.9660  142.0921  153.7481 H   0  0  0  0  0  0  0  0  0  0  0  0
  145.5777  141.3442  155.3064 H   0  0  0  0  0  0  0  0  0  0  0  0
  151.4316  146.0077  159.2525 H   0  0  0  0  0  0  0  0  0  0  0  0
  1  2  1  0  0  0  0
  1 17  1  0  0  0  0
  1 18  1  0  0  0  0
  1 19  1  0  0  0  0
  2 16  1  0  0  0  0
  2  3  2  0  0  0  0
  3  4  1  0  0  0  0
  4  5  1  0  0  0  0
  4 15  2  0  0  0  0
  5  6  1  0  0  0  0
  5 20  1  0  0  0  0
  5 21  1  0  0  0  0
  6  7  1  0  0  0  0
  6 22  1  0  0  0  0
  6 23  1  0  0  0  0
  7  8  1  0  0  0  0
  7 24  1  0  0  0  0
  8  9  2  0  0  0  0
  8 10  1  0  0  0  0
 10 14  1  0  0  0  0
 10 11  1  0  0  0  0
 10 25  1  0  0  0  0
 11 12  1  0  0  0  0
 11 26  1  0  0  0  0
 11 27  1  0  0  0  0
 12 13  1  0  0  0  0
 12 28  1  0  0  0  0
 12 29  1  0  0  0  0
 13 14  1  0  0  0  0
 13 30  1  0  0  0  0
 13 31  1  0  0  0  0
 15 16  1  0  0  0  0
 15 32  1  0  0  0  0
M  END
> <s_m_source_file>
AV-unprocessed.smi

> <i_m_source_file_index>
3264

> <i_lp_mmshare_version>
43012

> <i_f3d_flags>
0

> <s_epik_input>
W0NIM11jMW5jKFtjSF1zMSlbQ0gyXVtDSDJdW05IXUMoPU8pW0NAQEhdMltDSDJdW0NIMl1bQ0gyXU8y

> <s_epik_cmdline>
J2VwaWtfcHl0aG9uJywgJy1waCcsICc3LjAnLCAnLXRuJywgJzgnLCAnLW1hJywgJzIwMCcsICctbWV0YWxfYmluZGluZycsICctaW1hZScsICc8aW5maWxlLm1hZT4nLCAnLW9tYWUnLCAnPG91dGZpbGUubWFlPic=

> <r_epik_Ionization_Penalty>
0.00112246

> <r_epik_Ionization_Penalty_Charging>
0

> <r_epik_Ionization_Penalty_Neutral>
0.00112246

> <r_epik_State_Penalty>
0.000737392

> <r_epik_Charging_Adjusted_Penalty>
0.000737392

> <i_epik_Tot_Q>
0

> <i_epik_Tot_abs_Q>
0

> <r_epik_Metal_State_Penalty>
-0

> <b_epik_Metal_Only>
0

> <s_lp_Force_Field>
OPLS_2005

> <r_lp_Energy>
13.6214

> <b_lp_Chiralities_Consistent>
1

> <s_lp_Variant>
AV-unprocessed.smi:3264-2

> <Gold.Version>
5.8.1

> <Gold.Id.Protein>
6NUR|6NUR_protein|mol2

> <Gold.PLP.Fitness>
41.9908

> <Gold.PLP.PLP>
-37.8755

> <Gold.PLP.part.hbond>
-2.0000

> <Gold.PLP.part.metal>
0.0000

> <Gold.PLP.part.buried>
-2.1975

> <Gold.PLP.part.nonpolar>
-33.1203

> <Gold.PLP.part.repulsive>
0.3217

> <Gold.PLP.ligand.clash>
0.0000

> <Gold.PLP.ligand.torsion>
0.9594

> <Gold.PLP.Chemscore.Hbond>
2.0000

> <Gold.PLP.Chemscore.CHOScore>
0.0000

> <Gold.PLP.Chemscore.Metal>
0.0000

> <Gold.Chemscore.Hbonds>
donor molecule, donor type, donor heavy atom, donor atom, acceptor molecule, acceptor atom, score
      L1  H     7    24       P1  8028  1.00
      P1  H  7989  7998       L1     9  0.95

> <Gold.PLP.Chemscore.Internal.Correction>
0.0341

> <Gold.Rescore>
     Score         DG    S(hbond)    S(metal)    S(lipo)     H(rot)  DE(clash)    DE(int)     intcor
     16.87     -19.24       1.55        0.00     106.41       1.52       1.55       0.82       ----

> <Gold.Chemscore.Fitness>
16.8697

> <Gold.Chemscore.DG>
-19.2430

> <Gold.Chemscore.ZeroCoef>
-5.4800

> <Gold.Chemscore.Hbond>
1.5549

> <Gold.Chemscore.Metal>
0.0000

> <Gold.Chemscore.Lipo>
106.4131

> <Gold.Chemscore.Internal_Hbond>
0.0000

> <Gold.Chemscore.DEClash>
1.5501

> <Gold.Chemscore.DEInternal>
0.8232

> <Gold.Chemscore.Rot>
1.5159

> <Gold.Chemscore.Internal.Correction>
   9.000000E+99

> <Gold.Chemscore.Hbonds>
donor molecule, donor type, donor heavy atom, donor atom, acceptor molecule, acceptor atom, score
      L1  H     7    24       P1  8028  1.00
      P1  H  7989  7998       L1     9  0.21

> <Gold.Chemscore.Hbond.Weighted>
-5.1934

> <Gold.Chemscore.Metal.Weighted>
-0.0000

> <Gold.Chemscore.Lipo.Weighted>
-12.4503

> <Gold.Chemscore.Internal_Hbond.Weighted>
0.0000

> <Gold.Chemscore.DEClash.Weighted>
1.5501

> <Gold.Chemscore.DEInternal.Weighted>
0.8232

> <Gold.Chemscore.Rot.Weighted>
3.8807

> <Gold.Chemscore.Internal.Correction.Weighted>
   9.000000E+99

> <Gold.Protein.RotatedTorsions>
[ 6907 6896 6895 6894 ] final   77.61 input  -60.11 | X-H torsion
[ 7974 7965 7964 7962 ] final  119.37 input  175.53 | X-H torsion
[ 8008 7997 7996 7995 ] final  -46.79 input   59.86 | X-H torsion
[ 10167 10162 10161 10158 ] final -127.49 input  -65.29 | X-H torsion
[ 10718 10713 10712 10709 ] final  -30.88 input   66.30 | X-H torsion
[ 10763 10752 10751 10750 ] final  -79.42 input  -60.55 | X-H torsion
[ 11005 11000 10999 10996 ] final  104.24 input  -57.11 | X-H torsion

> <Gold.Protein.ActiveResidues>
 VAL166  LYS551  ARG553  GLY616  TRP617  ASP618  TYR619  PRO620  LYS621  CYS622 
 ASP623  PHE694  ASN695  SER759  ASP760  ASP761  ALA762  ILE779  LEU786  VAL792 
 PHE793  MET794  SER795  GLU796  ALA797  LYS798  CYS799  TRP800  GLU811  SER814 

> <Gold.Protein.RotatedAtoms>
  152.5125  134.3791  159.9344 H   0  0  0  0  0  0  0  0  0  0  0  0  # atno 6907 bound_to 6896
  151.3747  133.3836  159.2711 H   0  0  0  0  0  0  0  0  0  0  0  0  # atno 6908 bound_to 6896
  150.9550  134.8965  159.7754 H   0  0  0  0  0  0  0  0  0  0  0  0  # atno 6909 bound_to 6896
  145.1440  139.3251  143.4601 H   0  0  0  0  0  0  0  0  0  0  0  0  # atno 7974 bound_to 7965
  154.4010  140.1363  156.4068 H   0  0  0  0  0  0  0  0  0  0  0  0  # atno 8008 bound_to 7997
  155.7771  140.3482  155.5257 H   0  0  0  0  0  0  0  0  0  0  0  0  # atno 8009 bound_to 7997
  155.8710  140.0972  157.1540 H   0  0  0  0  0  0  0  0  0  0  0  0  # atno 8010 bound_to 7997
  139.9603  143.5958  152.2447 H   0  0  0  0  0  0  0  0  0  0  0  0  # atno 10167 bound_to 10162
  156.3942  130.4378  149.7371 H   0  0  0  0  0  0  0  0  0  0  0  0  # atno 10718 bound_to 10713
  154.5384  135.5696  153.6818 H   0  0  0  0  0  0  0  0  0  0  0  0  # atno 10763 bound_to 10752
  152.9957  135.6221  154.2535 H   0  0  0  0  0  0  0  0  0  0  0  0  # atno 10764 bound_to 10752
  154.2465  135.2860  155.2813 H   0  0  0  0  0  0  0  0  0  0  0  0  # atno 10765 bound_to 10752
  139.8790  134.9293  156.5331 H   0  0  0  0  0  0  0  0  0  0  0  0  # atno 11005 bound_to 11000
  146.3502  140.1488  142.8593 LP  0  0  0  0  0  0  0  0  0  0  0  0  # atno 17320 bound_to 7965
  145.0502  140.9012  143.5000 LP  0  0  0  0  0  0  0  0  0  0  0  0  # atno 17321 bound_to 7965
  139.6559  144.7662  151.2056 LP  0  0  0  0  0  0  0  0  0  0  0  0  # atno 17342 bound_to 10162
  140.7555  143.6086  150.8628 LP  0  0  0  0  0  0  0  0  0  0  0  0  # atno 17343 bound_to 10162
  156.4413  130.7862  151.2883 LP  0  0  0  0  0  0  0  0  0  0  0  0  # atno 17370 bound_to 10713
  157.7501  131.0124  150.3383 LP  0  0  0  0  0  0  0  0  0  0  0  0  # atno 17371 bound_to 10713
  140.8366  133.8238  155.9034 LP  0  0  0  0  0  0  0  0  0  0  0  0  # atno 17394 bound_to 11000
  140.9278  134.2060  157.4884 LP  0  0  0  0  0  0  0  0  0  0  0  0  # atno 17395 bound_to 11000

$$$$
