AV-unprocessed.smi:203|AV-procd|sdf|1585|dock9
  -GOLD-   2262019483D 1   1.00000     0.00000
 Structure written by MMmdl.
 57 61  0  0  0  0  0  0  0  0  1 V2000
  150.8863  132.2665  158.3913 O   0  0  0  0  0  0  0  0  0  0  0  0
  149.7156  132.6342  158.3281 C   0  0  0  0  0  0  0  0  0  0  0  0
  149.2908  134.0917  158.3746 C   0  0  0  0  0  0  0  0  0  0  0  0
  147.7549  134.0187  158.4961 C   0  0  2  0  0  0  0  0  0  0  0  0
  147.1887  134.4939  159.8727 C   0  0  1  0  0  0  0  0  0  0  0  0
  147.1870  133.3712  160.9434 C   0  0  0  0  0  0  0  0  0  0  0  0
  146.6157  133.8633  162.2798 C   0  0  0  0  0  0  0  0  0  0  0  0
  147.3923  135.0951  162.7576 C   0  0  0  0  0  0  0  0  0  0  0  0
  147.3764  136.1885  161.6812 C   0  0  0  0  0  0  0  0  0  0  0  0
  147.8782  135.6842  160.4035 N   0  0  0  0  0  0  0  0  0  0  0  0
  148.0700  136.7039  159.5375 C   0  0  0  0  0  0  0  0  0  0  0  0
  146.9745  137.1992  158.9116 N   0  0  0  0  0  0  0  0  0  0  0  0
  147.0965  138.2319  158.0721 C   0  0  0  0  0  0  0  0  0  0  0  0
  148.1976  138.9052  157.7310 N   0  0  0  0  0  0  0  0  0  0  0  0
  149.3012  138.4008  158.3539 C   0  0  0  0  0  0  0  0  0  0  0  0
  149.3306  137.3006  159.2549 C   0  0  0  0  0  0  0  0  0  0  0  0
  150.6338  137.0652  159.6765 N   0  0  0  0  0  0  0  0  0  0  0  0
  151.3327  137.9882  159.0751 C   0  0  0  0  0  0  0  0  0  0  0  0
  150.6075  138.8516  158.2848 N   0  0  0  0  0  0  0  0  0  0  0  0
  151.1214  139.9844  157.5359 C   0  0  0  0  0  0  0  0  0  0  0  0
  150.3503  141.2991  157.8033 C   0  0  2  0  0  0  0  0  0  0  0  0
  149.2166  141.3341  156.9612 O   0  0  0  0  0  0  0  0  0  0  0  0
  151.1338  142.6246  157.6399 C   0  0  2  0  0  0  0  0  0  0  0  0
  152.3566  142.8181  158.5396 C   0  0  0  0  0  0  0  0  0  0  0  0
  152.5137  144.3222  158.5070 C   0  0  0  0  0  0  0  0  0  0  0  0
  151.0622  144.7965  158.5024 C   0  0  0  0  0  0  0  0  0  0  0  0
  150.3112  143.7678  157.8621 O   0  0  0  0  0  0  0  0  0  0  0  0
  147.3967  132.5551  158.1606 C   0  0  0  0  0  0  0  0  0  0  0  0
  148.6555  131.8377  158.2091 N   0  0  0  0  0  0  0  0  0  0  0  0
  149.7664  134.6197  159.2012 H   0  0  0  0  0  0  0  0  0  0  0  0
  149.5875  134.5816  157.4465 H   0  0  0  0  0  0  0  0  0  0  0  0
  147.3205  134.6272  157.7029 H   0  0  0  0  0  0  0  0  0  0  0  0
  146.1477  134.7764  159.7134 H   0  0  0  0  0  0  0  0  0  0  0  0
  146.6063  132.5129  160.6074 H   0  0  0  0  0  0  0  0  0  0  0  0
  148.2003  133.0059  161.1109 H   0  0  0  0  0  0  0  0  0  0  0  0
  145.5605  134.1132  162.1622 H   0  0  0  0  0  0  0  0  0  0  0  0
  146.6698  133.0710  163.0270 H   0  0  0  0  0  0  0  0  0  0  0  0
  146.9616  135.4752  163.6841 H   0  0  0  0  0  0  0  0  0  0  0  0
  148.4227  134.8168  162.9829 H   0  0  0  0  0  0  0  0  0  0  0  0
  146.3592  136.5599  161.5486 H   0  0  0  0  0  0  0  0  0  0  0  0
  147.9820  137.0334  162.0130 H   0  0  0  0  0  0  0  0  0  0  0  0
  146.1795  138.5735  157.6152 H   0  0  0  0  0  0  0  0  0  0  0  0
  152.4009  138.0769  159.2106 H   0  0  0  0  0  0  0  0  0  0  0  0
  152.1775  140.1067  157.7803 H   0  0  0  0  0  0  0  0  0  0  0  0
  151.0799  139.7355  156.4747 H   0  0  0  0  0  0  0  0  0  0  0  0
  149.9669  141.2697  158.8236 H   0  0  0  0  0  0  0  0  0  0  0  0
  148.9221  140.4480  156.8165 H   0  0  0  0  0  0  0  0  0  0  0  0
  151.4632  142.7062  156.6023 H   0  0  0  0  0  0  0  0  0  0  0  0
  152.1625  142.4942  159.5612 H   0  0  0  0  0  0  0  0  0  0  0  0
  153.2383  142.2892  158.1766 H   0  0  0  0  0  0  0  0  0  0  0  0
  153.0866  144.7125  159.3487 H   0  0  0  0  0  0  0  0  0  0  0  0
  153.0106  144.6260  157.5846 H   0  0  0  0  0  0  0  0  0  0  0  0
  150.6958  144.9087  159.5230 H   0  0  0  0  0  0  0  0  0  0  0  0
  150.9397  145.7535  157.9944 H   0  0  0  0  0  0  0  0  0  0  0  0
  146.6655  132.1220  158.8433 H   0  0  0  0  0  0  0  0  0  0  0  0
  146.9891  132.4767  157.1519 H   0  0  0  0  0  0  0  0  0  0  0  0
  148.7094  130.8305  158.1583 H   0  0  0  0  0  0  0  0  0  0  0  0
  1  2  2  0  0  0  0
  2 29  1  0  0  0  0
  2  3  1  0  0  0  0
  3  4  1  0  0  0  0
  3 30  1  0  0  0  0
  3 31  1  0  0  0  0
  4  5  1  0  0  0  0
  4 28  1  0  0  0  0
  4 32  1  0  0  0  0
  5 10  1  0  0  0  0
  5  6  1  0  0  0  0
  5 33  1  0  0  0  0
  6  7  1  0  0  0  0
  6 34  1  0  0  0  0
  6 35  1  0  0  0  0
  7  8  1  0  0  0  0
  7 36  1  0  0  0  0
  7 37  1  0  0  0  0
  8  9  1  0  0  0  0
  8 38  1  0  0  0  0
  8 39  1  0  0  0  0
  9 10  1  0  0  0  0
  9 40  1  0  0  0  0
  9 41  1  0  0  0  0
 10 11  1  0  0  0  0
 11 16  1  0  0  0  0
 11 12  2  0  0  0  0
 12 13  1  0  0  0  0
 13 14  2  0  0  0  0
 13 42  1  0  0  0  0
 14 15  1  0  0  0  0
 15 19  1  0  0  0  0
 15 16  2  0  0  0  0
 16 17  1  0  0  0  0
 17 18  2  0  0  0  0
 18 19  1  0  0  0  0
 18 43  1  0  0  0  0
 19 20  1  0  0  0  0
 20 21  1  0  0  0  0
 20 44  1  0  0  0  0
 20 45  1  0  0  0  0
 21 22  1  0  0  0  0
 21 23  1  0  0  0  0
 21 46  1  0  0  0  0
 22 47  1  0  0  0  0
 23 27  1  0  0  0  0
 23 24  1  0  0  0  0
 23 48  1  0  0  0  0
 24 25  1  0  0  0  0
 24 49  1  0  0  0  0
 24 50  1  0  0  0  0
 25 26  1  0  0  0  0
 25 51  1  0  0  0  0
 25 52  1  0  0  0  0
 26 27  1  0  0  0  0
 26 53  1  0  0  0  0
 26 54  1  0  0  0  0
 28 29  1  0  0  0  0
 28 55  1  0  0  0  0
 28 56  1  0  0  0  0
 29 57  1  0  0  0  0
M  END
> <s_m_source_file>
AV-unprocessed.smi

> <i_m_source_file_index>
203

> <i_lp_mmshare_version>
43012

> <i_f3d_flags>
0

> <s_epik_input>
Tz1DMVtDSDJdW0NASF0oW0NIMl1bTkhdMSlbQ0BASF0yW0NIMl1bQ0gyXVtDSDJdW0NIMl1OMmMobltjSF1uMyljKGMzNCluW2NIXW40W0NIMl1bQ0BIXShbT0hdKVtDQEBIXTVbQ0gyXVtDSDJdW0NIMl1PNQ==

> <s_epik_cmdline>
J2VwaWtfcHl0aG9uJywgJy1waCcsICc3LjAnLCAnLXRuJywgJzgnLCAnLW1hJywgJzIwMCcsICctbWV0YWxfYmluZGluZycsICctaW1hZScsICc8aW5maWxlLm1hZT4nLCAnLW9tYWUnLCAnPG91dGZpbGUubWFlPic=

> <r_lp_tautomer_probability>
1

> <r_epik_Ionization_Penalty>
0.00175146

> <r_epik_Ionization_Penalty_Charging>
0

> <r_epik_Ionization_Penalty_Neutral>
0.00175146

> <r_epik_State_Penalty>
0.00109045

> <r_epik_Charging_Adjusted_Penalty>
0.00109045

> <i_epik_Tot_Q>
0

> <i_epik_Tot_abs_Q>
0

> <r_epik_Metal_State_Penalty>
-0

> <b_epik_Metal_Only>
0

> <s_lp_Force_Field>
OPLS_2005

> <r_lp_Energy>
55.4262

> <b_lp_Chiralities_Consistent>
1

> <s_lp_Variant>
AV-unprocessed.smi:203-4

> <Gold.Version>
5.8.1

> <Gold.Id.Protein>
6NUR|6NUR_protein|mol2

> <Gold.PLP.Fitness>
44.7529

> <Gold.PLP.PLP>
-40.7697

> <Gold.PLP.part.hbond>
-2.6015

> <Gold.PLP.part.metal>
0.0000

> <Gold.PLP.part.buried>
-4.8748

> <Gold.PLP.part.nonpolar>
-34.7326

> <Gold.PLP.part.repulsive>
0.2425

> <Gold.PLP.ligand.clash>
0.0000

> <Gold.PLP.ligand.torsion>
1.1366

> <Gold.PLP.Chemscore.Hbond>
2.0007

> <Gold.PLP.Chemscore.CHOScore>
0.0000

> <Gold.PLP.Chemscore.Metal>
0.0000

> <Gold.Chemscore.Hbonds>
donor molecule, donor type, donor heavy atom, donor atom, acceptor molecule, acceptor atom, score
      P1  H  6896  6907       L1     1  0.35
      P1  H  6896  6908       L1    17  0.94

> <Gold.PLP.Chemscore.Internal.Correction>
0.2544

> <Gold.Rescore>
     Score         DG    S(hbond)    S(metal)    S(lipo)     H(rot)  DE(clash)    DE(int)     intcor
     14.63     -15.58       1.71        0.00      96.98       2.72       0.04       0.91       ----

> <Gold.Chemscore.Fitness>
14.6315

> <Gold.Chemscore.DG>
-15.5772

> <Gold.Chemscore.ZeroCoef>
-5.4800

> <Gold.Chemscore.Hbond>
1.7085

> <Gold.Chemscore.Metal>
0.0000

> <Gold.Chemscore.Lipo>
96.9770

> <Gold.Chemscore.Internal_Hbond>
0.0000

> <Gold.Chemscore.DEClash>
0.0396

> <Gold.Chemscore.DEInternal>
0.9061

> <Gold.Chemscore.Rot>
2.7171

> <Gold.Chemscore.Internal.Correction>
   9.000000E+99

> <Gold.Chemscore.Hbonds>
donor molecule, donor type, donor heavy atom, donor atom, acceptor molecule, acceptor atom, score
      P1  H  6896  6907       L1     1  0.01
      P1  H  6896  6908       L1    17  0.79

> <Gold.Chemscore.Hbond.Weighted>
-5.7066

> <Gold.Chemscore.Metal.Weighted>
-0.0000

> <Gold.Chemscore.Lipo.Weighted>
-11.3463

> <Gold.Chemscore.Internal_Hbond.Weighted>
0.0000

> <Gold.Chemscore.DEClash.Weighted>
0.0396

> <Gold.Chemscore.DEInternal.Weighted>
0.9061

> <Gold.Chemscore.Rot.Weighted>
6.9557

> <Gold.Chemscore.Internal.Correction.Weighted>
   9.000000E+99

> <Gold.Protein.RotatedTorsions>
[ 6907 6896 6895 6894 ] final -149.19 input  -60.11 | X-H torsion
[ 7974 7965 7964 7962 ] final -166.44 input  175.53 | X-H torsion
[ 8008 7997 7996 7995 ] final  139.79 input   59.86 | X-H torsion
[ 10167 10162 10161 10158 ] final -144.94 input  -65.29 | X-H torsion
[ 10718 10713 10712 10709 ] final   85.39 input   66.30 | X-H torsion
[ 10763 10752 10751 10750 ] final  145.78 input  -60.55 | X-H torsion
[ 11005 11000 10999 10996 ] final  -68.57 input  -57.11 | X-H torsion

> <Gold.Protein.ActiveResidues>
 VAL166  LYS551  ARG553  GLY616  TRP617  ASP618  TYR619  PRO620  LYS621  CYS622 
 ASP623  PHE694  ASN695  SER759  ASP760  ASP761  ALA762  ILE779  LEU786  VAL792 
 PHE793  MET794  SER795  GLU796  ALA797  LYS798  CYS799  TRP800  GLU811  SER814 

> <Gold.Protein.RotatedAtoms>
  151.1806  133.4727  159.2593 H   0  0  0  0  0  0  0  0  0  0  0  0  # atno 6907 bound_to 6896
  151.1263  135.0106  159.8572 H   0  0  0  0  0  0  0  0  0  0  0  0  # atno 6908 bound_to 6896
  152.5458  134.1713  159.8651 H   0  0  0  0  0  0  0  0  0  0  0  0  # atno 6909 bound_to 6896
  144.7245  140.2665  143.6257 H   0  0  0  0  0  0  0  0  0  0  0  0  # atno 7974 bound_to 7965
  156.2986  140.2358  156.4295 H   0  0  0  0  0  0  0  0  0  0  0  0  # atno 8008 bound_to 7997
  154.8283  140.0434  157.1479 H   0  0  0  0  0  0  0  0  0  0  0  0  # atno 8009 bound_to 7997
  154.9237  140.3007  155.5207 H   0  0  0  0  0  0  0  0  0  0  0  0  # atno 8010 bound_to 7997
  139.7852  143.8044  152.2644 H   0  0  0  0  0  0  0  0  0  0  0  0  # atno 10167 bound_to 10162
  157.6914  131.0173  150.2816 H   0  0  0  0  0  0  0  0  0  0  0  0  # atno 10718 bound_to 10713
  154.0110  135.2914  155.3392 H   0  0  0  0  0  0  0  0  0  0  0  0  # atno 10763 bound_to 10752
  154.7103  135.5152  153.8659 H   0  0  0  0  0  0  0  0  0  0  0  0  # atno 10764 bound_to 10752
  153.0723  135.6652  154.0342 H   0  0  0  0  0  0  0  0  0  0  0  0  # atno 10765 bound_to 10752
  141.1535  133.6744  156.6466 H   0  0  0  0  0  0  0  0  0  0  0  0  # atno 11005 bound_to 11000
  145.8084  139.1993  143.2007 LP  0  0  0  0  0  0  0  0  0  0  0  0  # atno 17320 bound_to 7965
  146.0617  140.7964  142.9732 LP  0  0  0  0  0  0  0  0  0  0  0  0  # atno 17321 bound_to 7965
  139.8118  144.7332  150.9687 LP  0  0  0  0  0  0  0  0  0  0  0  0  # atno 17342 bound_to 10162
  140.7819  143.4243  151.0793 LP  0  0  0  0  0  0  0  0  0  0  0  0  # atno 17343 bound_to 10162
  156.3361  130.3808  149.7449 LP  0  0  0  0  0  0  0  0  0  0  0  0  # atno 17370 bound_to 10713
  156.4972  130.8112  151.3118 LP  0  0  0  0  0  0  0  0  0  0  0  0  # atno 17371 bound_to 10713
  140.3352  134.7895  157.4356 LP  0  0  0  0  0  0  0  0  0  0  0  0  # atno 17394 bound_to 11000
  140.0983  134.5507  155.8377 LP  0  0  0  0  0  0  0  0  0  0  0  0  # atno 17395 bound_to 11000

$$$$
