AV-unprocessed.smi:1047|AV-procd|sdf|4583|dock7
  -GOLD-   22720 3 53D 1   1.00000     0.00000
 Structure written by MMmdl.
 58 60  0  0  0  0  0  0  0  0  4 V2000
  149.8461  130.3470  153.4571 C   0  0  0  0  0  0  0  0  0  0  0  0
  149.5519  131.8507  153.3575 C   0  0  0  0  0  0  0  0  0  0  0  0
  150.5070  132.6739  154.1414 N   0  3  2  0  0  0  0  0  0  0  0  0
  150.7191  132.1790  155.5238 C   0  0  0  0  0  0  0  0  0  0  0  0
  151.7345  133.0657  156.2616 C   0  0  0  0  0  0  0  0  0  0  0  0
  151.2808  134.4132  156.2545 O   0  0  0  0  0  0  0  0  0  0  0  0
  151.1699  134.9434  154.9388 C   0  0  2  0  0  0  0  0  0  0  0  0
  150.7697  136.4221  155.0760 C   0  0  0  0  0  0  0  0  0  0  0  0
  150.9677  137.1712  153.8176 N   0  3  0  0  0  0  0  0  0  0  0  0
  151.0849  138.6314  154.0064 C   0  0  0  0  0  0  0  0  0  0  0  0
  152.4562  139.0253  154.5835 C   0  0  2  0  0  0  0  0  0  0  0  0
  153.3098  137.9060  154.4619 O   0  0  0  0  0  0  0  0  0  0  0  0
  152.3816  139.4672  156.0605 C   0  0  0  0  0  0  0  0  0  0  0  0
  151.6856  140.7502  156.2429 N   0  0  0  0  0  0  0  0  0  0  0  0
  150.7611  141.3589  155.4504 C   0  0  0  0  0  0  0  0  0  0  0  0
  150.4064  142.5269  156.0537 N   0  3  0  0  0  0  0  0  0  0  0  0
  151.1133  142.6677  157.2496 C   0  0  0  0  0  0  0  0  0  0  0  0
  151.0935  143.6778  158.2040 C   0  0  0  0  0  0  0  0  0  0  0  0
  151.9439  143.5254  159.3223 C   0  0  0  0  0  0  0  0  0  0  0  0
  151.9471  144.6115  160.3847 C   0  0  0  0  0  0  0  0  0  0  0  0
  152.7794  142.3861  159.4537 C   0  0  0  0  0  0  0  0  0  0  0  0
  153.6931  142.2341  160.6581 C   0  0  0  0  0  0  0  0  0  0  0  0
  152.7842  141.3693  158.4722 C   0  0  0  0  0  0  0  0  0  0  0  0
  151.9380  141.5330  157.3774 C   0  0  0  0  0  0  0  0  0  0  0  0
  150.1311  134.1092  154.1576 C   0  0  0  0  0  0  0  0  0  0  0  0
  149.1864  129.7839  152.7965 H   0  0  0  0  0  0  0  0  0  0  0  0
  149.6905  129.9651  154.4660 H   0  0  0  0  0  0  0  0  0  0  0  0
  150.8728  130.1238  153.1650 H   0  0  0  0  0  0  0  0  0  0  0  0
  149.6181  132.1344  152.3062 H   0  0  0  0  0  0  0  0  0  0  0  0
  148.5285  132.0625  153.6710 H   0  0  0  0  0  0  0  0  0  0  0  0
  149.7698  132.1736  156.0620 H   0  0  0  0  0  0  0  0  0  0  0  0
  151.0851  131.1528  155.5112 H   0  0  0  0  0  0  0  0  0  0  0  0
  151.8411  132.7345  157.2948 H   0  0  0  0  0  0  0  0  0  0  0  0
  152.7217  132.9966  155.8017 H   0  0  0  0  0  0  0  0  0  0  0  0
  152.1451  134.8816  154.4516 H   0  0  0  0  0  0  0  0  0  0  0  0
  149.7311  136.5063  155.3991 H   0  0  0  0  0  0  0  0  0  0  0  0
  151.3803  136.8904  155.8494 H   0  0  0  0  0  0  0  0  0  0  0  0
  151.8117  136.8396  153.3726 H   0  0  0  0  0  0  0  0  0  0  0  0
  150.9110  139.1415  153.0576 H   0  0  0  0  0  0  0  0  0  0  0  0
  150.2940  138.9498  154.6876 H   0  0  0  0  0  0  0  0  0  0  0  0
  152.8871  139.8275  153.9827 H   0  0  0  0  0  0  0  0  0  0  0  0
  153.9867  137.9688  155.1189 H   0  0  0  0  0  0  0  0  0  0  0  0
  151.8366  138.7253  156.6453 H   0  0  0  0  0  0  0  0  0  0  0  0
  153.3749  139.5309  156.5051 H   0  0  0  0  0  0  0  0  0  0  0  0
  150.3746  140.9843  154.5134 H   0  0  0  0  0  0  0  0  0  0  0  0
  150.4556  144.5433  158.0965 H   0  0  0  0  0  0  0  0  0  0  0  0
  151.6433  144.2046  161.3494 H   0  0  0  0  0  0  0  0  0  0  0  0
  151.2589  145.4189  160.1325 H   0  0  0  0  0  0  0  0  0  0  0  0
  152.9427  145.0436  160.4880 H   0  0  0  0  0  0  0  0  0  0  0  0
  154.2552  141.3007  160.6177 H   0  0  0  0  0  0  0  0  0  0  0  0
  153.1138  142.2333  161.5817 H   0  0  0  0  0  0  0  0  0  0  0  0
  154.4111  143.0536  160.6997 H   0  0  0  0  0  0  0  0  0  0  0  0
  153.4253  140.5064  158.5740 H   0  0  0  0  0  0  0  0  0  0  0  0
  150.0560  134.4767  153.1334 H   0  0  0  0  0  0  0  0  0  0  0  0
  149.1436  134.2177  154.6094 H   0  0  0  0  0  0  0  0  0  0  0  0
  150.1840  136.9915  153.2066 H   0  0  0  0  0  0  0  0  0  0  0  0
  151.3967  132.6139  153.6666 H   0  0  0  0  0  0  0  0  0  0  0  0
  149.7292  143.1777  155.6762 H   0  0  0  0  0  0  0  0  0  0  0  0
  1  2  1  0  0  0  0
  1 26  1  0  0  0  0
  1 27  1  0  0  0  0
  1 28  1  0  0  0  0
  2  3  1  0  0  0  0
  2 29  1  0  0  0  0
  2 30  1  0  0  0  0
  3 25  1  0  0  0  0
  3  4  1  0  0  0  0
  3 57  1  0  0  0  0
  4  5  1  0  0  0  0
  4 31  1  0  0  0  0
  4 32  1  0  0  0  0
  5  6  1  0  0  0  0
  5 33  1  0  0  0  0
  5 34  1  0  0  0  0
  6  7  1  0  0  0  0
  7  8  1  0  0  0  0
  7 25  1  0  0  0  0
  7 35  1  0  0  0  0
  8  9  1  0  0  0  0
  8 36  1  0  0  0  0
  8 37  1  0  0  0  0
  9 10  1  0  0  0  0
  9 38  1  0  0  0  0
  9 56  1  0  0  0  0
 10 11  1  0  0  0  0
 10 39  1  0  0  0  0
 10 40  1  0  0  0  0
 11 12  1  0  0  0  0
 11 13  1  0  0  0  0
 11 41  1  0  0  0  0
 12 42  1  0  0  0  0
 13 14  1  0  0  0  0
 13 43  1  0  0  0  0
 13 44  1  0  0  0  0
 14 24  1  0  0  0  0
 14 15  1  0  0  0  0
 15 16  2  0  0  0  0
 15 45  1  0  0  0  0
 16 17  1  0  0  0  0
 16 58  1  0  0  0  0
 17 24  2  0  0  0  0
 17 18  1  0  0  0  0
 18 19  2  0  0  0  0
 18 46  1  0  0  0  0
 19 20  1  0  0  0  0
 19 21  1  0  0  0  0
 20 47  1  0  0  0  0
 20 48  1  0  0  0  0
 20 49  1  0  0  0  0
 21 22  1  0  0  0  0
 21 23  2  0  0  0  0
 22 50  1  0  0  0  0
 22 51  1  0  0  0  0
 22 52  1  0  0  0  0
 23 24  1  0  0  0  0
 23 53  1  0  0  0  0
 25 54  1  0  0  0  0
 25 55  1  0  0  0  0
M  CHG  1   3   1
M  CHG  1   9   1
M  CHG  1  16   1
M  END
> <s_m_source_file>
AV-unprocessed.smi

> <i_m_source_file_index>
1047

> <i_lp_mmshare_version>
43012

> <i_f3d_flags>
0

> <s_epik_input>
W0NIM11bQ0gyXU4xW0NIMl1bQ0gyXU9bQ0BIXShbQ0gyXTEpW0NIMl1bTkhdW0NIMl1bQ0BIXShbT0hdKVtDSDJdbihbY0hdbjIpYyhjMjMpW2NIXWMoW0NIM10pYyhbY0hdMylbQ0gzXQ==

> <s_epik_cmdline>
J2VwaWtfcHl0aG9uJywgJy1waCcsICc3LjAnLCAnLXRuJywgJzgnLCAnLW1hJywgJzIwMCcsICctbWV0YWxfYmluZGluZycsICctaW1hZScsICc8aW5maWxlLm1hZT4nLCAnLW9tYWUnLCAnPG91dGZpbGUubWFlPic=

> <r_epik_Ionization_Penalty>
1.6114

> <r_epik_Ionization_Penalty_Charging>
1.61139

> <r_epik_Ionization_Penalty_Neutral>
5.04732e-06

> <r_epik_State_Penalty>
1.63724

> <r_epik_Charging_Adjusted_Penalty>
3.24864

> <i_epik_Tot_Q>
3

> <i_epik_Tot_abs_Q>
3

> <r_epik_Metal_State_Penalty>
5.64594

> <b_epik_Metal_Only>
0

> <s_lp_Force_Field>
OPLS_2005

> <r_lp_Energy>
40.251

> <b_lp_Chiralities_Consistent>
1

> <s_lp_Variant>
AV-unprocessed.smi:1047-24

> <Gold.Version>
5.8.1

> <Gold.Id.Protein>
6NUR|6NUR_protein|mol2

> <Gold.PLP.Fitness>
67.3924

> <Gold.PLP.PLP>
-56.1200

> <Gold.PLP.part.hbond>
-4.0000

> <Gold.PLP.part.metal>
0.0000

> <Gold.PLP.part.buried>
-7.1125

> <Gold.PLP.part.nonpolar>
-45.3784

> <Gold.PLP.part.repulsive>
0.1783

> <Gold.PLP.ligand.clash>
0.0000

> <Gold.PLP.ligand.torsion>
1.3651

> <Gold.PLP.Chemscore.Hbond>
4.6301

> <Gold.PLP.Chemscore.CHOScore>
0.0000

> <Gold.PLP.Chemscore.Metal>
0.0000

> <Gold.Chemscore.Hbonds>
donor molecule, donor type, donor heavy atom, donor atom, acceptor molecule, acceptor atom, score
      L1  H     9    38       P1  7949  0.15
      L1  H     9    56       P1  7948  1.30
      L1  H    16    58       P1  8028  2.00
      P1  H 10752 10765       L1    12  0.09

> <Gold.PLP.Chemscore.Internal.Correction>
0.1123

> <Gold.Rescore>
     Score         DG    S(hbond)    S(metal)    S(lipo)     H(rot)  DE(clash)    DE(int)     intcor
     18.53     -20.17       1.85        0.00     133.62       2.78       0.01       1.62       ----

> <Gold.Chemscore.Fitness>
18.5305

> <Gold.Chemscore.DG>
-20.1656

> <Gold.Chemscore.ZeroCoef>
-5.4800

> <Gold.Chemscore.Hbond>
1.8508

> <Gold.Chemscore.Metal>
0.0000

> <Gold.Chemscore.Lipo>
133.6162

> <Gold.Chemscore.Internal_Hbond>
0.0000

> <Gold.Chemscore.DEClash>
0.0104

> <Gold.Chemscore.DEInternal>
1.6247

> <Gold.Chemscore.Rot>
2.7848

> <Gold.Chemscore.Internal.Correction>
   9.000000E+99

> <Gold.Chemscore.Hbonds>
donor molecule, donor type, donor heavy atom, donor atom, acceptor molecule, acceptor atom, score
      L1  H     9    38       P1  7949  0.09
      L1  H     9    56       P1  7948  0.06
      L1  H    16    58       P1  8028  0.97
      P1  H 10752 10765       L1    12  0.04

> <Gold.Chemscore.Hbond.Weighted>
-6.1816

> <Gold.Chemscore.Metal.Weighted>
-0.0000

> <Gold.Chemscore.Lipo.Weighted>
-15.6331

> <Gold.Chemscore.Internal_Hbond.Weighted>
0.0000

> <Gold.Chemscore.DEClash.Weighted>
0.0104

> <Gold.Chemscore.DEInternal.Weighted>
1.6247

> <Gold.Chemscore.Rot.Weighted>
7.1291

> <Gold.Chemscore.Internal.Correction.Weighted>
   9.000000E+99

> <Gold.Protein.RotatedTorsions>
[ 6907 6896 6895 6894 ] final   49.89 input  -60.11 | X-H torsion
[ 7974 7965 7964 7962 ] final -178.01 input  175.53 | X-H torsion
[ 8008 7997 7996 7995 ] final   19.51 input   59.86 | X-H torsion
[ 10167 10162 10161 10158 ] final  125.85 input  -65.29 | X-H torsion
[ 10718 10713 10712 10709 ] final  175.82 input   66.30 | X-H torsion
[ 10763 10752 10751 10750 ] final  159.44 input  -60.55 | X-H torsion
[ 11005 11000 10999 10996 ] final -142.66 input  -57.11 | X-H torsion

> <Gold.Protein.ActiveResidues>
 VAL166  LYS551  ARG553  GLY616  TRP617  ASP618  TYR619  PRO620  LYS621  CYS622 
 ASP623  PHE694  ASN695  SER759  ASP760  ASP761  ALA762  ILE779  LEU786  VAL792 
 PHE793  MET794  SER795  GLU796  ALA797  LYS798  CYS799  TRP800  GLU811  SER814 

> <Gold.Protein.RotatedAtoms>
  152.2958  134.7669  160.0368 H   0  0  0  0  0  0  0  0  0  0  0  0  # atno 6907 bound_to 6896
  151.8199  133.3388  159.3589 H   0  0  0  0  0  0  0  0  0  0  0  0  # atno 6908 bound_to 6896
  150.7250  134.5512  159.5840 H   0  0  0  0  0  0  0  0  0  0  0  0  # atno 6909 bound_to 6896
  144.7129  140.0933  143.6420 H   0  0  0  0  0  0  0  0  0  0  0  0  # atno 7974 bound_to 7965
  154.9219  140.3028  155.5212 H   0  0  0  0  0  0  0  0  0  0  0  0  # atno 8008 bound_to 7997
  156.3009  140.2370  156.4206 H   0  0  0  0  0  0  0  0  0  0  0  0  # atno 8009 bound_to 7997
  154.8322  140.0418  157.1474 H   0  0  0  0  0  0  0  0  0  0  0  0  # atno 8010 bound_to 7997
  139.5663  144.6913  151.3902 H   0  0  0  0  0  0  0  0  0  0  0  0  # atno 10167 bound_to 10162
  156.9293  130.9966  151.2990 H   0  0  0  0  0  0  0  0  0  0  0  0  # atno 10718 bound_to 10713
  154.2318  135.2778  155.2887 H   0  0  0  0  0  0  0  0  0  0  0  0  # atno 10763 bound_to 10752
  154.5618  135.5645  153.7017 H   0  0  0  0  0  0  0  0  0  0  0  0  # atno 10764 bound_to 10752
  153.0018  135.6299  154.2460 H   0  0  0  0  0  0  0  0  0  0  0  0  # atno 10765 bound_to 10752
  140.8203  134.2639  157.4903 H   0  0  0  0  0  0  0  0  0  0  0  0  # atno 11005 bound_to 11000
  145.9601  139.2794  143.1160 LP  0  0  0  0  0  0  0  0  0  0  0  0  # atno 17320 bound_to 7965
  145.9230  140.9102  143.0395 LP  0  0  0  0  0  0  0  0  0  0  0  0  # atno 17321 bound_to 7965
  140.6946  143.7780  150.7307 LP  0  0  0  0  0  0  0  0  0  0  0  0  # atno 17342 bound_to 10162
  140.1272  143.4558  152.2277 LP  0  0  0  0  0  0  0  0  0  0  0  0  # atno 17343 bound_to 10162
  157.5857  130.8408  149.8586 LP  0  0  0  0  0  0  0  0  0  0  0  0  # atno 17370 bound_to 10713
  156.0455  130.3729  150.1329 LP  0  0  0  0  0  0  0  0  0  0  0  0  # atno 17371 bound_to 10713
  139.8709  134.9531  156.4136 LP  0  0  0  0  0  0  0  0  0  0  0  0  # atno 17394 bound_to 11000
  140.9106  133.7714  155.9787 LP  0  0  0  0  0  0  0  0  0  0  0  0  # atno 17395 bound_to 11000

$$$$
