AV-unprocessed.smi:544|AV-procd|sdf|2879|dock3
  -GOLD-   2262023373D 1   1.00000     0.00000
 Structure written by MMmdl.
 48 50  0  0  0  0  0  0  0  0  2 V2000
  155.5747  136.8970  163.9019 C   0  0  0  0  0  0  0  0  0  0  0  0
  154.5010  136.9625  162.8135 C   0  0  0  0  0  0  0  0  0  0  0  0
  155.0514  137.5790  161.6620 O   0  0  0  0  0  0  0  0  0  0  0  0
  154.0893  137.7932  160.6432 C   0  0  0  0  0  0  0  0  0  0  0  0
  154.5412  138.9839  159.7813 C   0  0  0  0  0  0  0  0  0  0  0  0
  153.5152  139.4072  158.8317 N   0  0  0  0  0  0  0  0  0  0  0  0
  152.8213  140.5823  158.7809 C   0  0  0  0  0  0  0  0  0  0  0  0
  153.0151  141.6424  159.6786 N   0  0  0  0  0  0  0  0  0  0  0  0
  153.7453  141.6188  160.9489 C   0  0  0  0  0  0  0  0  0  0  0  0
  152.9265  142.2329  162.0983 C   0  0  0  0  0  0  0  0  0  0  0  0
  152.5299  143.6757  161.7642 C   0  0  0  0  0  0  0  0  0  0  0  0
  151.8457  143.7289  160.3885 C   0  0  1  0  0  0  0  0  0  0  0  0
  151.5099  145.1700  159.9826 C   0  0  0  0  0  0  0  0  0  0  0  0
  152.7328  143.0379  159.3327 C   0  0  0  0  0  0  0  0  0  0  0  0
  151.9022  140.6305  157.8127 N   0  0  0  0  0  0  0  0  0  0  0  0
  152.0262  139.4016  157.1876 C   0  0  0  0  0  0  0  0  0  0  0  0
  152.9806  138.6424  157.7873 C   0  0  0  0  0  0  0  0  0  0  0  0
  153.3148  137.2629  157.3645 C   0  0  0  0  0  0  0  0  0  0  0  0
  154.1675  136.6043  157.9562 O   0  0  0  0  0  0  0  0  0  0  0  0
  152.5731  136.8572  156.2855 N   0  5  0  0  0  0  0  0  0  0  0  0
  151.6045  137.5981  155.6435 C   0  0  0  0  0  0  0  0  0  0  0  0
  150.9823  137.1564  154.6765 O   0  0  0  0  0  0  0  0  0  0  0  0
  151.3142  138.8631  156.0814 N   0  0  0  0  0  0  0  0  0  0  0  0
  150.2858  139.6726  155.4215 C   0  0  0  0  0  0  0  0  0  0  0  0
  155.1844  136.4284  164.8053 H   0  0  0  0  0  0  0  0  0  0  0  0
  155.9250  137.8948  164.1665 H   0  0  0  0  0  0  0  0  0  0  0  0
  156.4350  136.3164  163.5680 H   0  0  0  0  0  0  0  0  0  0  0  0
  154.1540  135.9566  162.5730 H   0  0  0  0  0  0  0  0  0  0  0  0
  153.6423  137.5322  163.1716 H   0  0  0  0  0  0  0  0  0  0  0  0
  153.9827  136.8926  160.0390 H   0  0  0  0  0  0  0  0  0  0  0  0
  153.1143  137.9886  161.0891 H   0  0  0  0  0  0  0  0  0  0  0  0
  154.8039  139.8302  160.4154 H   0  0  0  0  0  0  0  0  0  0  0  0
  155.4574  138.7465  159.2472 H   0  0  0  0  0  0  0  0  0  0  0  0
  154.0490  140.6087  161.2049 H   0  0  0  0  0  0  0  0  0  0  0  0
  154.6745  142.1763  160.8244 H   0  0  0  0  0  0  0  0  0  0  0  0
  152.0299  141.6401  162.2804 H   0  0  0  0  0  0  0  0  0  0  0  0
  153.5052  142.2098  163.0222 H   0  0  0  0  0  0  0  0  0  0  0  0
  151.8700  144.0728  162.5361 H   0  0  0  0  0  0  0  0  0  0  0  0
  153.4211  144.3050  161.7588 H   0  0  0  0  0  0  0  0  0  0  0  0
  150.9069  143.1763  160.4531 H   0  0  0  0  0  0  0  0  0  0  0  0
  152.4114  145.7768  159.8930 H   0  0  0  0  0  0  0  0  0  0  0  0
  150.8603  145.6438  160.7192 H   0  0  0  0  0  0  0  0  0  0  0  0
  150.9935  145.1971  159.0225 H   0  0  0  0  0  0  0  0  0  0  0  0
  153.6741  143.5761  159.2139 H   0  0  0  0  0  0  0  0  0  0  0  0
  152.2308  143.0817  158.3657 H   0  0  0  0  0  0  0  0  0  0  0  0
  150.5453  139.8394  154.3754 H   0  0  0  0  0  0  0  0  0  0  0  0
  150.1570  140.6501  155.8851 H   0  0  0  0  0  0  0  0  0  0  0  0
  149.3200  139.1667  155.4572 H   0  0  0  0  0  0  0  0  0  0  0  0
  1  2  1  0  0  0  0
  1 25  1  0  0  0  0
  1 26  1  0  0  0  0
  1 27  1  0  0  0  0
  2  3  1  0  0  0  0
  2 28  1  0  0  0  0
  2 29  1  0  0  0  0
  3  4  1  0  0  0  0
  4  5  1  0  0  0  0
  4 30  1  0  0  0  0
  4 31  1  0  0  0  0
  5  6  1  0  0  0  0
  5 32  1  0  0  0  0
  5 33  1  0  0  0  0
  6 17  1  0  0  0  0
  6  7  1  0  0  0  0
  7  8  1  0  0  0  0
  7 15  2  0  0  0  0
  8 14  1  0  0  0  0
  8  9  1  0  0  0  0
  9 10  1  0  0  0  0
  9 34  1  0  0  0  0
  9 35  1  0  0  0  0
 10 11  1  0  0  0  0
 10 36  1  0  0  0  0
 10 37  1  0  0  0  0
 11 12  1  0  0  0  0
 11 38  1  0  0  0  0
 11 39  1  0  0  0  0
 12 13  1  0  0  0  0
 12 14  1  0  0  0  0
 12 40  1  0  0  0  0
 13 41  1  0  0  0  0
 13 42  1  0  0  0  0
 13 43  1  0  0  0  0
 14 44  1  0  0  0  0
 14 45  1  0  0  0  0
 15 16  1  0  0  0  0
 16 23  1  0  0  0  0
 16 17  2  0  0  0  0
 17 18  1  0  0  0  0
 18 19  2  0  0  0  0
 18 20  1  0  0  0  0
 20 21  1  0  0  0  0
 21 22  2  0  0  0  0
 21 23  1  0  0  0  0
 23 24  1  0  0  0  0
 24 46  1  0  0  0  0
 24 47  1  0  0  0  0
 24 48  1  0  0  0  0
M  CHG  1  20  -1
M  END
> <s_m_source_file>
AV-unprocessed.smi

> <i_m_source_file_index>
544

> <i_lp_mmshare_version>
43012

> <i_f3d_flags>
0

> <s_epik_input>
W0NIM11uMWMoPU8pW25IXWMoPU8pYyhjMTIpbihbQ0gyXVtDSDJdT1tDSDJdW0NIM10pYyhuMilOM1tDSDJdW0NIMl1bQ0gyXVtDQEBIXShbQ0gzXSlbQ0gyXTM=

> <s_epik_cmdline>
J2VwaWtfcHl0aG9uJywgJy1waCcsICc3LjAnLCAnLXRuJywgJzgnLCAnLW1hJywgJzIwMCcsICctbWV0YWxfYmluZGluZycsICctaW1hZScsICc8aW5maWxlLm1hZT4nLCAnLW9tYWUnLCAnPG91dGZpbGUubWFlPic=

> <r_lp_tautomer_probability>
1

> <r_epik_Ionization_Penalty>
5.1213

> <r_epik_Ionization_Penalty_Charging>
0.0741877

> <r_epik_Ionization_Penalty_Neutral>
5.04711

> <r_epik_State_Penalty>
5.04142

> <r_epik_Charging_Adjusted_Penalty>
5.11561

> <i_epik_Tot_Q>
-1

> <i_epik_Tot_abs_Q>
1

> <r_epik_Metal_State_Penalty>
1.14934

> <b_epik_Metal_Only>
1

> <s_lp_Force_Field>
OPLS_2005

> <r_lp_Energy>
41.9091

> <b_lp_Chiralities_Consistent>
1

> <s_lp_Variant>
AV-unprocessed.smi:544-3

> <Gold.Version>
5.8.1

> <Gold.Id.Protein>
6NUR|6NUR_protein|mol2

> <Gold.PLP.Fitness>
56.3467

> <Gold.PLP.PLP>
-51.3686

> <Gold.PLP.part.hbond>
-1.0000

> <Gold.PLP.part.metal>
0.0000

> <Gold.PLP.part.buried>
-6.4659

> <Gold.PLP.part.nonpolar>
-44.8135

> <Gold.PLP.part.repulsive>
0.1843

> <Gold.PLP.ligand.clash>
0.3362

> <Gold.PLP.ligand.torsion>
0.4039

> <Gold.PLP.Chemscore.Hbond>
1.9840

> <Gold.PLP.Chemscore.CHOScore>
0.0000

> <Gold.PLP.Chemscore.Metal>
0.0000

> <Gold.Chemscore.Hbonds>
donor molecule, donor type, donor heavy atom, donor atom, acceptor molecule, acceptor atom, score
      P1  H 10752 10763       L1    20  1.86

> <Gold.PLP.Chemscore.Internal.Correction>
0.1701

> <Gold.Rescore>
     Score         DG    S(hbond)    S(metal)    S(lipo)     H(rot)  DE(clash)    DE(int)     intcor
     15.09     -16.70       0.76        0.00     108.11       1.55       0.00       1.62       ----

> <Gold.Chemscore.Fitness>
15.0876

> <Gold.Chemscore.DG>
-16.7047

> <Gold.Chemscore.ZeroCoef>
-5.4800

> <Gold.Chemscore.Hbond>
0.7641

> <Gold.Chemscore.Metal>
0.0000

> <Gold.Chemscore.Lipo>
108.1133

> <Gold.Chemscore.Internal_Hbond>
0.0000

> <Gold.Chemscore.DEClash>
0.0000

> <Gold.Chemscore.DEInternal>
1.6171

> <Gold.Chemscore.Rot>
1.5534

> <Gold.Chemscore.Internal.Correction>
   9.000000E+99

> <Gold.Chemscore.Hbonds>
donor molecule, donor type, donor heavy atom, donor atom, acceptor molecule, acceptor atom, score
      P1  H 10752 10763       L1    20  0.53

> <Gold.Chemscore.Hbond.Weighted>
-2.5523

> <Gold.Chemscore.Metal.Weighted>
-0.0000

> <Gold.Chemscore.Lipo.Weighted>
-12.6493

> <Gold.Chemscore.Internal_Hbond.Weighted>
0.0000

> <Gold.Chemscore.DEClash.Weighted>
0.0000

> <Gold.Chemscore.DEInternal.Weighted>
1.6171

> <Gold.Chemscore.Rot.Weighted>
3.9768

> <Gold.Chemscore.Internal.Correction.Weighted>
   9.000000E+99

> <Gold.Protein.RotatedTorsions>
[ 6907 6896 6895 6894 ] final    3.68 input  -60.11 | X-H torsion
[ 7974 7965 7964 7962 ] final -131.70 input  175.53 | X-H torsion
[ 8008 7997 7996 7995 ] final   77.55 input   59.86 | X-H torsion
[ 10167 10162 10161 10158 ] final  173.77 input  -65.29 | X-H torsion
[ 10718 10713 10712 10709 ] final  104.27 input   66.30 | X-H torsion
[ 10763 10752 10751 10750 ] final   89.48 input  -60.55 | X-H torsion
[ 11005 11000 10999 10996 ] final   22.88 input  -57.11 | X-H torsion

> <Gold.Protein.ActiveResidues>
 VAL166  LYS551  ARG553  GLY616  TRP617  ASP618  TYR619  PRO620  LYS621  CYS622 
 ASP623  PHE694  ASN695  SER759  ASP760  ASP761  ALA762  ILE779  LEU786  VAL792 
 PHE793  MET794  SER795  GLU796  ALA797  LYS798  CYS799  TRP800  GLU811  SER814 

> <Gold.Protein.RotatedAtoms>
  151.6290  135.1025  160.0117 H   0  0  0  0  0  0  0  0  0  0  0  0  # atno 6907 bound_to 6896
  152.4117  133.6969  159.6412 H   0  0  0  0  0  0  0  0  0  0  0  0  # atno 6908 bound_to 6896
  150.8007  133.8530  159.3251 H   0  0  0  0  0  0  0  0  0  0  0  0  # atno 6909 bound_to 6896
  144.9355  140.7178  143.4879 H   0  0  0  0  0  0  0  0  0  0  0  0  # atno 7974 bound_to 7965
  155.8432  140.3461  155.5645 H   0  0  0  0  0  0  0  0  0  0  0  0  # atno 8008 bound_to 7997
  155.8118  140.0900  157.1919 H   0  0  0  0  0  0  0  0  0  0  0  0  # atno 8009 bound_to 7997
  154.4005  140.1446  156.3383 H   0  0  0  0  0  0  0  0  0  0  0  0  # atno 8010 bound_to 7997
  139.5119  144.3222  152.0191 H   0  0  0  0  0  0  0  0  0  0  0  0  # atno 10167 bound_to 10162
  157.6746  131.0799  150.5681 H   0  0  0  0  0  0  0  0  0  0  0  0  # atno 10718 bound_to 10713
  153.1875  135.4469  155.0107 H   0  0  0  0  0  0  0  0  0  0  0  0  # atno 10763 bound_to 10752
  154.8070  135.3278  154.7409 H   0  0  0  0  0  0  0  0  0  0  0  0  # atno 10764 bound_to 10752
  153.7866  135.6973  153.4934 H   0  0  0  0  0  0  0  0  0  0  0  0  # atno 10765 bound_to 10752
  140.3757  134.1975  155.7665 H   0  0  0  0  0  0  0  0  0  0  0  0  # atno 11005 bound_to 11000
  145.3074  139.1830  143.4657 LP  0  0  0  0  0  0  0  0  0  0  0  0  # atno 17320 bound_to 7965
  146.3264  140.3074  142.8624 LP  0  0  0  0  0  0  0  0  0  0  0  0  # atno 17321 bound_to 7965
  140.2664  144.4012  150.6167 LP  0  0  0  0  0  0  0  0  0  0  0  0  # atno 17342 bound_to 10162
  140.6120  143.2170  151.6867 LP  0  0  0  0  0  0  0  0  0  0  0  0  # atno 17343 bound_to 10162
  156.5983  130.4347  149.5908 LP  0  0  0  0  0  0  0  0  0  0  0  0  # atno 17370 bound_to 10713
  156.2527  130.6916  151.1660 LP  0  0  0  0  0  0  0  0  0  0  0  0  # atno 17371 bound_to 10713
  141.1940  133.8138  157.0775 LP  0  0  0  0  0  0  0  0  0  0  0  0  # atno 17394 bound_to 11000
  140.0517  134.9802  157.1148 LP  0  0  0  0  0  0  0  0  0  0  0  0  # atno 17395 bound_to 11000

$$$$
