AV-unprocessed.smi:3102|AV-procd|sdf|11812|dock3
  -GOLD-   2272017183D 1   1.00000     0.00000
 Structure written by MMmdl.
 31 32  0  0  0  0  0  0  0  0  1 V2000
  152.8018  138.5184  154.1672 C   0  0  0  0  0  0  0  0  0  0  0  0
  152.9369  139.1237  155.4484 O   0  0  0  0  0  0  0  0  0  0  0  0
  151.9528  139.9952  155.8677 C   0  0  0  0  0  0  0  0  0  0  0  0
  152.0139  140.5013  157.1797 C   0  0  0  0  0  0  0  0  0  0  0  0
  151.0109  141.3883  157.6124 C   0  0  0  0  0  0  0  0  0  0  0  0
  149.9703  141.7458  156.7226 C   0  0  0  0  0  0  0  0  0  0  0  0
  148.9329  142.6235  157.0802 N   0  0  0  0  0  0  0  0  0  0  0  0
  147.8466  142.2049  157.9570 C   0  0  2  0  0  0  0  0  0  0  0  0
  146.4771  142.2837  157.3105 C   0  0  0  0  0  0  0  0  0  0  0  0
  145.5626  142.3115  158.5312 C   0  0  0  0  0  0  0  0  0  0  0  0
  146.3034  142.9668  159.5578 O   0  0  0  0  0  0  0  0  0  0  0  0
  147.6566  143.1424  159.1476 C   0  0  0  0  0  0  0  0  0  0  0  0
  150.0023  141.1854  155.4216 C   0  0  0  0  0  0  0  0  0  0  0  0
  148.9332  141.5095  154.3924 C   0  0  0  0  0  0  0  0  0  0  0  0
  150.9643  140.3330  155.0045 N   0  0  0  0  0  0  0  0  0  0  0  0
  153.6524  137.8610  153.9874 H   0  0  0  0  0  0  0  0  0  0  0  0
  152.7875  139.2653  153.3722 H   0  0  0  0  0  0  0  0  0  0  0  0
  151.8968  137.9124  154.1058 H   0  0  0  0  0  0  0  0  0  0  0  0
  152.8160  140.2144  157.8433 H   0  0  0  0  0  0  0  0  0  0  0  0
  151.0590  141.7788  158.6174 H   0  0  0  0  0  0  0  0  0  0  0  0
  148.7873  143.4497  156.5177 H   0  0  0  0  0  0  0  0  0  0  0  0
  148.0271  141.1979  158.3348 H   0  0  0  0  0  0  0  0  0  0  0  0
  146.3718  143.2125  156.7472 H   0  0  0  0  0  0  0  0  0  0  0  0
  146.2621  141.4519  156.6396 H   0  0  0  0  0  0  0  0  0  0  0  0
  144.6195  142.8208  158.3323 H   0  0  0  0  0  0  0  0  0  0  0  0
  145.3370  141.2967  158.8608 H   0  0  0  0  0  0  0  0  0  0  0  0
  148.3526  142.9344  159.9607 H   0  0  0  0  0  0  0  0  0  0  0  0
  147.7870  144.1837  158.8485 H   0  0  0  0  0  0  0  0  0  0  0  0
  147.9510  141.2078  154.7576 H   0  0  0  0  0  0  0  0  0  0  0  0
  149.1145  140.9929  153.4489 H   0  0  0  0  0  0  0  0  0  0  0  0
  148.9129  142.5807  154.1903 H   0  0  0  0  0  0  0  0  0  0  0  0
  1  2  1  0  0  0  0
  1 16  1  0  0  0  0
  1 17  1  0  0  0  0
  1 18  1  0  0  0  0
  2  3  1  0  0  0  0
  3 15  1  0  0  0  0
  3  4  2  0  0  0  0
  4  5  1  0  0  0  0
  4 19  1  0  0  0  0
  5  6  2  0  0  0  0
  5 20  1  0  0  0  0
  6  7  1  0  0  0  0
  6 13  1  0  0  0  0
  7  8  1  0  0  0  0
  7 21  1  0  0  0  0
  8 12  1  0  0  0  0
  8  9  1  0  0  0  0
  8 22  1  0  0  0  0
  9 10  1  0  0  0  0
  9 23  1  0  0  0  0
  9 24  1  0  0  0  0
 10 11  1  0  0  0  0
 10 25  1  0  0  0  0
 10 26  1  0  0  0  0
 11 12  1  0  0  0  0
 12 27  1  0  0  0  0
 12 28  1  0  0  0  0
 13 14  1  0  0  0  0
 13 15  2  0  0  0  0
 14 29  1  0  0  0  0
 14 30  1  0  0  0  0
 14 31  1  0  0  0  0
M  END
> <s_m_source_file>
AV-unprocessed.smi

> <i_m_source_file_index>
3102

> <i_lp_mmshare_version>
43012

> <i_f3d_flags>
0

> <s_epik_input>
W0NIM11PYzFbY0hdW2NIXWMoYyhuMSlbQ0gzXSlbTkhdW0NAQEhdMltDSDJdW0NIMl1PW0NIMl0y

> <s_epik_cmdline>
J2VwaWtfcHl0aG9uJywgJy1waCcsICc3LjAnLCAnLXRuJywgJzgnLCAnLW1hJywgJzIwMCcsICctbWV0YWxfYmluZGluZycsICctaW1hZScsICc8aW5maWxlLm1hZT4nLCAnLW9tYWUnLCAnPG91dGZpbGUubWFlPic=

> <r_lp_tautomer_probability>
1

> <r_epik_Ionization_Penalty>
0.00117248

> <r_epik_Ionization_Penalty_Charging>
0

> <r_epik_Ionization_Penalty_Neutral>
0.00117248

> <r_epik_State_Penalty>
0.000742146

> <r_epik_Charging_Adjusted_Penalty>
0.000742146

> <i_epik_Tot_Q>
0

> <i_epik_Tot_abs_Q>
0

> <r_epik_Metal_State_Penalty>
-0

> <b_epik_Metal_Only>
0

> <s_lp_Force_Field>
OPLS_2005

> <r_lp_Energy>
20.6196

> <b_lp_Chiralities_Consistent>
1

> <s_lp_Variant>
AV-unprocessed.smi:3102-1

> <Gold.Version>
5.8.1

> <Gold.Id.Protein>
6NUR|6NUR_protein|mol2

> <Gold.PLP.Fitness>
33.1069

> <Gold.PLP.PLP>
-25.5966

> <Gold.PLP.part.hbond>
-2.9469

> <Gold.PLP.part.metal>
0.0000

> <Gold.PLP.part.buried>
-4.2600

> <Gold.PLP.part.nonpolar>
-18.7229

> <Gold.PLP.part.repulsive>
0.0995

> <Gold.PLP.ligand.clash>
0.0000

> <Gold.PLP.ligand.torsion>
0.7551

> <Gold.PLP.Chemscore.Hbond>
3.0000

> <Gold.PLP.Chemscore.CHOScore>
0.0000

> <Gold.PLP.Chemscore.Metal>
0.0000

> <Gold.Chemscore.Hbonds>
donor molecule, donor type, donor heavy atom, donor atom, acceptor molecule, acceptor atom, score
      L1  H     7    21       P1  8028  0.99
      P1  H  7989  7998       L1    15  1.00
      P1  H  7997  8010       L1     2  0.85

> <Gold.PLP.Chemscore.Internal.Correction>
0.0206

> <Gold.Rescore>
     Score         DG    S(hbond)    S(metal)    S(lipo)     H(rot)  DE(clash)    DE(int)     intcor
     13.56     -14.36       1.88        0.00      48.07       1.18       0.00       0.80       ----

> <Gold.Chemscore.Fitness>
13.5597

> <Gold.Chemscore.DG>
-14.3577

> <Gold.Chemscore.ZeroCoef>
-5.4800

> <Gold.Chemscore.Hbond>
1.8822

> <Gold.Chemscore.Metal>
0.0000

> <Gold.Chemscore.Lipo>
48.0693

> <Gold.Chemscore.Internal_Hbond>
0.0000

> <Gold.Chemscore.DEClash>
0.0024

> <Gold.Chemscore.DEInternal>
0.7957

> <Gold.Chemscore.Rot>
1.1847

> <Gold.Chemscore.Internal.Correction>
   9.000000E+99

> <Gold.Chemscore.Hbonds>
donor molecule, donor type, donor heavy atom, donor atom, acceptor molecule, acceptor atom, score
      L1  H     7    21       P1  8028  0.79
      P1  H  7989  7998       L1    15  0.55
      P1  H  7997  8010       L1     2  0.15

> <Gold.Chemscore.Hbond.Weighted>
-6.2864

> <Gold.Chemscore.Metal.Weighted>
-0.0000

> <Gold.Chemscore.Lipo.Weighted>
-5.6241

> <Gold.Chemscore.Internal_Hbond.Weighted>
0.0000

> <Gold.Chemscore.DEClash.Weighted>
0.0024

> <Gold.Chemscore.DEInternal.Weighted>
0.7957

> <Gold.Chemscore.Rot.Weighted>
3.0328

> <Gold.Chemscore.Internal.Correction.Weighted>
   9.000000E+99

> <Gold.Protein.RotatedTorsions>
[ 6907 6896 6895 6894 ] final -144.38 input  -60.11 | X-H torsion
[ 7974 7965 7964 7962 ] final  104.79 input  175.53 | X-H torsion
[ 8008 7997 7996 7995 ] final   97.99 input   59.86 | X-H torsion
[ 10167 10162 10161 10158 ] final   10.32 input  -65.29 | X-H torsion
[ 10718 10713 10712 10709 ] final -159.45 input   66.30 | X-H torsion
[ 10763 10752 10751 10750 ] final  -68.53 input  -60.55 | X-H torsion
[ 11005 11000 10999 10996 ] final  123.28 input  -57.11 | X-H torsion

> <Gold.Protein.ActiveResidues>
 VAL166  LYS551  ARG553  GLY616  TRP617  ASP618  TYR619  PRO620  LYS621  CYS622 
 ASP623  PHE694  ASN695  SER759  ASP760  ASP761  ALA762  ILE779  LEU786  VAL792 
 PHE793  MET794  SER795  GLU796  ALA797  LYS798  CYS799  TRP800  GLU811  SER814 

> <Gold.Protein.RotatedAtoms>
  151.1132  133.5158  159.2604 H   0  0  0  0  0  0  0  0  0  0  0  0  # atno 6907 bound_to 6896
  151.1944  135.0415  159.8856 H   0  0  0  0  0  0  0  0  0  0  0  0  # atno 6908 bound_to 6896
  152.5451  134.0968  159.8354 H   0  0  0  0  0  0  0  0  0  0  0  0  # atno 6909 bound_to 6896
  145.3282  139.2494  143.3675 H   0  0  0  0  0  0  0  0  0  0  0  0  # atno 7974 bound_to 7965
  156.0958  140.3250  155.7876 H   0  0  0  0  0  0  0  0  0  0  0  0  # atno 8008 bound_to 7997
  155.4920  140.0562  157.2969 H   0  0  0  0  0  0  0  0  0  0  0  0  # atno 8009 bound_to 7997
  154.4665  140.1992  156.0119 H   0  0  0  0  0  0  0  0  0  0  0  0  # atno 8010 bound_to 7997
  140.6201  143.8223  150.7165 H   0  0  0  0  0  0  0  0  0  0  0  0  # atno 10167 bound_to 10162
  156.5682  130.8677  151.2830 H   0  0  0  0  0  0  0  0  0  0  0  0  # atno 10718 bound_to 10713
  154.3904  135.6054  153.5840 H   0  0  0  0  0  0  0  0  0  0  0  0  # atno 10763 bound_to 10752
  152.9787  135.5882  154.4304 H   0  0  0  0  0  0  0  0  0  0  0  0  # atno 10764 bound_to 10752
  154.4087  135.2844  155.2028 H   0  0  0  0  0  0  0  0  0  0  0  0  # atno 10765 bound_to 10752
  139.9305  134.9641  156.8236 H   0  0  0  0  0  0  0  0  0  0  0  0  # atno 11005 bound_to 11000
  146.3056  140.3854  142.8688 LP  0  0  0  0  0  0  0  0  0  0  0  0  # atno 17320 bound_to 7965
  144.8885  140.7493  143.5941 LP  0  0  0  0  0  0  0  0  0  0  0  0  # atno 17321 bound_to 7965
  140.1811  143.4114  152.1932 LP  0  0  0  0  0  0  0  0  0  0  0  0  # atno 17342 bound_to 10162
  139.5431  144.7275  151.4668 LP  0  0  0  0  0  0  0  0  0  0  0  0  # atno 17343 bound_to 10162
  157.7354  130.9761  150.2079 LP  0  0  0  0  0  0  0  0  0  0  0  0  # atno 17370 bound_to 10713
  156.2738  130.3725  149.8004 LP  0  0  0  0  0  0  0  0  0  0  0  0  # atno 17371 bound_to 10713
  140.6214  133.9990  155.7620 LP  0  0  0  0  0  0  0  0  0  0  0  0  # atno 17394 bound_to 11000
  141.0891  133.9944  157.3265 LP  0  0  0  0  0  0  0  0  0  0  0  0  # atno 17395 bound_to 11000

$$$$
