AV-unprocessed.smi:1648|AV-procd|sdf|6631|dock9
  -GOLD-   22720 7333D 1   1.00000     0.00000
 Structure written by MMmdl.
 41 41  0  0  0  0  0  0  0  0  1 V2000
  148.5286  141.7241  154.5212 C   0  0  0  0  0  0  0  0  0  0  0  0
  149.8277  141.4275  155.2732 C   0  0  0  0  0  0  0  0  0  0  0  0
  150.4632  140.4114  155.0020 O   0  0  0  0  0  0  0  0  0  0  0  0
  150.2500  142.2819  156.2215 N   0  0  0  0  0  0  0  0  0  0  0  0
  151.4573  142.1758  157.0460 C   0  0  2  0  0  0  0  0  0  0  0  0
  151.4593  140.8047  157.7487 C   0  0  0  0  0  0  0  0  0  0  0  0
  150.5559  140.4978  158.5282 O   0  0  0  0  0  0  0  0  0  0  0  0
  152.4974  140.0004  157.4713 N   0  0  0  0  0  0  0  0  0  0  0  0
  152.7113  138.6679  158.0271 C   0  0  2  0  0  0  0  0  0  0  0  0
  151.6957  137.6772  157.4278 C   0  0  0  0  0  0  0  0  0  0  0  0
  152.6457  138.7508  159.5651 C   0  0  0  0  0  0  0  0  0  0  0  0
  153.7844  139.4418  160.1407 N   0  0  0  0  0  0  0  0  0  0  0  0
  154.7201  138.9203  161.0242 C   0  0  0  0  0  0  0  0  0  0  0  0
  155.6128  139.9327  161.2945 C   0  0  0  0  0  0  0  0  0  0  0  0
  155.2507  141.0776  160.5890 N   0  0  0  0  0  0  0  0  0  0  0  0
  154.1615  140.7100  159.9266 C   0  0  0  0  0  0  0  0  0  0  0  0
  151.4391  143.3145  158.1086 C   0  0  0  0  0  0  0  0  0  0  0  0
  151.7807  144.6838  157.4876 C   0  0  0  0  0  0  0  0  0  0  0  0
  152.3884  143.0507  159.2966 C   0  0  0  0  0  0  0  0  0  0  0  0
  148.5858  142.6838  154.0078 H   0  0  0  0  0  0  0  0  0  0  0  0
  147.6806  141.7409  155.2057 H   0  0  0  0  0  0  0  0  0  0  0  0
  148.3370  140.9562  153.7710 H   0  0  0  0  0  0  0  0  0  0  0  0
  149.6641  143.0840  156.4032 H   0  0  0  0  0  0  0  0  0  0  0  0
  152.3492  142.2818  156.4260 H   0  0  0  0  0  0  0  0  0  0  0  0
  153.1954  140.3394  156.8253 H   0  0  0  0  0  0  0  0  0  0  0  0
  153.7145  138.3332  157.7557 H   0  0  0  0  0  0  0  0  0  0  0  0
  151.8745  136.6601  157.7769 H   0  0  0  0  0  0  0  0  0  0  0  0
  151.7585  137.6574  156.3395 H   0  0  0  0  0  0  0  0  0  0  0  0
  150.6739  137.9476  157.6965 H   0  0  0  0  0  0  0  0  0  0  0  0
  151.7405  139.2743  159.8765 H   0  0  0  0  0  0  0  0  0  0  0  0
  152.5925  137.7503  159.9975 H   0  0  0  0  0  0  0  0  0  0  0  0
  154.6728  137.9013  161.3791 H   0  0  0  0  0  0  0  0  0  0  0  0
  156.4814  139.9248  161.9361 H   0  0  0  0  0  0  0  0  0  0  0  0
  153.6231  141.3809  159.2733 H   0  0  0  0  0  0  0  0  0  0  0  0
  150.4290  143.3934  158.5150 H   0  0  0  0  0  0  0  0  0  0  0  0
  152.7683  144.6721  157.0253 H   0  0  0  0  0  0  0  0  0  0  0  0
  151.7788  145.4696  158.2435 H   0  0  0  0  0  0  0  0  0  0  0  0
  151.0599  144.9785  156.7250 H   0  0  0  0  0  0  0  0  0  0  0  0
  153.4135  142.8999  158.9566 H   0  0  0  0  0  0  0  0  0  0  0  0
  152.0946  142.1729  159.8724 H   0  0  0  0  0  0  0  0  0  0  0  0
  152.3914  143.8918  159.9903 H   0  0  0  0  0  0  0  0  0  0  0  0
  1  2  1  0  0  0  0
  1 20  1  0  0  0  0
  1 21  1  0  0  0  0
  1 22  1  0  0  0  0
  2  3  2  0  0  0  0
  2  4  1  0  0  0  0
  4  5  1  0  0  0  0
  4 23  1  0  0  0  0
  5  6  1  0  0  0  0
  5 17  1  0  0  0  0
  5 24  1  0  0  0  0
  6  7  2  0  0  0  0
  6  8  1  0  0  0  0
  8  9  1  0  0  0  0
  8 25  1  0  0  0  0
  9 10  1  0  0  0  0
  9 11  1  0  0  0  0
  9 26  1  0  0  0  0
 10 27  1  0  0  0  0
 10 28  1  0  0  0  0
 10 29  1  0  0  0  0
 11 12  1  0  0  0  0
 11 30  1  0  0  0  0
 11 31  1  0  0  0  0
 12 16  1  0  0  0  0
 12 13  1  0  0  0  0
 13 14  2  0  0  0  0
 13 32  1  0  0  0  0
 14 15  1  0  0  0  0
 14 33  1  0  0  0  0
 15 16  2  0  0  0  0
 16 34  1  0  0  0  0
 17 18  1  0  0  0  0
 17 19  1  0  0  0  0
 17 35  1  0  0  0  0
 18 36  1  0  0  0  0
 18 37  1  0  0  0  0
 18 38  1  0  0  0  0
 19 39  1  0  0  0  0
 19 40  1  0  0  0  0
 19 41  1  0  0  0  0
M  END
> <s_m_source_file>
AV-unprocessed.smi

> <i_m_source_file_index>
1648

> <i_lp_mmshare_version>
43012

> <i_f3d_flags>
0

> <s_epik_input>
W0NIM11DKD1PKVtOSF1bQ0BASF0oW0NIXShbQ0gzXSlbQ0gzXSlDKD1PKVtOSF1bQ0BIXShbQ0gzXSlbQ0gyXW4xW2NIXVtjSF1uW2NIXTE=

> <s_epik_cmdline>
J2VwaWtfcHl0aG9uJywgJy1waCcsICc3LjAnLCAnLXRuJywgJzgnLCAnLW1hJywgJzIwMCcsICctbWV0YWxfYmluZGluZycsICctaW1hZScsICc8aW5maWxlLm1hZT4nLCAnLW9tYWUnLCAnPG91dGZpbGUubWFlPic=

> <r_lp_tautomer_probability>
1

> <r_epik_Ionization_Penalty>
0.628885

> <r_epik_Ionization_Penalty_Charging>
0.628884

> <r_epik_Ionization_Penalty_Neutral>
4.35155e-07

> <r_epik_State_Penalty>
0.64556

> <r_epik_Charging_Adjusted_Penalty>
1.27444

> <i_epik_Tot_Q>
0

> <i_epik_Tot_abs_Q>
0

> <r_epik_Metal_State_Penalty>
0.30874

> <b_epik_Metal_Only>
0

> <s_lp_Force_Field>
OPLS_2005

> <r_lp_Energy>
10.0668

> <b_lp_Chiralities_Consistent>
1

> <s_lp_Variant>
AV-unprocessed.smi:1648-5

> <Gold.Version>
5.8.1

> <Gold.Id.Protein>
6NUR|6NUR_protein|mol2

> <Gold.PLP.Fitness>
38.0779

> <Gold.PLP.PLP>
-33.0205

> <Gold.PLP.part.hbond>
-3.0000

> <Gold.PLP.part.metal>
0.0000

> <Gold.PLP.part.buried>
-4.0734

> <Gold.PLP.part.nonpolar>
-24.9750

> <Gold.PLP.part.repulsive>
0.9129

> <Gold.PLP.ligand.clash>
0.0000

> <Gold.PLP.ligand.torsion>
0.4508

> <Gold.PLP.Chemscore.Hbond>
1.9600

> <Gold.PLP.Chemscore.CHOScore>
0.0000

> <Gold.PLP.Chemscore.Metal>
0.0000

> <Gold.Chemscore.Hbonds>
donor molecule, donor type, donor heavy atom, donor atom, acceptor molecule, acceptor atom, score
      L1  H     4    23       P1  8028  0.91
      P1  H  7989  7998       L1     3  1.00

> <Gold.PLP.Chemscore.Internal.Correction>
0.0791

> <Gold.Rescore>
     Score         DG    S(hbond)    S(metal)    S(lipo)     H(rot)  DE(clash)    DE(int)     intcor
     10.29     -13.36       1.62        0.00      76.40       2.52       0.25       2.82       ----

> <Gold.Chemscore.Fitness>
10.2879

> <Gold.Chemscore.DG>
-13.3605

> <Gold.Chemscore.ZeroCoef>
-5.4800

> <Gold.Chemscore.Hbond>
1.6158

> <Gold.Chemscore.Metal>
0.0000

> <Gold.Chemscore.Lipo>
76.4027

> <Gold.Chemscore.Internal_Hbond>
0.0000

> <Gold.Chemscore.DEClash>
0.2522

> <Gold.Chemscore.DEInternal>
2.8203

> <Gold.Chemscore.Rot>
2.5216

> <Gold.Chemscore.Internal.Correction>
   9.000000E+99

> <Gold.Chemscore.Hbonds>
donor molecule, donor type, donor heavy atom, donor atom, acceptor molecule, acceptor atom, score
      L1  H     4    23       P1  8028  0.88
      P1  H  7989  7998       L1     3  0.53

> <Gold.Chemscore.Hbond.Weighted>
-5.3966

> <Gold.Chemscore.Metal.Weighted>
-0.0000

> <Gold.Chemscore.Lipo.Weighted>
-8.9391

> <Gold.Chemscore.Internal_Hbond.Weighted>
0.0000

> <Gold.Chemscore.DEClash.Weighted>
0.2522

> <Gold.Chemscore.DEInternal.Weighted>
2.8203

> <Gold.Chemscore.Rot.Weighted>
6.4553

> <Gold.Chemscore.Internal.Correction.Weighted>
   9.000000E+99

> <Gold.Protein.RotatedTorsions>
[ 6907 6896 6895 6894 ] final   58.41 input  -60.11 | X-H torsion
[ 7974 7965 7964 7962 ] final  141.34 input  175.53 | X-H torsion
[ 8008 7997 7996 7995 ] final  173.15 input   59.86 | X-H torsion
[ 10167 10162 10161 10158 ] final   63.94 input  -65.29 | X-H torsion
[ 10718 10713 10712 10709 ] final  -22.64 input   66.30 | X-H torsion
[ 10763 10752 10751 10750 ] final  108.84 input  -60.55 | X-H torsion
[ 11005 11000 10999 10996 ] final  147.90 input  -57.11 | X-H torsion

> <Gold.Protein.ActiveResidues>
 VAL166  LYS551  ARG553  GLY616  TRP617  ASP618  TYR619  PRO620  LYS621  CYS622 
 ASP623  PHE694  ASN695  SER759  ASP760  ASP761  ALA762  ILE779  LEU786  VAL792 
 PHE793  MET794  SER795  GLU796  ALA797  LYS798  CYS799  TRP800  GLU811  SER814 

> <Gold.Protein.RotatedAtoms>
  152.3821  134.6574  160.0138 H   0  0  0  0  0  0  0  0  0  0  0  0  # atno 6907 bound_to 6896
  151.6834  133.3306  159.3233 H   0  0  0  0  0  0  0  0  0  0  0  0  # atno 6908 bound_to 6896
  150.7756  134.6697  159.6429 H   0  0  0  0  0  0  0  0  0  0  0  0  # atno 6909 bound_to 6896
  144.9105  139.5300  143.5711 H   0  0  0  0  0  0  0  0  0  0  0  0  # atno 7974 bound_to 7965
  156.1104  140.1467  156.9346 H   0  0  0  0  0  0  0  0  0  0  0  0  # atno 8008 bound_to 7997
  154.4763  140.0893  156.7312 H   0  0  0  0  0  0  0  0  0  0  0  0  # atno 8009 bound_to 7997
  155.4606  140.3438  155.4314 H   0  0  0  0  0  0  0  0  0  0  0  0  # atno 8010 bound_to 7997
  140.1275  144.4674  150.6884 H   0  0  0  0  0  0  0  0  0  0  0  0  # atno 10167 bound_to 10162
  156.5018  130.4590  149.6697 H   0  0  0  0  0  0  0  0  0  0  0  0  # atno 10718 bound_to 10713
  153.4262  135.3799  155.2142 H   0  0  0  0  0  0  0  0  0  0  0  0  # atno 10763 bound_to 10752
  154.8747  135.3829  154.4323 H   0  0  0  0  0  0  0  0  0  0  0  0  # atno 10764 bound_to 10752
  153.4850  135.7088  153.5979 H   0  0  0  0  0  0  0  0  0  0  0  0  # atno 10765 bound_to 10752
  140.0914  134.9038  157.1657 H   0  0  0  0  0  0  0  0  0  0  0  0  # atno 11005 bound_to 11000
  146.3156  139.7907  142.8986 LP  0  0  0  0  0  0  0  0  0  0  0  0  # atno 17320 bound_to 7965
  145.3463  141.0298  143.3364 LP  0  0  0  0  0  0  0  0  0  0  0  0  # atno 17321 bound_to 7965
  140.6836  143.2339  151.5319 LP  0  0  0  0  0  0  0  0  0  0  0  0  # atno 17342 bound_to 10162
  139.5536  144.2331  152.1574 LP  0  0  0  0  0  0  0  0  0  0  0  0  # atno 17343 bound_to 10162
  156.3325  130.7339  151.2271 LP  0  0  0  0  0  0  0  0  0  0  0  0  # atno 17370 bound_to 10713
  157.7462  131.0426  150.4701 LP  0  0  0  0  0  0  0  0  0  0  0  0  # atno 17371 bound_to 10713
  140.3346  134.2771  155.7222 LP  0  0  0  0  0  0  0  0  0  0  0  0  # atno 17394 bound_to 11000
  141.2079  133.7793  157.0091 LP  0  0  0  0  0  0  0  0  0  0  0  0  # atno 17395 bound_to 11000

$$$$
