AV-unprocessed.smi:1784|AV-procd|sdf|7196|dock9
  -GOLD-   22720 8433D 1   1.00000     0.00000
 Structure written by MMmdl.
 43 45  0  0  0  0  0  0  0  0  1 V2000
  151.8291  141.7724  157.5305 O   0  0  0  0  0  0  0  0  0  0  0  0
  151.0177  142.5901  157.0963 C   0  0  0  0  0  0  0  0  0  0  0  0
  150.9567  143.8609  157.5124 N   0  0  0  0  0  0  0  0  0  0  0  0
  151.8172  144.4335  158.5377 C   0  0  0  0  0  0  0  0  0  0  0  0
  151.7483  143.6010  159.8249 C   0  0  2  0  0  0  0  0  0  0  0  0
  152.1312  144.3786  161.0820 C   0  0  0  0  0  0  0  0  0  0  0  0
  152.5479  143.2622  162.0117 C   0  0  0  0  0  0  0  0  0  0  0  0
  153.2624  142.3091  161.0574 C   0  0  0  0  0  0  0  0  0  0  0  0
  152.6716  142.5155  159.7760 O   0  0  0  0  0  0  0  0  0  0  0  0
  150.0997  142.3481  156.1457 N   0  0  0  0  0  0  0  0  0  0  0  0
  149.8376  141.1324  155.4514 C   0  0  0  0  0  0  0  0  0  0  0  0
  150.7676  140.0660  155.3880 C   0  0  0  0  0  0  0  0  0  0  0  0
  150.4177  138.8909  154.6983 C   0  0  0  0  0  0  0  0  0  0  0  0
  149.1460  138.8188  154.1025 C   0  0  0  0  0  0  0  0  0  0  0  0
  148.2430  139.8182  154.1671 N   0  0  0  0  0  0  0  0  0  0  0  0
  148.5747  140.9527  154.8304 C   0  0  0  0  0  0  0  0  0  0  0  0
  147.6125  141.9769  154.8921 N   0  0  0  0  0  0  0  0  0  0  0  0
  147.1776  142.5145  153.6137 C   0  0  0  0  0  0  0  0  0  0  0  0
  145.9055  143.3079  153.9206 C   0  0  0  0  0  0  0  0  0  0  0  0
  145.3776  142.7132  155.2319 C   0  0  0  0  0  0  0  0  0  0  0  0
  146.4010  141.6426  155.6220 C   0  0  0  0  0  0  0  0  0  0  0  0
  150.2627  144.4696  157.1037 H   0  0  0  0  0  0  0  0  0  0  0  0
  152.8443  144.4829  158.1724 H   0  0  0  0  0  0  0  0  0  0  0  0
  151.4966  145.4565  158.7409 H   0  0  0  0  0  0  0  0  0  0  0  0
  150.7470  143.1870  159.9551 H   0  0  0  0  0  0  0  0  0  0  0  0
  152.9795  145.0362  160.8860 H   0  0  0  0  0  0  0  0  0  0  0  0
  151.3126  144.9816  161.4755 H   0  0  0  0  0  0  0  0  0  0  0  0
  153.1811  143.5984  162.8332 H   0  0  0  0  0  0  0  0  0  0  0  0
  151.6651  142.7800  162.4337 H   0  0  0  0  0  0  0  0  0  0  0  0
  154.3224  142.5570  160.9924 H   0  0  0  0  0  0  0  0  0  0  0  0
  153.1771  141.2688  161.3718 H   0  0  0  0  0  0  0  0  0  0  0  0
  149.5706  143.1467  155.8272 H   0  0  0  0  0  0  0  0  0  0  0  0
  151.7333  140.1201  155.8662 H   0  0  0  0  0  0  0  0  0  0  0  0
  151.1068  138.0622  154.6321 H   0  0  0  0  0  0  0  0  0  0  0  0
  148.8429  137.9326  153.5651 H   0  0  0  0  0  0  0  0  0  0  0  0
  147.9482  143.1455  153.1699 H   0  0  0  0  0  0  0  0  0  0  0  0
  146.9552  141.7098  152.9117 H   0  0  0  0  0  0  0  0  0  0  0  0
  146.1437  144.3627  154.0629 H   0  0  0  0  0  0  0  0  0  0  0  0
  145.1808  143.2371  153.1091 H   0  0  0  0  0  0  0  0  0  0  0  0
  145.3250  143.4881  155.9977 H   0  0  0  0  0  0  0  0  0  0  0  0
  144.3796  142.2881  155.1204 H   0  0  0  0  0  0  0  0  0  0  0  0
  146.0398  140.6547  155.3323 H   0  0  0  0  0  0  0  0  0  0  0  0
  146.5812  141.6328  156.6974 H   0  0  0  0  0  0  0  0  0  0  0  0
  1  2  2  0  0  0  0
  2  3  1  0  0  0  0
  2 10  1  0  0  0  0
  3  4  1  0  0  0  0
  3 22  1  0  0  0  0
  4  5  1  0  0  0  0
  4 23  1  0  0  0  0
  4 24  1  0  0  0  0
  5  9  1  0  0  0  0
  5  6  1  0  0  0  0
  5 25  1  0  0  0  0
  6  7  1  0  0  0  0
  6 26  1  0  0  0  0
  6 27  1  0  0  0  0
  7  8  1  0  0  0  0
  7 28  1  0  0  0  0
  7 29  1  0  0  0  0
  8  9  1  0  0  0  0
  8 30  1  0  0  0  0
  8 31  1  0  0  0  0
 10 11  1  0  0  0  0
 10 32  1  0  0  0  0
 11 16  1  0  0  0  0
 11 12  2  0  0  0  0
 12 13  1  0  0  0  0
 12 33  1  0  0  0  0
 13 14  2  0  0  0  0
 13 34  1  0  0  0  0
 14 15  1  0  0  0  0
 14 35  1  0  0  0  0
 15 16  2  0  0  0  0
 16 17  1  0  0  0  0
 17 21  1  0  0  0  0
 17 18  1  0  0  0  0
 18 19  1  0  0  0  0
 18 36  1  0  0  0  0
 18 37  1  0  0  0  0
 19 20  1  0  0  0  0
 19 38  1  0  0  0  0
 19 39  1  0  0  0  0
 20 21  1  0  0  0  0
 20 40  1  0  0  0  0
 20 41  1  0  0  0  0
 21 42  1  0  0  0  0
 21 43  1  0  0  0  0
M  END
> <s_m_source_file>
AV-unprocessed.smi

> <i_m_source_file_index>
1784

> <i_lp_mmshare_version>
43012

> <i_f3d_flags>
0

> <s_epik_input>
TzFbQ0gyXVtDSDJdW0NIMl1bQ0BIXTFbQ0gyXVtOSF1DKD1PKVtOSF1jMltjSF1bY0hdW2NIXW5jMk4zW0NIMl1bQ0gyXVtDSDJdW0NIMl0z

> <s_epik_cmdline>
J2VwaWtfcHl0aG9uJywgJy1waCcsICc3LjAnLCAnLXRuJywgJzgnLCAnLW1hJywgJzIwMCcsICctbWV0YWxfYmluZGluZycsICctaW1hZScsICc8aW5maWxlLm1hZT4nLCAnLW9tYWUnLCAnPG91dGZpbGUubWFlPic=

> <r_lp_tautomer_probability>
1

> <r_epik_Ionization_Penalty>
0.0982482

> <r_epik_Ionization_Penalty_Charging>
0

> <r_epik_Ionization_Penalty_Neutral>
0.0982482

> <r_epik_State_Penalty>
0.0877864

> <r_epik_Charging_Adjusted_Penalty>
0.0877864

> <i_epik_Tot_Q>
0

> <i_epik_Tot_abs_Q>
0

> <r_epik_Metal_State_Penalty>
0.0752567

> <b_epik_Metal_Only>
0

> <s_lp_Force_Field>
OPLS_2005

> <r_lp_Energy>
47.4963

> <b_lp_Chiralities_Consistent>
1

> <s_lp_Variant>
AV-unprocessed.smi:1784-1

> <Gold.Version>
5.8.1

> <Gold.Id.Protein>
6NUR|6NUR_protein|mol2

> <Gold.PLP.Fitness>
55.5134

> <Gold.PLP.PLP>
-47.3691

> <Gold.PLP.part.hbond>
-2.0000

> <Gold.PLP.part.metal>
0.0000

> <Gold.PLP.part.buried>
-6.1234

> <Gold.PLP.part.nonpolar>
-39.0989

> <Gold.PLP.part.repulsive>
0.4009

> <Gold.PLP.ligand.clash>
0.0000

> <Gold.PLP.ligand.torsion>
0.3890

> <Gold.PLP.Chemscore.Hbond>
1.9600

> <Gold.PLP.Chemscore.CHOScore>
1.0000

> <Gold.PLP.Chemscore.Metal>
0.0000

> <Gold.Chemscore.Hbonds>
donor molecule, donor type, donor heavy atom, donor atom, acceptor molecule, acceptor atom, score
      L1  H     3    22       P1  8028  0.96
      L1  H    10    32       P1  8028  1.00
      L1  C    14    35       P1  7948  1.00

> <Gold.PLP.Chemscore.Internal.Correction>
0.0424

> <Gold.Rescore>
     Score         DG    S(hbond)    S(metal)    S(lipo)     H(rot)  DE(clash)    DE(int)     intcor
     16.18     -20.67       1.85        0.00     107.20       1.38       0.77       3.72       ----

> <Gold.Chemscore.Fitness>
16.1829

> <Gold.Chemscore.DG>
-20.6722

> <Gold.Chemscore.ZeroCoef>
-5.4800

> <Gold.Chemscore.Hbond>
1.8507

> <Gold.Chemscore.Metal>
0.0000

> <Gold.Chemscore.Lipo>
107.2025

> <Gold.Chemscore.Internal_Hbond>
0.0000

> <Gold.Chemscore.DEClash>
0.7709

> <Gold.Chemscore.DEInternal>
3.7184

> <Gold.Chemscore.Rot>
1.3796

> <Gold.Chemscore.Internal.Correction>
   9.000000E+99

> <Gold.Chemscore.Hbonds>
donor molecule, donor type, donor heavy atom, donor atom, acceptor molecule, acceptor atom, score
      L1  H     3    22       P1  8028  0.63
      L1  H    10    32       P1  8028  1.00

> <Gold.Chemscore.Hbond.Weighted>
-6.1812

> <Gold.Chemscore.Metal.Weighted>
-0.0000

> <Gold.Chemscore.Lipo.Weighted>
-12.5427

> <Gold.Chemscore.Internal_Hbond.Weighted>
0.0000

> <Gold.Chemscore.DEClash.Weighted>
0.7709

> <Gold.Chemscore.DEInternal.Weighted>
3.7184

> <Gold.Chemscore.Rot.Weighted>
3.5317

> <Gold.Chemscore.Internal.Correction.Weighted>
   9.000000E+99

> <Gold.Protein.RotatedTorsions>
[ 6907 6896 6895 6894 ] final  -55.78 input  -60.11 | X-H torsion
[ 7974 7965 7964 7962 ] final  119.21 input  175.53 | X-H torsion
[ 8008 7997 7996 7995 ] final  -48.74 input   59.86 | X-H torsion
[ 10167 10162 10161 10158 ] final -121.99 input  -65.29 | X-H torsion
[ 10718 10713 10712 10709 ] final  155.36 input   66.30 | X-H torsion
[ 10763 10752 10751 10750 ] final   90.82 input  -60.55 | X-H torsion
[ 11005 11000 10999 10996 ] final  -81.50 input  -57.11 | X-H torsion

> <Gold.Protein.ActiveResidues>
 VAL166  LYS551  ARG553  GLY616  TRP617  ASP618  TYR619  PRO620  LYS621  CYS622 
 ASP623  PHE694  ASN695  SER759  ASP760  ASP761  ALA762  ILE779  LEU786  VAL792 
 PHE793  MET794  SER795  GLU796  ALA797  LYS798  CYS799  TRP800  GLU811  SER814 

> <Gold.Protein.RotatedAtoms>
  150.8223  134.7437  159.6782 H   0  0  0  0  0  0  0  0  0  0  0  0  # atno 6907 bound_to 6896
  152.4337  134.5724  159.9935 H   0  0  0  0  0  0  0  0  0  0  0  0  # atno 6908 bound_to 6896
  151.5905  133.3329  159.3063 H   0  0  0  0  0  0  0  0  0  0  0  0  # atno 6909 bound_to 6896
  145.1458  139.3240  143.4592 H   0  0  0  0  0  0  0  0  0  0  0  0  # atno 7974 bound_to 7965
  154.4033  140.1314  156.4388 H   0  0  0  0  0  0  0  0  0  0  0  0  # atno 8008 bound_to 7997
  155.7479  140.3488  155.5116 H   0  0  0  0  0  0  0  0  0  0  0  0  # atno 8009 bound_to 7997
  155.8978  140.1014  157.1362 H   0  0  0  0  0  0  0  0  0  0  0  0  # atno 8010 bound_to 7997
  140.0191  143.5363  152.2229 H   0  0  0  0  0  0  0  0  0  0  0  0  # atno 10167 bound_to 10162
  157.2193  131.0715  151.1922 H   0  0  0  0  0  0  0  0  0  0  0  0  # atno 10718 bound_to 10713
  153.2016  135.4420  155.0273 H   0  0  0  0  0  0  0  0  0  0  0  0  # atno 10763 bound_to 10752
  154.8150  135.3311  154.7203 H   0  0  0  0  0  0  0  0  0  0  0  0  # atno 10764 bound_to 10752
  153.7648  135.6989  153.4973 H   0  0  0  0  0  0  0  0  0  0  0  0  # atno 10765 bound_to 10752
  141.1666  133.7199  156.8431 H   0  0  0  0  0  0  0  0  0  0  0  0  # atno 11005 bound_to 11000
  146.3500  140.1513  142.8592 LP  0  0  0  0  0  0  0  0  0  0  0  0  # atno 17320 bound_to 7965
  145.0483  140.8998  143.5011 LP  0  0  0  0  0  0  0  0  0  0  0  0  # atno 17321 bound_to 7965
  139.6152  144.7618  151.2862 LP  0  0  0  0  0  0  0  0  0  0  0  0  # atno 17342 bound_to 10162
  140.7350  143.6750  150.8049 LP  0  0  0  0  0  0  0  0  0  0  0  0  # atno 17343 bound_to 10162
  157.3592  130.7122  149.6490 LP  0  0  0  0  0  0  0  0  0  0  0  0  # atno 17370 bound_to 10713
  155.9683  130.4230  150.4544 LP  0  0  0  0  0  0  0  0  0  0  0  0  # atno 17371 bound_to 10713
  140.1969  134.8925  157.3124 LP  0  0  0  0  0  0  0  0  0  0  0  0  # atno 17394 bound_to 11000
  140.2229  134.4001  155.7557 LP  0  0  0  0  0  0  0  0  0  0  0  0  # atno 17395 bound_to 11000

$$$$
