AV-unprocessed.smi:3010|AV-procd|sdf|11455|dock9
  -GOLD-   2272016393D 1   1.00000     0.00000
 Structure written by MMmdl.
 38 40  0  0  0  0  0  0  0  0  1 V2000
  145.5466  143.0613  159.3003 C   0  0  0  0  0  0  0  0  0  0  0  0
  146.3821  143.0929  158.0851 N   0  0  0  0  0  0  0  0  0  0  0  0
  147.4785  142.2727  158.0313 C   0  0  0  0  0  0  0  0  0  0  0  0
  147.8279  141.5000  158.9248 O   0  0  0  0  0  0  0  0  0  0  0  0
  148.2408  142.3851  156.7851 C   0  0  0  0  0  0  0  0  0  0  0  0
  147.8915  143.2208  155.7780 C   0  0  0  0  0  0  0  0  0  0  0  0
  148.7826  143.1331  154.7144 N   0  0  0  0  0  0  0  0  0  0  0  0
  149.6502  142.2202  155.1542 C   0  0  0  0  0  0  0  0  0  0  0  0
  149.3994  141.7241  156.3832 N   0  0  0  0  0  0  0  0  0  0  0  0
  150.1858  140.7255  157.0906 C   0  0  0  0  0  0  0  0  0  0  0  0
  151.6911  141.0577  157.1132 C   0  0  2  0  0  0  0  0  0  0  0  0
  152.4445  139.9061  156.7834 O   0  0  0  0  0  0  0  0  0  0  0  0
  152.1019  141.6532  158.4507 C   0  0  0  0  0  0  0  0  0  0  0  0
  152.0657  143.0516  158.6385 C   0  0  0  0  0  0  0  0  0  0  0  0
  152.4356  143.6115  159.8770 C   0  0  0  0  0  0  0  0  0  0  0  0
  152.8407  142.7760  160.9357 C   0  0  0  0  0  0  0  0  0  0  0  0
  152.8742  141.3798  160.7560 C   0  0  0  0  0  0  0  0  0  0  0  0
  152.5045  140.8195  159.5177 C   0  0  0  0  0  0  0  0  0  0  0  0
  146.7363  144.0262  155.9339 N   0  0  0  0  0  0  0  0  0  0  0  0
  146.3886  144.9179  154.8238 C   0  0  0  0  0  0  0  0  0  0  0  0
  145.9863  143.9650  157.0840 C   0  0  0  0  0  0  0  0  0  0  0  0
  144.9839  144.6716  157.2204 O   0  0  0  0  0  0  0  0  0  0  0  0
  145.8671  142.3473  160.0596 H   0  0  0  0  0  0  0  0  0  0  0  0
  144.5169  142.8017  159.0490 H   0  0  0  0  0  0  0  0  0  0  0  0
  145.5376  144.0420  159.7789 H   0  0  0  0  0  0  0  0  0  0  0  0
  150.4987  141.9042  154.5650 H   0  0  0  0  0  0  0  0  0  0  0  0
  149.7977  140.6353  158.1055 H   0  0  0  0  0  0  0  0  0  0  0  0
  150.0216  139.7568  156.6160 H   0  0  0  0  0  0  0  0  0  0  0  0
  151.9039  141.7934  156.3370 H   0  0  0  0  0  0  0  0  0  0  0  0
  151.8570  139.1670  156.7408 H   0  0  0  0  0  0  0  0  0  0  0  0
  151.7520  143.7003  157.8335 H   0  0  0  0  0  0  0  0  0  0  0  0
  152.4074  144.6823  160.0152 H   0  0  0  0  0  0  0  0  0  0  0  0
  153.1235  143.2054  161.8855 H   0  0  0  0  0  0  0  0  0  0  0  0
  153.1820  140.7380  161.5683 H   0  0  0  0  0  0  0  0  0  0  0  0
  152.5289  139.7470  159.3912 H   0  0  0  0  0  0  0  0  0  0  0  0
  145.4956  145.5205  154.9914 H   0  0  0  0  0  0  0  0  0  0  0  0
  146.2201  144.3343  153.9181 H   0  0  0  0  0  0  0  0  0  0  0  0
  147.2116  145.6062  154.6287 H   0  0  0  0  0  0  0  0  0  0  0  0
  1  2  1  0  0  0  0
  1 23  1  0  0  0  0
  1 24  1  0  0  0  0
  1 25  1  0  0  0  0
  2 21  1  0  0  0  0
  2  3  1  0  0  0  0
  3  4  2  0  0  0  0
  3  5  1  0  0  0  0
  5  9  1  0  0  0  0
  5  6  2  0  0  0  0
  6  7  1  0  0  0  0
  6 19  1  0  0  0  0
  7  8  2  0  0  0  0
  8  9  1  0  0  0  0
  8 26  1  0  0  0  0
  9 10  1  0  0  0  0
 10 11  1  0  0  0  0
 10 27  1  0  0  0  0
 10 28  1  0  0  0  0
 11 12  1  0  0  0  0
 11 13  1  0  0  0  0
 11 29  1  0  0  0  0
 12 30  1  0  0  0  0
 13 18  1  0  0  0  0
 13 14  2  0  0  0  0
 14 15  1  0  0  0  0
 14 31  1  0  0  0  0
 15 16  2  0  0  0  0
 15 32  1  0  0  0  0
 16 17  1  0  0  0  0
 16 33  1  0  0  0  0
 17 18  2  0  0  0  0
 17 34  1  0  0  0  0
 18 35  1  0  0  0  0
 19 20  1  0  0  0  0
 19 21  1  0  0  0  0
 20 36  1  0  0  0  0
 20 37  1  0  0  0  0
 20 38  1  0  0  0  0
 21 22  2  0  0  0  0
M  END
> <s_m_source_file>
AV-unprocessed.smi

> <i_m_source_file_index>
3010

> <i_lp_mmshare_version>
43012

> <i_f3d_flags>
0

> <s_epik_input>
Tz1jMW4oW0NIM10pYyg9TyluKFtDSDNdKWMoYzEyKW5bY0hdbjJbQ0gyXVtDQEhdKFtPSF0pYzNbY0hdW2NIXVtjSF1bY0hdW2NIXTM=

> <s_epik_cmdline>
J2VwaWtfcHl0aG9uJywgJy1waCcsICc3LjAnLCAnLXRuJywgJzgnLCAnLW1hJywgJzIwMCcsICctbWV0YWxfYmluZGluZycsICctaW1hZScsICc8aW5maWxlLm1hZT4nLCAnLW9tYWUnLCAnPG91dGZpbGUubWFlPic=

> <r_lp_tautomer_probability>
1

> <r_epik_Ionization_Penalty>
1.43747e-06

> <r_epik_Ionization_Penalty_Charging>
3.74189e-09

> <r_epik_Ionization_Penalty_Neutral>
1.43373e-06

> <r_epik_State_Penalty>
-0

> <r_epik_Charging_Adjusted_Penalty>
3.74189e-09

> <i_epik_Tot_Q>
0

> <i_epik_Tot_abs_Q>
0

> <r_epik_Metal_State_Penalty>
-0

> <b_epik_Metal_Only>
0

> <s_lp_Force_Field>
OPLS_2005

> <r_lp_Energy>
35.6617

> <b_lp_Chiralities_Consistent>
1

> <s_lp_Variant>
AV-unprocessed.smi:3010-1

> <Gold.Version>
5.8.1

> <Gold.Id.Protein>
6NUR|6NUR_protein|mol2

> <Gold.PLP.Fitness>
44.2900

> <Gold.PLP.PLP>
-42.1928

> <Gold.PLP.part.hbond>
-2.5899

> <Gold.PLP.part.metal>
0.0000

> <Gold.PLP.part.buried>
-3.9394

> <Gold.PLP.part.nonpolar>
-34.2741

> <Gold.PLP.part.repulsive>
0.4131

> <Gold.PLP.ligand.clash>
0.0000

> <Gold.PLP.ligand.torsion>
1.4384

> <Gold.PLP.Chemscore.Hbond>
1.6503

> <Gold.PLP.Chemscore.CHOScore>
0.0000

> <Gold.PLP.Chemscore.Metal>
0.0000

> <Gold.Chemscore.Hbonds>
donor molecule, donor type, donor heavy atom, donor atom, acceptor molecule, acceptor atom, score
      P1  H  6934  6946       L1     4  0.11
      P1  H  7997  8009       L1    12  1.00
      P1  H  8022  8030       L1     7  1.00

> <Gold.PLP.Chemscore.Internal.Correction>
0.0231

> <Gold.Rescore>
     Score         DG    S(hbond)    S(metal)    S(lipo)     H(rot)  DE(clash)    DE(int)     intcor
     12.51     -15.39       1.53        0.00      87.97       2.15       1.90       0.97       ----

> <Gold.Chemscore.Fitness>
12.5143

> <Gold.Chemscore.DG>
-15.3871

> <Gold.Chemscore.ZeroCoef>
-5.4800

> <Gold.Chemscore.Hbond>
1.5306

> <Gold.Chemscore.Metal>
0.0000

> <Gold.Chemscore.Lipo>
87.9676

> <Gold.Chemscore.Internal_Hbond>
0.0000

> <Gold.Chemscore.DEClash>
1.8986

> <Gold.Chemscore.DEInternal>
0.9742

> <Gold.Chemscore.Rot>
2.1474

> <Gold.Chemscore.Internal.Correction>
   9.000000E+99

> <Gold.Chemscore.Hbonds>
donor molecule, donor type, donor heavy atom, donor atom, acceptor molecule, acceptor atom, score
      P1  H  6934  6946       L1     4  0.13
      P1  H  7997  8009       L1    12  0.95
      P1  H  8022  8030       L1     7  0.64

> <Gold.Chemscore.Hbond.Weighted>
-5.1122

> <Gold.Chemscore.Metal.Weighted>
-0.0000

> <Gold.Chemscore.Lipo.Weighted>
-10.2922

> <Gold.Chemscore.Internal_Hbond.Weighted>
0.0000

> <Gold.Chemscore.DEClash.Weighted>
1.8986

> <Gold.Chemscore.DEInternal.Weighted>
0.9742

> <Gold.Chemscore.Rot.Weighted>
5.4974

> <Gold.Chemscore.Internal.Correction.Weighted>
   9.000000E+99

> <Gold.Protein.RotatedTorsions>
[ 6907 6896 6895 6894 ] final  -82.77 input  -60.11 | X-H torsion
[ 7974 7965 7964 7962 ] final   77.66 input  175.53 | X-H torsion
[ 8008 7997 7996 7995 ] final -179.15 input   59.86 | X-H torsion
[ 10167 10162 10161 10158 ] final  111.02 input  -65.29 | X-H torsion
[ 10718 10713 10712 10709 ] final   -1.50 input   66.30 | X-H torsion
[ 10763 10752 10751 10750 ] final  141.15 input  -60.55 | X-H torsion
[ 11005 11000 10999 10996 ] final   -2.51 input  -57.11 | X-H torsion

> <Gold.Protein.ActiveResidues>
 VAL166  LYS551  ARG553  GLY616  TRP617  ASP618  TYR619  PRO620  LYS621  CYS622 
 ASP623  PHE694  ASN695  SER759  ASP760  ASP761  ALA762  ILE779  LEU786  VAL792 
 PHE793  MET794  SER795  GLU796  ALA797  LYS798  CYS799  TRP800  GLU811  SER814 

> <Gold.Protein.RotatedAtoms>
  150.6893  134.3614  159.4951 H   0  0  0  0  0  0  0  0  0  0  0  0  # atno 6907 bound_to 6896
  152.1442  134.9036  160.0561 H   0  0  0  0  0  0  0  0  0  0  0  0  # atno 6908 bound_to 6896
  152.0158  133.3844  159.4275 H   0  0  0  0  0  0  0  0  0  0  0  0  # atno 6909 bound_to 6896
  145.6872  139.2541  143.1780 H   0  0  0  0  0  0  0  0  0  0  0  0  # atno 7974 bound_to 7965
  156.0271  140.1274  157.0297 H   0  0  0  0  0  0  0  0  0  0  0  0  # atno 8008 bound_to 7997
  154.4335  140.1057  156.6116 H   0  0  0  0  0  0  0  0  0  0  0  0  # atno 8009 bound_to 7997
  155.5861  140.3468  155.4555 H   0  0  0  0  0  0  0  0  0  0  0  0  # atno 8010 bound_to 7997
  139.6643  144.7128  151.1806 H   0  0  0  0  0  0  0  0  0  0  0  0  # atno 10167 bound_to 10162
  156.8047  130.5404  149.5717 H   0  0  0  0  0  0  0  0  0  0  0  0  # atno 10718 bound_to 10713
  153.9345  135.2986  155.3445 H   0  0  0  0  0  0  0  0  0  0  0  0  # atno 10763 bound_to 10752
  154.7509  135.4980  153.9291 H   0  0  0  0  0  0  0  0  0  0  0  0  # atno 10764 bound_to 10752
  153.1074  135.6750  153.9667 H   0  0  0  0  0  0  0  0  0  0  0  0  # atno 10765 bound_to 10752
  140.6591  133.9336  155.8425 H   0  0  0  0  0  0  0  0  0  0  0  0  # atno 11005 bound_to 11000
  146.0913  140.7652  142.9594 LP  0  0  0  0  0  0  0  0  0  0  0  0  # atno 17320 bound_to 7965
  144.7008  140.3642  143.7158 LP  0  0  0  0  0  0  0  0  0  0  0  0  # atno 17321 bound_to 7965
  140.7593  143.5944  150.8763 LP  0  0  0  0  0  0  0  0  0  0  0  0  # atno 17342 bound_to 10162
  139.9605  143.6170  152.3004 LP  0  0  0  0  0  0  0  0  0  0  0  0  # atno 17343 bound_to 10162
  156.1080  130.6019  151.0002 LP  0  0  0  0  0  0  0  0  0  0  0  0  # atno 17370 bound_to 10713
  157.6536  131.0893  150.7997 LP  0  0  0  0  0  0  0  0  0  0  0  0  # atno 17371 bound_to 10713
  141.0478  134.0528  157.3821 LP  0  0  0  0  0  0  0  0  0  0  0  0  # atno 17394 bound_to 11000
  139.9019  135.0167  156.7308 LP  0  0  0  0  0  0  0  0  0  0  0  0  # atno 17395 bound_to 11000

$$$$
