#       Name:                AV-unprocessed.smi:2339
#       Creating user name   scv26
#       Creation time:       Fri Mar 27 12:56:25 2020


#       File generated by GOLD software.
#

@<TRIPOS>MOLECULE
AV-unprocessed.smi:2339
    55    58     1
SMALL
NO_CHARGES


@<TRIPOS>ATOM
      1 ****        -4.7830   3.7769  -2.7556 C.3            1 S1                 0.0000
      2 ****        -4.4822   2.3570  -3.2479 C.3            1 S1                 0.0000
      3 ****        -3.0565   2.0648  -3.2151 N.pl3          1 S1                 0.0000
      4 ****        -2.2509   2.2769  -4.3291 C.2            1 S1                 0.0000
      5 ****        -0.9423   1.9625  -4.3857 C.2            1 S1                 0.0000
      6 ****        -0.2947   1.3476  -3.2095 C.2            1 S1                 0.0000
      7 ****         0.8989   1.0463  -3.2258 O.2            1 S1                 0.0000
      8 ****        -1.1572   1.1151  -2.0213 C.2            1 S1                 0.0000
      9 ****        -0.5301   0.5338  -0.9086 N.am           1 S1                 0.0000
     10 ****        -1.0694   0.0557   0.2313 C.2            1 S1                 0.0000
     11 ****        -2.2676   0.0461   0.5040 O.2            1 S1                 0.0000
     12 ****        -0.1640  -0.4804   1.0682 N.am           1 S1                 0.0000
     13 ****        -0.4098  -1.0858   2.3839 C.3            1 S1                 0.0000
     14 ****        -0.2542  -0.1021   3.5703 C.3            1 S1                 0.0000
     15 ****        -0.1459   1.3950   3.4040 C.3            1 S1                 0.0000
     16 ****         1.3663   1.6347   3.4336 C.3            1 S1                 0.0000
     17 ****         1.9432   0.3699   3.1169 O.3            1 S1                 0.0000
     18 ****         1.1577  -0.6363   3.7505 C.3            1 S1                 0.0000
     19 ****         0.8159  -1.8767   2.9007 C.3            1 S1                 0.0000
     20 ****         1.8793  -2.3859   1.9269 C.3            1 S1                 0.0000
     21 ****         2.7378  -3.3931   2.6946 C.3            1 S1                 0.0000
     22 ****         1.8436  -3.9192   3.8213 C.3            1 S1                 0.0000
     23 ****         0.5264  -3.1459   3.7013 C.3            1 S1                 0.0000
     24 ****        -2.4614   1.4836  -2.0970 C.2            1 S1                 0.0000
     25 ****        -5.8529   3.9814  -2.7956 H              1 S1                 0.0000
     26 ****        -4.2784   4.5225  -3.3705 H              1 S1                 0.0000
     27 ****        -4.4555   3.9137  -1.7246 H              1 S1                 0.0000
     28 ****        -5.0171   1.6307  -2.6347 H              1 S1                 0.0000
     29 ****        -4.8556   2.2310  -4.2650 H              1 S1                 0.0000
     30 ****        -2.7604   2.7298  -5.1673 H              1 S1                 0.0000
     31 ****        -0.3552   2.1489  -5.2730 H              1 S1                 0.0000
     32 ****         0.4700   0.4302  -1.0011 H              1 S1                 0.0000
     33 ****         0.7872  -0.5330   0.7327 H              1 S1                 0.0000
     34 ****        -1.3284  -1.6729   2.4352 H              1 S1                 0.0000
     35 ****        -0.8932  -0.4031   4.4021 H              1 S1                 0.0000
     36 ****        -0.5818   1.7434   2.4691 H              1 S1                 0.0000
     37 ****        -0.6425   1.9347   4.2106 H              1 S1                 0.0000
     38 ****         1.6837   2.4057   2.7313 H              1 S1                 0.0000
     39 ****         1.6871   1.9301   4.4336 H              1 S1                 0.0000
     40 ****         1.4373  -0.8209   4.7888 H              1 S1                 0.0000
     41 ****         1.4006  -2.8898   1.0860 H              1 S1                 0.0000
     42 ****         2.4892  -1.5852   1.5077 H              1 S1                 0.0000
     43 ****         3.0998  -4.1918   2.0466 H              1 S1                 0.0000
     44 ****         3.6092  -2.8935   3.1195 H              1 S1                 0.0000
     45 ****         1.6798  -4.9945   3.7441 H              1 S1                 0.0000
     46 ****         2.3118  -3.7267   4.7874 H              1 S1                 0.0000
     47 ****         0.1008  -2.9335   4.6829 H              1 S1                 0.0000
     48 ****        -0.2031  -3.7602   3.1713 H              1 S1                 0.0000
     49 ****        -3.1530   1.3692  -1.2777 H              1 S1                 0.0000
     50 ****         1.4466   1.2172  -4.0449 LP             1 S1                 0.0000
     51 ****         1.3207   0.6307  -2.4200 LP             1 S1                 0.0000
     52 ****        -2.9315   0.4143  -0.1469 LP             1 S1                 0.0000
     53 ****        -2.5787  -0.3300   1.3768 LP             1 S1                 0.0000
     54 ****         2.8837   0.3305   3.4547 LP             1 S1                 0.0000
     55 ****         1.9387   0.2320   2.1265 LP             1 S1                 0.0000
@<TRIPOS>BOND
    1    1    2 1     
    2    1   25 1     
    3    1   26 1     
    4    1   27 1     
    5    2    3 1     
    6    2   28 1     
    7    2   29 1     
    8    3   24 1     
    9    3    4 1     
   10    4    5 2     
   11    4   30 1     
   12    5    6 1     
   13    5   31 1     
   14    6    7 2     
   15    6    8 1     
   16    8    9 1     
   17    8   24 2     
   18    9   10 am    
   19    9   32 1     
   20   10   11 2     
   21   10   12 am    
   22   12   13 1     
   23   12   33 1     
   24   13   19 1     
   25   13   14 1     
   26   13   34 1     
   27   14   18 1     
   28   14   15 1     
   29   14   35 1     
   30   15   16 1     
   31   15   36 1     
   32   15   37 1     
   33   16   17 1     
   34   16   38 1     
   35   16   39 1     
   36   17   18 1     
   37   18   19 1     
   38   18   40 1     
   39   19   23 1     
   40   19   20 1     
   41   20   21 1     
   42   20   41 1     
   43   20   42 1     
   44   21   22 1     
   45   21   43 1     
   46   21   44 1     
   47   22   23 1     
   48   22   45 1     
   49   22   46 1     
   50   23   47 1     
   51   23   48 1     
   52   24   49 1     
   53    7   50 1     
   54    7   51 1     
   55   11   52 1     
   56   11   53 1     
   57   17   54 1     
   58   17   55 1     
@<TRIPOS>SUBSTRUCTURE
      1 S1             1
@<TRIPOS>SET
LONE_PAIRS      STATIC     ATOMS    <user>   **** ""
6 50 51 52 53 54 55
DONOR_HYDROGENS      STATIC     ATOMS    <user>   **** ""
2 32 33
ATOM$BLUE        STATIC     ATOMS    COLORGROUP SYSTEM
6 50 51 52 53 54 55
ATOM$RED        STATIC     ATOMS    COLORGROUP SYSTEM
2 32 33
