#       Name:                AV-unprocessed.smi:199
#       Creating user name   scv26
#       Creation time:       Thu Mar 26 19:45:38 2020


#       File generated by GOLD software.
#

@<TRIPOS>MOLECULE
AV-unprocessed.smi:199
    61    65     1
SMALL
NO_CHARGES


@<TRIPOS>ATOM
      1 ****        -5.8461   0.6469  -0.2559 C.3            1 S1                 0.0000
      2 ****        -5.0262   1.8440  -0.7621 C.3            1 S1                 0.0000
      3 ****        -5.2099   2.9153   0.1602 O.3            1 S1                 0.0000
      4 ****        -4.0383   3.7111   0.1803 C.3            1 S1                 0.0000
      5 ****        -2.9340   2.6677   0.1120 C.3            1 S1                 0.0000
      6 ****        -3.4880   1.6439  -0.8753 C.3            1 S1                 0.0000
      7 ****        -3.1001   2.0436  -2.1796 O.3            1 S1                 0.0000
      8 ****        -2.9593   0.2043  -0.6405 C.3            1 S1                 0.0000
      9 ****        -1.5082   0.1043  -0.6921 N.pl3          1 S1                 0.0000
     10 ****        -0.7338  -0.0560  -1.8181 C.2            1 S1                 0.0000
     11 ****         0.5516  -0.1179  -1.6041 N.2            1 S1                 0.0000
     12 ****         0.6771  -0.0043  -0.2243 C.ar           1 S1                 0.0000
     13 ****         1.7785   0.0011   0.6805 C.ar           1 S1                 0.0000
     14 ****         3.0757  -0.1295   0.2923 N.3            1 S1                 0.0000
     15 ****         4.1199  -0.4812   1.2415 C.3            1 S1                 0.0000
     16 ****         5.3969  -0.2697   0.4100 C.3            1 S1                 0.0000
     17 ****         4.9216  -0.7021  -0.9874 C.3            1 S1                 0.0000
     18 ****         3.4693  -1.1225  -0.6972 C.3            1 S1                 0.0000
     19 ****         3.4948  -2.4695   0.0690 C.3            1 S1                 0.0000
     20 ****         2.1621  -3.2419   0.0321 C.3            1 S1                 0.0000
     21 ****         2.3165  -4.5066   0.6400 O.3            1 S1                 0.0000
     22 ****         3.9109  -1.9919   1.4755 C.3            1 S1                 0.0000
     23 ****         1.4976   0.1675   2.0005 N.ar           1 S1                 0.0000
     24 ****         0.2342   0.2884   2.4159 C.ar           1 S1                 0.0000
     25 ****        -0.8852   0.2808   1.6912 N.ar           1 S1                 0.0000
     26 ****        -0.6130   0.1384   0.3629 C.ar           1 S1                 0.0000
     27 ****        -5.7562  -0.2087  -0.9251 H              1 S1                 0.0000
     28 ****        -6.9037   0.9044  -0.1980 H              1 S1                 0.0000
     29 ****        -5.5310   0.3370   0.7406 H              1 S1                 0.0000
     30 ****        -5.4402   2.1608  -1.7214 H              1 S1                 0.0000
     31 ****        -4.0192   4.3659  -0.6921 H              1 S1                 0.0000
     32 ****        -3.9840   4.3259   1.0789 H              1 S1                 0.0000
     33 ****        -1.9656   3.0811  -0.1739 H              1 S1                 0.0000
     34 ****        -2.8241   2.2161   1.0985 H              1 S1                 0.0000
     35 ****        -3.4180   2.9208  -2.3303 H              1 S1                 0.0000
     36 ****        -3.2817  -0.1684   0.3320 H              1 S1                 0.0000
     37 ****        -3.3721  -0.4783  -1.3843 H              1 S1                 0.0000
     38 ****        -1.1557  -0.1196  -2.8108 H              1 S1                 0.0000
     39 ****         4.1205   0.1043   2.1617 H              1 S1                 0.0000
     40 ****         5.6925   0.7801   0.4062 H              1 S1                 0.0000
     41 ****         6.2387  -0.8595   0.7745 H              1 S1                 0.0000
     42 ****         4.9486   0.1423  -1.6773 H              1 S1                 0.0000
     43 ****         5.5239  -1.5047  -1.4142 H              1 S1                 0.0000
     44 ****         2.8702  -1.1521  -1.6058 H              1 S1                 0.0000
     45 ****         4.2660  -3.1142  -0.3556 H              1 S1                 0.0000
     46 ****         1.3648  -2.7020   0.5417 H              1 S1                 0.0000
     47 ****         1.8416  -3.3916  -0.9991 H              1 S1                 0.0000
     48 ****         1.4891  -4.9617   0.6002 H              1 S1                 0.0000
     49 ****         4.8099  -2.4895   1.8401 H              1 S1                 0.0000
     50 ****         3.1187  -2.1642   2.2053 H              1 S1                 0.0000
     51 ****         0.1018   0.4094   3.4808 H              1 S1                 0.0000
     52 ****        -5.3803   2.5460   1.0737 LP             1 S1                 0.0000
     53 ****        -5.9895   3.4732  -0.1245 LP             1 S1                 0.0000
     54 ****        -3.4949   1.4208  -2.8550 LP             1 S1                 0.0000
     55 ****        -2.1030   2.0283  -2.2549 LP             1 S1                 0.0000
     56 ****         1.2814  -0.2232  -2.2796 LP             1 S1                 0.0000
     57 ****         3.0357   0.8243  -0.0055 LP             1 S1                 0.0000
     58 ****         2.5922  -4.3907   1.5943 LP             1 S1                 0.0000
     59 ****         3.0142  -5.0320   0.1530 LP             1 S1                 0.0000
     60 ****         2.2435   0.1997   2.6659 LP             1 S1                 0.0000
     61 ****        -1.8054   0.3683   2.0728 LP             1 S1                 0.0000
@<TRIPOS>BOND
    1    1    2 1     
    2    1   27 1     
    3    1   28 1     
    4    1   29 1     
    5    2    6 1     
    6    2    3 1     
    7    2   30 1     
    8    3    4 1     
    9    4    5 1     
   10    4   31 1     
   11    4   32 1     
   12    5    6 1     
   13    5   33 1     
   14    5   34 1     
   15    6    7 1     
   16    6    8 1     
   17    7   35 1     
   18    8    9 1     
   19    8   36 1     
   20    8   37 1     
   21    9   26 1     
   22    9   10 1     
   23   10   11 2     
   24   10   38 1     
   25   11   12 1     
   26   12   26 ar    
   27   12   13 ar    
   28   13   14 1     
   29   13   23 ar    
   30   14   18 1     
   31   14   15 1     
   32   15   22 1     
   33   15   16 1     
   34   15   39 1     
   35   16   17 1     
   36   16   40 1     
   37   16   41 1     
   38   17   18 1     
   39   17   42 1     
   40   17   43 1     
   41   18   19 1     
   42   18   44 1     
   43   19   20 1     
   44   19   22 1     
   45   19   45 1     
   46   20   21 1     
   47   20   46 1     
   48   20   47 1     
   49   21   48 1     
   50   22   49 1     
   51   22   50 1     
   52   23   24 ar    
   53   24   25 ar    
   54   24   51 1     
   55   25   26 ar    
   56    3   52 1     
   57    3   53 1     
   58    7   54 1     
   59    7   55 1     
   60   11   56 1     
   61   14   57 1     
   62   21   58 1     
   63   21   59 1     
   64   23   60 1     
   65   25   61 1     
@<TRIPOS>SUBSTRUCTURE
      1 S1             1
@<TRIPOS>SET
LONE_PAIRS      STATIC     ATOMS    <user>   **** ""
10 52 53 54 55 56 57 58 59 60 61
DONOR_HYDROGENS      STATIC     ATOMS    <user>   **** ""
2 35 48
ATOM$BLUE        STATIC     ATOMS    COLORGROUP SYSTEM
10 52 53 54 55 56 57 58 59 60 61
ATOM$RED        STATIC     ATOMS    COLORGROUP SYSTEM
2 35 48
