AV-unprocessed.smi:1758|AV-procd|sdf|7082|dock2
  -GOLD-   22720 8303D 1   1.00000     0.00000
 Structure written by MMmdl.
 44 46  0  0  0  0  0  0  0  0  2 V2000
  145.9062  131.8165  149.3933 C   0  0  0  0  0  0  0  0  0  0  0  0
  144.9635  132.2067  150.5384 C   0  0  0  0  0  0  0  0  0  0  0  0
  145.0993  133.6057  150.8933 N   0  0  0  0  0  0  0  0  0  0  0  0
  145.8341  134.1579  151.9239 C   0  0  0  0  0  0  0  0  0  0  0  0
  145.6425  135.5076  151.8313 C   0  0  0  0  0  0  0  0  0  0  0  0
  146.1741  136.5490  152.6325 N   0  0  0  0  0  0  0  0  0  0  0  0
  146.6530  137.7327  152.2171 C   0  0  0  0  0  0  0  0  0  0  0  0
  146.7307  138.0935  151.0429 O   0  0  0  0  0  0  0  0  0  0  0  0
  147.0605  138.4828  153.2511 N   0  0  0  0  0  0  0  0  0  0  0  0
  147.6406  139.8207  153.1469 C   0  0  1  0  0  0  0  0  0  0  0  0
  146.7877  140.9008  153.8400 C   0  0  0  0  0  0  0  0  0  0  0  0
  147.8061  141.8130  154.5315 C   0  0  0  0  0  0  0  0  0  0  0  0
  148.8753  140.8815  154.9081 N   0  3  2  0  0  0  0  0  0  0  0  0
  150.1562  141.4330  155.3940 C   0  0  0  0  0  0  0  0  0  0  0  0
  151.0291  140.2633  155.8975 C   0  0  0  0  0  0  0  0  0  0  0  0
  151.1761  139.1449  154.8407 C   0  0  0  0  0  0  0  0  0  0  0  0
  149.8078  138.7044  154.2767 C   0  0  0  0  0  0  0  0  0  0  0  0
  149.0461  139.9471  153.7819 C   0  0  1  0  0  0  0  0  0  0  0  0
  144.7807  135.7016  150.7207 C   0  0  0  0  0  0  0  0  0  0  0  0
  144.4536  134.5470  150.1611 N   0  0  0  0  0  0  0  0  0  0  0  0
  145.8003  130.7597  149.1477 H   0  0  0  0  0  0  0  0  0  0  0  0
  146.9476  131.9926  149.6641 H   0  0  0  0  0  0  0  0  0  0  0  0
  145.6927  132.3906  148.4912 H   0  0  0  0  0  0  0  0  0  0  0  0
  143.9266  132.0140  150.2603 H   0  0  0  0  0  0  0  0  0  0  0  0
  145.1737  131.6007  151.4204 H   0  0  0  0  0  0  0  0  0  0  0  0
  146.4137  133.5517  152.6043 H   0  0  0  0  0  0  0  0  0  0  0  0
  146.1938  136.3708  153.6258 H   0  0  0  0  0  0  0  0  0  0  0  0
  146.9578  138.1015  154.1801 H   0  0  0  0  0  0  0  0  0  0  0  0
  147.7192  140.0896  152.0913 H   0  0  0  0  0  0  0  0  0  0  0  0
  146.1479  141.4428  153.1429 H   0  0  0  0  0  0  0  0  0  0  0  0
  146.1418  140.4479  154.5940 H   0  0  0  0  0  0  0  0  0  0  0  0
  148.1928  142.5570  153.8330 H   0  0  0  0  0  0  0  0  0  0  0  0
  147.3906  142.3307  155.3964 H   0  0  0  0  0  0  0  0  0  0  0  0
  150.6589  141.9796  154.5947 H   0  0  0  0  0  0  0  0  0  0  0  0
  149.9703  142.1395  156.2035 H   0  0  0  0  0  0  0  0  0  0  0  0
  152.0123  140.6304  156.1932 H   0  0  0  0  0  0  0  0  0  0  0  0
  150.5773  139.8432  156.7973 H   0  0  0  0  0  0  0  0  0  0  0  0
  151.8023  139.5052  154.0234 H   0  0  0  0  0  0  0  0  0  0  0  0
  151.6972  138.2889  155.2706 H   0  0  0  0  0  0  0  0  0  0  0  0
  149.9574  137.9963  153.4611 H   0  0  0  0  0  0  0  0  0  0  0  0
  149.2343  138.1882  155.0477 H   0  0  0  0  0  0  0  0  0  0  0  0
  149.6717  140.4448  153.0375 H   0  0  0  0  0  0  0  0  0  0  0  0
  144.3893  136.6208  150.3106 H   0  0  0  0  0  0  0  0  0  0  0  0
  148.4960  140.3337  155.6671 H   0  0  0  0  0  0  0  0  0  0  0  0
  1  2  1  0  0  0  0
  1 21  1  0  0  0  0
  1 22  1  0  0  0  0
  1 23  1  0  0  0  0
  2  3  1  0  0  0  0
  2 24  1  0  0  0  0
  2 25  1  0  0  0  0
  3 20  1  0  0  0  0
  3  4  1  0  0  0  0
  4  5  2  0  0  0  0
  4 26  1  0  0  0  0
  5  6  1  0  0  0  0
  5 19  1  0  0  0  0
  6  7  1  0  0  0  0
  6 27  1  0  0  0  0
  7  8  2  0  0  0  0
  7  9  1  0  0  0  0
  9 10  1  0  0  0  0
  9 28  1  0  0  0  0
 10 18  1  0  0  0  0
 10 11  1  0  0  0  0
 10 29  1  0  0  0  0
 11 12  1  0  0  0  0
 11 30  1  0  0  0  0
 11 31  1  0  0  0  0
 12 13  1  0  0  0  0
 12 32  1  0  0  0  0
 12 33  1  0  0  0  0
 13 18  1  0  0  0  0
 13 14  1  0  0  0  0
 13 44  1  0  0  0  0
 14 15  1  0  0  0  0
 14 34  1  0  0  0  0
 14 35  1  0  0  0  0
 15 16  1  0  0  0  0
 15 36  1  0  0  0  0
 15 37  1  0  0  0  0
 16 17  1  0  0  0  0
 16 38  1  0  0  0  0
 16 39  1  0  0  0  0
 17 18  1  0  0  0  0
 17 40  1  0  0  0  0
 17 41  1  0  0  0  0
 18 42  1  0  0  0  0
 19 20  2  0  0  0  0
 19 43  1  0  0  0  0
M  CHG  1  13   1
M  END
> <s_m_source_file>
AV-unprocessed.smi

> <i_m_source_file_index>
1758

> <i_lp_mmshare_version>
43012

> <i_f3d_flags>
0

> <s_epik_input>
W0NIM11bQ0gyXW4xW2NIXWMoW2NIXW4xKVtOSF1DKD1PKVtOSF1bQ0BIXShbQ0gyXVtDSDJdMilbQ0BASF0oTjIzKVtDSDJdW0NIMl1bQ0gyXVtDSDJdMw==

> <s_epik_cmdline>
J2VwaWtfcHl0aG9uJywgJy1waCcsICc3LjAnLCAnLXRuJywgJzgnLCAnLW1hJywgJzIwMCcsICctbWV0YWxfYmluZGluZycsICctaW1hZScsICc8aW5maWxlLm1hZT4nLCAnLW9tYWUnLCAnPG91dGZpbGUubWFlPic=

> <r_lp_tautomer_probability>
1

> <r_epik_Ionization_Penalty>
0.00111541

> <r_epik_Ionization_Penalty_Charging>
0.000974069

> <r_epik_Ionization_Penalty_Neutral>
0.000141346

> <r_epik_State_Penalty>
0.000633842

> <r_epik_Charging_Adjusted_Penalty>
0.00160791

> <i_epik_Tot_Q>
1

> <i_epik_Tot_abs_Q>
1

> <r_epik_Metal_State_Penalty>
-0

> <b_epik_Metal_Only>
0

> <s_lp_Force_Field>
OPLS_2005

> <r_lp_Energy>
45.3498

> <b_lp_Chiralities_Consistent>
1

> <s_lp_Variant>
AV-unprocessed.smi:1758-4

> <Gold.Version>
5.8.1

> <Gold.Id.Protein>
6NUR|6NUR_protein|mol2

> <Gold.PLP.Fitness>
39.6273

> <Gold.PLP.PLP>
-34.9202

> <Gold.PLP.part.hbond>
-2.1795

> <Gold.PLP.part.metal>
0.0000

> <Gold.PLP.part.buried>
1.8215

> <Gold.PLP.part.nonpolar>
-37.1207

> <Gold.PLP.part.repulsive>
1.7631

> <Gold.PLP.ligand.clash>
0.0000

> <Gold.PLP.ligand.torsion>
0.6481

> <Gold.PLP.Chemscore.Hbond>
1.0000

> <Gold.PLP.Chemscore.CHOScore>
1.0000

> <Gold.PLP.Chemscore.Metal>
0.0000

> <Gold.Chemscore.Hbonds>
donor molecule, donor type, donor heavy atom, donor atom, acceptor molecule, acceptor atom, score
      P1  H  7954  7966       L1     8  1.00
      L1  C    19    43       P1 10171  1.00

> <Gold.PLP.Chemscore.Internal.Correction>
0.0033

> <Gold.Rescore>
     Score         DG    S(hbond)    S(metal)    S(lipo)     H(rot)  DE(clash)    DE(int)     intcor
     13.05     -15.64       0.84        0.00      88.88       1.19       2.01       0.57       ----

> <Gold.Chemscore.Fitness>
13.0480

> <Gold.Chemscore.DG>
-15.6353

> <Gold.Chemscore.ZeroCoef>
-5.4800

> <Gold.Chemscore.Hbond>
0.8378

> <Gold.Chemscore.Metal>
0.0000

> <Gold.Chemscore.Lipo>
88.8823

> <Gold.Chemscore.Internal_Hbond>
0.0000

> <Gold.Chemscore.DEClash>
2.0146

> <Gold.Chemscore.DEInternal>
0.5728

> <Gold.Chemscore.Rot>
1.1884

> <Gold.Chemscore.Internal.Correction>
   9.000000E+99

> <Gold.Chemscore.Hbonds>
donor molecule, donor type, donor heavy atom, donor atom, acceptor molecule, acceptor atom, score
      P1  H  7954  7966       L1     8  1.00

> <Gold.Chemscore.Hbond.Weighted>
-2.7984

> <Gold.Chemscore.Metal.Weighted>
-0.0000

> <Gold.Chemscore.Lipo.Weighted>
-10.3992

> <Gold.Chemscore.Internal_Hbond.Weighted>
0.0000

> <Gold.Chemscore.DEClash.Weighted>
2.0146

> <Gold.Chemscore.DEInternal.Weighted>
0.5728

> <Gold.Chemscore.Rot.Weighted>
3.0423

> <Gold.Chemscore.Internal.Correction.Weighted>
   9.000000E+99

> <Gold.Protein.RotatedTorsions>
[ 6907 6896 6895 6894 ] final  -78.70 input  -60.11 | X-H torsion
[ 7974 7965 7964 7962 ] final  157.52 input  175.53 | X-H torsion
[ 8008 7997 7996 7995 ] final   67.09 input   59.86 | X-H torsion
[ 10167 10162 10161 10158 ] final -117.26 input  -65.29 | X-H torsion
[ 10718 10713 10712 10709 ] final -108.18 input   66.30 | X-H torsion
[ 10763 10752 10751 10750 ] final   67.07 input  -60.55 | X-H torsion
[ 11005 11000 10999 10996 ] final -112.27 input  -57.11 | X-H torsion

> <Gold.Protein.ActiveResidues>
 VAL166  LYS551  ARG553  GLY616  TRP617  ASP618  TYR619  PRO620  LYS621  CYS622 
 ASP623  PHE694  ASN695  SER759  ASP760  ASP761  ALA762  ILE779  LEU786  VAL792 
 PHE793  MET794  SER795  GLU796  ALA797  LYS798  CYS799  TRP800  GLU811  SER814 

> <Gold.Protein.RotatedAtoms>
  150.6966  134.4232  159.5214 H   0  0  0  0  0  0  0  0  0  0  0  0  # atno 6907 bound_to 6896
  152.1971  134.8618  160.0521 H   0  0  0  0  0  0  0  0  0  0  0  0  # atno 6908 bound_to 6896
  151.9552  133.3643  159.4051 H   0  0  0  0  0  0  0  0  0  0  0  0  # atno 6909 bound_to 6896
  144.7899  139.7352  143.6226 H   0  0  0  0  0  0  0  0  0  0  0  0  # atno 7974 bound_to 7965
  155.6875  140.3496  155.4880 H   0  0  0  0  0  0  0  0  0  0  0  0  # atno 8008 bound_to 7997
  155.9553  140.1127  157.0965 H   0  0  0  0  0  0  0  0  0  0  0  0  # atno 8009 bound_to 7997
  154.4131  140.1186  156.5093 H   0  0  0  0  0  0  0  0  0  0  0  0  # atno 8010 bound_to 7997
  140.0702  143.4884  152.1984 H   0  0  0  0  0  0  0  0  0  0  0  0  # atno 10167 bound_to 10162
  156.0473  130.5700  150.7925 H   0  0  0  0  0  0  0  0  0  0  0  0  # atno 10718 bound_to 10713
  153.0169  135.5297  154.6922 H   0  0  0  0  0  0  0  0  0  0  0  0  # atno 10763 bound_to 10752
  154.6054  135.2872  155.0493 H   0  0  0  0  0  0  0  0  0  0  0  0  # atno 10764 bound_to 10752
  154.1534  135.6559  153.5021 H   0  0  0  0  0  0  0  0  0  0  0  0  # atno 10765 bound_to 10752
  141.0685  133.9419  157.2532 H   0  0  0  0  0  0  0  0  0  0  0  0  # atno 11005 bound_to 11000
  146.2146  139.5526  142.9658 LP  0  0  0  0  0  0  0  0  0  0  0  0  # atno 17320 bound_to 7965
  145.5823  141.0381  143.2115 LP  0  0  0  0  0  0  0  0  0  0  0  0  # atno 17321 bound_to 7965
  139.5840  144.7523  151.3567 LP  0  0  0  0  0  0  0  0  0  0  0  0  # atno 17342 bound_to 10162
  140.7129  143.7343  150.7600 LP  0  0  0  0  0  0  0  0  0  0  0  0  # atno 17343 bound_to 10162
  157.5362  131.0939  150.9889 LP  0  0  0  0  0  0  0  0  0  0  0  0  # atno 17370 bound_to 10713
  157.0183  130.5664  149.5328 LP  0  0  0  0  0  0  0  0  0  0  0  0  # atno 17371 bound_to 10713
  139.9500  135.0177  156.8965 LP  0  0  0  0  0  0  0  0  0  0  0  0  # atno 17394 bound_to 11000
  140.5723  134.0431  155.7435 LP  0  0  0  0  0  0  0  0  0  0  0  0  # atno 17395 bound_to 11000

$$$$
