AV-unprocessed.smi:290|AV-procd|sdf|2229|dock7
  -GOLD-   2262022 83D 1   1.00000     0.00000
 Structure written by MMmdl.
 59 62  0  0  0  0  0  0  0  0  2 V2000
  152.9089  138.9093  155.0735 C   0  0  0  0  0  0  0  0  0  0  0  0
  151.6421  139.2719  155.8683 C   0  0  2  0  0  0  0  0  0  0  0  0
  151.0599  140.4669  155.3495 O   0  0  0  0  0  0  0  0  0  0  0  0
  150.9999  141.4590  156.3625 C   0  0  0  0  0  0  0  0  0  0  0  0
  150.8856  140.6615  157.6546 C   0  0  0  0  0  0  0  0  0  0  0  0
  151.8078  139.4794  157.3957 C   0  0  2  0  0  0  0  0  0  0  0  0
  153.1319  139.8777  157.7157 O   0  0  0  0  0  0  0  0  0  0  0  0
  151.4463  138.2458  158.2575 C   0  0  0  0  0  0  0  0  0  0  0  0
  150.2742  137.5297  157.7784 N   0  0  0  0  0  0  0  0  0  0  0  0
  149.0341  137.4850  158.3740 C   0  0  0  0  0  0  0  0  0  0  0  0
  148.1445  136.7603  157.7527 N   0  0  0  0  0  0  0  0  0  0  0  0
  148.8196  136.2697  156.6407 C   0  0  0  0  0  0  0  0  0  0  0  0
  148.4578  135.4239  155.5528 C   0  0  0  0  0  0  0  0  0  0  0  0
  147.2229  134.8690  155.4266 N   0  0  0  0  0  0  0  0  0  0  0  0
  146.8881  133.7861  156.3490 C   0  0  0  0  0  0  0  0  0  0  0  0
  146.0286  132.7914  155.5620 C   0  0  0  0  0  0  0  0  0  0  0  0
  145.4714  133.6489  154.4207 C   0  0  2  0  0  0  0  0  0  0  0  0
  144.9563  132.9025  153.2372 N   0  3  2  0  0  0  0  0  0  0  0  0
  145.9566  131.9458  152.7070 C   0  0  0  0  0  0  0  0  0  0  0  0
  144.3371  133.7345  152.1695 C   0  0  0  0  0  0  0  0  0  0  0  0
  144.0471  132.9136  150.9031 C   0  0  0  0  0  0  0  0  0  0  0  0
  143.7957  133.7775  149.8145 O   0  0  0  0  0  0  0  0  0  0  0  0
  146.6274  134.6118  154.1156 C   0  0  1  0  0  0  0  0  0  0  0  0
  146.1640  135.9001  153.4121 C   0  0  0  0  0  0  0  0  0  0  0  0
  149.4121  135.1720  154.6176 N   0  0  0  0  0  0  0  0  0  0  0  0
  150.6331  135.7013  154.7348 C   0  0  0  0  0  0  0  0  0  0  0  0
  151.1080  136.4967  155.6940 N   0  0  0  0  0  0  0  0  0  0  0  0
  150.1573  136.7575  156.6358 C   0  0  0  0  0  0  0  0  0  0  0  0
  144.6533  134.2474  154.8270 H   0  0  0  0  0  0  0  0  0  0  0  0
  147.3740  134.1181  153.4951 H   0  0  0  0  0  0  0  0  0  0  0  0
  153.3715  137.9996  155.4555 H   0  0  0  0  0  0  0  0  0  0  0  0
  153.6502  139.7076  155.1139 H   0  0  0  0  0  0  0  0  0  0  0  0
  152.6690  138.7405  154.0238 H   0  0  0  0  0  0  0  0  0  0  0  0
  150.8968  138.4953  155.6961 H   0  0  0  0  0  0  0  0  0  0  0  0
  151.9213  142.0427  156.3478 H   0  0  0  0  0  0  0  0  0  0  0  0
  150.1614  142.1386  156.2094 H   0  0  0  0  0  0  0  0  0  0  0  0
  151.1487  141.2404  158.5410 H   0  0  0  0  0  0  0  0  0  0  0  0
  149.8559  140.3207  157.7728 H   0  0  0  0  0  0  0  0  0  0  0  0
  153.4331  139.3586  158.4454 H   0  0  0  0  0  0  0  0  0  0  0  0
  152.2842  137.5482  158.2934 H   0  0  0  0  0  0  0  0  0  0  0  0
  151.2608  138.5491  159.2886 H   0  0  0  0  0  0  0  0  0  0  0  0
  148.8104  138.0043  159.2945 H   0  0  0  0  0  0  0  0  0  0  0  0
  147.7736  133.2979  156.7590 H   0  0  0  0  0  0  0  0  0  0  0  0
  146.3190  134.2037  157.1801 H   0  0  0  0  0  0  0  0  0  0  0  0
  146.6694  131.9916  155.1913 H   0  0  0  0  0  0  0  0  0  0  0  0
  145.2485  132.3373  156.1735 H   0  0  0  0  0  0  0  0  0  0  0  0
  146.8295  132.4697  152.3158 H   0  0  0  0  0  0  0  0  0  0  0  0
  145.5393  131.3380  151.9050 H   0  0  0  0  0  0  0  0  0  0  0  0
  146.2916  131.2630  153.4882 H   0  0  0  0  0  0  0  0  0  0  0  0
  143.4031  134.1862  152.5014 H   0  0  0  0  0  0  0  0  0  0  0  0
  144.9998  134.5678  151.9309 H   0  0  0  0  0  0  0  0  0  0  0  0
  144.9080  132.2925  150.6553 H   0  0  0  0  0  0  0  0  0  0  0  0
  143.2003  132.2416  151.0397 H   0  0  0  0  0  0  0  0  0  0  0  0
  142.9673  134.2111  149.9549 H   0  0  0  0  0  0  0  0  0  0  0  0
  145.6943  135.6726  152.4551 H   0  0  0  0  0  0  0  0  0  0  0  0
  146.9963  136.5745  153.2119 H   0  0  0  0  0  0  0  0  0  0  0  0
  145.4381  136.4438  154.0178 H   0  0  0  0  0  0  0  0  0  0  0  0
  151.3296  135.4502  153.9482 H   0  0  0  0  0  0  0  0  0  0  0  0
  144.2040  132.3349  153.6013 H   0  0  0  0  0  0  0  0  0  0  0  0
  1  2  1  0  0  0  0
  1 31  1  0  0  0  0
  1 32  1  0  0  0  0
  1 33  1  0  0  0  0
  2  6  1  0  0  0  0
  2  3  1  0  0  0  0
  2 34  1  0  0  0  0
  3  4  1  0  0  0  0
  4  5  1  0  0  0  0
  4 35  1  0  0  0  0
  4 36  1  0  0  0  0
  5  6  1  0  0  0  0
  5 37  1  0  0  0  0
  5 38  1  0  0  0  0
  6  7  1  0  0  0  0
  6  8  1  0  0  0  0
  7 39  1  0  0  0  0
  8  9  1  0  0  0  0
  8 40  1  0  0  0  0
  8 41  1  0  0  0  0
  9 28  1  0  0  0  0
  9 10  1  0  0  0  0
 10 11  2  0  0  0  0
 10 42  1  0  0  0  0
 11 12  1  0  0  0  0
 12 28  2  0  0  0  0
 12 13  1  0  0  0  0
 13 14  1  0  0  0  0
 13 25  2  0  0  0  0
 14 23  1  0  0  0  0
 14 15  1  0  0  0  0
 15 16  1  0  0  0  0
 15 43  1  0  0  0  0
 15 44  1  0  0  0  0
 16 17  1  0  0  0  0
 16 45  1  0  0  0  0
 16 46  1  0  0  0  0
 17 29  1  0  0  0  0
 17 18  1  0  0  0  0
 17 23  1  0  0  0  0
 18 19  1  0  0  0  0
 18 20  1  0  0  0  0
 18 59  1  0  0  0  0
 19 47  1  0  0  0  0
 19 48  1  0  0  0  0
 19 49  1  0  0  0  0
 20 21  1  0  0  0  0
 20 50  1  0  0  0  0
 20 51  1  0  0  0  0
 21 22  1  0  0  0  0
 21 52  1  0  0  0  0
 21 53  1  0  0  0  0
 22 54  1  0  0  0  0
 23 30  1  0  0  0  0
 23 24  1  0  0  0  0
 24 55  1  0  0  0  0
 24 56  1  0  0  0  0
 24 57  1  0  0  0  0
 25 26  1  0  0  0  0
 26 27  2  0  0  0  0
 26 58  1  0  0  0  0
 27 28  1  0  0  0  0
M  CHG  1  18   1
M  END
> <s_m_source_file>
AV-unprocessed.smi

> <i_m_source_file_index>
290

> <i_lp_mmshare_version>
43012

> <i_f3d_flags>
0

> <s_epik_input>
W0NIMl0xW0NIMl1PW0NAQEhdKFtDSDNdKVtDQEBdMShbT0hdKVtDSDJdbihbY0hdbjIpYyhjMjMpbltjSF1uYzNONFtDSDJdW0NIMl1bQ0BIXShbQ0BIXTRbQ0gzXSlOKFtDSDNdKVtDSDJdW0NIMl1bT0hd

> <s_epik_cmdline>
J2VwaWtfcHl0aG9uJywgJy1waCcsICc3LjAnLCAnLXRuJywgJzgnLCAnLW1hJywgJzIwMCcsICctbWV0YWxfYmluZGluZycsICctaW1hZScsICc8aW5maWxlLm1hZT4nLCAnLW9tYWUnLCAnPG91dGZpbGUubWFlPic=

> <r_lp_tautomer_probability>
1

> <r_epik_Ionization_Penalty>
0.0036983

> <r_epik_Ionization_Penalty_Charging>
0.0032725

> <r_epik_Ionization_Penalty_Neutral>
0.000425798

> <r_epik_State_Penalty>
-0

> <r_epik_Charging_Adjusted_Penalty>
0.0032725

> <i_epik_Tot_Q>
1

> <i_epik_Tot_abs_Q>
1

> <r_epik_Metal_State_Penalty>
-0

> <b_epik_Metal_Only>
0

> <s_lp_Force_Field>
OPLS_2005

> <r_lp_Energy>
60.087

> <b_lp_Chiralities_Consistent>
1

> <s_lp_Variant>
AV-unprocessed.smi:290-15

> <Gold.Version>
5.8.1

> <Gold.Id.Protein>
6NUR|6NUR_protein|mol2

> <Gold.PLP.Fitness>
45.3744

> <Gold.PLP.PLP>
-29.1188

> <Gold.PLP.part.hbond>
-4.2180

> <Gold.PLP.part.metal>
0.0000

> <Gold.PLP.part.buried>
-3.5458

> <Gold.PLP.part.nonpolar>
-21.7406

> <Gold.PLP.part.repulsive>
1.6249

> <Gold.PLP.ligand.clash>
0.0000

> <Gold.PLP.ligand.torsion>
1.0406

> <Gold.PLP.Chemscore.Hbond>
4.9760

> <Gold.PLP.Chemscore.CHOScore>
0.9636

> <Gold.PLP.Chemscore.Metal>
0.0000

> <Gold.Chemscore.Hbonds>
donor molecule, donor type, donor heavy atom, donor atom, acceptor molecule, acceptor atom, score
      L1  H    18    59       P1 10957  1.80
      L1  H    22    54       P1 10186  1.00
      P1  H  7989  7998       L1     3  0.96
      P1  H  7997  8008       L1     7  0.99
      L1  C    26    58       P1  7949  0.98

> <Gold.PLP.Chemscore.Internal.Correction>
0.5180

> <Gold.Rescore>
     Score         DG    S(hbond)    S(metal)    S(lipo)     H(rot)  DE(clash)    DE(int)     intcor
     12.94     -15.18       3.59        0.00      60.56       3.67       0.10       2.14       ----

> <Gold.Chemscore.Fitness>
12.9358

> <Gold.Chemscore.DG>
-15.1771

> <Gold.Chemscore.ZeroCoef>
-5.4800

> <Gold.Chemscore.Hbond>
3.5915

> <Gold.Chemscore.Metal>
0.0000

> <Gold.Chemscore.Lipo>
60.5649

> <Gold.Chemscore.Internal_Hbond>
0.0000

> <Gold.Chemscore.DEClash>
0.1026

> <Gold.Chemscore.DEInternal>
2.1387

> <Gold.Chemscore.Rot>
3.6658

> <Gold.Chemscore.Internal.Correction>
   9.000000E+99

> <Gold.Chemscore.Hbonds>
donor molecule, donor type, donor heavy atom, donor atom, acceptor molecule, acceptor atom, score
      L1  H    18    59       P1 10957  0.17
      L1  H    22    54       P1 10186  0.89
      P1  H  7989  7998       L1     3  0.76
      P1  H  7997  8008       L1     7  0.61

> <Gold.Chemscore.Hbond.Weighted>
-11.9955

> <Gold.Chemscore.Metal.Weighted>
-0.0000

> <Gold.Chemscore.Lipo.Weighted>
-7.0861

> <Gold.Chemscore.Internal_Hbond.Weighted>
0.0000

> <Gold.Chemscore.DEClash.Weighted>
0.1026

> <Gold.Chemscore.DEInternal.Weighted>
2.1387

> <Gold.Chemscore.Rot.Weighted>
9.3844

> <Gold.Chemscore.Internal.Correction.Weighted>
   9.000000E+99

> <Gold.Protein.RotatedTorsions>
[ 6907 6896 6895 6894 ] final   59.55 input  -60.11 | X-H torsion
[ 7974 7965 7964 7962 ] final   -5.49 input  175.53 | X-H torsion
[ 8008 7997 7996 7995 ] final  -60.71 input   59.86 | X-H torsion
[ 10167 10162 10161 10158 ] final -101.48 input  -65.29 | X-H torsion
[ 10718 10713 10712 10709 ] final   92.64 input   66.30 | X-H torsion
[ 10763 10752 10751 10750 ] final  -61.94 input  -60.55 | X-H torsion
[ 11005 11000 10999 10996 ] final   17.19 input  -57.11 | X-H torsion

> <Gold.Protein.ActiveResidues>
 VAL166  LYS551  ARG553  GLY616  TRP617  ASP618  TYR619  PRO620  LYS621  CYS622 
 ASP623  PHE694  ASN695  SER759  ASP760  ASP761  ALA762  ILE779  LEU786  VAL792 
 PHE793  MET794  SER795  GLU796  ALA797  LYS798  CYS799  TRP800  GLU811  SER814 

> <Gold.Protein.RotatedAtoms>
  152.3925  134.6419  160.0101 H   0  0  0  0  0  0  0  0  0  0  0  0  # atno 6907 bound_to 6896
  151.6648  133.3310  159.3190 H   0  0  0  0  0  0  0  0  0  0  0  0  # atno 6908 bound_to 6896
  150.7838  134.6849  159.6509 H   0  0  0  0  0  0  0  0  0  0  0  0  # atno 6909 bound_to 6896
  146.2351  140.2029  142.8334 H   0  0  0  0  0  0  0  0  0  0  0  0  # atno 7974 bound_to 7965
  154.4412  140.1033  156.6317 H   0  0  0  0  0  0  0  0  0  0  0  0  # atno 8008 bound_to 7997
  155.5597  140.3487  155.4470 H   0  0  0  0  0  0  0  0  0  0  0  0  # atno 8009 bound_to 7997
  156.0468  140.1295  157.0083 H   0  0  0  0  0  0  0  0  0  0  0  0  # atno 8010 bound_to 7997
  140.2408  143.3540  152.0803 H   0  0  0  0  0  0  0  0  0  0  0  0  # atno 10167 bound_to 10162
  157.6958  131.0450  150.3913 H   0  0  0  0  0  0  0  0  0  0  0  0  # atno 10718 bound_to 10713
  154.2922  135.6251  153.5390 H   0  0  0  0  0  0  0  0  0  0  0  0  # atno 10763 bound_to 10752
  152.9851  135.5658  154.5377 H   0  0  0  0  0  0  0  0  0  0  0  0  # atno 10764 bound_to 10752
  154.4990  135.2871  155.1412 H   0  0  0  0  0  0  0  0  0  0  0  0  # atno 10765 bound_to 10752
  140.4387  134.1344  155.7688 H   0  0  0  0  0  0  0  0  0  0  0  0  # atno 11005 bound_to 11000
  144.9767  140.8421  143.5422 LP  0  0  0  0  0  0  0  0  0  0  0  0  # atno 17320 bound_to 7965
  145.2017  139.2248  143.5189 LP  0  0  0  0  0  0  0  0  0  0  0  0  # atno 17321 bound_to 7965
  139.5078  144.6838  151.5940 LP  0  0  0  0  0  0  0  0  0  0  0  0  # atno 17342 bound_to 10162
  140.6115  143.9428  150.6456 LP  0  0  0  0  0  0  0  0  0  0  0  0  # atno 17343 bound_to 10162
  156.4316  130.3973  149.6757 LP  0  0  0  0  0  0  0  0  0  0  0  0  # atno 17370 bound_to 10713
  156.3972  130.7656  151.2662 LP  0  0  0  0  0  0  0  0  0  0  0  0  # atno 17371 bound_to 10713
  141.1715  133.8600  157.1556 LP  0  0  0  0  0  0  0  0  0  0  0  0  # atno 17394 bound_to 11000
  140.0084  134.9998  157.0343 LP  0  0  0  0  0  0  0  0  0  0  0  0  # atno 17395 bound_to 11000

$$$$
