AV-unprocessed.smi:65|AV-procd|sdf|612|dock6
  -GOLD-   2262016503D 1   1.00000     0.00000
 Structure written by MMmdl.
 26 27  0  0  0  0  0  0  0  0  2 V2000
  146.7671  137.8684  152.2959 N   0  0  0  0  0  0  0  0  0  0  0  0
  145.5974  137.1531  152.3918 C   0  0  0  0  0  0  0  0  0  0  0  0
  144.4570  137.8166  152.6329 N   0  3  0  0  0  0  0  0  0  0  0  0
  143.2923  137.1297  152.7307 C   0  0  0  0  0  0  0  0  0  0  0  0
  143.2774  135.7310  152.5775 C   0  0  0  0  0  0  0  0  0  0  0  0
  144.5097  135.1047  152.3220 C   0  0  0  0  0  0  0  0  0  0  0  0
  144.5633  133.7105  152.1725 N   0  0  0  0  0  0  0  0  0  0  0  0
  145.8469  133.2117  151.6844 C   0  0  0  0  0  0  0  0  0  0  0  0
  145.5563  132.4553  150.3867 C   0  0  0  0  0  0  0  0  0  0  0  0
  144.1321  131.9616  150.6082 C   0  0  2  0  0  0  0  0  0  0  0  0
  143.4618  131.6804  149.3984 O   0  0  0  0  0  0  0  0  0  0  0  0
  143.4940  133.1254  151.3659 C   0  0  0  0  0  0  0  0  0  0  0  0
  145.6521  135.8254  152.2397 N   0  0  0  0  0  0  0  0  0  0  0  0
  147.6410  137.3955  152.1150 H   0  0  0  0  0  0  0  0  0  0  0  0
  146.7608  138.8763  152.3587 H   0  0  0  0  0  0  0  0  0  0  0  0
  142.4107  137.7218  152.9289 H   0  0  0  0  0  0  0  0  0  0  0  0
  142.3594  135.1664  152.6535 H   0  0  0  0  0  0  0  0  0  0  0  0
  146.5837  134.0015  151.5295 H   0  0  0  0  0  0  0  0  0  0  0  0
  146.2512  132.5310  152.4344 H   0  0  0  0  0  0  0  0  0  0  0  0
  145.5903  133.1491  149.5451 H   0  0  0  0  0  0  0  0  0  0  0  0
  146.2662  131.6505  150.1938 H   0  0  0  0  0  0  0  0  0  0  0  0
  144.1429  131.0702  151.2374 H   0  0  0  0  0  0  0  0  0  0  0  0
  142.5309  131.7530  149.5460 H   0  0  0  0  0  0  0  0  0  0  0  0
  142.6736  132.7847  151.9977 H   0  0  0  0  0  0  0  0  0  0  0  0
  143.0851  133.8535  150.6638 H   0  0  0  0  0  0  0  0  0  0  0  0
  144.4531  138.8308  152.7450 H   0  0  0  0  0  0  0  0  0  0  0  0
  1  2  1  0  0  0  0
  1 14  1  0  0  0  0
  1 15  1  0  0  0  0
  2 13  1  0  0  0  0
  2  3  2  0  0  0  0
  3  4  1  0  0  0  0
  3 26  1  0  0  0  0
  4  5  2  0  0  0  0
  4 16  1  0  0  0  0
  5  6  1  0  0  0  0
  5 17  1  0  0  0  0
  6  7  1  0  0  0  0
  6 13  2  0  0  0  0
  7 12  1  0  0  0  0
  7  8  1  0  0  0  0
  8  9  1  0  0  0  0
  8 18  1  0  0  0  0
  8 19  1  0  0  0  0
  9 10  1  0  0  0  0
  9 20  1  0  0  0  0
  9 21  1  0  0  0  0
 10 11  1  0  0  0  0
 10 12  1  0  0  0  0
 10 22  1  0  0  0  0
 11 23  1  0  0  0  0
 12 24  1  0  0  0  0
 12 25  1  0  0  0  0
M  CHG  1   3   1
M  END
> <s_m_source_file>
AV-unprocessed.smi

> <i_m_source_file_index>
65

> <i_lp_mmshare_version>
43012

> <i_f3d_flags>
0

> <s_epik_input>
W05IMl1jMW5bY0hdW2NIXWMobjEpTjJbQ0gyXVtDSDJdW0NAQEhdKFtPSF0pW0NIMl0y

> <s_epik_cmdline>
J2VwaWtfcHl0aG9uJywgJy1waCcsICc3LjAnLCAnLXRuJywgJzgnLCAnLW1hJywgJzIwMCcsICctbWV0YWxfYmluZGluZycsICctaW1hZScsICc8aW5maWxlLm1hZT4nLCAnLW9tYWUnLCAnPG91dGZpbGUubWFlPic=

> <r_lp_tautomer_probability>
0.575011

> <r_epik_Ionization_Penalty>
0.212468

> <r_epik_Ionization_Penalty_Charging>
0.212464

> <r_epik_Ionization_Penalty_Neutral>
4.40197e-06

> <r_epik_State_Penalty>
0.43682

> <r_epik_Charging_Adjusted_Penalty>
0.649284

> <i_epik_Tot_Q>
1

> <i_epik_Tot_abs_Q>
1

> <r_epik_Metal_State_Penalty>
0.733762

> <b_epik_Metal_Only>
0

> <s_lp_Force_Field>
OPLS_2005

> <r_lp_Energy>
27.6482

> <b_lp_Chiralities_Consistent>
1

> <s_lp_Variant>
AV-unprocessed.smi:65-2

> <Gold.Version>
5.8.1

> <Gold.Id.Protein>
6NUR|6NUR_protein|mol2

> <Gold.PLP.Fitness>
42.4335

> <Gold.PLP.PLP>
-26.1910

> <Gold.PLP.part.hbond>
-5.0000

> <Gold.PLP.part.metal>
0.0000

> <Gold.PLP.part.buried>
-6.4525

> <Gold.PLP.part.nonpolar>
-16.1786

> <Gold.PLP.part.repulsive>
0.3592

> <Gold.PLP.ligand.clash>
0.0000

> <Gold.PLP.ligand.torsion>
0.3405

> <Gold.PLP.Chemscore.Hbond>
5.6240

> <Gold.PLP.Chemscore.CHOScore>
0.0000

> <Gold.PLP.Chemscore.Metal>
0.0000

> <Gold.Chemscore.Hbonds>
donor molecule, donor type, donor heavy atom, donor atom, acceptor molecule, acceptor atom, score
      L1  H     1    14       P1  7948  2.00
      L1  H     3    26       P1 10175  1.98
      L1  H    11    23       P1 10952  0.40
      P1  H 10785 10796       L1    11  0.45

> <Gold.PLP.Chemscore.Internal.Correction>
0.0516

> <Gold.Rescore>
     Score         DG    S(hbond)    S(metal)    S(lipo)     H(rot)  DE(clash)    DE(int)     intcor
     16.26     -16.92       3.21        0.00      40.25       1.56       0.02       0.64       ----

> <Gold.Chemscore.Fitness>
16.2614

> <Gold.Chemscore.DG>
-16.9224

> <Gold.Chemscore.ZeroCoef>
-5.4800

> <Gold.Chemscore.Hbond>
3.2145

> <Gold.Chemscore.Metal>
0.0000

> <Gold.Chemscore.Lipo>
40.2533

> <Gold.Chemscore.Internal_Hbond>
0.0000

> <Gold.Chemscore.DEClash>
0.0202

> <Gold.Chemscore.DEInternal>
0.6407

> <Gold.Chemscore.Rot>
1.5640

> <Gold.Chemscore.Internal.Correction>
   9.000000E+99

> <Gold.Chemscore.Hbonds>
donor molecule, donor type, donor heavy atom, donor atom, acceptor molecule, acceptor atom, score
      L1  H     1    14       P1  7948  1.00
      L1  H     3    26       P1 10175  0.94
      L1  H    11    23       P1 10952  0.39
      P1  H 10785 10796       L1    11  0.01

> <Gold.Chemscore.Hbond.Weighted>
-10.7366

> <Gold.Chemscore.Metal.Weighted>
-0.0000

> <Gold.Chemscore.Lipo.Weighted>
-4.7096

> <Gold.Chemscore.Internal_Hbond.Weighted>
0.0000

> <Gold.Chemscore.DEClash.Weighted>
0.0202

> <Gold.Chemscore.DEInternal.Weighted>
0.6407

> <Gold.Chemscore.Rot.Weighted>
4.0038

> <Gold.Chemscore.Internal.Correction.Weighted>
   9.000000E+99

> <Gold.Protein.RotatedTorsions>
[ 6907 6896 6895 6894 ] final    9.40 input  -60.11 | X-H torsion
[ 7974 7965 7964 7962 ] final -161.50 input  175.53 | X-H torsion
[ 8008 7997 7996 7995 ] final  162.72 input   59.86 | X-H torsion
[ 10167 10162 10161 10158 ] final -144.10 input  -65.29 | X-H torsion
[ 10718 10713 10712 10709 ] final   14.06 input   66.30 | X-H torsion
[ 10763 10752 10751 10750 ] final  -53.32 input  -60.55 | X-H torsion
[ 11005 11000 10999 10996 ] final -148.71 input  -57.11 | X-H torsion

> <Gold.Protein.ActiveResidues>
 VAL166  LYS551  ARG553  GLY616  TRP617  ASP618  TYR619  PRO620  LYS621  CYS622 
 ASP623  PHE694  ASN695  SER759  ASP760  ASP761  ALA762  ILE779  LEU786  VAL792 
 PHE793  MET794  SER795  GLU796  ALA797  LYS798  CYS799  TRP800  GLU811  SER814 

> <Gold.Protein.RotatedAtoms>
  151.7216  135.0893  160.0284 H   0  0  0  0  0  0  0  0  0  0  0  0  # atno 6907 bound_to 6896
  152.3598  133.6279  159.6015 H   0  0  0  0  0  0  0  0  0  0  0  0  # atno 6908 bound_to 6896
  150.7596  133.9357  159.3482 H   0  0  0  0  0  0  0  0  0  0  0  0  # atno 6909 bound_to 6896
  144.7389  140.3389  143.6138 H   0  0  0  0  0  0  0  0  0  0  0  0  # atno 7974 bound_to 7965
  156.2010  140.1743  156.7898 H   0  0  0  0  0  0  0  0  0  0  0  0  # atno 8008 bound_to 7997
  154.5592  140.0703  156.8823 H   0  0  0  0  0  0  0  0  0  0  0  0  # atno 8009 bound_to 7997
  155.2880  140.3353  155.4256 H   0  0  0  0  0  0  0  0  0  0  0  0  # atno 8010 bound_to 7997
  139.7930  143.7939  152.2652 H   0  0  0  0  0  0  0  0  0  0  0  0  # atno 10167 bound_to 10162
  157.0337  130.6203  149.5739 H   0  0  0  0  0  0  0  0  0  0  0  0  # atno 10718 bound_to 10713
  154.1569  135.6481  153.4976 H   0  0  0  0  0  0  0  0  0  0  0  0  # atno 10763 bound_to 10752
  153.0121  135.5351  154.6750 H   0  0  0  0  0  0  0  0  0  0  0  0  # atno 10764 bound_to 10752
  154.6053  135.2948  155.0462 H   0  0  0  0  0  0  0  0  0  0  0  0  # atno 10765 bound_to 10752
  140.7583  134.3327  157.5108 H   0  0  0  0  0  0  0  0  0  0  0  0  # atno 11005 bound_to 11000
  145.7395  139.1760  143.2384 LP  0  0  0  0  0  0  0  0  0  0  0  0  # atno 17320 bound_to 7965
  146.1145  140.7387  142.9487 LP  0  0  0  0  0  0  0  0  0  0  0  0  # atno 17321 bound_to 7965
  139.8036  144.7364  150.9791 LP  0  0  0  0  0  0  0  0  0  0  0  0  # atno 17342 bound_to 10162
  140.7820  143.4320  151.0680 LP  0  0  0  0  0  0  0  0  0  0  0  0  # atno 17343 bound_to 10162
  156.0061  130.5147  150.7833 LP  0  0  0  0  0  0  0  0  0  0  0  0  # atno 17370 bound_to 10713
  157.5158  131.0928  151.0141 LP  0  0  0  0  0  0  0  0  0  0  0  0  # atno 17371 bound_to 10713
  139.8775  134.9186  156.3207 LP  0  0  0  0  0  0  0  0  0  0  0  0  # atno 17394 bound_to 11000
  140.9686  133.7342  156.0503 LP  0  0  0  0  0  0  0  0  0  0  0  0  # atno 17395 bound_to 11000

$$$$
