AV-unprocessed.smi:922|AV-procd|sdf|4174|dock7
  -GOLD-   22720 2 83D 1   1.00000     0.00000
 Structure written by MMmdl.
 32 33  0  0  0  0  0  0  0  0  2 V2000
  148.9468  141.0039  154.0880 C   0  0  0  0  0  0  0  0  0  0  0  0
  149.6776  140.0432  155.0312 C   0  0  1  0  0  0  0  0  0  0  0  0
  148.9486  138.6920  155.1516 C   0  0  0  0  0  0  0  0  0  0  0  0
  149.7287  137.7649  155.9603 N   0  0  0  0  0  0  0  0  0  0  0  0
  149.2492  137.0621  157.0669 C   0  0  0  0  0  0  0  0  0  0  0  0
  149.7102  135.6708  157.2998 C   0  0  0  0  0  0  0  0  0  0  0  0
  149.3155  134.9682  158.2860 N   0  0  0  0  0  0  0  0  0  0  0  0
  148.3746  135.4985  159.2454 N   0  5  0  0  0  0  0  0  0  0  0  0
  147.9066  136.7760  159.1129 C   0  0  0  0  0  0  0  0  0  0  0  0
  147.1129  137.2641  159.9159 O   0  0  0  0  0  0  0  0  0  0  0  0
  148.3721  137.5786  157.9737 C   0  0  0  0  0  0  0  0  0  0  0  0
  147.8022  139.2134  157.8746 Cl  0  0  0  0  0  0  0  0  0  0  0  0
  151.0561  137.5663  155.3908 C   0  0  0  0  0  0  0  0  0  0  0  0
  151.8071  138.9100  155.2505 C   0  0  0  0  0  0  0  0  0  0  0  0
  152.2054  139.4966  156.6221 C   0  0  0  0  0  0  0  0  0  0  0  0
  153.0708  138.7101  154.3998 C   0  0  0  0  0  0  0  0  0  0  0  0
  150.9913  139.8285  154.5130 O   0  0  0  0  0  0  0  0  0  0  0  0
  147.9397  141.2152  154.4480 H   0  0  0  0  0  0  0  0  0  0  0  0
  148.8638  140.5857  153.0845 H   0  0  0  0  0  0  0  0  0  0  0  0
  149.4783  141.9528  154.0111 H   0  0  0  0  0  0  0  0  0  0  0  0
  149.7455  140.5215  156.0073 H   0  0  0  0  0  0  0  0  0  0  0  0
  147.9507  138.8252  155.5693 H   0  0  0  0  0  0  0  0  0  0  0  0
  148.8089  138.2542  154.1624 H   0  0  0  0  0  0  0  0  0  0  0  0
  150.4153  135.2731  156.5653 H   0  0  0  0  0  0  0  0  0  0  0  0
  151.6412  136.8825  156.0071 H   0  0  0  0  0  0  0  0  0  0  0  0
  150.9432  137.0901  154.4159 H   0  0  0  0  0  0  0  0  0  0  0  0
  152.9143  138.8446  157.1331 H   0  0  0  0  0  0  0  0  0  0  0  0
  151.3522  139.6167  157.2889 H   0  0  0  0  0  0  0  0  0  0  0  0
  152.6769  140.4730  156.5099 H   0  0  0  0  0  0  0  0  0  0  0  0
  153.7578  138.0054  154.8698 H   0  0  0  0  0  0  0  0  0  0  0  0
  153.6047  139.6503  154.2585 H   0  0  0  0  0  0  0  0  0  0  0  0
  152.8238  138.3219  153.4112 H   0  0  0  0  0  0  0  0  0  0  0  0
  1  2  1  0  0  0  0
  1 18  1  0  0  0  0
  1 19  1  0  0  0  0
  1 20  1  0  0  0  0
  2 17  1  0  0  0  0
  2  3  1  0  0  0  0
  2 21  1  0  0  0  0
  3  4  1  0  0  0  0
  3 22  1  0  0  0  0
  3 23  1  0  0  0  0
  4  5  1  0  0  0  0
  4 13  1  0  0  0  0
  5 11  2  0  0  0  0
  5  6  1  0  0  0  0
  6  7  2  0  0  0  0
  6 24  1  0  0  0  0
  7  8  1  0  0  0  0
  8  9  1  0  0  0  0
  9 10  2  0  0  0  0
  9 11  1  0  0  0  0
 11 12  1  0  0  0  0
 13 14  1  0  0  0  0
 13 25  1  0  0  0  0
 13 26  1  0  0  0  0
 14 15  1  0  0  0  0
 14 16  1  0  0  0  0
 14 17  1  0  0  0  0
 15 27  1  0  0  0  0
 15 28  1  0  0  0  0
 15 29  1  0  0  0  0
 16 30  1  0  0  0  0
 16 31  1  0  0  0  0
 16 32  1  0  0  0  0
M  CHG  1   8  -1
M  END
> <s_m_source_file>
AV-unprocessed.smi

> <i_m_source_file_index>
922

> <i_lp_mmshare_version>
43012

> <i_f3d_flags>
0

> <s_epik_input>
W0NIM11bQ0BASF0oTzEpW0NIMl1OKFtDSDJdQzEoW0NIM10pW0NIM10pYzJbY0hdbltuSF1jKD1PKWMyQ2w=

> <s_epik_cmdline>
J2VwaWtfcHl0aG9uJywgJy1waCcsICc3LjAnLCAnLXRuJywgJzgnLCAnLW1hJywgJzIwMCcsICctbWV0YWxfYmluZGluZycsICctaW1hZScsICc8aW5maWxlLm1hZT4nLCAnLW9tYWUnLCAnPG91dGZpbGUubWFlPic=

> <r_lp_tautomer_probability>
1

> <r_epik_Ionization_Penalty>
2.48086

> <r_epik_Ionization_Penalty_Charging>
0.00187014

> <r_epik_Ionization_Penalty_Neutral>
2.47899

> <r_epik_State_Penalty>
0.0455822

> <r_epik_Charging_Adjusted_Penalty>
0.0474524

> <i_epik_Tot_Q>
-1

> <i_epik_Tot_abs_Q>
1

> <r_epik_Metal_State_Penalty>
0.000768086

> <b_epik_Metal_Only>
0

> <s_lp_Force_Field>
OPLS_2005

> <r_lp_Energy>
41.3096

> <b_lp_Chiralities_Consistent>
1

> <s_lp_Variant>
AV-unprocessed.smi:922-2

> <Gold.Version>
5.8.1

> <Gold.Id.Protein>
6NUR|6NUR_protein|mol2

> <Gold.PLP.Fitness>
30.0087

> <Gold.PLP.PLP>
-21.0087

> <Gold.PLP.part.hbond>
-3.0000

> <Gold.PLP.part.metal>
0.0000

> <Gold.PLP.part.buried>
-2.4735

> <Gold.PLP.part.nonpolar>
-15.2150

> <Gold.PLP.part.repulsive>
0.0956

> <Gold.PLP.ligand.clash>
0.0000

> <Gold.PLP.ligand.torsion>
0.4803

> <Gold.PLP.Chemscore.Hbond>
3.0000

> <Gold.PLP.Chemscore.CHOScore>
0.0000

> <Gold.PLP.Chemscore.Metal>
0.0000

> <Gold.Chemscore.Hbonds>
donor molecule, donor type, donor heavy atom, donor atom, acceptor molecule, acceptor atom, score
      P1  H  6896  6907       L1     7  1.00
      P1  H  6934  6947       L1    10  1.00
      P1  H  7989  7998       L1    17  1.00

> <Gold.PLP.Chemscore.Internal.Correction>
0.9607

> <Gold.Rescore>
     Score         DG    S(hbond)    S(metal)    S(lipo)     H(rot)  DE(clash)    DE(int)     intcor
     19.41     -20.95       2.78        0.00      52.89       0.00       0.01       1.54       ----

> <Gold.Chemscore.Fitness>
19.4066

> <Gold.Chemscore.DG>
-20.9499

> <Gold.Chemscore.ZeroCoef>
-5.4800

> <Gold.Chemscore.Hbond>
2.7791

> <Gold.Chemscore.Metal>
0.0000

> <Gold.Chemscore.Lipo>
52.8864

> <Gold.Chemscore.Internal_Hbond>
0.0000

> <Gold.Chemscore.DEClash>
0.0063

> <Gold.Chemscore.DEInternal>
1.5371

> <Gold.Chemscore.Rot>
0.0000

> <Gold.Chemscore.Internal.Correction>
   9.000000E+99

> <Gold.Chemscore.Hbonds>
donor molecule, donor type, donor heavy atom, donor atom, acceptor molecule, acceptor atom, score
      P1  H  6896  6907       L1     7  0.37
      P1  H  6934  6947       L1    10  0.92
      P1  H  7989  7998       L1    17  0.95

> <Gold.Chemscore.Hbond.Weighted>
-9.2822

> <Gold.Chemscore.Metal.Weighted>
-0.0000

> <Gold.Chemscore.Lipo.Weighted>
-6.1877

> <Gold.Chemscore.Internal_Hbond.Weighted>
0.0000

> <Gold.Chemscore.DEClash.Weighted>
0.0063

> <Gold.Chemscore.DEInternal.Weighted>
1.5371

> <Gold.Chemscore.Rot.Weighted>
0.0000

> <Gold.Chemscore.Internal.Correction.Weighted>
   9.000000E+99

> <Gold.Protein.RotatedTorsions>
[ 6907 6896 6895 6894 ] final  -94.17 input  -60.11 | X-H torsion
[ 7974 7965 7964 7962 ] final   33.94 input  175.53 | X-H torsion
[ 8008 7997 7996 7995 ] final  -16.07 input   59.86 | X-H torsion
[ 10167 10162 10161 10158 ] final  -60.93 input  -65.29 | X-H torsion
[ 10718 10713 10712 10709 ] final   14.43 input   66.30 | X-H torsion
[ 10763 10752 10751 10750 ] final   -1.77 input  -60.55 | X-H torsion
[ 11005 11000 10999 10996 ] final   23.84 input  -57.11 | X-H torsion

> <Gold.Protein.ActiveResidues>
 VAL166  LYS551  ARG553  GLY616  TRP617  ASP618  TYR619  PRO620  LYS621  CYS622 
 ASP623  PHE694  ASN695  SER759  ASP760  ASP761  ALA762  ILE779  LEU786  VAL792 
 PHE793  MET794  SER795  GLU796  ALA797  LYS798  CYS799  TRP800  GLU811  SER814 

> <Gold.Protein.RotatedAtoms>
  150.6936  134.1853  159.4264 H   0  0  0  0  0  0  0  0  0  0  0  0  # atno 6907 bound_to 6896
  151.9826  135.0018  160.0567 H   0  0  0  0  0  0  0  0  0  0  0  0  # atno 6908 bound_to 6896
  152.1741  133.4628  159.4961 H   0  0  0  0  0  0  0  0  0  0  0  0  # atno 6909 bound_to 6896
  146.1387  139.6333  142.9178 H   0  0  0  0  0  0  0  0  0  0  0  0  # atno 7974 bound_to 7965
  154.5081  140.2179  155.9211 H   0  0  0  0  0  0  0  0  0  0  0  0  # atno 8008 bound_to 7997
  156.1518  140.3160  155.8628 H   0  0  0  0  0  0  0  0  0  0  0  0  # atno 8009 bound_to 7997
  155.3923  140.0479  157.3031 H   0  0  0  0  0  0  0  0  0  0  0  0  # atno 8010 bound_to 7997
  140.6039  143.2368  151.5866 H   0  0  0  0  0  0  0  0  0  0  0  0  # atno 10167 bound_to 10162
  157.0389  130.6223  149.5747 H   0  0  0  0  0  0  0  0  0  0  0  0  # atno 10718 bound_to 10713
  153.3492  135.6985  153.6802 H   0  0  0  0  0  0  0  0  0  0  0  0  # atno 10763 bound_to 10752
  153.5536  135.3549  155.2770 H   0  0  0  0  0  0  0  0  0  0  0  0  # atno 10764 bound_to 10752
  154.8650  135.4232  154.2724 H   0  0  0  0  0  0  0  0  0  0  0  0  # atno 10765 bound_to 10752
  140.3652  134.2082  155.7670 H   0  0  0  0  0  0  0  0  0  0  0  0  # atno 11005 bound_to 11000
  145.5097  141.0436  143.2495 LP  0  0  0  0  0  0  0  0  0  0  0  0  # atno 17320 bound_to 7965
  144.7768  139.6612  143.7171 LP  0  0  0  0  0  0  0  0  0  0  0  0  # atno 17321 bound_to 7965
  139.5311  144.2914  152.1149 LP  0  0  0  0  0  0  0  0  0  0  0  0  # atno 17342 bound_to 10162
  140.2100  144.4572  150.6390 LP  0  0  0  0  0  0  0  0  0  0  0  0  # atno 17343 bound_to 10162
  156.0044  130.5129  150.7779 LP  0  0  0  0  0  0  0  0  0  0  0  0  # atno 17370 bound_to 10713
  157.5120  131.0926  151.0187 LP  0  0  0  0  0  0  0  0  0  0  0  0  # atno 17371 bound_to 10713
  141.1972  133.8065  157.0639 LP  0  0  0  0  0  0  0  0  0  0  0  0  # atno 17394 bound_to 11000
  140.0595  134.9762  157.1280 LP  0  0  0  0  0  0  0  0  0  0  0  0  # atno 17395 bound_to 11000

$$$$
