AV-unprocessed.smi:1917|AV-procd|sdf|7768|dock2
  -GOLD-   22720 9513D 1   1.00000     0.00000
 Structure written by MMmdl.
 44 45  0  0  0  0  0  0  0  0  1 V2000
  143.5926  133.5678  151.6139 C   0  0  0  0  0  0  0  0  0  0  0  0
  144.1646  132.6843  150.5015 C   0  0  0  0  0  0  0  0  0  0  0  0
  143.3789  132.0079  149.8365 O   0  0  0  0  0  0  0  0  0  0  0  0
  145.5022  132.6714  150.2815 N   0  0  0  0  0  0  0  0  0  0  0  0
  146.0570  131.8065  149.2358 C   0  0  0  0  0  0  0  0  0  0  0  0
  146.4766  133.4624  151.0499 C   0  0  0  0  0  0  0  0  0  0  0  0
  146.7832  132.8501  152.4230 C   0  0  0  0  0  0  0  0  0  0  0  0
  146.1788  131.8531  152.8195 O   0  0  0  0  0  0  0  0  0  0  0  0
  147.7347  133.4642  153.1425 N   0  0  0  0  0  0  0  0  0  0  0  0
  148.2213  133.0139  154.4435 C   0  0  0  0  0  0  0  0  0  0  0  0
  149.3730  133.8294  155.0228 C   0  0  0  0  0  0  0  0  0  0  0  0
  150.3767  133.1754  155.7627 C   0  0  0  0  0  0  0  0  0  0  0  0
  151.4306  133.9426  156.2907 C   0  0  0  0  0  0  0  0  0  0  0  0
  151.5307  135.2772  156.1223 N   0  0  0  0  0  0  0  0  0  0  0  0
  150.5743  135.9248  155.4142 C   0  0  0  0  0  0  0  0  0  0  0  0
  150.7437  137.3177  155.2487 N   0  0  0  0  0  0  0  0  0  0  0  0
  152.0670  137.8292  154.9006 C   0  0  0  0  0  0  0  0  0  0  0  0
  152.1296  139.3513  155.1103 C   0  0  0  0  0  0  0  0  0  0  0  0
  151.0793  139.9803  154.3845 O   0  0  0  0  0  0  0  0  0  0  0  0
  149.7984  139.5582  154.8404 C   0  0  0  0  0  0  0  0  0  0  0  0
  149.6389  138.0435  154.6239 C   0  0  0  0  0  0  0  0  0  0  0  0
  149.4710  135.2305  154.8566 C   0  0  0  0  0  0  0  0  0  0  0  0
  144.0737  133.3590  152.5695 H   0  0  0  0  0  0  0  0  0  0  0  0
  142.5244  133.3856  151.7359 H   0  0  0  0  0  0  0  0  0  0  0  0
  143.7246  134.6230  151.3742 H   0  0  0  0  0  0  0  0  0  0  0  0
  145.6963  132.1121  148.2527 H   0  0  0  0  0  0  0  0  0  0  0  0
  145.7678  130.7671  149.3999 H   0  0  0  0  0  0  0  0  0  0  0  0
  147.1469  131.8363  149.2118 H   0  0  0  0  0  0  0  0  0  0  0  0
  147.4016  133.5381  150.4758 H   0  0  0  0  0  0  0  0  0  0  0  0
  146.1518  134.4932  151.1893 H   0  0  0  0  0  0  0  0  0  0  0  0
  148.1772  134.2815  152.7480 H   0  0  0  0  0  0  0  0  0  0  0  0
  147.3891  133.0540  155.1465 H   0  0  0  0  0  0  0  0  0  0  0  0
  148.5189  131.9658  154.3781 H   0  0  0  0  0  0  0  0  0  0  0  0
  150.3433  132.1076  155.9224 H   0  0  0  0  0  0  0  0  0  0  0  0
  152.2167  133.4718  156.8623 H   0  0  0  0  0  0  0  0  0  0  0  0
  152.8303  137.3576  155.5202 H   0  0  0  0  0  0  0  0  0  0  0  0
  152.2863  137.5847  153.8604 H   0  0  0  0  0  0  0  0  0  0  0  0
  152.0556  139.6010  156.1700 H   0  0  0  0  0  0  0  0  0  0  0  0
  153.0865  139.7382  154.7595 H   0  0  0  0  0  0  0  0  0  0  0  0
  149.6724  139.8150  155.8937 H   0  0  0  0  0  0  0  0  0  0  0  0
  149.0292  140.0981  154.2881 H   0  0  0  0  0  0  0  0  0  0  0  0
  149.6302  137.8173  153.5569 H   0  0  0  0  0  0  0  0  0  0  0  0
  148.6741  137.7316  155.0239 H   0  0  0  0  0  0  0  0  0  0  0  0
  148.7046  135.7562  154.3093 H   0  0  0  0  0  0  0  0  0  0  0  0
  1  2  1  0  0  0  0
  1 23  1  0  0  0  0
  1 24  1  0  0  0  0
  1 25  1  0  0  0  0
  2  3  2  0  0  0  0
  2  4  1  0  0  0  0
  4  5  1  0  0  0  0
  4  6  1  0  0  0  0
  5 26  1  0  0  0  0
  5 27  1  0  0  0  0
  5 28  1  0  0  0  0
  6  7  1  0  0  0  0
  6 29  1  0  0  0  0
  6 30  1  0  0  0  0
  7  8  2  0  0  0  0
  7  9  1  0  0  0  0
  9 10  1  0  0  0  0
  9 31  1  0  0  0  0
 10 11  1  0  0  0  0
 10 32  1  0  0  0  0
 10 33  1  0  0  0  0
 11 22  1  0  0  0  0
 11 12  2  0  0  0  0
 12 13  1  0  0  0  0
 12 34  1  0  0  0  0
 13 14  2  0  0  0  0
 13 35  1  0  0  0  0
 14 15  1  0  0  0  0
 15 16  1  0  0  0  0
 15 22  2  0  0  0  0
 16 21  1  0  0  0  0
 16 17  1  0  0  0  0
 17 18  1  0  0  0  0
 17 36  1  0  0  0  0
 17 37  1  0  0  0  0
 18 19  1  0  0  0  0
 18 38  1  0  0  0  0
 18 39  1  0  0  0  0
 19 20  1  0  0  0  0
 20 21  1  0  0  0  0
 20 40  1  0  0  0  0
 20 41  1  0  0  0  0
 21 42  1  0  0  0  0
 21 43  1  0  0  0  0
 22 44  1  0  0  0  0
M  END
> <s_m_source_file>
AV-unprocessed.smi

> <i_m_source_file_index>
1917

> <i_lp_mmshare_version>
43012

> <i_f3d_flags>
0

> <s_epik_input>
W0NIM11DKD1PKU4oW0NIM10pW0NIMl1DKD1PKVtOSF1bQ0gyXWMxW2NIXVtjSF1uYyhbY0hdMSlOMltDSDJdW0NIMl1PW0NIMl1bQ0gyXTI=

> <s_epik_cmdline>
J2VwaWtfcHl0aG9uJywgJy1waCcsICc3LjAnLCAnLXRuJywgJzgnLCAnLW1hJywgJzIwMCcsICctbWV0YWxfYmluZGluZycsICctaW1hZScsICc8aW5maWxlLm1hZT4nLCAnLW9tYWUnLCAnPG91dGZpbGUubWFlPic=

> <r_lp_tautomer_probability>
1

> <r_epik_Ionization_Penalty>
0.00469141

> <r_epik_Ionization_Penalty_Charging>
0

> <r_epik_Ionization_Penalty_Neutral>
0.00469141

> <r_epik_State_Penalty>
0.00339539

> <r_epik_Charging_Adjusted_Penalty>
0.00339539

> <i_epik_Tot_Q>
0

> <i_epik_Tot_abs_Q>
0

> <r_epik_Metal_State_Penalty>
-0

> <b_epik_Metal_Only>
0

> <s_lp_Force_Field>
OPLS_2005

> <r_lp_Energy>
17.0747

> <b_lp_Chiralities_Consistent>
1

> <s_lp_Variant>
AV-unprocessed.smi:1917-1

> <Gold.Version>
5.8.1

> <Gold.Id.Protein>
6NUR|6NUR_protein|mol2

> <Gold.PLP.Fitness>
48.2416

> <Gold.PLP.PLP>
-39.1956

> <Gold.PLP.part.hbond>
-3.4259

> <Gold.PLP.part.metal>
0.0000

> <Gold.PLP.part.buried>
-4.8624

> <Gold.PLP.part.nonpolar>
-31.3781

> <Gold.PLP.part.repulsive>
0.5523

> <Gold.PLP.ligand.clash>
0.0000

> <Gold.PLP.ligand.torsion>
0.8729

> <Gold.PLP.Chemscore.Hbond>
3.4253

> <Gold.PLP.Chemscore.CHOScore>
0.0000

> <Gold.PLP.Chemscore.Metal>
0.0000

> <Gold.Chemscore.Hbonds>
donor molecule, donor type, donor heavy atom, donor atom, acceptor molecule, acceptor atom, score
      L1  H     9    31       P1  7948  0.50
      P1  H  7989  7998       L1    19  0.60
      P1  H 10752 10763       L1    14  1.00
      P1  H 10785 10796       L1     3  0.65

> <Gold.PLP.Chemscore.Internal.Correction>
0.5161

> <Gold.Rescore>
     Score         DG    S(hbond)    S(metal)    S(lipo)     H(rot)  DE(clash)    DE(int)     intcor
     14.34     -16.43       2.07        0.00      78.02       2.00       1.15       0.94       ----

> <Gold.Chemscore.Fitness>
14.3383

> <Gold.Chemscore.DG>
-16.4263

> <Gold.Chemscore.ZeroCoef>
-5.4800

> <Gold.Chemscore.Hbond>
2.0739

> <Gold.Chemscore.Metal>
0.0000

> <Gold.Chemscore.Lipo>
78.0184

> <Gold.Chemscore.Internal_Hbond>
0.0000

> <Gold.Chemscore.DEClash>
1.1477

> <Gold.Chemscore.DEInternal>
0.9403

> <Gold.Chemscore.Rot>
1.9956

> <Gold.Chemscore.Internal.Correction>
   9.000000E+99

> <Gold.Chemscore.Hbonds>
donor molecule, donor type, donor heavy atom, donor atom, acceptor molecule, acceptor atom, score
      L1  H     9    31       P1  7948  0.13
      P1  H  7989  7998       L1    19  0.39
      P1  H 10752 10763       L1    14  0.19
      P1  H 10785 10796       L1     3  0.63

> <Gold.Chemscore.Hbond.Weighted>
-6.9268

> <Gold.Chemscore.Metal.Weighted>
-0.0000

> <Gold.Chemscore.Lipo.Weighted>
-9.1282

> <Gold.Chemscore.Internal_Hbond.Weighted>
0.0000

> <Gold.Chemscore.DEClash.Weighted>
1.1477

> <Gold.Chemscore.DEInternal.Weighted>
0.9403

> <Gold.Chemscore.Rot.Weighted>
5.1087

> <Gold.Chemscore.Internal.Correction.Weighted>
   9.000000E+99

> <Gold.Protein.RotatedTorsions>
[ 6907 6896 6895 6894 ] final  118.99 input  -60.11 | X-H torsion
[ 7974 7965 7964 7962 ] final   93.30 input  175.53 | X-H torsion
[ 8008 7997 7996 7995 ] final  161.04 input   59.86 | X-H torsion
[ 10167 10162 10161 10158 ] final   34.84 input  -65.29 | X-H torsion
[ 10718 10713 10712 10709 ] final  147.00 input   66.30 | X-H torsion
[ 10763 10752 10751 10750 ] final   97.92 input  -60.55 | X-H torsion
[ 11005 11000 10999 10996 ] final   78.56 input  -57.11 | X-H torsion

> <Gold.Protein.ActiveResidues>
 VAL166  LYS551  ARG553  GLY616  TRP617  ASP618  TYR619  PRO620  LYS621  CYS622 
 ASP623  PHE694  ASN695  SER759  ASP760  ASP761  ALA762  ILE779  LEU786  VAL792 
 PHE793  MET794  SER795  GLU796  ALA797  LYS798  CYS799  TRP800  GLU811  SER814 

> <Gold.Protein.RotatedAtoms>
  152.4504  133.7617  159.6750 H   0  0  0  0  0  0  0  0  0  0  0  0  # atno 6907 bound_to 6896
  150.8414  133.7920  159.3065 H   0  0  0  0  0  0  0  0  0  0  0  0  # atno 6908 bound_to 6896
  151.5543  135.1069  160.0009 H   0  0  0  0  0  0  0  0  0  0  0  0  # atno 6909 bound_to 6896
  145.4808  139.2278  143.2883 H   0  0  0  0  0  0  0  0  0  0  0  0  # atno 7974 bound_to 7965
  156.2131  140.1788  156.7650 H   0  0  0  0  0  0  0  0  0  0  0  0  # atno 8008 bound_to 7997
  154.5751  140.0675  156.9052 H   0  0  0  0  0  0  0  0  0  0  0  0  # atno 8009 bound_to 7997
  155.2602  140.3335  155.4276 H   0  0  0  0  0  0  0  0  0  0  0  0  # atno 8010 bound_to 7997
  140.4277  144.1369  150.6155 H   0  0  0  0  0  0  0  0  0  0  0  0  # atno 10167 bound_to 10162
  157.3264  131.0913  151.1199 H   0  0  0  0  0  0  0  0  0  0  0  0  # atno 10718 bound_to 10713
  153.2828  135.4166  155.1094 H   0  0  0  0  0  0  0  0  0  0  0  0  # atno 10763 bound_to 10752
  154.8495  135.3499  154.6089 H   0  0  0  0  0  0  0  0  0  0  0  0  # atno 10764 bound_to 10752
  153.6510  135.7052  153.5267 H   0  0  0  0  0  0  0  0  0  0  0  0  # atno 10765 bound_to 10752
  139.9208  134.7773  156.1665 H   0  0  0  0  0  0  0  0  0  0  0  0  # atno 11005 bound_to 11000
  146.2342  140.5595  142.8962 LP  0  0  0  0  0  0  0  0  0  0  0  0  # atno 17320 bound_to 7965
  144.7890  140.5994  143.6554 LP  0  0  0  0  0  0  0  0  0  0  0  0  # atno 17321 bound_to 7965
  140.4462  143.2505  151.9408 LP  0  0  0  0  0  0  0  0  0  0  0  0  # atno 17342 bound_to 10162
  139.4784  144.5606  151.8244 LP  0  0  0  0  0  0  0  0  0  0  0  0  # atno 17343 bound_to 10162
  157.2464  130.6593  149.5912 LP  0  0  0  0  0  0  0  0  0  0  0  0  # atno 17370 bound_to 10713
  155.9691  130.4552  150.5879 LP  0  0  0  0  0  0  0  0  0  0  0  0  # atno 17371 bound_to 10713
  141.0726  133.6790  156.2172 LP  0  0  0  0  0  0  0  0  0  0  0  0  # atno 17394 bound_to 11000
  140.6481  134.5096  157.5575 LP  0  0  0  0  0  0  0  0  0  0  0  0  # atno 17395 bound_to 11000

$$$$
