AV-unprocessed.smi:3208|AV-procd|sdf|12267|dock3
  -GOLD-   2272018103D 1   1.00000     0.00000
 Structure written by MMmdl.
 29 29  0  0  0  0  0  0  0  0  2 V2000
  147.3165  142.0417  154.5188 C   0  0  0  0  0  0  0  0  0  0  0  0
  148.4725  141.6197  153.9850 C   0  0  0  0  0  0  0  0  0  0  0  0
  149.0913  140.2632  154.2410 C   0  0  0  0  0  0  0  0  0  0  0  0
  150.3706  140.4129  154.8447 O   0  0  0  0  0  0  0  0  0  0  0  0
  150.8523  139.2720  155.5515 C   0  0  1  0  0  0  0  0  0  0  0  0
  151.4774  138.3194  154.5217 C   0  0  0  0  0  0  0  0  0  0  0  0
  151.8769  139.6908  156.6185 C   0  0  0  0  0  0  0  0  0  0  0  0
  153.0055  139.1974  156.6075 O   0  0  0  0  0  0  0  0  0  0  0  0
  151.4495  140.6096  157.5040 N   0  0  0  0  0  0  0  0  0  0  0  0
  152.1488  141.1839  158.6012 C   0  0  0  0  0  0  0  0  0  0  0  0
  153.0543  140.4947  159.3403 N   0  0  0  0  0  0  0  0  0  0  0  0
  153.6722  141.1092  160.3700 C   0  0  0  0  0  0  0  0  0  0  0  0
  153.4281  142.4466  160.7285 C   0  0  0  0  0  0  0  0  0  0  0  0
  152.4936  143.1740  159.9715 C   0  0  0  0  0  0  0  0  0  0  0  0
  151.8438  142.5396  158.8937 C   0  0  0  0  0  0  0  0  0  0  0  0
  150.9338  143.2487  158.1570 O   0  5  0  0  0  0  0  0  0  0  0  0
  146.7436  141.4135  155.1853 H   0  0  0  0  0  0  0  0  0  0  0  0
  146.9286  143.0244  154.2948 H   0  0  0  0  0  0  0  0  0  0  0  0
  149.0192  142.2754  153.3231 H   0  0  0  0  0  0  0  0  0  0  0  0
  148.4259  139.6731  154.8727 H   0  0  0  0  0  0  0  0  0  0  0  0
  149.1847  139.7446  153.2860 H   0  0  0  0  0  0  0  0  0  0  0  0
  150.0123  138.7592  156.0243 H   0  0  0  0  0  0  0  0  0  0  0  0
  151.8823  137.4277  155.0019 H   0  0  0  0  0  0  0  0  0  0  0  0
  152.2857  138.7995  153.9689 H   0  0  0  0  0  0  0  0  0  0  0  0
  150.7322  137.9926  153.7963 H   0  0  0  0  0  0  0  0  0  0  0  0
  150.5021  140.9401  157.3894 H   0  0  0  0  0  0  0  0  0  0  0  0
  154.3828  140.5153  160.9255 H   0  0  0  0  0  0  0  0  0  0  0  0
  153.9433  142.9020  161.5609 H   0  0  0  0  0  0  0  0  0  0  0  0
  152.2792  144.2040  160.2164 H   0  0  0  0  0  0  0  0  0  0  0  0
  1  2  2  0  0  0  0
  1 17  1  0  0  0  0
  1 18  1  0  0  0  0
  2  3  1  0  0  0  0
  2 19  1  0  0  0  0
  3  4  1  0  0  0  0
  3 20  1  0  0  0  0
  3 21  1  0  0  0  0
  4  5  1  0  0  0  0
  5  6  1  0  0  0  0
  5  7  1  0  0  0  0
  5 22  1  0  0  0  0
  6 23  1  0  0  0  0
  6 24  1  0  0  0  0
  6 25  1  0  0  0  0
  7  8  2  0  0  0  0
  7  9  1  0  0  0  0
  9 26  1  0  0  0  0
  9 10  1  0  0  0  0
 10 15  2  0  0  0  0
 10 11  1  0  0  0  0
 11 12  2  0  0  0  0
 12 27  1  0  0  0  0
 12 13  1  0  0  0  0
 13 28  1  0  0  0  0
 13 14  2  0  0  0  0
 14 15  1  0  0  0  0
 14 29  1  0  0  0  0
 15 16  1  0  0  0  0
M  CHG  1  16  -1
M  END
> <s_m_source_file>
AV-unprocessed.smi

> <i_m_source_file_index>
3208

> <i_lp_mmshare_version>
43012

> <i_f3d_flags>
0

> <s_epik_input>
W0NIMl09W0NIXVtDSDJdT1tDQEhdKFtDSDNdKUMoPU8pW05IXWMxbltjSF1bY0hdW2NIXWMxW09IXQ==

> <s_epik_cmdline>
J2VwaWtfcHl0aG9uJywgJy1waCcsICc3LjAnLCAnLXRuJywgJzgnLCAnLW1hJywgJzIwMCcsICctbWV0YWxfYmluZGluZycsICctaW1hZScsICc8aW5maWxlLm1hZT4nLCAnLW9tYWUnLCAnPG91dGZpbGUubWFlPic=

> <r_epik_Ionization_Penalty>
4.05889

> <r_epik_Ionization_Penalty_Charging>
2.07983

> <r_epik_Ionization_Penalty_Neutral>
1.97905

> <r_epik_State_Penalty>
2.65143

> <r_epik_Charging_Adjusted_Penalty>
4.73126

> <i_epik_Tot_Q>
-1

> <i_epik_Tot_abs_Q>
1

> <r_epik_Metal_State_Penalty>
0.650759

> <b_epik_Metal_Only>
0

> <s_lp_Force_Field>
OPLS_2005

> <r_lp_Energy>
4.10408

> <b_lp_Chiralities_Consistent>
1

> <s_lp_Variant>
AV-unprocessed.smi:3208-8

> <Gold.Version>
5.8.1

> <Gold.Id.Protein>
6NUR|6NUR_protein|mol2

> <Gold.PLP.Fitness>
39.4938

> <Gold.PLP.PLP>
-34.7551

> <Gold.PLP.part.hbond>
-1.9391

> <Gold.PLP.part.metal>
0.0000

> <Gold.PLP.part.buried>
-3.7748

> <Gold.PLP.part.nonpolar>
-29.1488

> <Gold.PLP.part.repulsive>
0.2612

> <Gold.PLP.ligand.clash>
0.0000

> <Gold.PLP.ligand.torsion>
0.6257

> <Gold.PLP.Chemscore.Hbond>
1.9920

> <Gold.PLP.Chemscore.CHOScore>
0.0000

> <Gold.PLP.Chemscore.Metal>
0.0000

> <Gold.Chemscore.Hbonds>
donor molecule, donor type, donor heavy atom, donor atom, acceptor molecule, acceptor atom, score
      P1  H  7989  7998       L1     4  1.00
      P1  H  7997  8009       L1     8  1.00

> <Gold.PLP.Chemscore.Internal.Correction>
0.0141

> <Gold.Rescore>
     Score         DG    S(hbond)    S(metal)    S(lipo)     H(rot)  DE(clash)    DE(int)     intcor
     15.49     -16.43       1.72        0.00      80.73       1.65       0.02       0.91       ----

> <Gold.Chemscore.Fitness>
15.4918

> <Gold.Chemscore.DG>
-16.4280

> <Gold.Chemscore.ZeroCoef>
-5.4800

> <Gold.Chemscore.Hbond>
1.7171

> <Gold.Chemscore.Metal>
0.0000

> <Gold.Chemscore.Lipo>
80.7285

> <Gold.Chemscore.Internal_Hbond>
0.0000

> <Gold.Chemscore.DEClash>
0.0235

> <Gold.Chemscore.DEInternal>
0.9127

> <Gold.Chemscore.Rot>
1.6533

> <Gold.Chemscore.Internal.Correction>
   9.000000E+99

> <Gold.Chemscore.Hbonds>
donor molecule, donor type, donor heavy atom, donor atom, acceptor molecule, acceptor atom, score
      P1  H  7989  7998       L1     4  0.44
      P1  H  7997  8009       L1     8  0.99

> <Gold.Chemscore.Hbond.Weighted>
-5.7351

> <Gold.Chemscore.Metal.Weighted>
-0.0000

> <Gold.Chemscore.Lipo.Weighted>
-9.4452

> <Gold.Chemscore.Internal_Hbond.Weighted>
0.0000

> <Gold.Chemscore.DEClash.Weighted>
0.0235

> <Gold.Chemscore.DEInternal.Weighted>
0.9127

> <Gold.Chemscore.Rot.Weighted>
4.2324

> <Gold.Chemscore.Internal.Correction.Weighted>
   9.000000E+99

> <Gold.Protein.RotatedTorsions>
[ 6907 6896 6895 6894 ] final -127.80 input  -60.11 | X-H torsion
[ 7974 7965 7964 7962 ] final -153.05 input  175.53 | X-H torsion
[ 8008 7997 7996 7995 ] final  173.61 input   59.86 | X-H torsion
[ 10167 10162 10161 10158 ] final -141.87 input  -65.29 | X-H torsion
[ 10718 10713 10712 10709 ] final   47.81 input   66.30 | X-H torsion
[ 10763 10752 10751 10750 ] final  102.79 input  -60.55 | X-H torsion
[ 11005 11000 10999 10996 ] final -124.13 input  -57.11 | X-H torsion

> <Gold.Protein.ActiveResidues>
 VAL166  LYS551  ARG553  GLY616  TRP617  ASP618  TYR619  PRO620  LYS621  CYS622 
 ASP623  PHE694  ASN695  SER759  ASP760  ASP761  ALA762  ILE779  LEU786  VAL792 
 PHE793  MET794  SER795  GLU796  ALA797  LYS798  CYS799  TRP800  GLU811  SER814 

> <Gold.Protein.RotatedAtoms>
  150.9111  133.6996  159.2854 H   0  0  0  0  0  0  0  0  0  0  0  0  # atno 6907 bound_to 6896
  151.4483  135.1026  159.9700 H   0  0  0  0  0  0  0  0  0  0  0  0  # atno 6908 bound_to 6896
  152.4930  133.8503  159.7253 H   0  0  0  0  0  0  0  0  0  0  0  0  # atno 6909 bound_to 6896
  144.7761  140.4579  143.5872 H   0  0  0  0  0  0  0  0  0  0  0  0  # atno 7974 bound_to 7965
  156.1058  140.1456  156.9406 H   0  0  0  0  0  0  0  0  0  0  0  0  # atno 8008 bound_to 7997
  154.4733  140.0902  156.7243 H   0  0  0  0  0  0  0  0  0  0  0  0  # atno 8009 bound_to 7997
  155.4681  140.3441  155.4324 H   0  0  0  0  0  0  0  0  0  0  0  0  # atno 8010 bound_to 7997
  139.8143  143.7660  152.2664 H   0  0  0  0  0  0  0  0  0  0  0  0  # atno 10167 bound_to 10162
  157.4623  130.8204  149.7899 H   0  0  0  0  0  0  0  0  0  0  0  0  # atno 10718 bound_to 10713
  153.3441  135.3998  155.1595 H   0  0  0  0  0  0  0  0  0  0  0  0  # atno 10763 bound_to 10752
  154.8649  135.3641  154.5307 H   0  0  0  0  0  0  0  0  0  0  0  0  # atno 10764 bound_to 10752
  153.5754  135.7078  153.5546 H   0  0  0  0  0  0  0  0  0  0  0  0  # atno 10765 bound_to 10752
  140.9865  134.0600  157.3705 H   0  0  0  0  0  0  0  0  0  0  0  0  # atno 11005 bound_to 11000
  145.6182  139.1521  143.3038 LP  0  0  0  0  0  0  0  0  0  0  0  0  # atno 17320 bound_to 7965
  146.1941  140.6293  142.9132 LP  0  0  0  0  0  0  0  0  0  0  0  0  # atno 17321 bound_to 7965
  139.7819  144.7441  151.0076 LP  0  0  0  0  0  0  0  0  0  0  0  0  # atno 17342 bound_to 10162
  140.7816  143.4533  151.0381 LP  0  0  0  0  0  0  0  0  0  0  0  0  # atno 17343 bound_to 10162
  156.0034  130.3868  150.2520 LP  0  0  0  0  0  0  0  0  0  0  0  0  # atno 17370 bound_to 10713
  157.0698  131.0113  151.3194 LP  0  0  0  0  0  0  0  0  0  0  0  0  # atno 17371 bound_to 10713
  139.8973  135.0149  156.7092 LP  0  0  0  0  0  0  0  0  0  0  0  0  # atno 17394 bound_to 11000
  140.7107  133.9226  155.8082 LP  0  0  0  0  0  0  0  0  0  0  0  0  # atno 17395 bound_to 11000

$$$$
