AV-unprocessed.smi:1470|AV-procd|sdf|5961|dock2
  -GOLD-   22720 6 43D 1   1.00000     0.00000
 Structure written by MMmdl.
 43 44  0  0  0  0  0  0  0  0  2 V2000
  145.1753  135.1481  150.8717 C   0  0  0  0  0  0  0  0  0  0  0  0
  145.9207  136.3476  150.7621 O   0  0  0  0  0  0  0  0  0  0  0  0
  145.8694  137.1285  151.9449 C   0  0  0  0  0  0  0  0  0  0  0  0
  146.5196  138.4936  151.6769 C   0  0  0  0  0  0  0  0  0  0  0  0
  147.7867  138.6361  152.3858 N   0  0  0  0  0  0  0  0  0  0  0  0
  148.0443  139.5592  153.3222 C   0  0  0  0  0  0  0  0  0  0  0  0
  147.2187  140.3890  153.7026 O   0  0  0  0  0  0  0  0  0  0  0  0
  149.2996  139.4424  153.7877 N   0  0  0  0  0  0  0  0  0  0  0  0
  149.9548  140.2290  154.7728 C   0  0  0  0  0  0  0  0  0  0  0  0
  151.0968  139.8050  155.4982 C   0  0  0  0  0  0  0  0  0  0  0  0
  151.6605  140.6607  156.4669 C   0  0  0  0  0  0  0  0  0  0  0  0
  151.0716  141.9233  156.7062 C   0  0  0  0  0  0  0  0  0  0  0  0
  151.5626  142.8372  157.6475 N   0  0  0  0  0  0  0  0  0  0  0  0
  151.8739  144.1441  157.0739 C   0  0  0  0  0  0  0  0  0  0  0  0
  152.5879  145.0361  158.1039 C   0  0  0  0  0  0  0  0  0  0  0  0
  151.7625  145.1489  159.3957 C   0  0  0  0  0  0  0  0  0  0  0  0
  151.4326  143.7494  159.9395 C   0  0  0  0  0  0  0  0  0  0  0  0
  150.7533  142.8854  158.8626 C   0  0  0  0  0  0  0  0  0  0  0  0
  149.9770  142.2842  156.0017 N   0  3  0  0  0  0  0  0  0  0  0  0
  149.4061  141.4948  155.0664 C   0  0  0  0  0  0  0  0  0  0  0  0
  145.2576  134.5803  149.9450 H   0  0  0  0  0  0  0  0  0  0  0  0
  144.1189  135.3558  151.0468 H   0  0  0  0  0  0  0  0  0  0  0  0
  145.5492  134.5235  151.6841 H   0  0  0  0  0  0  0  0  0  0  0  0
  144.8375  137.2516  152.2783 H   0  0  0  0  0  0  0  0  0  0  0  0
  146.4093  136.6182  152.7438 H   0  0  0  0  0  0  0  0  0  0  0  0
  146.6778  138.6311  150.6061 H   0  0  0  0  0  0  0  0  0  0  0  0
  145.8509  139.2935  151.9955 H   0  0  0  0  0  0  0  0  0  0  0  0
  148.5214  137.9915  152.1335 H   0  0  0  0  0  0  0  0  0  0  0  0
  149.8311  138.6608  153.4329 H   0  0  0  0  0  0  0  0  0  0  0  0
  151.5457  138.8365  155.3426 H   0  0  0  0  0  0  0  0  0  0  0  0
  152.5333  140.3448  157.0194 H   0  0  0  0  0  0  0  0  0  0  0  0
  152.5039  144.0183  156.1921 H   0  0  0  0  0  0  0  0  0  0  0  0
  150.9539  144.6286  156.7440 H   0  0  0  0  0  0  0  0  0  0  0  0
  153.5686  144.6167  158.3327 H   0  0  0  0  0  0  0  0  0  0  0  0
  152.7643  146.0265  157.6834 H   0  0  0  0  0  0  0  0  0  0  0  0
  152.3082  145.7255  160.1432 H   0  0  0  0  0  0  0  0  0  0  0  0
  150.8383  145.6924  159.1948 H   0  0  0  0  0  0  0  0  0  0  0  0
  152.3503  143.2623  160.2719 H   0  0  0  0  0  0  0  0  0  0  0  0
  150.7892  143.8296  160.8162 H   0  0  0  0  0  0  0  0  0  0  0  0
  149.7692  143.2934  158.6282 H   0  0  0  0  0  0  0  0  0  0  0  0
  150.5978  141.8746  159.2428 H   0  0  0  0  0  0  0  0  0  0  0  0
  148.5325  141.9036  154.5792 H   0  0  0  0  0  0  0  0  0  0  0  0
  149.5592  143.1965  156.1864 H   0  0  0  0  0  0  0  0  0  0  0  0
  1  2  1  0  0  0  0
  1 21  1  0  0  0  0
  1 22  1  0  0  0  0
  1 23  1  0  0  0  0
  2  3  1  0  0  0  0
  3  4  1  0  0  0  0
  3 24  1  0  0  0  0
  3 25  1  0  0  0  0
  4  5  1  0  0  0  0
  4 26  1  0  0  0  0
  4 27  1  0  0  0  0
  5  6  1  0  0  0  0
  5 28  1  0  0  0  0
  6  7  2  0  0  0  0
  6  8  1  0  0  0  0
  8  9  1  0  0  0  0
  8 29  1  0  0  0  0
  9 20  1  0  0  0  0
  9 10  2  0  0  0  0
 10 11  1  0  0  0  0
 10 30  1  0  0  0  0
 11 12  2  0  0  0  0
 11 31  1  0  0  0  0
 12 13  1  0  0  0  0
 12 19  1  0  0  0  0
 13 18  1  0  0  0  0
 13 14  1  0  0  0  0
 14 15  1  0  0  0  0
 14 32  1  0  0  0  0
 14 33  1  0  0  0  0
 15 16  1  0  0  0  0
 15 34  1  0  0  0  0
 15 35  1  0  0  0  0
 16 17  1  0  0  0  0
 16 36  1  0  0  0  0
 16 37  1  0  0  0  0
 17 18  1  0  0  0  0
 17 38  1  0  0  0  0
 17 39  1  0  0  0  0
 18 40  1  0  0  0  0
 18 41  1  0  0  0  0
 19 20  2  0  0  0  0
 19 43  1  0  0  0  0
 20 42  1  0  0  0  0
M  CHG  1  19   1
M  END
> <s_m_source_file>
AV-unprocessed.smi

> <i_m_source_file_index>
1470

> <i_lp_mmshare_version>
43012

> <i_f3d_flags>
0

> <s_epik_input>
W0NIM11PW0NIMl1bQ0gyXVtOSF1DKD1PKVtOSF1jMVtjSF1bY0hdYyhuW2NIXTEpTjJbQ0gyXVtDSDJdW0NIMl1bQ0gyXVtDSDJdMg==

> <s_epik_cmdline>
J2VwaWtfcHl0aG9uJywgJy1waCcsICc3LjAnLCAnLXRuJywgJzgnLCAnLW1hJywgJzIwMCcsICctbWV0YWxfYmluZGluZycsICctaW1hZScsICc8aW5maWxlLm1hZT4nLCAnLW9tYWUnLCAnPG91dGZpbGUubWFlPic=

> <r_lp_tautomer_probability>
0.999994

> <r_epik_Ionization_Penalty>
1.11549

> <r_epik_Ionization_Penalty_Charging>
1.11547

> <r_epik_Ionization_Penalty_Neutral>
1.91766e-05

> <r_epik_State_Penalty>
1.17384

> <r_epik_Charging_Adjusted_Penalty>
2.28931

> <i_epik_Tot_Q>
1

> <i_epik_Tot_abs_Q>
1

> <r_epik_Metal_State_Penalty>
1.25929

> <b_epik_Metal_Only>
0

> <s_lp_Force_Field>
OPLS_2005

> <r_lp_Energy>
26.3413

> <b_lp_Chiralities_Consistent>
1

> <s_lp_Variant>
AV-unprocessed.smi:1470-2

> <Gold.Version>
5.8.1

> <Gold.Id.Protein>
6NUR|6NUR_protein|mol2

> <Gold.PLP.Fitness>
51.2527

> <Gold.PLP.PLP>
-43.4132

> <Gold.PLP.part.hbond>
-4.0000

> <Gold.PLP.part.metal>
0.0000

> <Gold.PLP.part.buried>
-2.6975

> <Gold.PLP.part.nonpolar>
-37.6859

> <Gold.PLP.part.repulsive>
0.7918

> <Gold.PLP.ligand.clash>
0.0000

> <Gold.PLP.ligand.torsion>
0.6713

> <Gold.PLP.Chemscore.Hbond>
3.0000

> <Gold.PLP.Chemscore.CHOScore>
0.0000

> <Gold.PLP.Chemscore.Metal>
0.0000

> <Gold.Chemscore.Hbonds>
donor molecule, donor type, donor heavy atom, donor atom, acceptor molecule, acceptor atom, score
      L1  H     5    28       P1  7948  0.93
      L1  H    19    43       P1  8028  2.00

> <Gold.PLP.Chemscore.Internal.Correction>
0.1821

> <Gold.Rescore>
     Score         DG    S(hbond)    S(metal)    S(lipo)     H(rot)  DE(clash)    DE(int)     intcor
     17.21     -20.26       1.92        0.00     107.30       1.64       0.92       2.13       ----

> <Gold.Chemscore.Fitness>
17.2066

> <Gold.Chemscore.DG>
-20.2550

> <Gold.Chemscore.ZeroCoef>
-5.4800

> <Gold.Chemscore.Hbond>
1.9230

> <Gold.Chemscore.Metal>
0.0000

> <Gold.Chemscore.Lipo>
107.2992

> <Gold.Chemscore.Internal_Hbond>
0.0000

> <Gold.Chemscore.DEClash>
0.9205

> <Gold.Chemscore.DEInternal>
2.1279

> <Gold.Chemscore.Rot>
1.6413

> <Gold.Chemscore.Internal.Correction>
   9.000000E+99

> <Gold.Chemscore.Hbonds>
donor molecule, donor type, donor heavy atom, donor atom, acceptor molecule, acceptor atom, score
      L1  H     5    28       P1  7948  0.91
      L1  H    19    43       P1  8028  0.96

> <Gold.Chemscore.Hbond.Weighted>
-6.4228

> <Gold.Chemscore.Metal.Weighted>
-0.0000

> <Gold.Chemscore.Lipo.Weighted>
-12.5540

> <Gold.Chemscore.Internal_Hbond.Weighted>
0.0000

> <Gold.Chemscore.DEClash.Weighted>
0.9205

> <Gold.Chemscore.DEInternal.Weighted>
2.1279

> <Gold.Chemscore.Rot.Weighted>
4.2017

> <Gold.Chemscore.Internal.Correction.Weighted>
   9.000000E+99

> <Gold.Protein.RotatedTorsions>
[ 6907 6896 6895 6894 ] final -134.23 input  -60.11 | X-H torsion
[ 7974 7965 7964 7962 ] final -115.30 input  175.53 | X-H torsion
[ 8008 7997 7996 7995 ] final   24.07 input   59.86 | X-H torsion
[ 10167 10162 10161 10158 ] final -127.97 input  -65.29 | X-H torsion
[ 10718 10713 10712 10709 ] final -154.23 input   66.30 | X-H torsion
[ 10763 10752 10751 10750 ] final -113.53 input  -60.55 | X-H torsion
[ 11005 11000 10999 10996 ] final  140.98 input  -57.11 | X-H torsion

> <Gold.Protein.ActiveResidues>
 VAL166  LYS551  ARG553  GLY616  TRP617  ASP618  TYR619  PRO620  LYS621  CYS622 
 ASP623  PHE694  ASN695  SER759  ASP760  ASP761  ALA762  ILE779  LEU786  VAL792 
 PHE793  MET794  SER795  GLU796  ALA797  LYS798  CYS799  TRP800  GLU811  SER814 

> <Gold.Protein.RotatedAtoms>
  150.9833  133.6223  159.2719 H   0  0  0  0  0  0  0  0  0  0  0  0  # atno 6907 bound_to 6896
  151.3470  135.0875  159.9400 H   0  0  0  0  0  0  0  0  0  0  0  0  # atno 6908 bound_to 6896
  152.5223  133.9433  159.7691 H   0  0  0  0  0  0  0  0  0  0  0  0  # atno 6909 bound_to 6896
  145.1100  140.8606  143.3875 H   0  0  0  0  0  0  0  0  0  0  0  0  # atno 7974 bound_to 7965
  154.9906  140.3113  155.4908 H   0  0  0  0  0  0  0  0  0  0  0  0  # atno 8008 bound_to 7997
  156.2940  140.2250  156.4951 H   0  0  0  0  0  0  0  0  0  0  0  0  # atno 8009 bound_to 7997
  154.7707  140.0452  157.1037 H   0  0  0  0  0  0  0  0  0  0  0  0  # atno 8010 bound_to 7997
  139.9552  143.6011  152.2463 H   0  0  0  0  0  0  0  0  0  0  0  0  # atno 10167 bound_to 10162
  156.4964  130.8371  151.2591 H   0  0  0  0  0  0  0  0  0  0  0  0  # atno 10718 bound_to 10713
  154.8400  135.4451  154.1364 H   0  0  0  0  0  0  0  0  0  0  0  0  # atno 10763 bound_to 10752
  153.2561  135.6931  153.7634 H   0  0  0  0  0  0  0  0  0  0  0  0  # atno 10764 bound_to 10752
  153.6928  135.3384  155.3182 H   0  0  0  0  0  0  0  0  0  0  0  0  # atno 10765 bound_to 10752
  140.0367  134.9325  157.0766 H   0  0  0  0  0  0  0  0  0  0  0  0  # atno 11005 bound_to 11000
  145.0857  139.2926  143.5760 LP  0  0  0  0  0  0  0  0  0  0  0  0  # atno 17320 bound_to 7965
  146.3526  140.0378  142.8645 LP  0  0  0  0  0  0  0  0  0  0  0  0  # atno 17321 bound_to 7965
  139.6597  144.7662  151.1986 LP  0  0  0  0  0  0  0  0  0  0  0  0  # atno 17342 bound_to 10162
  140.7570  143.6029  150.8681 LP  0  0  0  0  0  0  0  0  0  0  0  0  # atno 17343 bound_to 10162
  157.7468  130.9996  150.2896 LP  0  0  0  0  0  0  0  0  0  0  0  0  # atno 17370 bound_to 10713
  156.3375  130.3810  149.7437 LP  0  0  0  0  0  0  0  0  0  0  0  0  # atno 17371 bound_to 10713
  140.4136  134.1955  155.7163 LP  0  0  0  0  0  0  0  0  0  0  0  0  # atno 17394 bound_to 11000
  141.1861  133.8309  157.1080 LP  0  0  0  0  0  0  0  0  0  0  0  0  # atno 17395 bound_to 11000

$$$$
