AV-unprocessed.smi:912|AV-procd|sdf|4146|dock7
  -GOLD-   22720 2 53D 1   1.00000     0.00000
 Structure written by MMmdl.
 26 26  0  0  0  0  0  0  0  0  3 V2000
  146.8989  138.9684  152.2575 C   0  0  0  0  0  0  0  0  0  0  0  0
  148.2624  138.8034  152.8126 N   0  3  0  0  0  0  0  0  0  0  0  0
  148.4456  138.9660  154.2860 C   0  0  1  0  0  0  0  0  0  0  0  0
  147.7467  140.2690  154.7562 C   0  0  0  0  0  0  0  0  0  0  0  0
  147.8558  137.7138  154.9979 C   0  0  0  0  0  0  0  0  0  0  0  0
  148.3186  136.5442  154.5015 N   0  5  0  0  0  0  0  0  0  0  0  0
  147.0460  137.8496  155.9140 O   0  0  0  0  0  0  0  0  0  0  0  0
  149.9484  139.0670  154.6306 C   0  0  0  0  0  0  0  0  0  0  0  0
  150.8916  138.0827  154.2378 C   0  0  0  0  0  0  0  0  0  0  0  0
  152.2463  138.2541  154.5869 C   0  0  0  0  0  0  0  0  0  0  0  0
  152.7091  139.3169  155.2759 N   0  0  0  0  0  0  0  0  0  0  0  0
  151.8174  140.2568  155.6496 C   0  0  0  0  0  0  0  0  0  0  0  0
  150.4428  140.1806  155.3529 C   0  0  0  0  0  0  0  0  0  0  0  0
  146.9078  138.7025  151.2007 H   0  0  0  0  0  0  0  0  0  0  0  0
  146.5584  140.0009  152.3312 H   0  0  0  0  0  0  0  0  0  0  0  0
  146.1755  138.3226  152.7550 H   0  0  0  0  0  0  0  0  0  0  0  0
  148.5758  137.8694  152.5885 H   0  0  0  0  0  0  0  0  0  0  0  0
  147.9018  140.4570  155.8190 H   0  0  0  0  0  0  0  0  0  0  0  0
  146.6673  140.2405  154.6055 H   0  0  0  0  0  0  0  0  0  0  0  0
  148.1313  141.1358  154.2177 H   0  0  0  0  0  0  0  0  0  0  0  0
  148.3963  136.4288  153.4843 H   0  0  0  0  0  0  0  0  0  0  0  0
  150.6117  137.2001  153.6836 H   0  0  0  0  0  0  0  0  0  0  0  0
  152.9799  137.5147  154.3013 H   0  0  0  0  0  0  0  0  0  0  0  0
  152.2112  141.0975  156.2015 H   0  0  0  0  0  0  0  0  0  0  0  0
  149.7806  140.9669  155.6854 H   0  0  0  0  0  0  0  0  0  0  0  0
  148.8696  139.4634  152.3498 H   0  0  0  0  0  0  0  0  0  0  0  0
  1  2  1  0  0  0  0
  1 14  1  0  0  0  0
  1 15  1  0  0  0  0
  1 16  1  0  0  0  0
  2  3  1  0  0  0  0
  2 17  1  0  0  0  0
  2 26  1  0  0  0  0
  3  4  1  0  0  0  0
  3  5  1  0  0  0  0
  3  8  1  0  0  0  0
  4 18  1  0  0  0  0
  4 19  1  0  0  0  0
  4 20  1  0  0  0  0
  5  6  1  0  0  0  0
  5  7  2  0  0  0  0
  6 21  1  0  0  0  0
  8 13  1  0  0  0  0
  8  9  2  0  0  0  0
  9 10  1  0  0  0  0
  9 22  1  0  0  0  0
 10 11  2  0  0  0  0
 10 23  1  0  0  0  0
 11 12  1  0  0  0  0
 12 13  2  0  0  0  0
 12 24  1  0  0  0  0
 13 25  1  0  0  0  0
M  CHG  1   2   1
M  CHG  1   6  -1
M  END
> <s_m_source_file>
AV-unprocessed.smi

> <i_m_source_file_index>
912

> <i_lp_mmshare_version>
43012

> <i_f3d_flags>
0

> <s_epik_input>
W0NIM11bTkhdW0NAQF0oW0NIM10pKEMoPU8pW05IMl0pYzFbY0hdW2NIXW5bY0hdW2NIXTE=

> <s_epik_cmdline>
J2VwaWtfcHl0aG9uJywgJy1waCcsICc3LjAnLCAnLXRuJywgJzgnLCAnLW1hJywgJzIwMCcsICctbWV0YWxfYmluZGluZycsICctaW1hZScsICc8aW5maWxlLm1hZT4nLCAnLW9tYWUnLCAnPG91dGZpbGUubWFlPic=

> <r_epik_Ionization_Penalty>
6.88213

> <r_epik_Ionization_Penalty_Charging>
6.88153

> <r_epik_Ionization_Penalty_Neutral>
0.000601258

> <r_epik_State_Penalty>
7.02604

> <r_epik_Charging_Adjusted_Penalty>
13.9076

> <i_epik_Tot_Q>
0

> <i_epik_Tot_abs_Q>
2

> <r_epik_Metal_State_Penalty>
3.10652

> <b_epik_Metal_Only>
1

> <s_lp_Force_Field>
OPLS_2005

> <r_lp_Energy>
7.69215

> <b_lp_Chiralities_Consistent>
1

> <s_lp_Variant>
AV-unprocessed.smi:912-7

> <Gold.Version>
5.8.1

> <Gold.Id.Protein>
6NUR|6NUR_protein|mol2

> <Gold.PLP.Fitness>
38.7056

> <Gold.PLP.PLP>
-24.4509

> <Gold.PLP.part.hbond>
-4.0971

> <Gold.PLP.part.metal>
0.0000

> <Gold.PLP.part.buried>
-2.3499

> <Gold.PLP.part.nonpolar>
-18.4191

> <Gold.PLP.part.repulsive>
0.0908

> <Gold.PLP.ligand.clash>
0.0000

> <Gold.PLP.ligand.torsion>
0.3639

> <Gold.PLP.Chemscore.Hbond>
4.9920

> <Gold.PLP.Chemscore.CHOScore>
0.0000

> <Gold.PLP.Chemscore.Metal>
0.0000

> <Gold.Chemscore.Hbonds>
donor molecule, donor type, donor heavy atom, donor atom, acceptor molecule, acceptor atom, score
      L1  H     2    17       P1  7948  2.00
      L1  H     2    26       P1  7957  0.94
      L1  H     6    21       P1  7948  1.00
      P1  H  7997  8008       L1    11  0.75

> <Gold.PLP.Chemscore.Internal.Correction>
0.0064

> <Gold.Rescore>
     Score         DG    S(hbond)    S(metal)    S(lipo)     H(rot)  DE(clash)    DE(int)     intcor
     19.07     -19.93       3.86        0.00      52.87       1.80       0.05       0.81       ----

> <Gold.Chemscore.Fitness>
19.0661

> <Gold.Chemscore.DG>
-19.9300

> <Gold.Chemscore.ZeroCoef>
-5.4800

> <Gold.Chemscore.Hbond>
3.8569

> <Gold.Chemscore.Metal>
0.0000

> <Gold.Chemscore.Lipo>
52.8675

> <Gold.Chemscore.Internal_Hbond>
0.0000

> <Gold.Chemscore.DEClash>
0.0494

> <Gold.Chemscore.DEInternal>
0.8145

> <Gold.Chemscore.Rot>
1.8037

> <Gold.Chemscore.Internal.Correction>
   9.000000E+99

> <Gold.Chemscore.Hbonds>
donor molecule, donor type, donor heavy atom, donor atom, acceptor molecule, acceptor atom, score
      L1  H     2    17       P1  7948  1.00
      L1  H     2    26       P1  7957  0.87
      L1  H     6    21       P1  7948  1.00
      P1  H  7997  8008       L1    11  0.12

> <Gold.Chemscore.Hbond.Weighted>
-12.8819

> <Gold.Chemscore.Metal.Weighted>
-0.0000

> <Gold.Chemscore.Lipo.Weighted>
-6.1855

> <Gold.Chemscore.Internal_Hbond.Weighted>
0.0000

> <Gold.Chemscore.DEClash.Weighted>
0.0494

> <Gold.Chemscore.DEInternal.Weighted>
0.8145

> <Gold.Chemscore.Rot.Weighted>
4.6174

> <Gold.Chemscore.Internal.Correction.Weighted>
   9.000000E+99

> <Gold.Protein.RotatedTorsions>
[ 6907 6896 6895 6894 ] final  -42.55 input  -60.11 | X-H torsion
[ 7974 7965 7964 7962 ] final   59.58 input  175.53 | X-H torsion
[ 8008 7997 7996 7995 ] final  -40.28 input   59.86 | X-H torsion
[ 10167 10162 10161 10158 ] final  142.72 input  -65.29 | X-H torsion
[ 10718 10713 10712 10709 ] final  159.88 input   66.30 | X-H torsion
[ 10763 10752 10751 10750 ] final  -39.82 input  -60.55 | X-H torsion
[ 11005 11000 10999 10996 ] final  166.88 input  -57.11 | X-H torsion

> <Gold.Protein.ActiveResidues>
 VAL166  LYS551  ARG553  GLY616  TRP617  ASP618  TYR619  PRO620  LYS621  CYS622 
 ASP623  PHE694  ASN695  SER759  ASP760  ASP761  ALA762  ILE779  LEU786  VAL792 
 PHE793  MET794  SER795  GLU796  ALA797  LYS798  CYS799  TRP800  GLU811  SER814 

> <Gold.Protein.RotatedAtoms>
  150.9540  134.8936  159.7689 H   0  0  0  0  0  0  0  0  0  0  0  0  # atno 6907 bound_to 6896
  152.5130  134.3766  159.9347 H   0  0  0  0  0  0  0  0  0  0  0  0  # atno 6908 bound_to 6896
  151.3781  133.3790  159.2742 H   0  0  0  0  0  0  0  0  0  0  0  0  # atno 6909 bound_to 6896
  145.9056  139.3614  143.0566 H   0  0  0  0  0  0  0  0  0  0  0  0  # atno 7974 bound_to 7965
  154.4014  140.1529  156.3001 H   0  0  0  0  0  0  0  0  0  0  0  0  # atno 8008 bound_to 7997
  155.8708  140.3449  155.5798 H   0  0  0  0  0  0  0  0  0  0  0  0  # atno 8009 bound_to 7997
  155.7777  140.0839  157.2066 H   0  0  0  0  0  0  0  0  0  0  0  0  # atno 8010 bound_to 7997
  139.4987  144.6088  151.6318 H   0  0  0  0  0  0  0  0  0  0  0  0  # atno 10167 bound_to 10162
  157.1581  131.0580  151.2246 H   0  0  0  0  0  0  0  0  0  0  0  0  # atno 10718 bound_to 10713
  153.9357  135.6767  153.4745 H   0  0  0  0  0  0  0  0  0  0  0  0  # atno 10763 bound_to 10752
  153.0957  135.4852  154.8771 H   0  0  0  0  0  0  0  0  0  0  0  0  # atno 10764 bound_to 10752
  154.7404  135.3159  154.8696 H   0  0  0  0  0  0  0  0  0  0  0  0  # atno 10765 bound_to 10752
  140.2710  134.7827  157.3675 H   0  0  0  0  0  0  0  0  0  0  0  0  # atno 11005 bound_to 11000
  145.8737  140.9405  143.0637 LP  0  0  0  0  0  0  0  0  0  0  0  0  # atno 17320 bound_to 7965
  144.6739  140.0688  143.7473 LP  0  0  0  0  0  0  0  0  0  0  0  0  # atno 17321 bound_to 7965
  140.5757  144.0032  150.6240 LP  0  0  0  0  0  0  0  0  0  0  0  0  # atno 17342 bound_to 10162
  140.3165  143.3164  152.0827 LP  0  0  0  0  0  0  0  0  0  0  0  0  # atno 17343 bound_to 10162
  157.4158  130.7410  149.6874 LP  0  0  0  0  0  0  0  0  0  0  0  0  # atno 17370 bound_to 10713
  155.9758  130.4083  150.3820 LP  0  0  0  0  0  0  0  0  0  0  0  0  # atno 17371 bound_to 10713
  140.1373  134.5017  155.8058 LP  0  0  0  0  0  0  0  0  0  0  0  0  # atno 17394 bound_to 11000
  141.2177  133.6812  156.7148 LP  0  0  0  0  0  0  0  0  0  0  0  0  # atno 17395 bound_to 11000

$$$$
