AV-unprocessed.smi:862|AV-procd|sdf|3978|dock5
  -GOLD-   22720 1453D 1   1.00000     0.00000
 Structure written by MMmdl.
 44 46  0  0  0  0  0  0  0  0  2 V2000
  144.2467  144.4418  153.8106 N   0  0  0  0  0  0  0  0  0  0  0  0
  144.2710  144.4413  155.1468 C   0  0  0  0  0  0  0  0  0  0  0  0
  143.8775  145.4147  155.7867 O   0  0  0  0  0  0  0  0  0  0  0  0
  144.7149  143.2934  155.7182 N   0  0  0  0  0  0  0  0  0  0  0  0
  145.3815  142.1793  155.0238 C   0  0  0  0  0  0  0  0  0  0  0  0
  146.8868  142.2223  155.3456 C   0  0  0  0  0  0  0  0  0  0  0  0
  147.1353  142.1768  156.8717 C   0  0  0  0  0  0  0  0  0  0  0  0
  148.5638  142.3830  157.1983 N   0  3  0  0  0  0  0  0  0  0  0  0
  149.4953  141.3111  156.7719 C   0  0  2  0  0  0  0  0  0  0  0  0
  149.5764  140.1393  157.7572 C   0  0  0  0  0  0  0  0  0  0  0  0
  150.9285  139.4705  157.4745 C   0  0  0  0  0  0  0  0  0  0  0  0
  151.7632  140.4823  156.6696 C   0  0  0  0  0  0  0  0  0  0  0  0
  150.9520  141.7883  156.6223 C   0  0  2  0  0  0  0  0  0  0  0  0
  151.3626  142.7368  157.6565 N   0  0  0  0  0  0  0  0  0  0  0  0
  151.6474  142.4931  158.9973 C   0  0  0  0  0  0  0  0  0  0  0  0
  151.9485  143.7091  159.5673 C   0  0  0  0  0  0  0  0  0  0  0  0
  151.8439  144.7129  158.6092 N   0  0  0  0  0  0  0  0  0  0  0  0
  151.4957  144.0631  157.5071 C   0  0  0  0  0  0  0  0  0  0  0  0
  146.2767  143.2330  157.5986 C   0  0  0  0  0  0  0  0  0  0  0  0
  144.8002  143.1370  157.1750 C   0  0  0  0  0  0  0  0  0  0  0  0
  143.9155  145.2589  153.3182 H   0  0  0  0  0  0  0  0  0  0  0  0
  144.5458  143.6253  153.2986 H   0  0  0  0  0  0  0  0  0  0  0  0
  144.9541  141.2367  155.3686 H   0  0  0  0  0  0  0  0  0  0  0  0
  145.2362  142.1829  153.9436 H   0  0  0  0  0  0  0  0  0  0  0  0
  147.3821  141.3876  154.8498 H   0  0  0  0  0  0  0  0  0  0  0  0
  147.3188  143.1323  154.9263 H   0  0  0  0  0  0  0  0  0  0  0  0
  146.8279  141.1993  157.2450 H   0  0  0  0  0  0  0  0  0  0  0  0
  148.8560  143.2534  156.7774 H   0  0  0  0  0  0  0  0  0  0  0  0
  149.1795  140.9261  155.8019 H   0  0  0  0  0  0  0  0  0  0  0  0
  149.5570  140.5066  158.7841 H   0  0  0  0  0  0  0  0  0  0  0  0
  148.7456  139.4419  157.6455 H   0  0  0  0  0  0  0  0  0  0  0  0
  151.4249  139.1933  158.4050 H   0  0  0  0  0  0  0  0  0  0  0  0
  150.7925  138.5554  156.8968 H   0  0  0  0  0  0  0  0  0  0  0  0
  152.7633  140.6185  157.0828 H   0  0  0  0  0  0  0  0  0  0  0  0
  151.8939  140.1045  155.6548 H   0  0  0  0  0  0  0  0  0  0  0  0
  151.0913  142.2780  155.6570 H   0  0  0  0  0  0  0  0  0  0  0  0
  151.6186  141.5044  159.4300 H   0  0  0  0  0  0  0  0  0  0  0  0
  152.2242  143.9373  160.5863 H   0  0  0  0  0  0  0  0  0  0  0  0
  151.3242  144.5677  156.5676 H   0  0  0  0  0  0  0  0  0  0  0  0
  146.3605  143.1046  158.6785 H   0  0  0  0  0  0  0  0  0  0  0  0
  146.6495  144.2343  157.3762 H   0  0  0  0  0  0  0  0  0  0  0  0
  144.2071  143.8788  157.7119 H   0  0  0  0  0  0  0  0  0  0  0  0
  144.3883  142.1680  157.4609 H   0  0  0  0  0  0  0  0  0  0  0  0
  148.6486  142.4735  158.2008 H   0  0  0  0  0  0  0  0  0  0  0  0
  1  2  1  0  0  0  0
  1 21  1  0  0  0  0
  1 22  1  0  0  0  0
  2  3  2  0  0  0  0
  2  4  1  0  0  0  0
  4 20  1  0  0  0  0
  4  5  1  0  0  0  0
  5  6  1  0  0  0  0
  5 23  1  0  0  0  0
  5 24  1  0  0  0  0
  6  7  1  0  0  0  0
  6 25  1  0  0  0  0
  6 26  1  0  0  0  0
  7  8  1  0  0  0  0
  7 19  1  0  0  0  0
  7 27  1  0  0  0  0
  8  9  1  0  0  0  0
  8 28  1  0  0  0  0
  8 44  1  0  0  0  0
  9 13  1  0  0  0  0
  9 10  1  0  0  0  0
  9 29  1  0  0  0  0
 10 11  1  0  0  0  0
 10 30  1  0  0  0  0
 10 31  1  0  0  0  0
 11 12  1  0  0  0  0
 11 32  1  0  0  0  0
 11 33  1  0  0  0  0
 12 13  1  0  0  0  0
 12 34  1  0  0  0  0
 12 35  1  0  0  0  0
 13 14  1  0  0  0  0
 13 36  1  0  0  0  0
 14 18  1  0  0  0  0
 14 15  1  0  0  0  0
 15 16  2  0  0  0  0
 15 37  1  0  0  0  0
 16 17  1  0  0  0  0
 16 38  1  0  0  0  0
 17 18  2  0  0  0  0
 18 39  1  0  0  0  0
 19 20  1  0  0  0  0
 19 40  1  0  0  0  0
 19 41  1  0  0  0  0
 20 42  1  0  0  0  0
 20 43  1  0  0  0  0
M  CHG  1   8   1
M  END
> <s_m_source_file>
AV-unprocessed.smi

> <i_m_source_file_index>
862

> <i_lp_mmshare_version>
43012

> <i_f3d_flags>
0

> <s_epik_input>
W05IMl1DKD1PKU4xW0NIMl1bQ0gyXVtDSF0oW0NIMl1bQ0gyXTEpW05IXVtDQEBIXTJbQ0gyXVtDSDJdW0NIMl1bQ0BIXTJuM1tjSF1bY0hdbltjSF0z

> <s_epik_cmdline>
J2VwaWtfcHl0aG9uJywgJy1waCcsICc3LjAnLCAnLXRuJywgJzgnLCAnLW1hJywgJzIwMCcsICctbWV0YWxfYmluZGluZycsICctaW1hZScsICc8aW5maWxlLm1hZT4nLCAnLW9tYWUnLCAnPG91dGZpbGUubWFlPic=

> <r_lp_tautomer_probability>
1

> <r_epik_Ionization_Penalty>
0.0731506

> <r_epik_Ionization_Penalty_Charging>
0.0731

> <r_epik_Ionization_Penalty_Neutral>
5.05966e-05

> <r_epik_State_Penalty>
0.128895

> <r_epik_Charging_Adjusted_Penalty>
0.201995

> <i_epik_Tot_Q>
1

> <i_epik_Tot_abs_Q>
1

> <r_epik_Metal_State_Penalty>
0.113934

> <b_epik_Metal_Only>
0

> <s_lp_Force_Field>
OPLS_2005

> <r_lp_Energy>
57.2527

> <b_lp_Chiralities_Consistent>
1

> <s_lp_Variant>
AV-unprocessed.smi:862-3

> <Gold.Version>
5.8.1

> <Gold.Id.Protein>
6NUR|6NUR_protein|mol2

> <Gold.PLP.Fitness>
39.4725

> <Gold.PLP.PLP>
-32.4874

> <Gold.PLP.part.hbond>
-2.0000

> <Gold.PLP.part.metal>
0.0000

> <Gold.PLP.part.buried>
-5.0010

> <Gold.PLP.part.nonpolar>
-26.0320

> <Gold.PLP.part.repulsive>
0.2630

> <Gold.PLP.ligand.clash>
0.0000

> <Gold.PLP.ligand.torsion>
0.7377

> <Gold.PLP.Chemscore.Hbond>
2.0076

> <Gold.PLP.Chemscore.CHOScore>
0.7909

> <Gold.PLP.Chemscore.Metal>
0.0000

> <Gold.Chemscore.Hbonds>
donor molecule, donor type, donor heavy atom, donor atom, acceptor molecule, acceptor atom, score
      L1  H     8    28       P1  8028  2.00
      L1  C    18    39       P1  8028  0.71

> <Gold.PLP.Chemscore.Internal.Correction>
0.0648

> <Gold.Rescore>
     Score         DG    S(hbond)    S(metal)    S(lipo)     H(rot)  DE(clash)    DE(int)     intcor
     10.28     -11.26       0.96        0.00      57.98       1.64       0.03       0.94       ----

> <Gold.Chemscore.Fitness>
10.2826

> <Gold.Chemscore.DG>
-11.2560

> <Gold.Chemscore.ZeroCoef>
-5.4800

> <Gold.Chemscore.Hbond>
0.9562

> <Gold.Chemscore.Metal>
0.0000

> <Gold.Chemscore.Lipo>
57.9804

> <Gold.Chemscore.Internal_Hbond>
0.0000

> <Gold.Chemscore.DEClash>
0.0330

> <Gold.Chemscore.DEInternal>
0.9404

> <Gold.Chemscore.Rot>
1.6411

> <Gold.Chemscore.Internal.Correction>
   9.000000E+99

> <Gold.Chemscore.Hbonds>
donor molecule, donor type, donor heavy atom, donor atom, acceptor molecule, acceptor atom, score
      L1  H     8    28       P1  8028  0.82

> <Gold.Chemscore.Hbond.Weighted>
-3.1937

> <Gold.Chemscore.Metal.Weighted>
-0.0000

> <Gold.Chemscore.Lipo.Weighted>
-6.7837

> <Gold.Chemscore.Internal_Hbond.Weighted>
0.0000

> <Gold.Chemscore.DEClash.Weighted>
0.0330

> <Gold.Chemscore.DEInternal.Weighted>
0.9404

> <Gold.Chemscore.Rot.Weighted>
4.2013

> <Gold.Chemscore.Internal.Correction.Weighted>
   9.000000E+99

> <Gold.Protein.RotatedTorsions>
[ 6907 6896 6895 6894 ] final  161.95 input  -60.11 | X-H torsion
[ 7974 7965 7964 7962 ] final   48.41 input  175.53 | X-H torsion
[ 8008 7997 7996 7995 ] final   56.51 input   59.86 | X-H torsion
[ 10167 10162 10161 10158 ] final  -83.19 input  -65.29 | X-H torsion
[ 10718 10713 10712 10709 ] final  -20.75 input   66.30 | X-H torsion
[ 10763 10752 10751 10750 ] final  122.90 input  -60.55 | X-H torsion
[ 11005 11000 10999 10996 ] final  -50.83 input  -57.11 | X-H torsion

> <Gold.Protein.ActiveResidues>
 VAL166  LYS551  ARG553  GLY616  TRP617  ASP618  TYR619  PRO620  LYS621  CYS622 
 ASP623  PHE694  ASN695  SER759  ASP760  ASP761  ALA762  ILE779  LEU786  VAL792 
 PHE793  MET794  SER795  GLU796  ALA797  LYS798  CYS799  TRP800  GLU811  SER814 

> <Gold.Protein.RotatedAtoms>
  151.9479  133.3657  159.3988 H   0  0  0  0  0  0  0  0  0  0  0  0  # atno 6907 bound_to 6896
  150.6986  134.4371  159.5284 H   0  0  0  0  0  0  0  0  0  0  0  0  # atno 6908 bound_to 6896
  152.2039  134.8563  160.0555 H   0  0  0  0  0  0  0  0  0  0  0  0  # atno 6909 bound_to 6896
  146.0206  139.4647  142.9899 H   0  0  0  0  0  0  0  0  0  0  0  0  # atno 7974 bound_to 7965
  155.5186  140.3479  155.4402 H   0  0  0  0  0  0  0  0  0  0  0  0  # atno 8008 bound_to 7997
  156.0800  140.1384  156.9751 H   0  0  0  0  0  0  0  0  0  0  0  0  # atno 8009 bound_to 7997
  154.4574  140.0948  156.6773 H   0  0  0  0  0  0  0  0  0  0  0  0  # atno 8010 bound_to 7997
  140.4249  143.2570  151.8839 H   0  0  0  0  0  0  0  0  0  0  0  0  # atno 10167 bound_to 10162
  156.5276  130.4647  149.6564 H   0  0  0  0  0  0  0  0  0  0  0  0  # atno 10718 bound_to 10713
  153.6370  135.3386  155.3059 H   0  0  0  0  0  0  0  0  0  0  0  0  # atno 10763 bound_to 10752
  154.8568  135.4309  154.2045 H   0  0  0  0  0  0  0  0  0  0  0  0  # atno 10764 bound_to 10752
  153.2954  135.7020  153.7326 H   0  0  0  0  0  0  0  0  0  0  0  0  # atno 10765 bound_to 10752
  141.0837  133.6647  156.3788 H   0  0  0  0  0  0  0  0  0  0  0  0  # atno 11005 bound_to 11000
  145.7199  141.0078  143.1408 LP  0  0  0  0  0  0  0  0  0  0  0  0  # atno 17320 bound_to 7965
  144.6988  139.8857  143.7450 LP  0  0  0  0  0  0  0  0  0  0  0  0  # atno 17321 bound_to 7965
  139.4783  144.5397  151.8546 LP  0  0  0  0  0  0  0  0  0  0  0  0  # atno 17342 bound_to 10162
  140.4492  144.1879  150.5896 LP  0  0  0  0  0  0  0  0  0  0  0  0  # atno 17343 bound_to 10162
  156.3090  130.7219  151.2107 LP  0  0  0  0  0  0  0  0  0  0  0  0  # atno 17370 bound_to 10713
  157.7427  131.0486  150.5004 LP  0  0  0  0  0  0  0  0  0  0  0  0  # atno 17371 bound_to 10713
  140.5410  134.6120  157.5380 LP  0  0  0  0  0  0  0  0  0  0  0  0  # atno 17394 bound_to 11000
  139.9653  134.7383  156.0150 LP  0  0  0  0  0  0  0  0  0  0  0  0  # atno 17395 bound_to 11000

$$$$
