AV-unprocessed.smi:1673|AV-procd|sdf|6711|dock8
  -GOLD-   22720 7453D 1   1.00000     0.00000
 Structure written by MMmdl.
 39 40  0  0  0  0  0  0  0  0  1 V2000
  152.4168  138.2267  155.5133 C   0  0  0  0  0  0  0  0  0  0  0  0
  151.3391  139.1933  155.1068 C   0  0  0  0  0  0  0  0  0  0  0  0
  151.5247  140.4883  155.3171 N   0  0  0  0  0  0  0  0  0  0  0  0
  150.3478  141.1360  154.9110 O   0  0  0  0  0  0  0  0  0  0  0  0
  149.4679  140.2056  154.4576 C   0  0  0  0  0  0  0  0  0  0  0  0
  148.1390  140.6978  153.9929 C   0  0  0  0  0  0  0  0  0  0  0  0
  150.0517  138.9757  154.5333 C   0  0  0  0  0  0  0  0  0  0  0  0
  149.4177  137.7604  154.1734 N   0  0  0  0  0  0  0  0  0  0  0  0
  148.9229  136.8327  155.0063 C   0  0  0  0  0  0  0  0  0  0  0  0
  149.0066  136.8734  156.2334 O   0  0  0  0  0  0  0  0  0  0  0  0
  148.3339  135.8371  154.3289 N   0  0  0  0  0  0  0  0  0  0  0  0
  147.6808  134.6638  154.9131 C   0  0  2  0  0  0  0  0  0  0  0  0
  148.6446  133.9659  155.8937 C   0  0  0  0  0  0  0  0  0  0  0  0
  149.8177  133.2820  155.1701 C   0  0  0  0  0  0  0  0  0  0  0  0
  149.3158  132.3041  154.0971 C   0  0  0  0  0  0  0  0  0  0  0  0
  148.3705  132.9983  153.1035 C   0  0  0  0  0  0  0  0  0  0  0  0
  147.1866  133.6752  153.8249 C   0  0  2  0  0  0  0  0  0  0  0  0
  146.2051  134.3121  152.8260 C   0  0  0  0  0  0  0  0  0  0  0  0
  151.9939  137.2776  155.8426 H   0  0  0  0  0  0  0  0  0  0  0  0
  153.0136  138.6180  156.3378 H   0  0  0  0  0  0  0  0  0  0  0  0
  153.0938  138.0242  154.6833 H   0  0  0  0  0  0  0  0  0  0  0  0
  147.4685  139.8678  153.7709 H   0  0  0  0  0  0  0  0  0  0  0  0
  148.2453  141.2966  153.0886 H   0  0  0  0  0  0  0  0  0  0  0  0
  147.6678  141.3172  154.7560 H   0  0  0  0  0  0  0  0  0  0  0  0
  149.4008  137.5441  153.1875 H   0  0  0  0  0  0  0  0  0  0  0  0
  148.3232  135.8977  153.3214 H   0  0  0  0  0  0  0  0  0  0  0  0
  146.8153  134.9895  155.4929 H   0  0  0  0  0  0  0  0  0  0  0  0
  149.0224  134.6811  156.6253 H   0  0  0  0  0  0  0  0  0  0  0  0
  148.0935  133.2158  156.4625 H   0  0  0  0  0  0  0  0  0  0  0  0
  150.4583  134.0344  154.7087 H   0  0  0  0  0  0  0  0  0  0  0  0
  150.4394  132.7521  155.8922 H   0  0  0  0  0  0  0  0  0  0  0  0
  150.1627  131.8711  153.5644 H   0  0  0  0  0  0  0  0  0  0  0  0
  148.7952  131.4733  154.5752 H   0  0  0  0  0  0  0  0  0  0  0  0
  148.9265  133.7374  152.5252 H   0  0  0  0  0  0  0  0  0  0  0  0
  147.9989  132.2661  152.3860 H   0  0  0  0  0  0  0  0  0  0  0  0
  146.6342  132.8881  154.3409 H   0  0  0  0  0  0  0  0  0  0  0  0
  146.6896  135.0674  152.2070 H   0  0  0  0  0  0  0  0  0  0  0  0
  145.3726  134.7890  153.3442 H   0  0  0  0  0  0  0  0  0  0  0  0
  145.7876  133.5597  152.1566 H   0  0  0  0  0  0  0  0  0  0  0  0
  1  2  1  0  0  0  0
  1 19  1  0  0  0  0
  1 20  1  0  0  0  0
  1 21  1  0  0  0  0
  2  7  1  0  0  0  0
  2  3  2  0  0  0  0
  3  4  1  0  0  0  0
  4  5  1  0  0  0  0
  5  6  1  0  0  0  0
  5  7  2  0  0  0  0
  6 22  1  0  0  0  0
  6 23  1  0  0  0  0
  6 24  1  0  0  0  0
  7  8  1  0  0  0  0
  8  9  1  0  0  0  0
  8 25  1  0  0  0  0
  9 10  2  0  0  0  0
  9 11  1  0  0  0  0
 11 12  1  0  0  0  0
 11 26  1  0  0  0  0
 12 17  1  0  0  0  0
 12 13  1  0  0  0  0
 12 27  1  0  0  0  0
 13 14  1  0  0  0  0
 13 28  1  0  0  0  0
 13 29  1  0  0  0  0
 14 15  1  0  0  0  0
 14 30  1  0  0  0  0
 14 31  1  0  0  0  0
 15 16  1  0  0  0  0
 15 32  1  0  0  0  0
 15 33  1  0  0  0  0
 16 17  1  0  0  0  0
 16 34  1  0  0  0  0
 16 35  1  0  0  0  0
 17 18  1  0  0  0  0
 17 36  1  0  0  0  0
 18 37  1  0  0  0  0
 18 38  1  0  0  0  0
 18 39  1  0  0  0  0
M  END
> <s_m_source_file>
AV-unprocessed.smi

> <i_m_source_file_index>
1673

> <i_lp_mmshare_version>
43012

> <i_f3d_flags>
0

> <s_epik_input>
W0NIM11jMW5vYyhbQ0gzXSljMVtOSF1DKD1PKVtOSF1bQ0BASF0yW0NIMl1bQ0gyXVtDSDJdW0NIMl1bQ0BIXTJbQ0gzXQ==

> <s_epik_cmdline>
J2VwaWtfcHl0aG9uJywgJy1waCcsICc3LjAnLCAnLXRuJywgJzgnLCAnLW1hJywgJzIwMCcsICctbWV0YWxfYmluZGluZycsICctaW1hZScsICc8aW5maWxlLm1hZT4nLCAnLW9tYWUnLCAnPG91dGZpbGUubWFlPic=

> <r_lp_tautomer_probability>
1

> <r_epik_Ionization_Penalty>
4.01865e-05

> <r_epik_Ionization_Penalty_Charging>
0

> <r_epik_Ionization_Penalty_Neutral>
4.01865e-05

> <r_epik_State_Penalty>
-0

> <r_epik_Charging_Adjusted_Penalty>
0

> <i_epik_Tot_Q>
0

> <i_epik_Tot_abs_Q>
0

> <r_epik_Metal_State_Penalty>
-0

> <b_epik_Metal_Only>
0

> <s_lp_Force_Field>
OPLS_2005

> <r_lp_Energy>
11.4641

> <b_lp_Chiralities_Consistent>
1

> <s_lp_Variant>
AV-unprocessed.smi:1673-3

> <Gold.Version>
5.8.1

> <Gold.Id.Protein>
6NUR|6NUR_protein|mol2

> <Gold.PLP.Fitness>
34.3200

> <Gold.PLP.PLP>
-29.7386

> <Gold.PLP.part.hbond>
-4.0000

> <Gold.PLP.part.metal>
0.0000

> <Gold.PLP.part.buried>
-1.7878

> <Gold.PLP.part.nonpolar>
-23.6759

> <Gold.PLP.part.repulsive>
0.1737

> <Gold.PLP.ligand.clash>
0.0000

> <Gold.PLP.ligand.torsion>
0.7221

> <Gold.PLP.Chemscore.Hbond>
1.9280

> <Gold.PLP.Chemscore.CHOScore>
0.0000

> <Gold.PLP.Chemscore.Metal>
0.0000

> <Gold.Chemscore.Hbonds>
donor molecule, donor type, donor heavy atom, donor atom, acceptor molecule, acceptor atom, score
      L1  H     8    25       P1  7948  0.94
      L1  H    11    26       P1  7948  1.00

> <Gold.PLP.Chemscore.Internal.Correction>
0.2416

> <Gold.Rescore>
     Score         DG    S(hbond)    S(metal)    S(lipo)     H(rot)  DE(clash)    DE(int)     intcor
     15.04     -16.97       1.84        0.00      67.52       1.00       0.04       1.89       ----

> <Gold.Chemscore.Fitness>
15.0382

> <Gold.Chemscore.DG>
-16.9708

> <Gold.Chemscore.ZeroCoef>
-5.4800

> <Gold.Chemscore.Hbond>
1.8415

> <Gold.Chemscore.Metal>
0.0000

> <Gold.Chemscore.Lipo>
67.5236

> <Gold.Chemscore.Internal_Hbond>
0.0000

> <Gold.Chemscore.DEClash>
0.0406

> <Gold.Chemscore.DEInternal>
1.8919

> <Gold.Chemscore.Rot>
1.0000

> <Gold.Chemscore.Internal.Correction>
   9.000000E+99

> <Gold.Chemscore.Hbonds>
donor molecule, donor type, donor heavy atom, donor atom, acceptor molecule, acceptor atom, score
      L1  H     8    25       P1  7948  0.86
      L1  H    11    26       P1  7948  0.97

> <Gold.Chemscore.Hbond.Weighted>
-6.1505

> <Gold.Chemscore.Metal.Weighted>
-0.0000

> <Gold.Chemscore.Lipo.Weighted>
-7.9003

> <Gold.Chemscore.Internal_Hbond.Weighted>
0.0000

> <Gold.Chemscore.DEClash.Weighted>
0.0406

> <Gold.Chemscore.DEInternal.Weighted>
1.8919

> <Gold.Chemscore.Rot.Weighted>
2.5600

> <Gold.Chemscore.Internal.Correction.Weighted>
   9.000000E+99

> <Gold.Protein.RotatedTorsions>
[ 6907 6896 6895 6894 ] final  -52.06 input  -60.11 | X-H torsion
[ 7974 7965 7964 7962 ] final  142.05 input  175.53 | X-H torsion
[ 8008 7997 7996 7995 ] final -138.63 input   59.86 | X-H torsion
[ 10167 10162 10161 10158 ] final -169.98 input  -65.29 | X-H torsion
[ 10718 10713 10712 10709 ] final   18.61 input   66.30 | X-H torsion
[ 10763 10752 10751 10750 ] final -112.28 input  -60.55 | X-H torsion
[ 11005 11000 10999 10996 ] final   94.02 input  -57.11 | X-H torsion

> <Gold.Protein.ActiveResidues>
 VAL166  LYS551  ARG553  GLY616  TRP617  ASP618  TYR619  PRO620  LYS621  CYS622 
 ASP623  PHE694  ASN695  SER759  ASP760  ASP761  ALA762  ILE779  LEU786  VAL792 
 PHE793  MET794  SER795  GLU796  ALA797  LYS798  CYS799  TRP800  GLU811  SER814 

> <Gold.Protein.RotatedAtoms>
  150.8553  134.7890  159.7040 H   0  0  0  0  0  0  0  0  0  0  0  0  # atno 6907 bound_to 6896
  152.4606  134.5188  159.9786 H   0  0  0  0  0  0  0  0  0  0  0  0  # atno 6908 bound_to 6896
  151.5302  133.3412  159.2952 H   0  0  0  0  0  0  0  0  0  0  0  0  # atno 6909 bound_to 6896
  144.9042  139.5381  143.5739 H   0  0  0  0  0  0  0  0  0  0  0  0  # atno 7974 bound_to 7965
  155.4315  140.0525  157.3018 H   0  0  0  0  0  0  0  0  0  0  0  0  # atno 8008 bound_to 7997
  154.4858  140.2100  155.9617 H   0  0  0  0  0  0  0  0  0  0  0  0  # atno 8009 bound_to 7997
  156.1272  140.3178  155.8300 H   0  0  0  0  0  0  0  0  0  0  0  0  # atno 8010 bound_to 7997
  139.5890  144.1256  152.1610 H   0  0  0  0  0  0  0  0  0  0  0  0  # atno 10167 bound_to 10162
  157.0988  130.6459  149.5867 H   0  0  0  0  0  0  0  0  0  0  0  0  # atno 10718 bound_to 10713
  154.8342  135.4496  154.1170 H   0  0  0  0  0  0  0  0  0  0  0  0  # atno 10763 bound_to 10752
  153.2416  135.6917  153.7783 H   0  0  0  0  0  0  0  0  0  0  0  0  # atno 10764 bound_to 10752
  153.7128  135.3354  155.3226 H   0  0  0  0  0  0  0  0  0  0  0  0  # atno 10765 bound_to 10752
  139.8803  134.8822  156.3803 H   0  0  0  0  0  0  0  0  0  0  0  0  # atno 11005 bound_to 11000
  146.3124  139.7796  142.9009 LP  0  0  0  0  0  0  0  0  0  0  0  0  # atno 17320 bound_to 7965
  145.3565  141.0317  143.3309 LP  0  0  0  0  0  0  0  0  0  0  0  0  # atno 17321 bound_to 7965
  140.0826  144.5688  150.7112 LP  0  0  0  0  0  0  0  0  0  0  0  0  # atno 17342 bound_to 10162
  140.7156  143.2542  151.4444 LP  0  0  0  0  0  0  0  0  0  0  0  0  # atno 17343 bound_to 10162
  155.9879  130.4920  150.7145 LP  0  0  0  0  0  0  0  0  0  0  0  0  # atno 17370 bound_to 10713
  157.4659  131.0888  151.0696 LP  0  0  0  0  0  0  0  0  0  0  0  0  # atno 17371 bound_to 10713
  140.9403  133.7519  156.0138 LP  0  0  0  0  0  0  0  0  0  0  0  0  # atno 17394 bound_to 11000
  140.8227  134.3270  157.5376 LP  0  0  0  0  0  0  0  0  0  0  0  0  # atno 17395 bound_to 11000

$$$$
