#       Name:                AV-unprocessed.smi:160
#       Creating user name   scv26
#       Creation time:       Thu Mar 26 19:06:45 2020


#       File generated by GOLD software.
#

@<TRIPOS>MOLECULE
AV-unprocessed.smi:160
    41    42     1
SMALL
NO_CHARGES


@<TRIPOS>ATOM
      1 ****        -3.9514   1.0577  -0.3839 N.pl3          1 S1                -1.0000
      2 ****        -4.1159  -0.1287   0.2412 C.2            1 S1                 0.0000
      3 ****        -5.1852  -0.6196   0.6014 O.2            1 S1                 0.0000
      4 ****        -2.8337  -0.8845   0.4968 C.2            1 S1                 0.0000
      5 ****        -2.8531  -2.1059   1.1126 N.2            1 S1                 0.0000
      6 ****        -1.5514  -2.3619   1.1181 C.2            1 S1                 0.0000
      7 ****        -0.8037  -1.4088   0.5547 N.pl3          1 S1                 0.0000
      8 ****         0.6801  -1.3165   0.3996 C.3            1 S1                 0.0000
      9 ****         1.1022  -0.1945   1.1172 O.3            1 S1                 0.0000
     10 ****         1.7640   0.7427   0.2690 C.3            1 S1                 0.0000
     11 ****         1.4210   2.1717   0.7181 C.3            1 S1                 0.0000
     12 ****         2.2613   2.5643   1.7823 O.3            1 S1                 0.0000
     13 ****         1.2490   0.4073  -1.1325 C.3            1 S1                 0.0000
     14 ****         2.1292   0.8127  -2.1650 O.3            1 S1                 0.0000
     15 ****         1.0623  -1.1033  -1.0716 C.3            1 S1                 0.0000
     16 ****         2.2429  -1.8165  -1.3923 O.3            1 S1                 0.0000
     17 ****        -1.6319  -0.4157   0.1478 N.2            1 S1                 0.0000
     18 ****         1.0587  -2.2443   0.8308 H              1 S1                 0.0000
     19 ****         2.8390   0.5568   0.3135 H              1 S1                 0.0000
     20 ****         0.2817   0.8848  -1.2937 H              1 S1                 0.0000
     21 ****         0.2691  -1.4459  -1.7381 H              1 S1                 0.0000
     22 ****        -2.9992   1.3510  -0.6325 H              1 S1                 0.0000
     23 ****        -1.1343  -3.2633   1.5425 H              1 S1                 0.0000
     24 ****         1.5845   2.8728  -0.1004 H              1 S1                 0.0000
     25 ****         0.3730   2.2534   1.0089 H              1 S1                 0.0000
     26 ****         2.0160   3.4365   2.0512 H              1 S1                 0.0000
     27 ****         2.2090   1.7538  -2.1369 H              1 S1                 0.0000
     28 ****         2.5180  -1.5548  -2.2578 H              1 S1                 0.0000
     29 ****        -4.7381   1.6363  -0.5994 LP             1 S1                 0.0000
     30 ****        -6.0411  -0.1294   0.4368 LP             1 S1                 0.0000
     31 ****        -5.1983  -1.5088   1.0587 LP             1 S1                 0.0000
     32 ****        -3.6212  -2.6460   1.4567 LP             1 S1                 0.0000
     33 ****         1.7332  -0.4858   1.8361 LP             1 S1                 0.0000
     34 ****         0.3057   0.2462   1.5312 LP             1 S1                 0.0000
     35 ****         3.2142   2.5600   1.4791 LP             1 S1                 0.0000
     36 ****         2.1527   1.9316   2.5491 LP             1 S1                 0.0000
     37 ****         1.7620   0.5312  -3.0516 LP             1 S1                 0.0000
     38 ****         3.0266   0.3934  -2.0277 LP             1 S1                 0.0000
     39 ****         2.0596  -2.7995  -1.3776 LP             1 S1                 0.0000
     40 ****         2.9597  -1.6012  -0.7292 LP             1 S1                 0.0000
     41 ****        -1.4019   0.4484  -0.2999 LP             1 S1                 0.0000
@<TRIPOS>BOND
    1    1    2 1     
    2    1   22 1     
    3    2    3 2     
    4    2    4 1     
    5    4   17 2     
    6    4    5 1     
    7    5    6 2     
    8    6    7 1     
    9    6   23 1     
   10    7    8 1     
   11    7   17 1     
   12    8   18 1     
   13    8   15 1     
   14    8    9 1     
   15    9   10 1     
   16   10   19 1     
   17   10   11 1     
   18   10   13 1     
   19   11   12 1     
   20   11   24 1     
   21   11   25 1     
   22   12   26 1     
   23   13   20 1     
   24   13   14 1     
   25   13   15 1     
   26   14   27 1     
   27   15   21 1     
   28   15   16 1     
   29   16   28 1     
   30    1   29 1     
   31    3   30 1     
   32    3   31 1     
   33    5   32 1     
   34    9   33 1     
   35    9   34 1     
   36   12   35 1     
   37   12   36 1     
   38   14   37 1     
   39   14   38 1     
   40   16   39 1     
   41   16   40 1     
   42   17   41 1     
@<TRIPOS>SUBSTRUCTURE
      1 S1             1
@<TRIPOS>SET
LONE_PAIRS      STATIC     ATOMS    <user>   **** ""
13 29 30 31 32 33 34 35 36 37 38 39 40 41
DONOR_HYDROGENS      STATIC     ATOMS    <user>   **** ""
4 22 26 27 28
ATOM$BLUE        STATIC     ATOMS    COLORGROUP SYSTEM
13 29 30 31 32 33 34 35 36 37 38 39 40 41
ATOM$RED        STATIC     ATOMS    COLORGROUP SYSTEM
4 22 26 27 28
