AV-unprocessed.smi:2272|AV-procd|sdf|9163|dock10
  -GOLD-   2272012373D 1   1.00000     0.00000
 Structure written by MMmdl.
 41 42  0  0  0  0  0  0  0  0  1 V2000
  143.3953  143.6254  155.7637 C   0  0  0  0  0  0  0  0  0  0  0  0
  144.6017  142.8282  155.3005 C   0  0  0  0  0  0  0  0  0  0  0  0
  145.3551  143.4113  154.2774 N   0  0  0  0  0  0  0  0  0  0  0  0
  146.3988  142.8021  153.8178 C   0  0  0  0  0  0  0  0  0  0  0  0
  146.8086  141.5579  154.3232 N   0  0  0  0  0  0  0  0  0  0  0  0
  148.0045  140.9646  153.7038 C   0  0  0  0  0  0  0  0  0  0  0  0
  149.0958  140.6442  154.7510 C   0  0  1  0  0  0  0  0  0  0  0  0
  150.1412  139.9355  154.1164 O   0  0  0  0  0  0  0  0  0  0  0  0
  149.7098  141.9139  155.3584 C   0  0  0  0  0  0  0  0  0  0  0  0
  150.4637  141.5492  156.5055 O   0  0  0  0  0  0  0  0  0  0  0  0
  150.8376  142.6472  157.3247 C   0  0  0  0  0  0  0  0  0  0  0  0
  151.7298  142.2496  158.4895 C   0  0  0  0  0  0  0  0  0  0  0  0
  152.0477  140.8912  158.7016 C   0  0  0  0  0  0  0  0  0  0  0  0
  152.8692  140.5156  159.7822 C   0  0  0  0  0  0  0  0  0  0  0  0
  153.3728  141.4961  160.6583 C   0  0  0  0  0  0  0  0  0  0  0  0
  153.0527  142.8521  160.4546 C   0  0  0  0  0  0  0  0  0  0  0  0
  152.2310  143.2299  159.3745 C   0  0  0  0  0  0  0  0  0  0  0  0
  151.9275  144.5375  159.1922 F   0  0  0  0  0  0  0  0  0  0  0  0
  146.1261  140.9146  155.3144 C   0  0  0  0  0  0  0  0  0  0  0  0
  146.4841  139.8136  155.7373 O   0  0  0  0  0  0  0  0  0  0  0  0
  144.9425  141.6214  155.8299 C   0  0  0  0  0  0  0  0  0  0  0  0
  144.1580  140.9367  156.9423 C   0  0  0  0  0  0  0  0  0  0  0  0
  143.4816  143.8692  156.8229 H   0  0  0  0  0  0  0  0  0  0  0  0
  142.4793  143.0543  155.6099 H   0  0  0  0  0  0  0  0  0  0  0  0
  143.3015  144.5620  155.2125 H   0  0  0  0  0  0  0  0  0  0  0  0
  147.0163  143.2096  153.0155 H   0  0  0  0  0  0  0  0  0  0  0  0
  147.7658  140.0805  153.1087 H   0  0  0  0  0  0  0  0  0  0  0  0
  148.3946  141.6724  152.9701 H   0  0  0  0  0  0  0  0  0  0  0  0
  148.6996  140.0260  155.5579 H   0  0  0  0  0  0  0  0  0  0  0  0
  149.8177  139.0835  153.8662 H   0  0  0  0  0  0  0  0  0  0  0  0
  150.3731  142.3951  154.6374 H   0  0  0  0  0  0  0  0  0  0  0  0
  148.9251  142.6291  155.6100 H   0  0  0  0  0  0  0  0  0  0  0  0
  151.3899  143.3548  156.7059 H   0  0  0  0  0  0  0  0  0  0  0  0
  149.9487  143.1736  157.6761 H   0  0  0  0  0  0  0  0  0  0  0  0
  151.6652  140.1322  158.0350 H   0  0  0  0  0  0  0  0  0  0  0  0
  153.1124  139.4751  159.9391 H   0  0  0  0  0  0  0  0  0  0  0  0
  154.0024  141.2081  161.4872 H   0  0  0  0  0  0  0  0  0  0  0  0
  153.4369  143.6036  161.1284 H   0  0  0  0  0  0  0  0  0  0  0  0
  143.7742  139.9768  156.5950 H   0  0  0  0  0  0  0  0  0  0  0  0
  143.3096  141.5217  157.2932 H   0  0  0  0  0  0  0  0  0  0  0  0
  144.8049  140.7523  157.8005 H   0  0  0  0  0  0  0  0  0  0  0  0
  1  2  1  0  0  0  0
  1 23  1  0  0  0  0
  1 24  1  0  0  0  0
  1 25  1  0  0  0  0
  2 21  2  0  0  0  0
  2  3  1  0  0  0  0
  3  4  2  0  0  0  0
  4  5  1  0  0  0  0
  4 26  1  0  0  0  0
  5  6  1  0  0  0  0
  5 19  1  0  0  0  0
  6  7  1  0  0  0  0
  6 27  1  0  0  0  0
  6 28  1  0  0  0  0
  7  8  1  0  0  0  0
  7  9  1  0  0  0  0
  7 29  1  0  0  0  0
  8 30  1  0  0  0  0
  9 10  1  0  0  0  0
  9 31  1  0  0  0  0
  9 32  1  0  0  0  0
 10 11  1  0  0  0  0
 11 12  1  0  0  0  0
 11 33  1  0  0  0  0
 11 34  1  0  0  0  0
 12 17  1  0  0  0  0
 12 13  2  0  0  0  0
 13 14  1  0  0  0  0
 13 35  1  0  0  0  0
 14 15  2  0  0  0  0
 14 36  1  0  0  0  0
 15 16  1  0  0  0  0
 15 37  1  0  0  0  0
 16 17  2  0  0  0  0
 16 38  1  0  0  0  0
 17 18  1  0  0  0  0
 19 20  2  0  0  0  0
 19 21  1  0  0  0  0
 21 22  1  0  0  0  0
 22 39  1  0  0  0  0
 22 40  1  0  0  0  0
 22 41  1  0  0  0  0
M  END
> <s_m_source_file>
AV-unprocessed.smi

> <i_m_source_file_index>
2272

> <i_lp_mmshare_version>
43012

> <i_f3d_flags>
0

> <s_epik_input>
W0NIM11jMW5bY0hdbihjKD1PKWMxW0NIM10pW0NIMl1bQ0BIXShbT0hdKVtDSDJdT1tDSDJdYzJbY0hdW2NIXVtjSF1bY0hdYzJG

> <s_epik_cmdline>
J2VwaWtfcHl0aG9uJywgJy1waCcsICc3LjAnLCAnLXRuJywgJzgnLCAnLW1hJywgJzIwMCcsICctbWV0YWxfYmluZGluZycsICctaW1hZScsICc8aW5maWxlLm1hZT4nLCAnLW9tYWUnLCAnPG91dGZpbGUubWFlPic=

> <r_lp_tautomer_probability>
1

> <r_epik_Ionization_Penalty>
5.35985e-05

> <r_epik_Ionization_Penalty_Charging>
1.17753e-07

> <r_epik_Ionization_Penalty_Neutral>
5.34808e-05

> <r_epik_State_Penalty>
-0

> <r_epik_Charging_Adjusted_Penalty>
1.17753e-07

> <i_epik_Tot_Q>
0

> <i_epik_Tot_abs_Q>
0

> <r_epik_Metal_State_Penalty>
-0

> <b_epik_Metal_Only>
0

> <s_lp_Force_Field>
OPLS_2005

> <r_lp_Energy>
21.4702

> <b_lp_Chiralities_Consistent>
1

> <s_lp_Variant>
AV-unprocessed.smi:2272-2

> <Gold.Version>
5.8.1

> <Gold.Id.Protein>
6NUR|6NUR_protein|mol2

> <Gold.PLP.Fitness>
48.2953

> <Gold.PLP.PLP>
-45.6541

> <Gold.PLP.part.hbond>
-2.0000

> <Gold.PLP.part.metal>
0.0000

> <Gold.PLP.part.buried>
-5.0688

> <Gold.PLP.part.nonpolar>
-39.0126

> <Gold.PLP.part.repulsive>
0.3149

> <Gold.PLP.ligand.clash>
0.0000

> <Gold.PLP.ligand.torsion>
0.1901

> <Gold.PLP.Chemscore.Hbond>
1.0000

> <Gold.PLP.Chemscore.CHOScore>
0.0000

> <Gold.PLP.Chemscore.Metal>
0.0000

> <Gold.Chemscore.Hbonds>
donor molecule, donor type, donor heavy atom, donor atom, acceptor molecule, acceptor atom, score
      P1  H  7989  7998       L1     8  1.00

> <Gold.PLP.Chemscore.Internal.Correction>
0.0214

> <Gold.Rescore>
     Score         DG    S(hbond)    S(metal)    S(lipo)     H(rot)  DE(clash)    DE(int)     intcor
     12.92     -13.55       0.90        0.00     101.95       2.69       0.31       0.32       ----

> <Gold.Chemscore.Fitness>
12.9157

> <Gold.Chemscore.DG>
-13.5496

> <Gold.Chemscore.ZeroCoef>
-5.4800

> <Gold.Chemscore.Hbond>
0.9033

> <Gold.Chemscore.Metal>
0.0000

> <Gold.Chemscore.Lipo>
101.9483

> <Gold.Chemscore.Internal_Hbond>
0.0000

> <Gold.Chemscore.DEClash>
0.3143

> <Gold.Chemscore.DEInternal>
0.3197

> <Gold.Chemscore.Rot>
2.6857

> <Gold.Chemscore.Internal.Correction>
   9.000000E+99

> <Gold.Chemscore.Hbonds>
donor molecule, donor type, donor heavy atom, donor atom, acceptor molecule, acceptor atom, score
      P1  H  7989  7998       L1     8  0.92

> <Gold.Chemscore.Hbond.Weighted>
-3.0171

> <Gold.Chemscore.Metal.Weighted>
-0.0000

> <Gold.Chemscore.Lipo.Weighted>
-11.9280

> <Gold.Chemscore.Internal_Hbond.Weighted>
0.0000

> <Gold.Chemscore.DEClash.Weighted>
0.3143

> <Gold.Chemscore.DEInternal.Weighted>
0.3197

> <Gold.Chemscore.Rot.Weighted>
6.8755

> <Gold.Chemscore.Internal.Correction.Weighted>
   9.000000E+99

> <Gold.Protein.RotatedTorsions>
[ 6907 6896 6895 6894 ] final  -17.43 input  -60.11 | X-H torsion
[ 7974 7965 7964 7962 ] final -113.09 input  175.53 | X-H torsion
[ 8008 7997 7996 7995 ] final   90.53 input   59.86 | X-H torsion
[ 10167 10162 10161 10158 ] final   20.44 input  -65.29 | X-H torsion
[ 10718 10713 10712 10709 ] final  152.71 input   66.30 | X-H torsion
[ 10763 10752 10751 10750 ] final  146.90 input  -60.55 | X-H torsion
[ 11005 11000 10999 10996 ] final  167.90 input  -57.11 | X-H torsion

> <Gold.Protein.ActiveResidues>
 VAL166  LYS551  ARG553  GLY616  TRP617  ASP618  TYR619  PRO620  LYS621  CYS622 
 ASP623  PHE694  ASN695  SER759  ASP760  ASP761  ALA762  ILE779  LEU786  VAL792 
 PHE793  MET794  SER795  GLU796  ALA797  LYS798  CYS799  TRP800  GLU811  SER814 

> <Gold.Protein.RotatedAtoms>
  151.2934  135.0748  159.9212 H   0  0  0  0  0  0  0  0  0  0  0  0  # atno 6907 bound_to 6896
  152.5312  133.9908  159.7860 H   0  0  0  0  0  0  0  0  0  0  0  0  # atno 6908 bound_to 6896
  151.0182  133.5850  159.2705 H   0  0  0  0  0  0  0  0  0  0  0  0  # atno 6909 bound_to 6896
  145.1362  140.8752  143.3729 H   0  0  0  0  0  0  0  0  0  0  0  0  # atno 7974 bound_to 7965
  156.0130  140.3348  155.6960 H   0  0  0  0  0  0  0  0  0  0  0  0  # atno 8008 bound_to 7997
  155.6130  140.0667  157.2718 H   0  0  0  0  0  0  0  0  0  0  0  0  # atno 8009 bound_to 7997
  154.4288  140.1790  156.1280 H   0  0  0  0  0  0  0  0  0  0  0  0  # atno 8010 bound_to 7997
  140.5503  143.9521  150.6574 H   0  0  0  0  0  0  0  0  0  0  0  0  # atno 10167 bound_to 10162
  157.2542  131.0785  151.1709 H   0  0  0  0  0  0  0  0  0  0  0  0  # atno 10718 bound_to 10713
  154.0295  135.2899  155.3370 H   0  0  0  0  0  0  0  0  0  0  0  0  # atno 10763 bound_to 10752
  154.6997  135.5193  153.8512 H   0  0  0  0  0  0  0  0  0  0  0  0  # atno 10764 bound_to 10752
  153.0646  135.6626  154.0509 H   0  0  0  0  0  0  0  0  0  0  0  0  # atno 10765 bound_to 10752
  140.2816  134.7746  157.3763 H   0  0  0  0  0  0  0  0  0  0  0  0  # atno 11005 bound_to 11000
  145.0581  139.3127  143.5894 LP  0  0  0  0  0  0  0  0  0  0  0  0  # atno 17320 bound_to 7965
  146.3509  140.0014  142.8676 LP  0  0  0  0  0  0  0  0  0  0  0  0  # atno 17321 bound_to 7965
  140.2945  143.3302  152.1031 LP  0  0  0  0  0  0  0  0  0  0  0  0  # atno 17342 bound_to 10162
  139.5024  144.6735  151.6185 LP  0  0  0  0  0  0  0  0  0  0  0  0  # atno 17343 bound_to 10162
  157.3245  130.6954  149.6288 LP  0  0  0  0  0  0  0  0  0  0  0  0  # atno 17370 bound_to 10713
  155.9665  130.4325  150.4968 LP  0  0  0  0  0  0  0  0  0  0  0  0  # atno 17371 bound_to 10713
  140.1278  134.5134  155.8130 LP  0  0  0  0  0  0  0  0  0  0  0  0  # atno 17394 bound_to 11000
  141.2162  133.6779  156.6984 LP  0  0  0  0  0  0  0  0  0  0  0  0  # atno 17395 bound_to 11000

$$$$
