#       Name:                AV-unprocessed.smi:805
#       Creating user name   scv26
#       Creation time:       Fri Mar 27 01:23:32 2020


#       File generated by GOLD software.
#

@<TRIPOS>MOLECULE
AV-unprocessed.smi:805
    45    46     1
SMALL
NO_CHARGES


@<TRIPOS>ATOM
      1 ****        -5.0481   2.8170   1.6243 C.3            1 S1                 0.0000
      2 ****        -3.5250   2.9634   1.6340 C.3            1 S1                 0.0000
      3 ****        -2.9404   1.6760   1.5330 O.3            1 S1                 0.0000
      4 ****        -1.5223   1.7118   1.5584 C.3            1 S1                 0.0000
      5 ****        -0.8672   2.1379   0.2404 C.3            1 S1                 0.0000
      6 ****         0.1946   1.0848   0.5604 C.3            1 S1                 0.0000
      7 ****         0.6706   0.3835  -0.6269 N.am           1 S1                 0.0000
      8 ****         1.6860  -0.4900  -0.6294 C.2            1 S1                 0.0000
      9 ****         2.3269  -0.7857   0.3790 O.2            1 S1                 0.0000
     10 ****         1.8840  -1.0026  -1.8559 N.am           1 S1                 0.0000
     11 ****         2.8678  -1.9387  -2.2747 C.ar           1 S1                 0.0000
     12 ****         4.0870  -2.1720  -1.5931 C.ar           1 S1                 0.0000
     13 ****         4.9905  -3.1146  -2.1207 C.ar           1 S1                 0.0000
     14 ****         4.6472  -3.7827  -3.3120 C.ar           1 S1                 0.0000
     15 ****         3.4953  -3.5604  -3.9793 N.ar           1 S1                 0.0000
     16 ****         2.6337  -2.6553  -3.4676 C.ar           1 S1                 0.0000
     17 ****        -0.8725   0.3165   1.3860 C.3            1 S1                 0.0000
     18 ****        -0.3722  -0.3441   2.6705 C.3            1 S1                 0.0000
     19 ****        -1.7148  -0.7349   0.6421 C.3            1 S1                 0.0000
     20 ****        -5.5333   3.7900   1.7042 H              1 S1                 0.0000
     21 ****        -5.3866   2.2046   2.4603 H              1 S1                 0.0000
     22 ****        -5.3908   2.3462   0.7025 H              1 S1                 0.0000
     23 ****        -3.2065   3.5914   0.8009 H              1 S1                 0.0000
     24 ****        -3.2047   3.4500   2.5566 H              1 S1                 0.0000
     25 ****        -1.1214   2.2500   2.4208 H              1 S1                 0.0000
     26 ****        -1.4726   1.9083  -0.6384 H              1 S1                 0.0000
     27 ****        -0.5012   3.1647   0.2238 H              1 S1                 0.0000
     28 ****         0.9926   1.4987   1.1821 H              1 S1                 0.0000
     29 ****         0.1912   0.5698  -1.4956 H              1 S1                 0.0000
     30 ****         1.2189  -0.7288  -2.5641 H              1 S1                 0.0000
     31 ****         4.3533  -1.6420  -0.6921 H              1 S1                 0.0000
     32 ****         5.9283  -3.3172  -1.6248 H              1 S1                 0.0000
     33 ****         5.3187  -4.5104  -3.7431 H              1 S1                 0.0000
     34 ****         1.7236  -2.5017  -4.0291 H              1 S1                 0.0000
     35 ****         0.2400  -1.2207   2.4566 H              1 S1                 0.0000
     36 ****        -1.2000  -0.6644   3.3039 H              1 S1                 0.0000
     37 ****         0.2396   0.3388   3.2604 H              1 S1                 0.0000
     38 ****        -1.1310  -1.6265   0.4112 H              1 S1                 0.0000
     39 ****        -2.1086  -0.3554  -0.3009 H              1 S1                 0.0000
     40 ****        -2.5706  -1.0534   1.2381 H              1 S1                 0.0000
     41 ****        -3.2340   1.2584   0.6730 LP             1 S1                 0.0000
     42 ****        -3.2596   1.1192   2.2998 LP             1 S1                 0.0000
     43 ****         2.0981  -0.3667   1.2576 LP             1 S1                 0.0000
     44 ****         3.0764  -1.4451   0.3196 LP             1 S1                 0.0000
     45 ****         3.2865  -4.0504  -4.8257 LP             1 S1                 0.0000
@<TRIPOS>BOND
    1    1    2 1     
    2    1   20 1     
    3    1   21 1     
    4    1   22 1     
    5    2    3 1     
    6    2   23 1     
    7    2   24 1     
    8    3    4 1     
    9    4   17 1     
   10    4    5 1     
   11    4   25 1     
   12    5    6 1     
   13    5   26 1     
   14    5   27 1     
   15    6    7 1     
   16    6   17 1     
   17    6   28 1     
   18    7    8 am    
   19    7   29 1     
   20    8    9 2     
   21    8   10 am    
   22   10   11 1     
   23   10   30 1     
   24   11   16 ar    
   25   11   12 ar    
   26   12   13 ar    
   27   12   31 1     
   28   13   14 ar    
   29   13   32 1     
   30   14   15 ar    
   31   14   33 1     
   32   15   16 ar    
   33   16   34 1     
   34   17   18 1     
   35   17   19 1     
   36   18   35 1     
   37   18   36 1     
   38   18   37 1     
   39   19   38 1     
   40   19   39 1     
   41   19   40 1     
   42    3   41 1     
   43    3   42 1     
   44    9   43 1     
   45    9   44 1     
   46   15   45 1     
@<TRIPOS>SUBSTRUCTURE
      1 S1             1
@<TRIPOS>SET
LONE_PAIRS      STATIC     ATOMS    <user>   **** ""
5 41 42 43 44 45
DONOR_HYDROGENS      STATIC     ATOMS    <user>   **** ""
2 29 30
ATOM$BLUE        STATIC     ATOMS    COLORGROUP SYSTEM
5 41 42 43 44 45
ATOM$RED        STATIC     ATOMS    COLORGROUP SYSTEM
2 29 30
