AV-unprocessed.smi:280|AV-procd|sdf|2100|dock8
  -GOLD-   2262021393D 1   1.00000     0.00000
 Structure written by MMmdl.
 59 62  0  0  0  0  0  0  0  0  2 V2000
  147.5197  135.0399  154.6532 C   0  0  0  0  0  0  0  0  0  0  0  0
  146.6530  136.2155  154.1562 C   0  0  1  0  0  0  0  0  0  0  0  0
  147.5035  137.5039  154.2425 C   0  0  0  0  0  0  0  0  0  0  0  0
  146.8216  138.6570  153.6683 N   0  0  0  0  0  0  0  0  0  0  0  0
  147.3727  139.8582  153.9802 C   0  0  0  0  0  0  0  0  0  0  0  0
  146.6759  141.0039  153.7531 N   0  0  0  0  0  0  0  0  0  0  0  0
  147.2106  142.1907  154.0550 C   0  0  0  0  0  0  0  0  0  0  0  0
  148.4060  142.4558  154.5847 N   0  0  0  0  0  0  0  0  0  0  0  0
  149.1093  141.3116  154.8201 C   0  0  0  0  0  0  0  0  0  0  0  0
  148.6717  139.9841  154.5492 C   0  0  0  0  0  0  0  0  0  0  0  0
  149.6509  139.0764  154.9345 N   0  0  0  0  0  0  0  0  0  0  0  0
  150.6134  139.8240  155.4015 C   0  0  0  0  0  0  0  0  0  0  0  0
  150.3764  141.1798  155.3628 N   0  0  0  0  0  0  0  0  0  0  0  0
  151.2673  142.2348  155.8229 C   0  0  0  0  0  0  0  0  0  0  0  0
  151.3162  142.3860  157.3566 C   0  0  0  0  0  0  0  0  0  0  0  0
  149.9725  141.9710  157.9810 C   0  0  0  0  0  0  0  0  0  0  0  0
  148.9273  142.8267  157.5657 O   0  0  0  0  0  0  0  0  0  0  0  0
  152.5580  141.8078  158.0490 C   0  0  0  0  0  0  0  0  0  0  0  0
  152.8139  143.0432  158.7505 O   0  0  0  0  0  0  0  0  0  0  0  0
  151.8766  143.7152  157.8830 C   0  0  0  0  0  0  0  0  0  0  0  0
  146.3686  138.4511  152.2986 C   0  0  0  0  0  0  0  0  0  0  0  0
  145.4621  137.2184  152.2236 C   0  0  0  0  0  0  0  0  0  0  0  0
  146.1224  136.0019  152.7718 N   0  3  2  0  0  0  0  0  0  0  0  0
  145.2463  134.8032  152.6159 C   0  0  0  0  0  0  0  0  0  0  0  0
  145.4704  134.0601  151.2758 C   0  0  0  0  0  0  0  0  0  0  0  0
  146.8780  133.4484  151.1597 C   0  0  0  0  0  0  0  0  0  0  0  0
  144.4029  132.9676  151.0943 C   0  0  0  0  0  0  0  0  0  0  0  0
  145.2978  134.9710  150.2082 O   0  0  0  0  0  0  0  0  0  0  0  0
  147.9351  135.2592  155.6373 H   0  0  0  0  0  0  0  0  0  0  0  0
  148.3593  134.8561  153.9826 H   0  0  0  0  0  0  0  0  0  0  0  0
  146.9653  134.1087  154.7564 H   0  0  0  0  0  0  0  0  0  0  0  0
  145.7975  136.3275  154.8248 H   0  0  0  0  0  0  0  0  0  0  0  0
  147.7742  137.6864  155.2820 H   0  0  0  0  0  0  0  0  0  0  0  0
  148.4405  137.3644  153.7010 H   0  0  0  0  0  0  0  0  0  0  0  0
  146.5920  143.0504  153.8433 H   0  0  0  0  0  0  0  0  0  0  0  0
  151.5270  139.4010  155.7928 H   0  0  0  0  0  0  0  0  0  0  0  0
  152.2637  142.0492  155.4206 H   0  0  0  0  0  0  0  0  0  0  0  0
  150.9378  143.1658  155.3599 H   0  0  0  0  0  0  0  0  0  0  0  0
  149.7086  140.9556  157.6837 H   0  0  0  0  0  0  0  0  0  0  0  0
  150.0179  141.9639  159.0699 H   0  0  0  0  0  0  0  0  0  0  0  0
  149.2600  143.4076  156.8985 H   0  0  0  0  0  0  0  0  0  0  0  0
  152.3475  140.9779  158.7247 H   0  0  0  0  0  0  0  0  0  0  0  0
  153.3698  141.5551  157.3650 H   0  0  0  0  0  0  0  0  0  0  0  0
  152.3910  144.3140  157.1300 H   0  0  0  0  0  0  0  0  0  0  0  0
  151.1522  144.3181  158.4320 H   0  0  0  0  0  0  0  0  0  0  0  0
  145.8206  139.3264  151.9464 H   0  0  0  0  0  0  0  0  0  0  0  0
  147.2318  138.3225  151.6437 H   0  0  0  0  0  0  0  0  0  0  0  0
  144.5455  137.4127  152.7833 H   0  0  0  0  0  0  0  0  0  0  0  0
  145.1686  137.0518  151.1872 H   0  0  0  0  0  0  0  0  0  0  0  0
  145.3885  134.1032  153.4370 H   0  0  0  0  0  0  0  0  0  0  0  0
  144.1977  135.0945  152.7005 H   0  0  0  0  0  0  0  0  0  0  0  0
  147.0644  132.7343  151.9623 H   0  0  0  0  0  0  0  0  0  0  0  0
  147.6566  134.2102  151.2040 H   0  0  0  0  0  0  0  0  0  0  0  0
  147.0012  132.9170  150.2151 H   0  0  0  0  0  0  0  0  0  0  0  0
  144.4734  132.2144  151.8798 H   0  0  0  0  0  0  0  0  0  0  0  0
  144.5137  132.4543  150.1382 H   0  0  0  0  0  0  0  0  0  0  0  0
  143.3952  133.3839  151.1282 H   0  0  0  0  0  0  0  0  0  0  0  0
  145.5528  134.5446  149.4036 H   0  0  0  0  0  0  0  0  0  0  0  0
  146.9314  135.8344  152.1907 H   0  0  0  0  0  0  0  0  0  0  0  0
  1  2  1  0  0  0  0
  1 29  1  0  0  0  0
  1 30  1  0  0  0  0
  1 31  1  0  0  0  0
  2 23  1  0  0  0  0
  2  3  1  0  0  0  0
  2 32  1  0  0  0  0
  3  4  1  0  0  0  0
  3 33  1  0  0  0  0
  3 34  1  0  0  0  0
  4  5  1  0  0  0  0
  4 21  1  0  0  0  0
  5 10  1  0  0  0  0
  5  6  2  0  0  0  0
  6  7  1  0  0  0  0
  7  8  2  0  0  0  0
  7 35  1  0  0  0  0
  8  9  1  0  0  0  0
  9 13  1  0  0  0  0
  9 10  2  0  0  0  0
 10 11  1  0  0  0  0
 11 12  2  0  0  0  0
 12 13  1  0  0  0  0
 12 36  1  0  0  0  0
 13 14  1  0  0  0  0
 14 15  1  0  0  0  0
 14 37  1  0  0  0  0
 14 38  1  0  0  0  0
 15 20  1  0  0  0  0
 15 16  1  0  0  0  0
 15 18  1  0  0  0  0
 16 17  1  0  0  0  0
 16 39  1  0  0  0  0
 16 40  1  0  0  0  0
 17 41  1  0  0  0  0
 18 19  1  0  0  0  0
 18 42  1  0  0  0  0
 18 43  1  0  0  0  0
 19 20  1  0  0  0  0
 20 44  1  0  0  0  0
 20 45  1  0  0  0  0
 21 22  1  0  0  0  0
 21 46  1  0  0  0  0
 21 47  1  0  0  0  0
 22 23  1  0  0  0  0
 22 48  1  0  0  0  0
 22 49  1  0  0  0  0
 23 24  1  0  0  0  0
 23 59  1  0  0  0  0
 24 25  1  0  0  0  0
 24 50  1  0  0  0  0
 24 51  1  0  0  0  0
 25 26  1  0  0  0  0
 25 27  1  0  0  0  0
 25 28  1  0  0  0  0
 26 52  1  0  0  0  0
 26 53  1  0  0  0  0
 26 54  1  0  0  0  0
 27 55  1  0  0  0  0
 27 56  1  0  0  0  0
 27 57  1  0  0  0  0
 28 58  1  0  0  0  0
M  CHG  1  23   1
M  END
> <s_m_source_file>
AV-unprocessed.smi

> <i_m_source_file_index>
280

> <i_lp_mmshare_version>
43012

> <i_f3d_flags>
0

> <s_epik_input>
W0NIM11DKFtDSDNdKShbT0hdKVtDSDJdTjFbQ0gyXVtDSDJdTihbQ0gyXVtDQEhdMVtDSDNdKWMobltjSF1uMiljKGMyMyluW2NIXW4zW0NIMl1DNChbQ0gyXVtPSF0pW0NIMl1PW0NIMl00

> <s_epik_cmdline>
J2VwaWtfcHl0aG9uJywgJy1waCcsICc3LjAnLCAnLXRuJywgJzgnLCAnLW1hJywgJzIwMCcsICctbWV0YWxfYmluZGluZycsICctaW1hZScsICc8aW5maWxlLm1hZT4nLCAnLW9tYWUnLCAnPG91dGZpbGUubWFlPic=

> <r_lp_tautomer_probability>
1

> <r_epik_Ionization_Penalty>
0.00179402

> <r_epik_Ionization_Penalty_Charging>
0.00173996

> <r_epik_Ionization_Penalty_Neutral>
5.40607e-05

> <r_epik_State_Penalty>
-0

> <r_epik_Charging_Adjusted_Penalty>
0.00173996

> <i_epik_Tot_Q>
1

> <i_epik_Tot_abs_Q>
1

> <r_epik_Metal_State_Penalty>
-0

> <b_epik_Metal_Only>
0

> <s_lp_Force_Field>
OPLS_2005

> <r_lp_Energy>
52.0143

> <b_lp_Chiralities_Consistent>
1

> <s_lp_Variant>
AV-unprocessed.smi:280-4

> <Gold.Version>
5.8.1

> <Gold.Id.Protein>
6NUR|6NUR_protein|mol2

> <Gold.PLP.Fitness>
48.0156

> <Gold.PLP.PLP>
-38.4376

> <Gold.PLP.part.hbond>
-3.9409

> <Gold.PLP.part.metal>
0.0000

> <Gold.PLP.part.buried>
-8.0130

> <Gold.PLP.part.nonpolar>
-31.3007

> <Gold.PLP.part.repulsive>
4.3620

> <Gold.PLP.ligand.clash>
0.0000

> <Gold.PLP.ligand.torsion>
1.5587

> <Gold.PLP.Chemscore.Hbond>
3.7520

> <Gold.PLP.Chemscore.CHOScore>
0.0000

> <Gold.PLP.Chemscore.Metal>
0.0000

> <Gold.Chemscore.Hbonds>
donor molecule, donor type, donor heavy atom, donor atom, acceptor molecule, acceptor atom, score
      L1  H    17    41       P1  8028  0.93
      L1  H    23    59       P1  7948  1.75
      L1  H    28    58       P1  7921  0.90

> <Gold.PLP.Chemscore.Internal.Correction>
1.4394

> <Gold.Rescore>
     Score         DG    S(hbond)    S(metal)    S(lipo)     H(rot)  DE(clash)    DE(int)     intcor
      8.38     -14.63       2.48        0.00      86.82       3.63       2.49       3.76       ----

> <Gold.Chemscore.Fitness>
8.3822

> <Gold.Chemscore.DG>
-14.6264

> <Gold.Chemscore.ZeroCoef>
-5.4800

> <Gold.Chemscore.Hbond>
2.4764

> <Gold.Chemscore.Metal>
0.0000

> <Gold.Chemscore.Lipo>
86.8188

> <Gold.Chemscore.Internal_Hbond>
0.0000

> <Gold.Chemscore.DEClash>
2.4865

> <Gold.Chemscore.DEInternal>
3.7576

> <Gold.Chemscore.Rot>
3.6260

> <Gold.Chemscore.Internal.Correction>
   9.000000E+99

> <Gold.Chemscore.Hbonds>
donor molecule, donor type, donor heavy atom, donor atom, acceptor molecule, acceptor atom, score
      L1  H    17    41       P1  8028  0.84
      L1  H    23    59       P1  7948  0.82
      L1  H    28    58       P1  7921  0.83

> <Gold.Chemscore.Hbond.Weighted>
-8.2711

> <Gold.Chemscore.Metal.Weighted>
-0.0000

> <Gold.Chemscore.Lipo.Weighted>
-10.1578

> <Gold.Chemscore.Internal_Hbond.Weighted>
0.0000

> <Gold.Chemscore.DEClash.Weighted>
2.4865

> <Gold.Chemscore.DEInternal.Weighted>
3.7576

> <Gold.Chemscore.Rot.Weighted>
9.2825

> <Gold.Chemscore.Internal.Correction.Weighted>
   9.000000E+99

> <Gold.Protein.RotatedTorsions>
[ 6907 6896 6895 6894 ] final  110.43 input  -60.11 | X-H torsion
[ 7974 7965 7964 7962 ] final  100.63 input  175.53 | X-H torsion
[ 8008 7997 7996 7995 ] final  163.89 input   59.86 | X-H torsion
[ 10167 10162 10161 10158 ] final -118.18 input  -65.29 | X-H torsion
[ 10718 10713 10712 10709 ] final  141.64 input   66.30 | X-H torsion
[ 10763 10752 10751 10750 ] final  -79.26 input  -60.55 | X-H torsion
[ 11005 11000 10999 10996 ] final  -12.85 input  -57.11 | X-H torsion

> <Gold.Protein.ActiveResidues>
 VAL166  LYS551  ARG553  GLY616  TRP617  ASP618  TYR619  PRO620  LYS621  CYS622 
 ASP623  PHE694  ASN695  SER759  ASP760  ASP761  ALA762  ILE779  LEU786  VAL792 
 PHE793  MET794  SER795  GLU796  ALA797  LYS798  CYS799  TRP800  GLU811  SER814 

> <Gold.Protein.RotatedAtoms>
  152.5020  133.8801  159.7341 H   0  0  0  0  0  0  0  0  0  0  0  0  # atno 6907 bound_to 6896
  150.9266  133.6808  159.2827 H   0  0  0  0  0  0  0  0  0  0  0  0  # atno 6908 bound_to 6896
  151.4167  135.0997  159.9654 H   0  0  0  0  0  0  0  0  0  0  0  0  # atno 6909 bound_to 6896
  145.3831  139.2376  143.3393 H   0  0  0  0  0  0  0  0  0  0  0  0  # atno 7974 bound_to 7965
  156.1922  140.1711  156.8069 H   0  0  0  0  0  0  0  0  0  0  0  0  # atno 8008 bound_to 7997
  154.5486  140.0722  156.8661 H   0  0  0  0  0  0  0  0  0  0  0  0  # atno 8009 bound_to 7997
  155.3073  140.3365  155.4247 H   0  0  0  0  0  0  0  0  0  0  0  0  # atno 8010 bound_to 7997
  140.0602  143.4975  152.2035 H   0  0  0  0  0  0  0  0  0  0  0  0  # atno 10167 bound_to 10162
  157.3897  131.1003  151.0659 H   0  0  0  0  0  0  0  0  0  0  0  0  # atno 10718 bound_to 10713
  154.5364  135.5701  153.6802 H   0  0  0  0  0  0  0  0  0  0  0  0  # atno 10763 bound_to 10752
  152.9952  135.6217  154.2560 H   0  0  0  0  0  0  0  0  0  0  0  0  # atno 10764 bound_to 10752
  154.2489  135.2860  155.2804 H   0  0  0  0  0  0  0  0  0  0  0  0  # atno 10765 bound_to 10752
  140.7700  133.8446  155.9198 H   0  0  0  0  0  0  0  0  0  0  0  0  # atno 11005 bound_to 11000
  146.2833  140.4501  142.8768 LP  0  0  0  0  0  0  0  0  0  0  0  0  # atno 17320 bound_to 7965
  144.8493  140.6977  143.6178 LP  0  0  0  0  0  0  0  0  0  0  0  0  # atno 17321 bound_to 7965
  139.5898  144.7545  151.3429 LP  0  0  0  0  0  0  0  0  0  0  0  0  # atno 17342 bound_to 10162
  140.7175  143.7226  150.7684 LP  0  0  0  0  0  0  0  0  0  0  0  0  # atno 17343 bound_to 10162
  157.1697  130.6262  149.5636 LP  0  0  0  0  0  0  0  0  0  0  0  0  # atno 17370 bound_to 10713
  155.9795  130.4789  150.6720 LP  0  0  0  0  0  0  0  0  0  0  0  0  # atno 17371 bound_to 10713
  140.9583  134.1689  157.4674 LP  0  0  0  0  0  0  0  0  0  0  0  0  # atno 17394 bound_to 11000
  139.8757  134.9935  156.5648 LP  0  0  0  0  0  0  0  0  0  0  0  0  # atno 17395 bound_to 11000

$$$$
