AV-unprocessed.smi:71|AV-procd|sdf|662|dock6
  -GOLD-   2262016563D 1   1.00000     0.00000
 Structure written by MMmdl.
 31 32  0  0  0  0  0  0  0  0  1 V2000
  150.5017  144.2282  158.0553 N   0  0  0  0  0  0  0  0  0  0  0  0
  151.1982  143.0288  158.1760 C   0  0  0  0  0  0  0  0  0  0  0  0
  151.8848  142.7261  159.3689 C   0  0  0  0  0  0  0  0  0  0  0  0
  152.5821  141.5058  159.4484 C   0  0  0  0  0  0  0  0  0  0  0  0
  152.5617  140.6388  158.3393 C   0  0  0  0  0  0  0  0  0  0  0  0
  151.8331  141.0241  157.1909 C   0  0  0  0  0  0  0  0  0  0  0  0
  151.8002  140.1428  155.9769 C   0  0  0  0  0  0  0  0  0  0  0  0
  152.8450  139.6235  155.5835 O   0  0  0  0  0  0  0  0  0  0  0  0
  150.6090  139.9640  155.3583 N   0  0  0  0  0  0  0  0  0  0  0  0
  149.3810  140.7125  155.6434 C   0  0  0  0  0  0  0  0  0  0  0  0
  148.3298  140.1973  154.6618 C   0  0  0  0  0  0  0  0  0  0  0  0
  149.1421  139.6226  153.5120 C   0  0  0  0  0  0  0  0  0  0  0  0
  150.4378  139.1247  154.1659 C   0  0  2  0  0  0  0  0  0  0  0  0
  150.3831  137.6314  154.5522 C   0  0  0  0  0  0  0  0  0  0  0  0
  151.5322  136.9598  154.0812 O   0  0  0  0  0  0  0  0  0  0  0  0
  151.1737  142.2025  157.1089 N   0  0  0  0  0  0  0  0  0  0  0  0
  150.0028  144.4680  157.2107 H   0  0  0  0  0  0  0  0  0  0  0  0
  150.4463  144.8820  158.8228 H   0  0  0  0  0  0  0  0  0  0  0  0
  151.8832  143.4123  160.2032 H   0  0  0  0  0  0  0  0  0  0  0  0
  153.1258  141.2412  160.3432 H   0  0  0  0  0  0  0  0  0  0  0  0
  153.0968  139.7007  158.3708 H   0  0  0  0  0  0  0  0  0  0  0  0
  149.0370  140.5789  156.6687 H   0  0  0  0  0  0  0  0  0  0  0  0
  149.5636  141.7761  155.4813 H   0  0  0  0  0  0  0  0  0  0  0  0
  147.7492  139.4018  155.1310 H   0  0  0  0  0  0  0  0  0  0  0  0
  147.6335  140.9730  154.3420 H   0  0  0  0  0  0  0  0  0  0  0  0
  148.6045  138.8491  152.9628 H   0  0  0  0  0  0  0  0  0  0  0  0
  149.3774  140.4199  152.8056 H   0  0  0  0  0  0  0  0  0  0  0  0
  151.2700  139.2865  153.4773 H   0  0  0  0  0  0  0  0  0  0  0  0
  150.3521  137.5117  155.6353 H   0  0  0  0  0  0  0  0  0  0  0  0
  149.4888  137.1533  154.1511 H   0  0  0  0  0  0  0  0  0  0  0  0
  151.4815  136.9010  153.1393 H   0  0  0  0  0  0  0  0  0  0  0  0
  1  2  1  0  0  0  0
  1 17  1  0  0  0  0
  1 18  1  0  0  0  0
  2 16  1  0  0  0  0
  2  3  2  0  0  0  0
  3  4  1  0  0  0  0
  3 19  1  0  0  0  0
  4  5  2  0  0  0  0
  4 20  1  0  0  0  0
  5  6  1  0  0  0  0
  5 21  1  0  0  0  0
  6  7  1  0  0  0  0
  6 16  2  0  0  0  0
  7  8  2  0  0  0  0
  7  9  1  0  0  0  0
  9 13  1  0  0  0  0
  9 10  1  0  0  0  0
 10 11  1  0  0  0  0
 10 22  1  0  0  0  0
 10 23  1  0  0  0  0
 11 12  1  0  0  0  0
 11 24  1  0  0  0  0
 11 25  1  0  0  0  0
 12 13  1  0  0  0  0
 12 26  1  0  0  0  0
 12 27  1  0  0  0  0
 13 14  1  0  0  0  0
 13 28  1  0  0  0  0
 14 15  1  0  0  0  0
 14 29  1  0  0  0  0
 14 30  1  0  0  0  0
 15 31  1  0  0  0  0
M  END
> <s_m_source_file>
AV-unprocessed.smi

> <i_m_source_file_index>
71

> <i_lp_mmshare_version>
43012

> <i_f3d_flags>
0

> <s_epik_input>
W05IMl1jMVtjSF1bY0hdW2NIXWMobjEpQyg9TylOMltDSDJdW0NIMl1bQ0gyXVtDQEhdMltDSDJdW09IXQ==

> <s_epik_cmdline>
J2VwaWtfcHl0aG9uJywgJy1waCcsICc3LjAnLCAnLXRuJywgJzgnLCAnLW1hJywgJzIwMCcsICctbWV0YWxfYmluZGluZycsICctaW1hZScsICc8aW5maWxlLm1hZT4nLCAnLW9tYWUnLCAnPG91dGZpbGUubWFlPic=

> <r_lp_tautomer_probability>
1

> <r_epik_Ionization_Penalty>
2.21614e-05

> <r_epik_Ionization_Penalty_Charging>
0

> <r_epik_Ionization_Penalty_Neutral>
2.21614e-05

> <r_epik_State_Penalty>
-0

> <r_epik_Charging_Adjusted_Penalty>
0

> <i_epik_Tot_Q>
0

> <i_epik_Tot_abs_Q>
0

> <r_epik_Metal_State_Penalty>
-0

> <b_epik_Metal_Only>
0

> <s_lp_Force_Field>
OPLS_2005

> <r_lp_Energy>
36.7339

> <b_lp_Chiralities_Consistent>
1

> <s_lp_Variant>
AV-unprocessed.smi:71-2

> <Gold.Version>
5.8.1

> <Gold.Id.Protein>
6NUR|6NUR_protein|mol2

> <Gold.PLP.Fitness>
38.8192

> <Gold.PLP.PLP>
-28.6037

> <Gold.PLP.part.hbond>
-4.2478

> <Gold.PLP.part.metal>
0.0000

> <Gold.PLP.part.buried>
0.0072

> <Gold.PLP.part.nonpolar>
-24.6410

> <Gold.PLP.part.repulsive>
0.1279

> <Gold.PLP.ligand.clash>
0.0000

> <Gold.PLP.ligand.torsion>
1.4710

> <Gold.PLP.Chemscore.Hbond>
3.9920

> <Gold.PLP.Chemscore.CHOScore>
0.0000

> <Gold.PLP.Chemscore.Metal>
0.0000

> <Gold.Chemscore.Hbonds>
donor molecule, donor type, donor heavy atom, donor atom, acceptor molecule, acceptor atom, score
      L1  H     1    17       P1  8028  1.00
      L1  H    15    31       P1  7949  1.00
      P1  H  7997  8010       L1     8  1.00
      P1  H 10752 10763       L1    15  0.90

> <Gold.PLP.Chemscore.Internal.Correction>
1.1814

> <Gold.Rescore>
     Score         DG    S(hbond)    S(metal)    S(lipo)     H(rot)  DE(clash)    DE(int)     intcor
     16.45     -21.32       3.56        0.00      66.44       1.50       1.84       3.04       ----

> <Gold.Chemscore.Fitness>
16.4481

> <Gold.Chemscore.DG>
-21.3199

> <Gold.Chemscore.ZeroCoef>
-5.4800

> <Gold.Chemscore.Hbond>
3.5617

> <Gold.Chemscore.Metal>
0.0000

> <Gold.Chemscore.Lipo>
66.4385

> <Gold.Chemscore.Internal_Hbond>
0.0000

> <Gold.Chemscore.DEClash>
1.8359

> <Gold.Chemscore.DEInternal>
3.0359

> <Gold.Chemscore.Rot>
1.4959

> <Gold.Chemscore.Internal.Correction>
   9.000000E+99

> <Gold.Chemscore.Hbonds>
donor molecule, donor type, donor heavy atom, donor atom, acceptor molecule, acceptor atom, score
      L1  H     1    17       P1  8028  0.45
      L1  H    15    31       P1  7949  0.86
      P1  H  7997  8010       L1     8  0.98
      P1  H 10752 10763       L1    15  0.37

> <Gold.Chemscore.Hbond.Weighted>
-11.8961

> <Gold.Chemscore.Metal.Weighted>
-0.0000

> <Gold.Chemscore.Lipo.Weighted>
-7.7733

> <Gold.Chemscore.Internal_Hbond.Weighted>
0.0000

> <Gold.Chemscore.DEClash.Weighted>
1.8359

> <Gold.Chemscore.DEInternal.Weighted>
3.0359

> <Gold.Chemscore.Rot.Weighted>
3.8295

> <Gold.Chemscore.Internal.Correction.Weighted>
   9.000000E+99

> <Gold.Protein.RotatedTorsions>
[ 6907 6896 6895 6894 ] final  -84.14 input  -60.11 | X-H torsion
[ 7974 7965 7964 7962 ] final  128.12 input  175.53 | X-H torsion
[ 8008 7997 7996 7995 ] final   82.01 input   59.86 | X-H torsion
[ 10167 10162 10161 10158 ] final -126.99 input  -65.29 | X-H torsion
[ 10718 10713 10712 10709 ] final   65.53 input   66.30 | X-H torsion
[ 10763 10752 10751 10750 ] final   61.05 input  -60.55 | X-H torsion
[ 11005 11000 10999 10996 ] final -131.88 input  -57.11 | X-H torsion

> <Gold.Protein.ActiveResidues>
 VAL166  LYS551  ARG553  GLY616  TRP617  ASP618  TYR619  PRO620  LYS621  CYS622 
 ASP623  PHE694  ASN695  SER759  ASP760  ASP761  ALA762  ILE779  LEU786  VAL792 
 PHE793  MET794  SER795  GLU796  ALA797  LYS798  CYS799  TRP800  GLU811  SER814 

> <Gold.Protein.RotatedAtoms>
  150.6879  134.3405  159.4865 H   0  0  0  0  0  0  0  0  0  0  0  0  # atno 6907 bound_to 6896
  152.1258  134.9169  160.0570 H   0  0  0  0  0  0  0  0  0  0  0  0  # atno 6908 bound_to 6896
  152.0357  133.3921  159.4353 H   0  0  0  0  0  0  0  0  0  0  0  0  # atno 6909 bound_to 6896
  145.0431  139.3946  143.5092 H   0  0  0  0  0  0  0  0  0  0  0  0  # atno 7974 bound_to 7965
  155.9048  140.3431  155.6054 H   0  0  0  0  0  0  0  0  0  0  0  0  # atno 8008 bound_to 7997
  155.7457  140.0813  157.2243 H   0  0  0  0  0  0  0  0  0  0  0  0  # atno 8009 bound_to 7997
  154.4048  140.1562  156.2654 H   0  0  0  0  0  0  0  0  0  0  0  0  # atno 8010 bound_to 7997
  139.9656  143.5902  152.2430 H   0  0  0  0  0  0  0  0  0  0  0  0  # atno 10167 bound_to 10162
  157.6111  130.9219  149.9988 H   0  0  0  0  0  0  0  0  0  0  0  0  # atno 10718 bound_to 10713
  152.9939  135.5514  154.5972 H   0  0  0  0  0  0  0  0  0  0  0  0  # atno 10763 bound_to 10752
  154.5321  135.2814  155.1173 H   0  0  0  0  0  0  0  0  0  0  0  0  # atno 10764 bound_to 10752
  154.2484  135.6403  153.5284 H   0  0  0  0  0  0  0  0  0  0  0  0  # atno 10765 bound_to 10752
  140.9219  134.1433  157.4307 H   0  0  0  0  0  0  0  0  0  0  0  0  # atno 11005 bound_to 11000
  146.3511  140.0042  142.8673 LP  0  0  0  0  0  0  0  0  0  0  0  0  # atno 17320 bound_to 7965
  145.1623  140.9679  143.4370 LP  0  0  0  0  0  0  0  0  0  0  0  0  # atno 17321 bound_to 7965
  139.6521  144.7661  151.2128 LP  0  0  0  0  0  0  0  0  0  0  0  0  # atno 17342 bound_to 10162
  140.7539  143.6145  150.8573 LP  0  0  0  0  0  0  0  0  0  0  0  0  # atno 17343 bound_to 10162
  156.1214  130.3646  149.9880 LP  0  0  0  0  0  0  0  0  0  0  0  0  # atno 17370 bound_to 10713
  156.7960  130.9273  151.3646 LP  0  0  0  0  0  0  0  0  0  0  0  0  # atno 17371 bound_to 10713
  139.8777  134.9974  156.5847 LP  0  0  0  0  0  0  0  0  0  0  0  0  # atno 17394 bound_to 11000
  140.7976  133.8531  155.8699 LP  0  0  0  0  0  0  0  0  0  0  0  0  # atno 17395 bound_to 11000

$$$$
