AV-unprocessed.smi:759|AV-procd|sdf|3619|dock2
  -GOLD-   22720 1 13D 1   1.00000     0.00000
 Structure written by MMmdl.
 24 25  0  0  0  0  0  0  0  0  2 V2000
  151.7666  138.6644  154.6709 C   0  0  0  0  0  0  0  0  0  0  0  0
  152.6546  138.5552  155.6574 N   0  0  0  0  0  0  0  0  0  0  0  0
  152.5092  139.6072  156.4915 N   0  0  0  0  0  0  0  0  0  0  0  0
  151.5119  140.2839  155.9190 C   0  0  0  0  0  0  0  0  0  0  0  0
  151.0002  141.5592  156.5153 C   0  0  2  0  0  0  0  0  0  0  0  0
  151.7771  141.9615  157.7833 C   0  0  0  0  0  0  0  0  0  0  0  0
  151.2108  143.2648  158.3679 C   0  0  0  0  0  0  0  0  0  0  0  0
  149.6949  143.1504  158.6014 C   0  0  0  0  0  0  0  0  0  0  0  0
  148.9981  142.7825  157.3494 N   0  3  0  0  0  0  0  0  0  0  0  0
  149.4803  141.5084  156.7717 C   0  0  0  0  0  0  0  0  0  0  0  0
  151.0015  139.7433  154.7691 N   0  0  0  0  0  0  0  0  0  0  0  0
  153.3396  137.8257  155.7969 H   0  0  0  0  0  0  0  0  0  0  0  0
  151.6788  137.9456  153.8694 H   0  0  0  0  0  0  0  0  0  0  0  0
  151.1692  142.3480  155.7794 H   0  0  0  0  0  0  0  0  0  0  0  0
  151.7068  141.1698  158.5307 H   0  0  0  0  0  0  0  0  0  0  0  0
  152.8368  142.0834  157.5561 H   0  0  0  0  0  0  0  0  0  0  0  0
  151.7160  143.5035  159.3043 H   0  0  0  0  0  0  0  0  0  0  0  0
  151.4155  144.0918  157.6867 H   0  0  0  0  0  0  0  0  0  0  0  0
  149.4834  142.4003  159.3648 H   0  0  0  0  0  0  0  0  0  0  0  0
  149.2956  144.0973  158.9655 H   0  0  0  0  0  0  0  0  0  0  0  0
  148.0084  142.7034  157.5356 H   0  0  0  0  0  0  0  0  0  0  0  0
  148.9432  141.3169  155.8423 H   0  0  0  0  0  0  0  0  0  0  0  0
  149.2333  140.6954  157.4562 H   0  0  0  0  0  0  0  0  0  0  0  0
  149.1441  143.5181  156.6727 H   0  0  0  0  0  0  0  0  0  0  0  0
  1 11  2  0  0  0  0
  1 13  1  0  0  0  0
  1  2  1  0  0  0  0
  2 12  1  0  0  0  0
  2  3  1  0  0  0  0
  3  4  2  0  0  0  0
  4 11  1  0  0  0  0
  4  5  1  0  0  0  0
  5 10  1  0  0  0  0
  5  6  1  0  0  0  0
  5 14  1  0  0  0  0
  6  7  1  0  0  0  0
  6 15  1  0  0  0  0
  6 16  1  0  0  0  0
  7  8  1  0  0  0  0
  7 17  1  0  0  0  0
  7 18  1  0  0  0  0
  8  9  1  0  0  0  0
  8 19  1  0  0  0  0
  8 20  1  0  0  0  0
  9 10  1  0  0  0  0
  9 21  1  0  0  0  0
  9 24  1  0  0  0  0
 10 22  1  0  0  0  0
 10 23  1  0  0  0  0
M  CHG  1   9   1
M  END
> <s_m_source_file>
AV-unprocessed.smi

> <i_m_source_file_index>
759

> <i_lp_mmshare_version>
43012

> <i_f3d_flags>
0

> <s_epik_input>
W25IXTFbY0hdbm5jMVtDQEBIXTJbQ0gyXVtDSDJdW0NIMl1bTkhdW0NIMl0y

> <s_epik_cmdline>
J2VwaWtfcHl0aG9uJywgJy1waCcsICc3LjAnLCAnLXRuJywgJzgnLCAnLW1hJywgJzIwMCcsICctbWV0YWxfYmluZGluZycsICctaW1hZScsICc8aW5maWxlLm1hZT4nLCAnLW9tYWUnLCAnPG91dGZpbGUubWFlPic=

> <r_lp_tautomer_probability>
0.948284

> <r_epik_Ionization_Penalty>
0.0050177

> <r_epik_Ionization_Penalty_Charging>
0.000345518

> <r_epik_Ionization_Penalty_Neutral>
0.00467218

> <r_epik_State_Penalty>
0.271452

> <r_epik_Charging_Adjusted_Penalty>
0.271797

> <i_epik_Tot_Q>
1

> <i_epik_Tot_abs_Q>
1

> <r_epik_Metal_State_Penalty>
0.537172

> <b_epik_Metal_Only>
0

> <s_lp_Force_Field>
OPLS_2005

> <r_lp_Energy>
9.69095

> <b_lp_Chiralities_Consistent>
1

> <s_lp_Variant>
AV-unprocessed.smi:759-1

> <Gold.Version>
5.8.1

> <Gold.Id.Protein>
6NUR|6NUR_protein|mol2

> <Gold.PLP.Fitness>
31.3417

> <Gold.PLP.PLP>
-19.5674

> <Gold.PLP.part.hbond>
-3.0067

> <Gold.PLP.part.metal>
0.0000

> <Gold.PLP.part.buried>
-4.1116

> <Gold.PLP.part.nonpolar>
-12.8270

> <Gold.PLP.part.repulsive>
0.2893

> <Gold.PLP.ligand.clash>
0.0000

> <Gold.PLP.ligand.torsion>
0.0262

> <Gold.PLP.Chemscore.Hbond>
3.9280

> <Gold.PLP.Chemscore.CHOScore>
0.0000

> <Gold.PLP.Chemscore.Metal>
0.0000

> <Gold.Chemscore.Hbonds>
donor molecule, donor type, donor heavy atom, donor atom, acceptor molecule, acceptor atom, score
      L1  H     9    24       P1  8028  2.00
      P1  H  7989  7998       L1    11  1.00
      P1  H  7997  8008       L1     3  0.88

> <Gold.PLP.Chemscore.Internal.Correction>
0.0427

> <Gold.Rescore>
     Score         DG    S(hbond)    S(metal)    S(lipo)     H(rot)  DE(clash)    DE(int)     intcor
     13.78     -13.88       2.02        0.00      35.92       1.00       0.01       0.08       ----

> <Gold.Chemscore.Fitness>
13.7830

> <Gold.Chemscore.DG>
-13.8804

> <Gold.Chemscore.ZeroCoef>
-5.4800

> <Gold.Chemscore.Hbond>
2.0232

> <Gold.Chemscore.Metal>
0.0000

> <Gold.Chemscore.Lipo>
35.9219

> <Gold.Chemscore.Internal_Hbond>
0.0000

> <Gold.Chemscore.DEClash>
0.0126

> <Gold.Chemscore.DEInternal>
0.0849

> <Gold.Chemscore.Rot>
1.0000

> <Gold.Chemscore.Internal.Correction>
   9.000000E+99

> <Gold.Chemscore.Hbonds>
donor molecule, donor type, donor heavy atom, donor atom, acceptor molecule, acceptor atom, score
      L1  H     9    24       P1  8028  0.92
      P1  H  7989  7998       L1    11  0.16
      P1  H  7997  8008       L1     3  0.18

> <Gold.Chemscore.Hbond.Weighted>
-6.7576

> <Gold.Chemscore.Metal.Weighted>
-0.0000

> <Gold.Chemscore.Lipo.Weighted>
-4.2029

> <Gold.Chemscore.Internal_Hbond.Weighted>
0.0000

> <Gold.Chemscore.DEClash.Weighted>
0.0126

> <Gold.Chemscore.DEInternal.Weighted>
0.0849

> <Gold.Chemscore.Rot.Weighted>
2.5600

> <Gold.Chemscore.Internal.Correction.Weighted>
   9.000000E+99

> <Gold.Protein.RotatedTorsions>
[ 6907 6896 6895 6894 ] final  -50.43 input  -60.11 | X-H torsion
[ 7974 7965 7964 7962 ] final  -45.56 input  175.53 | X-H torsion
[ 8008 7997 7996 7995 ] final  -71.52 input   59.86 | X-H torsion
[ 10167 10162 10161 10158 ] final  -27.60 input  -65.29 | X-H torsion
[ 10718 10713 10712 10709 ] final -106.36 input   66.30 | X-H torsion
[ 10763 10752 10751 10750 ] final -109.84 input  -60.55 | X-H torsion
[ 11005 11000 10999 10996 ] final   74.59 input  -57.11 | X-H torsion

> <Gold.Protein.ActiveResidues>
 VAL166  LYS551  ARG553  GLY616  TRP617  ASP618  TYR619  PRO620  LYS621  CYS622 
 ASP623  PHE694  ASN695  SER759  ASP760  ASP761  ALA762  ILE779  LEU786  VAL792 
 PHE793  MET794  SER795  GLU796  ALA797  LYS798  CYS799  TRP800  GLU811  SER814 

> <Gold.Protein.RotatedAtoms>
  150.8708  134.8081  159.7152 H   0  0  0  0  0  0  0  0  0  0  0  0  # atno 6907 bound_to 6896
  152.4713  134.4950  159.9717 H   0  0  0  0  0  0  0  0  0  0  0  0  # atno 6908 bound_to 6896
  151.5039  133.3460  159.2909 H   0  0  0  0  0  0  0  0  0  0  0  0  # atno 6909 bound_to 6896
  145.9808  140.7285  142.9364 H   0  0  0  0  0  0  0  0  0  0  0  0  # atno 7974 bound_to 7965
  154.5094  140.0814  156.7959 H   0  0  0  0  0  0  0  0  0  0  0  0  # atno 8008 bound_to 7997
  155.3820  140.3428  155.4229 H   0  0  0  0  0  0  0  0  0  0  0  0  # atno 8009 bound_to 7997
  156.1555  140.1572  156.8688 H   0  0  0  0  0  0  0  0  0  0  0  0  # atno 8010 bound_to 7997
  140.7276  143.4079  151.1154 H   0  0  0  0  0  0  0  0  0  0  0  0  # atno 10167 bound_to 10162
  156.0386  130.5609  150.7669 H   0  0  0  0  0  0  0  0  0  0  0  0  # atno 10718 bound_to 10713
  154.8215  135.4586  154.0793 H   0  0  0  0  0  0  0  0  0  0  0  0  # atno 10763 bound_to 10752
  153.2143  135.6886  153.8083 H   0  0  0  0  0  0  0  0  0  0  0  0  # atno 10764 bound_to 10752
  153.7523  135.3296  155.3300 H   0  0  0  0  0  0  0  0  0  0  0  0  # atno 10765 bound_to 10752
  139.9384  134.7446  156.1167 H   0  0  0  0  0  0  0  0  0  0  0  0  # atno 11005 bound_to 11000
  144.6861  140.2906  143.7278 LP  0  0  0  0  0  0  0  0  0  0  0  0  # atno 17320 bound_to 7965
  145.7771  139.1878  143.2179 LP  0  0  0  0  0  0  0  0  0  0  0  0  # atno 17321 bound_to 7965
  139.7709  143.8496  152.3120 LP  0  0  0  0  0  0  0  0  0  0  0  0  # atno 17342 bound_to 10162
  139.8414  144.7208  150.9326 LP  0  0  0  0  0  0  0  0  0  0  0  0  # atno 17343 bound_to 10162
  157.5174  131.0929  151.0122 LP  0  0  0  0  0  0  0  0  0  0  0  0  # atno 17370 bound_to 10713
  157.0462  130.5769  149.5363 LP  0  0  0  0  0  0  0  0  0  0  0  0  # atno 17371 bound_to 10713
  141.1007  133.6678  156.2749 LP  0  0  0  0  0  0  0  0  0  0  0  0  # atno 17394 bound_to 11000
  140.6016  134.5549  157.5518 LP  0  0  0  0  0  0  0  0  0  0  0  0  # atno 17395 bound_to 11000

$$$$
