#       Name:                AV-unprocessed.smi:3351
#       Creating user name   scv26
#       Creation time:       Fri Mar 27 19:38:20 2020


#       File generated by GOLD software.
#

@<TRIPOS>MOLECULE
AV-unprocessed.smi:3351
    39    40     1
SMALL
NO_CHARGES


@<TRIPOS>ATOM
      1 ****        -2.5140  -0.6601   3.0096 C.3            1 S1                 0.0000
      2 ****        -1.9489  -0.2417   1.6456 C.3            1 S1                 0.0000
      3 ****        -2.6503  -0.9962   0.4945 C.3            1 S1                 0.0000
      4 ****        -2.2455  -0.5252  -0.8346 N.pl3          1 S1                 0.0000
      5 ****        -1.4300  -1.1663  -1.7313 C.2            1 S1                 0.0000
      6 ****        -1.3194  -0.3401  -2.8196 C.2            1 S1                 0.0000
      7 ****        -2.0812   0.7643  -2.5464 N.pl3          1 S1                 1.0000
      8 ****        -2.6482   0.6473  -1.3413 C.2            1 S1                 0.0000
      9 ****        -0.5072  -0.4885   1.6342 N.am           1 S1                 0.0000
     10 ****         0.4161   0.2885   1.0457 C.2            1 S1                 0.0000
     11 ****         0.1436   1.3355   0.4566 O.2            1 S1                 0.0000
     12 ****         1.8682  -0.1920   1.1442 C.3            1 S1                 0.0000
     13 ****         2.6400   0.1211  -0.0590 N.am           1 S1                 0.0000
     14 ****         3.6344   1.1846  -0.0098 C.3            1 S1                 0.0000
     15 ****         3.9990   1.5541  -1.4493 C.3            1 S1                 0.0000
     16 ****         3.6030   0.1389  -2.4960 S.3            1 S1                 0.0000
     17 ****         2.5263  -0.5798  -1.2525 C.2            1 S1                 0.0000
     18 ****         1.8101  -1.5516  -1.4866 O.2            1 S1                 0.0000
     19 ****        -3.5845  -0.4617   3.0683 H              1 S1                 0.0000
     20 ****        -2.0339  -0.1095   3.8194 H              1 S1                 0.0000
     21 ****        -2.3628  -1.7243   3.1940 H              1 S1                 0.0000
     22 ****        -2.1391   0.8275   1.5351 H              1 S1                 0.0000
     23 ****        -2.4463  -2.0664   0.5520 H              1 S1                 0.0000
     24 ****        -3.7325  -0.8773   0.5652 H              1 S1                 0.0000
     25 ****        -0.9887  -2.1318  -1.5293 H              1 S1                 0.0000
     26 ****        -0.7689  -0.4524  -3.7423 H              1 S1                 0.0000
     27 ****        -3.2927   1.3648  -0.8656 H              1 S1                 0.0000
     28 ****        -0.1874  -1.3238   2.1035 H              1 S1                 0.0000
     29 ****         2.3299   0.2745   2.0153 H              1 S1                 0.0000
     30 ****         1.8958  -1.2689   1.3199 H              1 S1                 0.0000
     31 ****         3.2615   2.0519   0.5366 H              1 S1                 0.0000
     32 ****         4.5119   0.8113   0.5194 H              1 S1                 0.0000
     33 ****         3.3939   2.3979  -1.7817 H              1 S1                 0.0000
     34 ****         5.0471   1.8370  -1.5492 H              1 S1                 0.0000
     35 ****        -2.1982   1.5578  -3.1641 H              1 S1                 0.0000
     36 ****        -0.8058   1.6446   0.3995 LP             1 S1                 0.0000
     37 ****         0.8717   1.8764   0.0355 LP             1 S1                 0.0000
     38 ****         1.2199  -1.9221  -0.7694 LP             1 S1                 0.0000
     39 ****         1.8178  -1.9713  -2.3942 LP             1 S1                 0.0000
@<TRIPOS>BOND
    1    1    2 1     
    2    1   19 1     
    3    1   20 1     
    4    1   21 1     
    5    2    3 1     
    6    2    9 1     
    7    2   22 1     
    8    3    4 1     
    9    3   23 1     
   10    3   24 1     
   11    4    8 1     
   12    4    5 1     
   13    5    6 2     
   14    5   25 1     
   15    6    7 1     
   16    6   26 1     
   17    7    8 2     
   18    7   35 1     
   19    8   27 1     
   20    9   10 am    
   21    9   28 1     
   22   10   11 2     
   23   10   12 1     
   24   12   13 1     
   25   12   29 1     
   26   12   30 1     
   27   13   17 am    
   28   13   14 1     
   29   14   15 1     
   30   14   31 1     
   31   14   32 1     
   32   15   16 1     
   33   15   33 1     
   34   15   34 1     
   35   16   17 1     
   36   17   18 2     
   37   11   36 1     
   38   11   37 1     
   39   18   38 1     
   40   18   39 1     
@<TRIPOS>SUBSTRUCTURE
      1 S1             1
@<TRIPOS>SET
LONE_PAIRS      STATIC     ATOMS    <user>   **** ""
4 36 37 38 39
DONOR_HYDROGENS      STATIC     ATOMS    <user>   **** ""
2 35 28
ATOM$BLUE        STATIC     ATOMS    COLORGROUP SYSTEM
4 36 37 38 39
ATOM$RED        STATIC     ATOMS    COLORGROUP SYSTEM
2 35 28
