AV-unprocessed.smi:234|AV-procd|sdf|1786|dock10
  -GOLD-   2262020343D 1   1.00000     0.00000
 Structure written by MMmdl.
 59 62  0  0  0  0  0  0  0  0  1 V2000
  152.0927  144.0132  159.4384 C   0  0  0  0  0  0  0  0  0  0  0  0
  151.5227  143.5691  158.0846 C   0  0  0  0  0  0  0  0  0  0  0  0
  150.8099  142.3446  158.1931 O   0  0  0  0  0  0  0  0  0  0  0  0
  150.0771  141.9867  157.0287 C   0  0  1  0  0  0  0  0  0  0  0  0
  150.9100  141.3071  155.9388 C   0  0  0  0  0  0  0  0  0  0  0  0
  149.6763  140.4317  155.7025 C   0  0  1  0  0  0  0  0  0  0  0  0
  149.9975  139.0470  155.3482 N   0  0  0  0  0  0  0  0  0  0  0  0
  150.8093  138.8563  154.1531 C   0  0  0  0  0  0  0  0  0  0  0  0
  148.9545  138.1844  155.3534 C   0  0  0  0  0  0  0  0  0  0  0  0
  148.9268  137.1461  156.2306 N   0  0  0  0  0  0  0  0  0  0  0  0
  147.8933  136.2987  156.2301 C   0  0  0  0  0  0  0  0  0  0  0  0
  146.8066  136.3074  155.4547 N   0  0  0  0  0  0  0  0  0  0  0  0
  146.8311  137.3514  154.5770 C   0  0  0  0  0  0  0  0  0  0  0  0
  147.8546  138.3333  154.4679 C   0  0  0  0  0  0  0  0  0  0  0  0
  147.5387  139.2449  153.4692 N   0  0  0  0  0  0  0  0  0  0  0  0
  146.3926  138.8229  153.0090 C   0  0  0  0  0  0  0  0  0  0  0  0
  145.9005  137.6842  153.6079 N   0  0  0  0  0  0  0  0  0  0  0  0
  144.6594  136.9983  153.2801 C   0  0  0  0  0  0  0  0  0  0  0  0
  144.7936  136.0213  152.0819 C   0  0  1  0  0  0  0  0  0  0  0  0
  145.0604  136.7893  150.9195 O   0  0  0  0  0  0  0  0  0  0  0  0
  145.9245  135.0085  152.2402 C   0  0  0  0  0  0  0  0  0  0  0  0
  145.4394  133.8213  151.4232 C   0  0  0  0  0  0  0  0  0  0  0  0
  144.0577  133.7864  151.7336 O   0  0  0  0  0  0  0  0  0  0  0  0
  143.5609  135.1219  151.7802 C   0  0  1  0  0  0  0  0  0  0  0  0
  142.4125  135.1551  152.8009 C   0  0  0  0  0  0  0  0  0  0  0  0
  149.2809  140.6675  157.1903 C   0  0  0  0  0  0  0  0  0  0  0  0
  149.8333  139.6880  158.2426 C   0  0  0  0  0  0  0  0  0  0  0  0
  147.7891  140.8380  157.4775 C   0  0  0  0  0  0  0  0  0  0  0  0
  152.7138  144.9015  159.3218 H   0  0  0  0  0  0  0  0  0  0  0  0
  152.7123  143.2301  159.8757 H   0  0  0  0  0  0  0  0  0  0  0  0
  151.3054  144.2569  160.1511 H   0  0  0  0  0  0  0  0  0  0  0  0
  150.9015  144.3504  157.6449 H   0  0  0  0  0  0  0  0  0  0  0  0
  152.3495  143.4067  157.3928 H   0  0  0  0  0  0  0  0  0  0  0  0
  149.4535  142.7930  156.6374 H   0  0  0  0  0  0  0  0  0  0  0  0
  151.1783  141.9524  155.1022 H   0  0  0  0  0  0  0  0  0  0  0  0
  151.7741  140.7658  156.3279 H   0  0  0  0  0  0  0  0  0  0  0  0
  148.9828  140.9134  155.0097 H   0  0  0  0  0  0  0  0  0  0  0  0
  151.0330  137.8010  153.9886 H   0  0  0  0  0  0  0  0  0  0  0  0
  151.7592  139.3824  154.2478 H   0  0  0  0  0  0  0  0  0  0  0  0
  150.2935  139.2404  153.2718 H   0  0  0  0  0  0  0  0  0  0  0  0
  147.9454  135.4982  156.9531 H   0  0  0  0  0  0  0  0  0  0  0  0
  145.8749  139.3286  152.2067 H   0  0  0  0  0  0  0  0  0  0  0  0
  144.3246  136.4691  154.1726 H   0  0  0  0  0  0  0  0  0  0  0  0
  143.9036  137.7557  153.0679 H   0  0  0  0  0  0  0  0  0  0  0  0
  144.3474  137.3966  150.7926 H   0  0  0  0  0  0  0  0  0  0  0  0
  146.9007  135.3802  151.9254 H   0  0  0  0  0  0  0  0  0  0  0  0
  146.0070  134.6980  153.2823 H   0  0  0  0  0  0  0  0  0  0  0  0
  145.5768  133.9936  150.3547 H   0  0  0  0  0  0  0  0  0  0  0  0
  145.9371  132.8896  151.6931 H   0  0  0  0  0  0  0  0  0  0  0  0
  143.1515  135.3556  150.7954 H   0  0  0  0  0  0  0  0  0  0  0  0
  141.9719  136.1494  152.8734 H   0  0  0  0  0  0  0  0  0  0  0  0
  142.7497  134.8560  153.7935 H   0  0  0  0  0  0  0  0  0  0  0  0
  141.6180  134.4692  152.5060 H   0  0  0  0  0  0  0  0  0  0  0  0
  149.2958  138.7398  158.2353 H   0  0  0  0  0  0  0  0  0  0  0  0
  149.7441  140.0962  159.2497 H   0  0  0  0  0  0  0  0  0  0  0  0
  150.8872  139.4607  158.0823 H   0  0  0  0  0  0  0  0  0  0  0  0
  147.2680  139.8803  157.4874 H   0  0  0  0  0  0  0  0  0  0  0  0
  147.3052  141.4603  156.7242 H   0  0  0  0  0  0  0  0  0  0  0  0
  147.6228  141.3124  158.4452 H   0  0  0  0  0  0  0  0  0  0  0  0
  1  2  1  0  0  0  0
  1 29  1  0  0  0  0
  1 30  1  0  0  0  0
  1 31  1  0  0  0  0
  2  3  1  0  0  0  0
  2 32  1  0  0  0  0
  2 33  1  0  0  0  0
  3  4  1  0  0  0  0
  4 26  1  0  0  0  0
  4  5  1  0  0  0  0
  4 34  1  0  0  0  0
  5  6  1  0  0  0  0
  5 35  1  0  0  0  0
  5 36  1  0  0  0  0
  6  7  1  0  0  0  0
  6 26  1  0  0  0  0
  6 37  1  0  0  0  0
  7  8  1  0  0  0  0
  7  9  1  0  0  0  0
  8 38  1  0  0  0  0
  8 39  1  0  0  0  0
  8 40  1  0  0  0  0
  9 14  1  0  0  0  0
  9 10  2  0  0  0  0
 10 11  1  0  0  0  0
 11 12  2  0  0  0  0
 11 41  1  0  0  0  0
 12 13  1  0  0  0  0
 13 17  1  0  0  0  0
 13 14  2  0  0  0  0
 14 15  1  0  0  0  0
 15 16  2  0  0  0  0
 16 17  1  0  0  0  0
 16 42  1  0  0  0  0
 17 18  1  0  0  0  0
 18 19  1  0  0  0  0
 18 43  1  0  0  0  0
 18 44  1  0  0  0  0
 19 24  1  0  0  0  0
 19 20  1  0  0  0  0
 19 21  1  0  0  0  0
 20 45  1  0  0  0  0
 21 22  1  0  0  0  0
 21 46  1  0  0  0  0
 21 47  1  0  0  0  0
 22 23  1  0  0  0  0
 22 48  1  0  0  0  0
 22 49  1  0  0  0  0
 23 24  1  0  0  0  0
 24 25  1  0  0  0  0
 24 50  1  0  0  0  0
 25 51  1  0  0  0  0
 25 52  1  0  0  0  0
 25 53  1  0  0  0  0
 26 27  1  0  0  0  0
 26 28  1  0  0  0  0
 27 54  1  0  0  0  0
 27 55  1  0  0  0  0
 27 56  1  0  0  0  0
 28 57  1  0  0  0  0
 28 58  1  0  0  0  0
 28 59  1  0  0  0  0
M  END
> <s_m_source_file>
AV-unprocessed.smi

> <i_m_source_file_index>
234

> <i_lp_mmshare_version>
43012

> <i_f3d_flags>
0

> <s_epik_input>
W0NIM11bQ0gyXU9bQ0BASF0oQzEoW0NIM10pW0NIM10pW0NIMl1bQ0BIXTFOKFtDSDNdKWMobltjSF1uMiljKGMyMyluW2NIXW4zW0NIMl1bQ0BAXTQoW09IXSlbQ0gyXVtDSDJdT1tDQEhdNFtDSDNd

> <s_epik_cmdline>
J2VwaWtfcHl0aG9uJywgJy1waCcsICc3LjAnLCAnLXRuJywgJzgnLCAnLW1hJywgJzIwMCcsICctbWV0YWxfYmluZGluZycsICctaW1hZScsICc8aW5maWxlLm1hZT4nLCAnLW9tYWUnLCAnPG91dGZpbGUubWFlPic=

> <r_lp_tautomer_probability>
1

> <r_epik_Ionization_Penalty>
0.00349132

> <r_epik_Ionization_Penalty_Charging>
0

> <r_epik_Ionization_Penalty_Neutral>
0.00349132

> <r_epik_State_Penalty>
0.00242418

> <r_epik_Charging_Adjusted_Penalty>
0.00242418

> <i_epik_Tot_Q>
0

> <i_epik_Tot_abs_Q>
0

> <r_epik_Metal_State_Penalty>
-0

> <b_epik_Metal_Only>
0

> <s_lp_Force_Field>
OPLS_2005

> <r_lp_Energy>
47.6345

> <b_lp_Chiralities_Consistent>
1

> <s_lp_Variant>
AV-unprocessed.smi:234-2

> <Gold.Version>
5.8.1

> <Gold.Id.Protein>
6NUR|6NUR_protein|mol2

> <Gold.PLP.Fitness>
39.1062

> <Gold.PLP.PLP>
-35.2432

> <Gold.PLP.part.hbond>
-1.0000

> <Gold.PLP.part.metal>
0.0000

> <Gold.PLP.part.buried>
-8.4057

> <Gold.PLP.part.nonpolar>
-27.3689

> <Gold.PLP.part.repulsive>
0.5132

> <Gold.PLP.ligand.clash>
0.0000

> <Gold.PLP.ligand.torsion>
0.7854

> <Gold.PLP.Chemscore.Hbond>
0.9280

> <Gold.PLP.Chemscore.CHOScore>
0.6484

> <Gold.PLP.Chemscore.Metal>
0.0000

> <Gold.Chemscore.Hbonds>
donor molecule, donor type, donor heavy atom, donor atom, acceptor molecule, acceptor atom, score
      L1  H    20    45       P1 10171  0.83
      L1  C    16    42       P1 10175  0.89

> <Gold.PLP.Chemscore.Internal.Correction>
0.7044

> <Gold.Rescore>
     Score         DG    S(hbond)    S(metal)    S(lipo)     H(rot)  DE(clash)    DE(int)     intcor
     11.95     -12.77       0.99        0.00      91.30       2.62       0.10       0.72       ----

> <Gold.Chemscore.Fitness>
11.9486

> <Gold.Chemscore.DG>
-12.7691

> <Gold.Chemscore.ZeroCoef>
-5.4800

> <Gold.Chemscore.Hbond>
0.9937

> <Gold.Chemscore.Metal>
0.0000

> <Gold.Chemscore.Lipo>
91.3005

> <Gold.Chemscore.Internal_Hbond>
0.0000

> <Gold.Chemscore.DEClash>
0.0967

> <Gold.Chemscore.DEInternal>
0.7237

> <Gold.Chemscore.Rot>
2.6219

> <Gold.Chemscore.Internal.Correction>
   9.000000E+99

> <Gold.Chemscore.Hbonds>
donor molecule, donor type, donor heavy atom, donor atom, acceptor molecule, acceptor atom, score
      L1  H    20    45       P1 10171  0.81

> <Gold.Chemscore.Hbond.Weighted>
-3.3190

> <Gold.Chemscore.Metal.Weighted>
-0.0000

> <Gold.Chemscore.Lipo.Weighted>
-10.6822

> <Gold.Chemscore.Internal_Hbond.Weighted>
0.0000

> <Gold.Chemscore.DEClash.Weighted>
0.0967

> <Gold.Chemscore.DEInternal.Weighted>
0.7237

> <Gold.Chemscore.Rot.Weighted>
6.7121

> <Gold.Chemscore.Internal.Correction.Weighted>
   9.000000E+99

> <Gold.Protein.RotatedTorsions>
[ 6907 6896 6895 6894 ] final  -45.23 input  -60.11 | X-H torsion
[ 7974 7965 7964 7962 ] final  -59.63 input  175.53 | X-H torsion
[ 8008 7997 7996 7995 ] final  -50.41 input   59.86 | X-H torsion
[ 10167 10162 10161 10158 ] final   -3.88 input  -65.29 | X-H torsion
[ 10718 10713 10712 10709 ] final   64.40 input   66.30 | X-H torsion
[ 10763 10752 10751 10750 ] final   54.65 input  -60.55 | X-H torsion
[ 11005 11000 10999 10996 ] final  139.62 input  -57.11 | X-H torsion

> <Gold.Protein.ActiveResidues>
 VAL166  LYS551  ARG553  GLY616  TRP617  ASP618  TYR619  PRO620  LYS621  CYS622 
 ASP623  PHE694  ASN695  SER759  ASP760  ASP761  ALA762  ILE779  LEU786  VAL792 
 PHE793  MET794  SER795  GLU796  ALA797  LYS798  CYS799  TRP800  GLU811  SER814 

> <Gold.Protein.RotatedAtoms>
  150.9242  134.8659  159.7508 H   0  0  0  0  0  0  0  0  0  0  0  0  # atno 6907 bound_to 6896
  152.5007  134.4173  159.9479 H   0  0  0  0  0  0  0  0  0  0  0  0  # atno 6908 bound_to 6896
  151.4205  133.3660  159.2790 H   0  0  0  0  0  0  0  0  0  0  0  0  # atno 6909 bound_to 6896
  145.8252  140.8515  143.0112 H   0  0  0  0  0  0  0  0  0  0  0  0  # atno 7974 bound_to 7965
  154.4061  140.1273  156.4661 H   0  0  0  0  0  0  0  0  0  0  0  0  # atno 8008 bound_to 7997
  155.7225  140.3492  155.5002 H   0  0  0  0  0  0  0  0  0  0  0  0  # atno 8009 bound_to 7997
  155.9201  140.1051  157.1203 H   0  0  0  0  0  0  0  0  0  0  0  0  # atno 8010 bound_to 7997
  140.6907  143.6489  150.8368 H   0  0  0  0  0  0  0  0  0  0  0  0  # atno 10167 bound_to 10162
  157.6037  130.9158  149.9841 H   0  0  0  0  0  0  0  0  0  0  0  0  # atno 10718 bound_to 10713
  152.9807  135.5738  154.4938 H   0  0  0  0  0  0  0  0  0  0  0  0  # atno 10763 bound_to 10752
  154.4468  135.2777  155.1811 H   0  0  0  0  0  0  0  0  0  0  0  0  # atno 10764 bound_to 10752
  154.3455  135.6220  153.5671 H   0  0  0  0  0  0  0  0  0  0  0  0  # atno 10765 bound_to 10752
  140.0268  134.9371  157.0584 H   0  0  0  0  0  0  0  0  0  0  0  0  # atno 11005 bound_to 11000
  144.6744  140.0591  143.7476 LP  0  0  0  0  0  0  0  0  0  0  0  0  # atno 17320 bound_to 7965
  145.9632  139.2815  143.1143 LP  0  0  0  0  0  0  0  0  0  0  0  0  # atno 17321 bound_to 7965
  140.0201  143.5551  152.2804 LP  0  0  0  0  0  0  0  0  0  0  0  0  # atno 17342 bound_to 10162
  139.6306  144.7643  151.2543 LP  0  0  0  0  0  0  0  0  0  0  0  0  # atno 17343 bound_to 10162
  156.1117  130.3649  150.0037 LP  0  0  0  0  0  0  0  0  0  0  0  0  # atno 17370 bound_to 10713
  156.8134  130.9333  151.3643 LP  0  0  0  0  0  0  0  0  0  0  0  0  # atno 17371 bound_to 10713
  140.4293  134.1798  155.7167 LP  0  0  0  0  0  0  0  0  0  0  0  0  # atno 17394 bound_to 11000
  141.1807  133.8419  157.1266 LP  0  0  0  0  0  0  0  0  0  0  0  0  # atno 17395 bound_to 11000

$$$$
