AV-unprocessed.smi:573|AV-procd|sdf|2970|dock6
  -GOLD-   2262023473D 1   1.00000     0.00000
 Structure written by MMmdl.
 45 47  0  0  0  0  0  0  0  0  2 V2000
  147.8810  140.8064  153.3851 C   0  0  0  0  0  0  0  0  0  0  0  0
  148.9310  140.4294  154.4428 C   0  0  1  0  0  0  0  0  0  0  0  0
  150.1247  140.0074  153.8171 O   0  0  0  0  0  0  0  0  0  0  0  0
  149.2323  141.5233  155.4923 C   0  0  0  0  0  0  0  0  0  0  0  0
  150.1722  141.1122  156.5277 N   0  0  0  0  0  0  0  0  0  0  0  0
  150.6442  142.0484  157.4550 C   0  0  0  0  0  0  0  0  0  0  0  0
  150.5757  143.4011  157.3382 N   0  3  0  0  0  0  0  0  0  0  0  0
  151.1388  143.9707  158.4832 C   0  0  0  0  0  0  0  0  0  0  0  0
  151.2975  145.3040  158.8486 C   0  0  0  0  0  0  0  0  0  0  0  0
  151.9049  145.5512  160.0971 C   0  0  0  0  0  0  0  0  0  0  0  0
  152.3276  144.4956  160.9306 C   0  0  0  0  0  0  0  0  0  0  0  0
  152.1654  143.1471  160.5515 C   0  0  0  0  0  0  0  0  0  0  0  0
  151.5675  142.9075  159.3144 C   0  0  0  0  0  0  0  0  0  0  0  0
  151.2500  141.7282  158.6270 N   0  0  0  0  0  0  0  0  0  0  0  0
  151.5577  140.4189  159.2207 C   0  0  0  0  0  0  0  0  0  0  0  0
  153.0679  140.1336  159.2272 C   0  0  1  0  0  0  0  0  0  0  0  0
  153.7382  140.5666  160.5440 C   0  0  0  0  0  0  0  0  0  0  0  0
  155.2307  140.2170  160.5242 C   0  0  0  0  0  0  0  0  0  0  0  0
  155.4118  138.7347  160.1789 C   0  0  0  0  0  0  0  0  0  0  0  0
  154.6528  138.3888  158.8880 C   0  0  0  0  0  0  0  0  0  0  0  0
  153.2792  138.7370  159.0274 O   0  0  0  0  0  0  0  0  0  0  0  0
  146.9581  141.1496  153.8528 H   0  0  0  0  0  0  0  0  0  0  0  0
  147.6338  139.9487  152.7588 H   0  0  0  0  0  0  0  0  0  0  0  0
  148.2391  141.5969  152.7257 H   0  0  0  0  0  0  0  0  0  0  0  0
  148.5608  139.5568  154.9819 H   0  0  0  0  0  0  0  0  0  0  0  0
  149.9126  139.6804  152.9562 H   0  0  0  0  0  0  0  0  0  0  0  0
  149.6965  142.3684  154.9836 H   0  0  0  0  0  0  0  0  0  0  0  0
  148.3130  141.9108  155.9333 H   0  0  0  0  0  0  0  0  0  0  0  0
  150.2346  140.1296  156.7530 H   0  0  0  0  0  0  0  0  0  0  0  0
  150.9701  146.1152  158.2149 H   0  0  0  0  0  0  0  0  0  0  0  0
  152.0465  146.5713  160.4239 H   0  0  0  0  0  0  0  0  0  0  0  0
  152.7847  144.7242  161.8824 H   0  0  0  0  0  0  0  0  0  0  0  0
  152.4868  142.3483  161.2032 H   0  0  0  0  0  0  0  0  0  0  0  0
  151.1696  140.4192  160.2398 H   0  0  0  0  0  0  0  0  0  0  0  0
  151.0114  139.6428  158.6852 H   0  0  0  0  0  0  0  0  0  0  0  0
  153.5225  140.6792  158.3990 H   0  0  0  0  0  0  0  0  0  0  0  0
  153.6086  141.6379  160.7004 H   0  0  0  0  0  0  0  0  0  0  0  0
  153.2571  140.0660  161.3852 H   0  0  0  0  0  0  0  0  0  0  0  0
  155.7420  140.8312  159.7816 H   0  0  0  0  0  0  0  0  0  0  0  0
  155.6879  140.4427  161.4879 H   0  0  0  0  0  0  0  0  0  0  0  0
  156.4707  138.4986  160.0697 H   0  0  0  0  0  0  0  0  0  0  0  0
  155.0360  138.1194  160.9972 H   0  0  0  0  0  0  0  0  0  0  0  0
  155.0845  138.9056  158.0295 H   0  0  0  0  0  0  0  0  0  0  0  0
  154.7254  137.3203  158.6845 H   0  0  0  0  0  0  0  0  0  0  0  0
  150.1661  143.8893  156.5528 H   0  0  0  0  0  0  0  0  0  0  0  0
  1  2  1  0  0  0  0
  1 22  1  0  0  0  0
  1 23  1  0  0  0  0
  1 24  1  0  0  0  0
  2  3  1  0  0  0  0
  2  4  1  0  0  0  0
  2 25  1  0  0  0  0
  3 26  1  0  0  0  0
  4  5  1  0  0  0  0
  4 27  1  0  0  0  0
  4 28  1  0  0  0  0
  5  6  1  0  0  0  0
  5 29  1  0  0  0  0
  6 14  1  0  0  0  0
  6  7  2  0  0  0  0
  7  8  1  0  0  0  0
  7 45  1  0  0  0  0
  8 13  2  0  0  0  0
  8  9  1  0  0  0  0
  9 10  2  0  0  0  0
  9 30  1  0  0  0  0
 10 11  1  0  0  0  0
 10 31  1  0  0  0  0
 11 12  2  0  0  0  0
 11 32  1  0  0  0  0
 12 13  1  0  0  0  0
 12 33  1  0  0  0  0
 13 14  1  0  0  0  0
 14 15  1  0  0  0  0
 15 16  1  0  0  0  0
 15 34  1  0  0  0  0
 15 35  1  0  0  0  0
 16 21  1  0  0  0  0
 16 17  1  0  0  0  0
 16 36  1  0  0  0  0
 17 18  1  0  0  0  0
 17 37  1  0  0  0  0
 17 38  1  0  0  0  0
 18 19  1  0  0  0  0
 18 39  1  0  0  0  0
 18 40  1  0  0  0  0
 19 20  1  0  0  0  0
 19 41  1  0  0  0  0
 19 42  1  0  0  0  0
 20 21  1  0  0  0  0
 20 43  1  0  0  0  0
 20 44  1  0  0  0  0
M  CHG  1   7   1
M  END
> <s_m_source_file>
AV-unprocessed.smi

> <i_m_source_file_index>
573

> <i_lp_mmshare_version>
43012

> <i_f3d_flags>
0

> <s_epik_input>
W0NIM11bQ0BIXShbT0hdKVtDSDJdW05IXWMobjEpbihjKGMxMilbY0hdW2NIXVtjSF1bY0hdMilbQ0gyXVtDQEBIXTNbQ0gyXVtDSDJdW0NIMl1bQ0gyXU8z

> <s_epik_cmdline>
J2VwaWtfcHl0aG9uJywgJy1waCcsICc3LjAnLCAnLXRuJywgJzgnLCAnLW1hJywgJzIwMCcsICctbWV0YWxfYmluZGluZycsICctaW1hZScsICc8aW5maWxlLm1hZT4nLCAnLW9tYWUnLCAnPG91dGZpbGUubWFlPic=

> <r_epik_Ionization_Penalty>
0.0692245

> <r_epik_Ionization_Penalty_Charging>
0.0692223

> <r_epik_Ionization_Penalty_Neutral>
2.1869e-06

> <r_epik_State_Penalty>
0.0606215

> <r_epik_Charging_Adjusted_Penalty>
0.129844

> <i_epik_Tot_Q>
1

> <i_epik_Tot_abs_Q>
1

> <r_epik_Metal_State_Penalty>
2.77811

> <b_epik_Metal_Only>
0

> <s_lp_Force_Field>
OPLS_2005

> <r_lp_Energy>
24.0167

> <b_lp_Chiralities_Consistent>
1

> <s_lp_Variant>
AV-unprocessed.smi:573-4

> <Gold.Version>
5.8.1

> <Gold.Id.Protein>
6NUR|6NUR_protein|mol2

> <Gold.PLP.Fitness>
54.3063

> <Gold.PLP.PLP>
-43.9184

> <Gold.PLP.part.hbond>
-3.0000

> <Gold.PLP.part.metal>
0.0000

> <Gold.PLP.part.buried>
-3.5342

> <Gold.PLP.part.nonpolar>
-36.2014

> <Gold.PLP.part.repulsive>
0.0449

> <Gold.PLP.ligand.clash>
0.0000

> <Gold.PLP.ligand.torsion>
0.5766

> <Gold.PLP.Chemscore.Hbond>
3.8400

> <Gold.PLP.Chemscore.CHOScore>
0.0000

> <Gold.PLP.Chemscore.Metal>
0.0000

> <Gold.Chemscore.Hbonds>
donor molecule, donor type, donor heavy atom, donor atom, acceptor molecule, acceptor atom, score
      L1  H     3    26       P1  7957  0.98
      L1  H     7    45       P1  8028  2.00
      P1  H  7989  7998       L1     3  0.86

> <Gold.PLP.Chemscore.Internal.Correction>
0.0209

> <Gold.Rescore>
     Score         DG    S(hbond)    S(metal)    S(lipo)     H(rot)  DE(clash)    DE(int)     intcor
     20.84     -22.70       2.35        0.00     125.43       2.07       0.22       1.64       ----

> <Gold.Chemscore.Fitness>
20.8446

> <Gold.Chemscore.DG>
-22.7043

> <Gold.Chemscore.ZeroCoef>
-5.4800

> <Gold.Chemscore.Hbond>
2.3497

> <Gold.Chemscore.Metal>
0.0000

> <Gold.Chemscore.Lipo>
125.4316

> <Gold.Chemscore.Internal_Hbond>
0.0000

> <Gold.Chemscore.DEClash>
0.2162

> <Gold.Chemscore.DEInternal>
1.6436

> <Gold.Chemscore.Rot>
2.0699

> <Gold.Chemscore.Internal.Correction>
   9.000000E+99

> <Gold.Chemscore.Hbonds>
donor molecule, donor type, donor heavy atom, donor atom, acceptor molecule, acceptor atom, score
      L1  H     3    26       P1  7957  0.93
      L1  H     7    45       P1  8028  0.99
      P1  H  7989  7998       L1     3  0.22

> <Gold.Chemscore.Hbond.Weighted>
-7.8479

> <Gold.Chemscore.Metal.Weighted>
-0.0000

> <Gold.Chemscore.Lipo.Weighted>
-14.6755

> <Gold.Chemscore.Internal_Hbond.Weighted>
0.0000

> <Gold.Chemscore.DEClash.Weighted>
0.2162

> <Gold.Chemscore.DEInternal.Weighted>
1.6436

> <Gold.Chemscore.Rot.Weighted>
5.2991

> <Gold.Chemscore.Internal.Correction.Weighted>
   9.000000E+99

> <Gold.Protein.RotatedTorsions>
[ 6907 6896 6895 6894 ] final  178.94 input  -60.11 | X-H torsion
[ 7974 7965 7964 7962 ] final  130.67 input  175.53 | X-H torsion
[ 8008 7997 7996 7995 ] final  -91.75 input   59.86 | X-H torsion
[ 10167 10162 10161 10158 ] final  119.62 input  -65.29 | X-H torsion
[ 10718 10713 10712 10709 ] final  -66.17 input   66.30 | X-H torsion
[ 10763 10752 10751 10750 ] final  -67.52 input  -60.55 | X-H torsion
[ 11005 11000 10999 10996 ] final  -77.66 input  -57.11 | X-H torsion

> <Gold.Protein.ActiveResidues>
 VAL166  LYS551  ARG553  GLY616  TRP617  ASP618  TYR619  PRO620  LYS621  CYS622 
 ASP623  PHE694  ASN695  SER759  ASP760  ASP761  ALA762  ILE779  LEU786  VAL792 
 PHE793  MET794  SER795  GLU796  ALA797  LYS798  CYS799  TRP800  GLU811  SER814 

> <Gold.Protein.RotatedAtoms>
  151.6797  133.3312  159.3216 H   0  0  0  0  0  0  0  0  0  0  0  0  # atno 6907 bound_to 6896
  150.7828  134.6791  159.6443 H   0  0  0  0  0  0  0  0  0  0  0  0  # atno 6908 bound_to 6896
  152.3890  134.6474  160.0166 H   0  0  0  0  0  0  0  0  0  0  0  0  # atno 6909 bound_to 6896
  145.0154  139.4181  143.5224 H   0  0  0  0  0  0  0  0  0  0  0  0  # atno 7974 bound_to 7965
  154.7146  140.0516  157.0582 H   0  0  0  0  0  0  0  0  0  0  0  0  # atno 8008 bound_to 7997
  155.0509  140.3179  155.4673 H   0  0  0  0  0  0  0  0  0  0  0  0  # atno 8009 bound_to 7997
  156.2799  140.2116  156.5635 H   0  0  0  0  0  0  0  0  0  0  0  0  # atno 8010 bound_to 7997
  139.6034  144.7063  151.3009 H   0  0  0  0  0  0  0  0  0  0  0  0  # atno 10167 bound_to 10162
  156.0627  130.4258  150.1670 H   0  0  0  0  0  0  0  0  0  0  0  0  # atno 10718 bound_to 10713
  154.3756  135.6085  153.5763 H   0  0  0  0  0  0  0  0  0  0  0  0  # atno 10763 bound_to 10752
  152.9789  135.5848  154.4470 H   0  0  0  0  0  0  0  0  0  0  0  0  # atno 10764 bound_to 10752
  154.4231  135.2846  155.1940 H   0  0  0  0  0  0  0  0  0  0  0  0  # atno 10765 bound_to 10752
  141.1661  133.7031  156.7854 H   0  0  0  0  0  0  0  0  0  0  0  0  # atno 11005 bound_to 11000
  146.3477  139.9622  142.8716 LP  0  0  0  0  0  0  0  0  0  0  0  0  # atno 17320 bound_to 7965
  145.1967  140.9836  143.4179 LP  0  0  0  0  0  0  0  0  0  0  0  0  # atno 17321 bound_to 7965
  140.7267  143.6983  150.7865 LP  0  0  0  0  0  0  0  0  0  0  0  0  # atno 17342 bound_to 10162
  140.0564  143.5198  152.2649 LP  0  0  0  0  0  0  0  0  0  0  0  0  # atno 17343 bound_to 10162
  156.9735  130.9842  151.3453 LP  0  0  0  0  0  0  0  0  0  0  0  0  # atno 17370 bound_to 10713
  157.5648  130.8270  149.8313 LP  0  0  0  0  0  0  0  0  0  0  0  0  # atno 17371 bound_to 10713
  140.2364  134.8647  157.3529 LP  0  0  0  0  0  0  0  0  0  0  0  0  # atno 17394 bound_to 11000
  140.1839  134.4455  155.7755 LP  0  0  0  0  0  0  0  0  0  0  0  0  # atno 17395 bound_to 11000

$$$$
