#       Name:                AV-unprocessed.smi:1768
#       Creating user name   scv26
#       Creation time:       Fri Mar 27 08:38:14 2020


#       File generated by GOLD software.
#

@<TRIPOS>MOLECULE
AV-unprocessed.smi:1768
    39    40     1
SMALL
NO_CHARGES


@<TRIPOS>ATOM
      1 ****        -6.2727   2.7016  -0.8259 C.3            1 S1                 0.0000
      2 ****        -4.8514   2.2529  -0.8092 C.2            1 S1                 0.0000
      3 ****        -3.8252   3.0986  -0.6557 N.2            1 S1                 0.0000
      4 ****        -2.5994   2.4476  -0.6736 N.2            1 S1                 0.0000
      5 ****        -2.7382   1.1254  -0.8420 C.2            1 S1                 0.0000
      6 ****        -1.6480   0.2174  -0.9000 N.am           1 S1                 0.0000
      7 ****        -0.3353   0.4811  -0.7771 C.2            1 S1                 0.0000
      8 ****         0.1507   1.5940  -0.5748 O.2            1 S1                 0.0000
      9 ****         0.3938  -0.6386  -0.8956 N.am           1 S1                 0.0000
     10 ****         1.8509  -0.7281  -0.8108 C.3            1 S1                 0.0000
     11 ****         2.3671  -1.5313  -2.0136 C.3            1 S1                 0.0000
     12 ****         2.2728  -1.3659   0.5289 C.3            1 S1                 0.0000
     13 ****         1.7944  -0.6226   1.7783 C.3            1 S1                 0.0000
     14 ****         2.8030  -1.0755   2.8082 C.3            1 S1                 0.0000
     15 ****         4.0888  -1.1060   1.9886 C.3            1 S1                 0.0000
     16 ****         3.6941  -1.3897   0.6485 O.3            1 S1                 0.0000
     17 ****        -4.3946   0.5642  -0.9953 S.3            1 S1                 0.0000
     18 ****        -6.3554   3.7304  -0.4736 H              1 S1                 0.0000
     19 ****        -6.8738   2.0628  -0.1785 H              1 S1                 0.0000
     20 ****        -6.6685   2.6456  -1.8400 H              1 S1                 0.0000
     21 ****        -1.8979  -0.7483  -1.0534 H              1 S1                 0.0000
     22 ****        -0.0982  -1.5049  -1.0579 H              1 S1                 0.0000
     23 ****         2.2899   0.2696  -0.8688 H              1 S1                 0.0000
     24 ****         3.4559  -1.5882  -2.0114 H              1 S1                 0.0000
     25 ****         2.0670  -1.0677  -2.9541 H              1 S1                 0.0000
     26 ****         1.9809  -2.5510  -2.0060 H              1 S1                 0.0000
     27 ****         1.9217  -2.3983   0.5790 H              1 S1                 0.0000
     28 ****         1.8671   0.4569   1.6364 H              1 S1                 0.0000
     29 ****         0.7670  -0.8637   2.0525 H              1 S1                 0.0000
     30 ****         2.8632  -0.4148   3.6732 H              1 S1                 0.0000
     31 ****         2.5551  -2.0785   3.1582 H              1 S1                 0.0000
     32 ****         4.5748  -0.1298   2.0054 H              1 S1                 0.0000
     33 ****         4.7997  -1.8446   2.3595 H              1 S1                 0.0000
     34 ****        -3.9297   4.0865  -0.5412 LP             1 S1                 0.0000
     35 ****        -1.7184   2.9098  -0.5729 LP             1 S1                 0.0000
     36 ****        -0.4458   2.3920  -0.4889 LP             1 S1                 0.0000
     37 ****         1.1420   1.7000  -0.4964 LP             1 S1                 0.0000
     38 ****         4.0871  -0.7025   0.0375 LP             1 S1                 0.0000
     39 ****         4.0306  -2.2956   0.3914 LP             1 S1                 0.0000
@<TRIPOS>BOND
    1    1    2 1     
    2    1   18 1     
    3    1   19 1     
    4    1   20 1     
    5    2   17 1     
    6    2    3 2     
    7    3    4 1     
    8    4    5 2     
    9    5    6 1     
   10    5   17 1     
   11    6    7 am    
   12    6   21 1     
   13    7    8 2     
   14    7    9 am    
   15    9   10 1     
   16    9   22 1     
   17   10   11 1     
   18   10   12 1     
   19   10   23 1     
   20   11   24 1     
   21   11   25 1     
   22   11   26 1     
   23   12   16 1     
   24   12   13 1     
   25   12   27 1     
   26   13   14 1     
   27   13   28 1     
   28   13   29 1     
   29   14   15 1     
   30   14   30 1     
   31   14   31 1     
   32   15   16 1     
   33   15   32 1     
   34   15   33 1     
   35    3   34 1     
   36    4   35 1     
   37    8   36 1     
   38    8   37 1     
   39   16   38 1     
   40   16   39 1     
@<TRIPOS>SUBSTRUCTURE
      1 S1             1
@<TRIPOS>SET
LONE_PAIRS      STATIC     ATOMS    <user>   **** ""
6 34 35 36 37 38 39
DONOR_HYDROGENS      STATIC     ATOMS    <user>   **** ""
2 21 22
ATOM$BLUE        STATIC     ATOMS    COLORGROUP SYSTEM
6 34 35 36 37 38 39
ATOM$RED        STATIC     ATOMS    COLORGROUP SYSTEM
2 21 22
