AV-unprocessed.smi:715|AV-procd|sdf|3484|dock10
  -GOLD-   22720 0473D 1   1.00000     0.00000
 Structure written by MMmdl.
 39 40  0  0  0  0  0  0  0  0  1 V2000
  153.9898  138.4267  154.9396 C   0  0  0  0  0  0  0  0  0  0  0  0
  152.5633  138.5452  154.7264 N   0  0  0  0  0  0  0  0  0  0  0  0
  151.7599  139.6545  154.8781 C   0  0  0  0  0  0  0  0  0  0  0  0
  150.4821  139.2838  154.5647 C   0  0  0  0  0  0  0  0  0  0  0  0
  149.2375  140.1316  154.5646 C   0  0  2  0  0  0  0  0  0  0  0  0
  149.3232  141.1582  153.5966 O   0  0  0  0  0  0  0  0  0  0  0  0
  149.0264  140.7823  155.9427 C   0  0  0  0  0  0  0  0  0  0  0  0
  149.7324  142.0540  156.0357 N   0  0  0  0  0  0  0  0  0  0  0  0
  150.8544  142.2500  156.7426 C   0  0  0  0  0  0  0  0  0  0  0  0
  151.4041  141.3618  157.3942 O   0  0  0  0  0  0  0  0  0  0  0  0
  151.4474  143.6627  156.7029 C   0  0  0  0  0  0  0  0  0  0  0  0
  151.7856  144.2266  158.0988 C   0  0  0  0  0  0  0  0  0  0  0  0
  152.6013  143.2850  158.9927 C   0  0  0  0  0  0  0  0  0  0  0  0
  152.3767  143.7948  160.4208 C   0  0  0  0  0  0  0  0  0  0  0  0
  151.0684  144.6002  160.3910 C   0  0  0  0  0  0  0  0  0  0  0  0
  150.5495  144.5234  158.9511 C   0  0  0  0  0  0  0  0  0  0  0  0
  150.6152  137.9057  154.2248 C   0  0  0  0  0  0  0  0  0  0  0  0
  151.8594  137.4672  154.3257 N   0  0  0  0  0  0  0  0  0  0  0  0
  154.4199  139.4068  155.1478 H   0  0  0  0  0  0  0  0  0  0  0  0
  154.4648  138.0141  154.0488 H   0  0  0  0  0  0  0  0  0  0  0  0
  154.1814  137.7674  155.7867 H   0  0  0  0  0  0  0  0  0  0  0  0
  152.1588  140.6079  155.1922 H   0  0  0  0  0  0  0  0  0  0  0  0
  148.3698  139.5172  154.3197 H   0  0  0  0  0  0  0  0  0  0  0  0
  149.0638  140.8040  152.7597 H   0  0  0  0  0  0  0  0  0  0  0  0
  147.9623  140.9792  156.0869 H   0  0  0  0  0  0  0  0  0  0  0  0
  149.3365  140.1128  156.7470 H   0  0  0  0  0  0  0  0  0  0  0  0
  149.3476  142.8310  155.5181 H   0  0  0  0  0  0  0  0  0  0  0  0
  152.3512  143.6284  156.0940 H   0  0  0  0  0  0  0  0  0  0  0  0
  150.7572  144.3352  156.1907 H   0  0  0  0  0  0  0  0  0  0  0  0
  152.3417  145.1594  157.9866 H   0  0  0  0  0  0  0  0  0  0  0  0
  152.2173  142.2674  158.9069 H   0  0  0  0  0  0  0  0  0  0  0  0
  153.6581  143.2617  158.7245 H   0  0  0  0  0  0  0  0  0  0  0  0
  152.3321  142.9701  161.1332 H   0  0  0  0  0  0  0  0  0  0  0  0
  153.2009  144.4421  160.7226 H   0  0  0  0  0  0  0  0  0  0  0  0
  150.3344  144.2159  161.1002 H   0  0  0  0  0  0  0  0  0  0  0  0
  151.2697  145.6377  160.6612 H   0  0  0  0  0  0  0  0  0  0  0  0
  150.0398  145.4373  158.6438 H   0  0  0  0  0  0  0  0  0  0  0  0
  149.8347  143.7035  158.8679 H   0  0  0  0  0  0  0  0  0  0  0  0
  149.8468  137.2156  153.9091 H   0  0  0  0  0  0  0  0  0  0  0  0
  1  2  1  0  0  0  0
  1 19  1  0  0  0  0
  1 20  1  0  0  0  0
  1 21  1  0  0  0  0
  2 18  1  0  0  0  0
  2  3  1  0  0  0  0
  3  4  2  0  0  0  0
  3 22  1  0  0  0  0
  4  5  1  0  0  0  0
  4 17  1  0  0  0  0
  5  6  1  0  0  0  0
  5  7  1  0  0  0  0
  5 23  1  0  0  0  0
  6 24  1  0  0  0  0
  7  8  1  0  0  0  0
  7 25  1  0  0  0  0
  7 26  1  0  0  0  0
  8  9  1  0  0  0  0
  8 27  1  0  0  0  0
  9 10  2  0  0  0  0
  9 11  1  0  0  0  0
 11 12  1  0  0  0  0
 11 28  1  0  0  0  0
 11 29  1  0  0  0  0
 12 16  1  0  0  0  0
 12 13  1  0  0  0  0
 12 30  1  0  0  0  0
 13 14  1  0  0  0  0
 13 31  1  0  0  0  0
 13 32  1  0  0  0  0
 14 15  1  0  0  0  0
 14 33  1  0  0  0  0
 14 34  1  0  0  0  0
 15 16  1  0  0  0  0
 15 35  1  0  0  0  0
 15 36  1  0  0  0  0
 16 37  1  0  0  0  0
 16 38  1  0  0  0  0
 17 18  2  0  0  0  0
 17 39  1  0  0  0  0
M  END
> <s_m_source_file>
AV-unprocessed.smi

> <i_m_source_file_index>
715

> <i_lp_mmshare_version>
43012

> <i_f3d_flags>
0

> <s_epik_input>
W0NIM11uMVtjSF1jKFtjSF1uMSlbQ0BIXShbT0hdKVtDSDJdW05IXUMoPU8pW0NIMl1bQ0hdMltDSDJdW0NIMl1bQ0gyXVtDSDJdMg==

> <s_epik_cmdline>
J2VwaWtfcHl0aG9uJywgJy1waCcsICc3LjAnLCAnLXRuJywgJzgnLCAnLW1hJywgJzIwMCcsICctbWV0YWxfYmluZGluZycsICctaW1hZScsICc8aW5maWxlLm1hZT4nLCAnLW9tYWUnLCAnPG91dGZpbGUubWFlPic=

> <r_lp_tautomer_probability>
1

> <r_epik_Ionization_Penalty>
4.45533e-05

> <r_epik_Ionization_Penalty_Charging>
0

> <r_epik_Ionization_Penalty_Neutral>
4.45533e-05

> <r_epik_State_Penalty>
-0

> <r_epik_Charging_Adjusted_Penalty>
0

> <i_epik_Tot_Q>
0

> <i_epik_Tot_abs_Q>
0

> <r_epik_Metal_State_Penalty>
-0

> <b_epik_Metal_Only>
0

> <s_lp_Force_Field>
OPLS_2005

> <r_lp_Energy>
19.3798

> <b_lp_Chiralities_Consistent>
1

> <s_lp_Variant>
AV-unprocessed.smi:715-1

> <Gold.Version>
5.8.1

> <Gold.Id.Protein>
6NUR|6NUR_protein|mol2

> <Gold.PLP.Fitness>
52.5721

> <Gold.PLP.PLP>
-41.7218

> <Gold.PLP.part.hbond>
-5.0000

> <Gold.PLP.part.metal>
0.0000

> <Gold.PLP.part.buried>
0.3733

> <Gold.PLP.part.nonpolar>
-37.6988

> <Gold.PLP.part.repulsive>
0.2584

> <Gold.PLP.ligand.clash>
0.0000

> <Gold.PLP.ligand.torsion>
0.5852

> <Gold.PLP.Chemscore.Hbond>
3.0012

> <Gold.PLP.Chemscore.CHOScore>
1.0000

> <Gold.PLP.Chemscore.Metal>
0.0000

> <Gold.Chemscore.Hbonds>
donor molecule, donor type, donor heavy atom, donor atom, acceptor molecule, acceptor atom, score
      L1  H     6    24       P1  7957  0.94
      L1  H     8    27       P1  8028  0.88
      P1  H  7989  7998       L1     6  0.05
      P1  H 10752 10763       L1    18  0.77
      L1  C    17    39       P1  7948  1.00

> <Gold.PLP.Chemscore.Internal.Correction>
0.0169

> <Gold.Rescore>
     Score         DG    S(hbond)    S(metal)    S(lipo)     H(rot)  DE(clash)    DE(int)     intcor
     16.94     -21.55       2.55        0.00     114.55       2.29       3.24       1.37       ----

> <Gold.Chemscore.Fitness>
16.9437

> <Gold.Chemscore.DG>
-21.5527

> <Gold.Chemscore.ZeroCoef>
-5.4800

> <Gold.Chemscore.Hbond>
2.5523

> <Gold.Chemscore.Metal>
0.0000

> <Gold.Chemscore.Lipo>
114.5452

> <Gold.Chemscore.Internal_Hbond>
0.0000

> <Gold.Chemscore.DEClash>
3.2428

> <Gold.Chemscore.DEInternal>
1.3662

> <Gold.Chemscore.Rot>
2.2866

> <Gold.Chemscore.Internal.Correction>
   9.000000E+99

> <Gold.Chemscore.Hbonds>
donor molecule, donor type, donor heavy atom, donor atom, acceptor molecule, acceptor atom, score
      L1  H     6    24       P1  7957  0.91
      L1  H     8    27       P1  8028  0.86
      P1  H 10752 10763       L1    18  0.65

> <Gold.Chemscore.Hbond.Weighted>
-8.5247

> <Gold.Chemscore.Metal.Weighted>
-0.0000

> <Gold.Chemscore.Lipo.Weighted>
-13.4018

> <Gold.Chemscore.Internal_Hbond.Weighted>
0.0000

> <Gold.Chemscore.DEClash.Weighted>
3.2428

> <Gold.Chemscore.DEInternal.Weighted>
1.3662

> <Gold.Chemscore.Rot.Weighted>
5.8538

> <Gold.Chemscore.Internal.Correction.Weighted>
   9.000000E+99

> <Gold.Protein.RotatedTorsions>
[ 6907 6896 6895 6894 ] final -135.04 input  -60.11 | X-H torsion
[ 7974 7965 7964 7962 ] final  -88.66 input  175.53 | X-H torsion
[ 8008 7997 7996 7995 ] final  -66.98 input   59.86 | X-H torsion
[ 10167 10162 10161 10158 ] final   15.48 input  -65.29 | X-H torsion
[ 10718 10713 10712 10709 ] final   93.56 input   66.30 | X-H torsion
[ 10763 10752 10751 10750 ] final   45.12 input  -60.55 | X-H torsion
[ 11005 11000 10999 10996 ] final   72.45 input  -57.11 | X-H torsion

> <Gold.Protein.ActiveResidues>
 VAL166  LYS551  ARG553  GLY616  TRP617  ASP618  TYR619  PRO620  LYS621  CYS622 
 ASP623  PHE694  ASN695  SER759  ASP760  ASP761  ALA762  ILE779  LEU786  VAL792 
 PHE793  MET794  SER795  GLU796  ALA797  LYS798  CYS799  TRP800  GLU811  SER814 

> <Gold.Protein.RotatedAtoms>
  150.9931  133.6130  159.2705 H   0  0  0  0  0  0  0  0  0  0  0  0  # atno 6907 bound_to 6896
  151.3343  135.0848  159.9359 H   0  0  0  0  0  0  0  0  0  0  0  0  # atno 6908 bound_to 6896
  152.5252  133.9554  159.7746 H   0  0  0  0  0  0  0  0  0  0  0  0  # atno 6909 bound_to 6896
  145.4501  140.9560  143.2027 H   0  0  0  0  0  0  0  0  0  0  0  0  # atno 7974 bound_to 7965
  154.4770  140.0902  156.7285 H   0  0  0  0  0  0  0  0  0  0  0  0  # atno 8008 bound_to 7997
  155.4571  140.3459  155.4290 H   0  0  0  0  0  0  0  0  0  0  0  0  # atno 8009 bound_to 7997
  156.1131  140.1453  156.9298 H   0  0  0  0  0  0  0  0  0  0  0  0  # atno 8010 bound_to 7997
  140.5864  143.8881  150.6834 H   0  0  0  0  0  0  0  0  0  0  0  0  # atno 10167 bound_to 10162
  157.6954  131.0482  150.4052 H   0  0  0  0  0  0  0  0  0  0  0  0  # atno 10718 bound_to 10713
  152.9829  135.6049  154.3384 H   0  0  0  0  0  0  0  0  0  0  0  0  # atno 10763 bound_to 10752
  154.3083  135.2771  155.2580 H   0  0  0  0  0  0  0  0  0  0  0  0  # atno 10764 bound_to 10752
  154.4801  135.5919  153.6439 H   0  0  0  0  0  0  0  0  0  0  0  0  # atno 10765 bound_to 10752
  139.9490  134.7261  156.0908 H   0  0  0  0  0  0  0  0  0  0  0  0  # atno 11005 bound_to 11000
  144.8067  139.6039  143.7048 LP  0  0  0  0  0  0  0  0  0  0  0  0  # atno 17320 bound_to 7965
  146.2509  139.6197  142.9428 LP  0  0  0  0  0  0  0  0  0  0  0  0  # atno 17321 bound_to 7965
  140.2393  143.3676  152.1500 LP  0  0  0  0  0  0  0  0  0  0  0  0  # atno 17342 bound_to 10162
  139.5200  144.7027  151.5445 LP  0  0  0  0  0  0  0  0  0  0  0  0  # atno 17343 bound_to 10162
  156.4441  130.3998  149.6678 LP  0  0  0  0  0  0  0  0  0  0  0  0  # atno 17370 bound_to 10713
  156.3851  130.7598  151.2595 LP  0  0  0  0  0  0  0  0  0  0  0  0  # atno 17371 bound_to 10713
  141.1148  133.6631  156.3067 LP  0  0  0  0  0  0  0  0  0  0  0  0  # atno 17394 bound_to 11000
  140.5764  134.5789  157.5469 LP  0  0  0  0  0  0  0  0  0  0  0  0  # atno 17395 bound_to 11000

$$$$
