AV-unprocessed.smi:2203|AV-procd|sdf|8935|dock5
  -GOLD-   2272012153D 1   1.00000     0.00000
 Structure written by MMmdl.
 48 49  0  0  0  0  0  0  0  0  1 V2000
  153.3502  138.8379  154.6539 C   0  0  0  0  0  0  0  0  0  0  0  0
  152.2541  139.1518  155.6317 C   0  0  0  0  0  0  0  0  0  0  0  0
  152.5022  139.9702  156.6398 N   0  0  0  0  0  0  0  0  0  0  0  0
  151.3382  140.0507  157.3172 N   0  0  0  0  0  0  0  0  0  0  0  0
  151.2665  140.8864  158.5068 C   0  0  0  0  0  0  0  0  0  0  0  0
  152.6141  141.5474  158.8686 C   0  0  0  0  0  0  0  0  0  0  0  0
  153.4394  140.6324  159.7849 C   0  0  0  0  0  0  0  0  0  0  0  0
  152.4470  142.9422  159.4958 C   0  0  0  0  0  0  0  0  0  0  0  0
  150.3485  139.2864  156.7255 C   0  0  0  0  0  0  0  0  0  0  0  0
  148.9564  139.2087  157.2670 C   0  0  0  0  0  0  0  0  0  0  0  0
  150.9075  138.6833  155.6306 C   0  0  0  0  0  0  0  0  0  0  0  0
  150.2606  137.7474  154.6416 C   0  0  0  0  0  0  0  0  0  0  0  0
  150.3220  136.3172  155.1769 C   0  0  0  0  0  0  0  0  0  0  0  0
  150.8174  136.0935  156.2812 O   0  0  0  0  0  0  0  0  0  0  0  0
  149.8079  135.3611  154.3904 N   0  0  0  0  0  0  0  0  0  0  0  0
  149.7581  133.9477  154.7357 C   0  0  0  0  0  0  0  0  0  0  0  0
  149.1917  133.1262  153.5698 C   0  0  2  0  0  0  0  0  0  0  0  0
  147.7370  133.4571  153.2366 C   0  0  0  0  0  0  0  0  0  0  0  0
  147.2537  132.1576  152.6352 C   0  0  0  0  0  0  0  0  0  0  0  0
  147.9591  131.1348  153.5188 C   0  0  0  0  0  0  0  0  0  0  0  0
  149.1977  131.7347  153.8874 O   0  0  0  0  0  0  0  0  0  0  0  0
  153.2446  139.4355  153.7483 H   0  0  0  0  0  0  0  0  0  0  0  0
  153.3297  137.7876  154.3636 H   0  0  0  0  0  0  0  0  0  0  0  0
  154.3354  139.0424  155.0748 H   0  0  0  0  0  0  0  0  0  0  0  0
  150.5048  141.6528  158.3527 H   0  0  0  0  0  0  0  0  0  0  0  0
  150.9123  140.2723  159.3349 H   0  0  0  0  0  0  0  0  0  0  0  0
  153.1836  141.6737  157.9476 H   0  0  0  0  0  0  0  0  0  0  0  0
  152.9334  140.4630  160.7359 H   0  0  0  0  0  0  0  0  0  0  0  0
  154.4159  141.0676  160.0000 H   0  0  0  0  0  0  0  0  0  0  0  0
  153.6091  139.6609  159.3199 H   0  0  0  0  0  0  0  0  0  0  0  0
  151.8507  142.8956  160.4077 H   0  0  0  0  0  0  0  0  0  0  0  0
  151.9569  143.6348  158.8116 H   0  0  0  0  0  0  0  0  0  0  0  0
  153.4142  143.3745  159.7528 H   0  0  0  0  0  0  0  0  0  0  0  0
  148.2794  138.7478  156.5478 H   0  0  0  0  0  0  0  0  0  0  0  0
  148.5656  140.2004  157.4936 H   0  0  0  0  0  0  0  0  0  0  0  0
  148.9285  138.6134  158.1795 H   0  0  0  0  0  0  0  0  0  0  0  0
  149.2226  138.0217  154.4497 H   0  0  0  0  0  0  0  0  0  0  0  0
  150.7604  137.7828  153.6731 H   0  0  0  0  0  0  0  0  0  0  0  0
  149.4248  135.6295  153.4957 H   0  0  0  0  0  0  0  0  0  0  0  0
  150.7554  133.5902  154.9973 H   0  0  0  0  0  0  0  0  0  0  0  0
  149.1287  133.8251  155.6181 H   0  0  0  0  0  0  0  0  0  0  0  0
  149.8008  133.2674  152.6753 H   0  0  0  0  0  0  0  0  0  0  0  0
  147.1725  133.6768  154.1442 H   0  0  0  0  0  0  0  0  0  0  0  0
  147.6384  134.3059  152.5596 H   0  0  0  0  0  0  0  0  0  0  0  0
  146.1682  132.0551  152.6454 H   0  0  0  0  0  0  0  0  0  0  0  0
  147.5988  132.0688  151.6041 H   0  0  0  0  0  0  0  0  0  0  0  0
  147.3801  130.9521  154.4249 H   0  0  0  0  0  0  0  0  0  0  0  0
  148.1105  130.1799  153.0152 H   0  0  0  0  0  0  0  0  0  0  0  0
  1  2  1  0  0  0  0
  1 22  1  0  0  0  0
  1 23  1  0  0  0  0
  1 24  1  0  0  0  0
  2 11  1  0  0  0  0
  2  3  2  0  0  0  0
  3  4  1  0  0  0  0
  4  5  1  0  0  0  0
  4  9  1  0  0  0  0
  5  6  1  0  0  0  0
  5 25  1  0  0  0  0
  5 26  1  0  0  0  0
  6  7  1  0  0  0  0
  6  8  1  0  0  0  0
  6 27  1  0  0  0  0
  7 28  1  0  0  0  0
  7 29  1  0  0  0  0
  7 30  1  0  0  0  0
  8 31  1  0  0  0  0
  8 32  1  0  0  0  0
  8 33  1  0  0  0  0
  9 10  1  0  0  0  0
  9 11  2  0  0  0  0
 10 34  1  0  0  0  0
 10 35  1  0  0  0  0
 10 36  1  0  0  0  0
 11 12  1  0  0  0  0
 12 13  1  0  0  0  0
 12 37  1  0  0  0  0
 12 38  1  0  0  0  0
 13 14  2  0  0  0  0
 13 15  1  0  0  0  0
 15 16  1  0  0  0  0
 15 39  1  0  0  0  0
 16 17  1  0  0  0  0
 16 40  1  0  0  0  0
 16 41  1  0  0  0  0
 17 21  1  0  0  0  0
 17 18  1  0  0  0  0
 17 42  1  0  0  0  0
 18 19  1  0  0  0  0
 18 43  1  0  0  0  0
 18 44  1  0  0  0  0
 19 20  1  0  0  0  0
 19 45  1  0  0  0  0
 19 46  1  0  0  0  0
 20 21  1  0  0  0  0
 20 47  1  0  0  0  0
 20 48  1  0  0  0  0
M  END
> <s_m_source_file>
AV-unprocessed.smi

> <i_m_source_file_index>
2203

> <i_lp_mmshare_version>
43012

> <i_f3d_flags>
0

> <s_epik_input>
W0NIM11jMW5uKFtDSDJdW0NIXShbQ0gzXSlbQ0gzXSljKFtDSDNdKWMxW0NIMl1DKD1PKVtOSF1bQ0gyXVtDQEBIXTJbQ0gyXVtDSDJdW0NIMl1PMg==

> <s_epik_cmdline>
J2VwaWtfcHl0aG9uJywgJy1waCcsICc3LjAnLCAnLXRuJywgJzgnLCAnLW1hJywgJzIwMCcsICctbWV0YWxfYmluZGluZycsICctaW1hZScsICc8aW5maWxlLm1hZT4nLCAnLW9tYWUnLCAnPG91dGZpbGUubWFlPic=

> <r_lp_tautomer_probability>
1

> <r_epik_Ionization_Penalty>
0.00306713

> <r_epik_Ionization_Penalty_Charging>
0

> <r_epik_Ionization_Penalty_Neutral>
0.00306713

> <r_epik_State_Penalty>
0.00215672

> <r_epik_Charging_Adjusted_Penalty>
0.00215672

> <i_epik_Tot_Q>
0

> <i_epik_Tot_abs_Q>
0

> <r_epik_Metal_State_Penalty>
-0

> <b_epik_Metal_Only>
0

> <s_lp_Force_Field>
OPLS_2005

> <r_lp_Energy>
15.5636

> <b_lp_Chiralities_Consistent>
1

> <s_lp_Variant>
AV-unprocessed.smi:2203-1

> <Gold.Version>
5.8.1

> <Gold.Id.Protein>
6NUR|6NUR_protein|mol2

> <Gold.PLP.Fitness>
41.8136

> <Gold.PLP.PLP>
-37.2839

> <Gold.PLP.part.hbond>
-2.1581

> <Gold.PLP.part.metal>
0.0000

> <Gold.PLP.part.buried>
-3.2702

> <Gold.PLP.part.nonpolar>
-32.1675

> <Gold.PLP.part.repulsive>
0.1355

> <Gold.PLP.ligand.clash>
0.0000

> <Gold.PLP.ligand.torsion>
0.7705

> <Gold.PLP.Chemscore.Hbond>
2.0000

> <Gold.PLP.Chemscore.CHOScore>
0.0000

> <Gold.PLP.Chemscore.Metal>
0.0000

> <Gold.Chemscore.Hbonds>
donor molecule, donor type, donor heavy atom, donor atom, acceptor molecule, acceptor atom, score
      L1  H    15    39       P1  7948  1.00
      P1  H  7997  8009       L1     3  1.00

> <Gold.PLP.Chemscore.Internal.Correction>
0.0707

> <Gold.Rescore>
     Score         DG    S(hbond)    S(metal)    S(lipo)     H(rot)  DE(clash)    DE(int)     intcor
     17.11     -18.11       1.74        0.00      93.83       1.63       0.18       0.82       ----

> <Gold.Chemscore.Fitness>
17.1086

> <Gold.Chemscore.DG>
-18.1052

> <Gold.Chemscore.ZeroCoef>
-5.4800

> <Gold.Chemscore.Hbond>
1.7447

> <Gold.Chemscore.Metal>
0.0000

> <Gold.Chemscore.Lipo>
93.8296

> <Gold.Chemscore.Internal_Hbond>
0.0000

> <Gold.Chemscore.DEClash>
0.1791

> <Gold.Chemscore.DEInternal>
0.8174

> <Gold.Chemscore.Rot>
1.6329

> <Gold.Chemscore.Internal.Correction>
   9.000000E+99

> <Gold.Chemscore.Hbonds>
donor molecule, donor type, donor heavy atom, donor atom, acceptor molecule, acceptor atom, score
      L1  H    15    39       P1  7948  0.26
      P1  H  7997  8009       L1     3  0.34

> <Gold.Chemscore.Hbond.Weighted>
-5.8274

> <Gold.Chemscore.Metal.Weighted>
-0.0000

> <Gold.Chemscore.Lipo.Weighted>
-10.9781

> <Gold.Chemscore.Internal_Hbond.Weighted>
0.0000

> <Gold.Chemscore.DEClash.Weighted>
0.1791

> <Gold.Chemscore.DEInternal.Weighted>
0.8174

> <Gold.Chemscore.Rot.Weighted>
4.1803

> <Gold.Chemscore.Internal.Correction.Weighted>
   9.000000E+99

> <Gold.Protein.RotatedTorsions>
[ 6907 6896 6895 6894 ] final -126.09 input  -60.11 | X-H torsion
[ 7974 7965 7964 7962 ] final  111.82 input  175.53 | X-H torsion
[ 8008 7997 7996 7995 ] final -177.70 input   59.86 | X-H torsion
[ 10167 10162 10161 10158 ] final  138.08 input  -65.29 | X-H torsion
[ 10718 10713 10712 10709 ] final -116.29 input   66.30 | X-H torsion
[ 10763 10752 10751 10750 ] final -174.03 input  -60.55 | X-H torsion
[ 11005 11000 10999 10996 ] final  -73.71 input  -57.11 | X-H torsion

> <Gold.Protein.ActiveResidues>
 VAL166  LYS551  ARG553  GLY616  TRP617  ASP618  TYR619  PRO620  LYS621  CYS622 
 ASP623  PHE694  ASN695  SER759  ASP760  ASP761  ALA762  ILE779  LEU786  VAL792 
 PHE793  MET794  SER795  GLU796  ALA797  LYS798  CYS799  TRP800  GLU811  SER814 

> <Gold.Protein.RotatedAtoms>
  150.8933  133.7214  159.2898 H   0  0  0  0  0  0  0  0  0  0  0  0  # atno 6907 bound_to 6896
  151.4757  135.1047  159.9773 H   0  0  0  0  0  0  0  0  0  0  0  0  # atno 6908 bound_to 6896
  152.4833  133.8262  159.7135 H   0  0  0  0  0  0  0  0  0  0  0  0  # atno 6909 bound_to 6896
  145.2374  139.2793  143.4136 H   0  0  0  0  0  0  0  0  0  0  0  0  # atno 7974 bound_to 7965
  156.0101  140.1239  157.0462 H   0  0  0  0  0  0  0  0  0  0  0  0  # atno 8008 bound_to 7997
  154.4273  140.1089  156.5887 H   0  0  0  0  0  0  0  0  0  0  0  0  # atno 8009 bound_to 7997
  155.6092  140.3471  155.4619 H   0  0  0  0  0  0  0  0  0  0  0  0  # atno 8010 bound_to 7997
  139.5122  144.6373  151.5661 H   0  0  0  0  0  0  0  0  0  0  0  0  # atno 10167 bound_to 10162
  156.0953  130.6127  150.9016 H   0  0  0  0  0  0  0  0  0  0  0  0  # atno 10718 bound_to 10713
  154.6010  135.2854  155.0535 H   0  0  0  0  0  0  0  0  0  0  0  0  # atno 10763 bound_to 10752
  154.1800  135.6458  153.5035 H   0  0  0  0  0  0  0  0  0  0  0  0  # atno 10764 bound_to 10752
  153.0157  135.5421  154.6729 H   0  0  0  0  0  0  0  0  0  0  0  0  # atno 10765 bound_to 10752
  141.1626  133.6887  156.7253 H   0  0  0  0  0  0  0  0  0  0  0  0  # atno 11005 bound_to 11000
  146.3337  140.2727  142.8606 LP  0  0  0  0  0  0  0  0  0  0  0  0  # atno 17320 bound_to 7965
  144.9620  140.8285  143.5507 LP  0  0  0  0  0  0  0  0  0  0  0  0  # atno 17321 bound_to 7965
  140.6127  143.9405  150.6465 LP  0  0  0  0  0  0  0  0  0  0  0  0  # atno 17342 bound_to 10162
  140.2653  143.3494  152.1286 LP  0  0  0  0  0  0  0  0  0  0  0  0  # atno 17343 bound_to 10162
  157.6113  131.0936  150.8790 LP  0  0  0  0  0  0  0  0  0  0  0  0  # atno 17370 bound_to 10713
  156.8929  130.5219  149.5285 LP  0  0  0  0  0  0  0  0  0  0  0  0  # atno 17371 bound_to 10713
  140.2785  134.8335  157.3912 LP  0  0  0  0  0  0  0  0  0  0  0  0  # atno 17394 bound_to 11000
  140.1455  134.4917  155.8000 LP  0  0  0  0  0  0  0  0  0  0  0  0  # atno 17395 bound_to 11000

$$$$
