AV-unprocessed.smi:2973|AV-procd|sdf|11350|dock6
  -GOLD-   2272016263D 1   1.00000     0.00000
 Structure written by MMmdl.
 49 51  0  0  0  0  0  0  0  0  3 V2000
  151.7654  138.3414  158.9472 C   0  0  0  0  0  0  0  0  0  0  0  0
  151.2310  139.6904  158.4184 C   0  0  1  0  0  0  0  0  0  0  0  0
  151.8650  140.8705  159.1867 C   0  0  0  0  0  0  0  0  0  0  0  0
  151.2694  142.2188  158.7556 C   0  0  0  0  0  0  0  0  0  0  0  0
  151.4188  142.4317  157.2437 C   0  0  0  0  0  0  0  0  0  0  0  0
  150.7863  141.2730  156.4538 C   0  0  0  0  0  0  0  0  0  0  0  0
  151.3449  139.8873  156.8714 C   0  0  1  0  0  0  0  0  0  0  0  0
  152.7139  139.7383  156.4033 N   0  5  0  0  0  0  0  0  0  0  0  0
  152.7639  138.7356  155.4963 C   0  0  0  0  0  0  0  0  0  0  0  0
  153.7565  138.3498  154.8804 O   0  0  0  0  0  0  0  0  0  0  0  0
  151.5481  138.1841  155.3193 N   0  0  0  0  0  0  0  0  0  0  0  0
  151.2364  137.1048  154.3690 C   0  0  0  0  0  0  0  0  0  0  0  0
  150.5861  135.8620  155.0028 C   0  0  0  0  0  0  0  0  0  0  0  0
  150.9547  135.4953  156.1184 O   0  0  0  0  0  0  0  0  0  0  0  0
  149.6221  135.2279  154.3134 N   0  0  0  0  0  0  0  0  0  0  0  0
  148.8744  134.0679  154.7780 C   0  0  0  0  0  0  0  0  0  0  0  0
  149.1298  132.8452  153.8818 C   0  0  0  0  0  0  0  0  0  0  0  0
  148.0111  132.6198  152.8844 C   0  0  0  0  0  0  0  0  0  0  0  0
  147.2810  131.4126  152.8338 C   0  0  0  0  0  0  0  0  0  0  0  0
  146.2493  131.2712  151.8824 C   0  0  0  0  0  0  0  0  0  0  0  0
  145.9687  132.3387  151.0044 C   0  0  0  0  0  0  0  0  0  0  0  0
  146.7290  133.5221  151.0994 C   0  0  0  0  0  0  0  0  0  0  0  0
  147.7098  133.6188  152.0236 N   0  3  0  0  0  0  0  0  0  0  0  0
  150.6371  138.7913  156.0883 C   0  0  0  0  0  0  0  0  0  0  0  0
  149.4320  138.5458  156.1583 O   0  0  0  0  0  0  0  0  0  0  0  0
  152.8348  138.2336  158.7640 H   0  0  0  0  0  0  0  0  0  0  0  0
  151.2608  137.4935  158.4844 H   0  0  0  0  0  0  0  0  0  0  0  0
  151.6091  138.2575  160.0229 H   0  0  0  0  0  0  0  0  0  0  0  0
  150.1669  139.7064  158.6609 H   0  0  0  0  0  0  0  0  0  0  0  0
  151.7151  140.7393  160.2587 H   0  0  0  0  0  0  0  0  0  0  0  0
  152.9443  140.8803  159.0288 H   0  0  0  0  0  0  0  0  0  0  0  0
  150.2142  142.2571  159.0285 H   0  0  0  0  0  0  0  0  0  0  0  0
  151.7589  143.0303  159.2944 H   0  0  0  0  0  0  0  0  0  0  0  0
  150.9535  143.3740  156.9541 H   0  0  0  0  0  0  0  0  0  0  0  0
  152.4753  142.5204  156.9883 H   0  0  0  0  0  0  0  0  0  0  0  0
  149.7077  141.2957  156.6174 H   0  0  0  0  0  0  0  0  0  0  0  0
  150.9289  141.4410  155.3847 H   0  0  0  0  0  0  0  0  0  0  0  0
  150.5763  137.4753  153.5834 H   0  0  0  0  0  0  0  0  0  0  0  0
  152.1487  136.7928  153.8581 H   0  0  0  0  0  0  0  0  0  0  0  0
  149.3857  135.5894  153.3998 H   0  0  0  0  0  0  0  0  0  0  0  0
  149.1886  133.8523  155.7996 H   0  0  0  0  0  0  0  0  0  0  0  0
  147.8096  134.3028  154.8216 H   0  0  0  0  0  0  0  0  0  0  0  0
  150.0664  132.9640  153.3350 H   0  0  0  0  0  0  0  0  0  0  0  0
  149.2458  131.9517  154.4971 H   0  0  0  0  0  0  0  0  0  0  0  0
  147.5067  130.6050  153.5155 H   0  0  0  0  0  0  0  0  0  0  0  0
  145.6794  130.3551  151.8271 H   0  0  0  0  0  0  0  0  0  0  0  0
  145.1825  132.2504  150.2687 H   0  0  0  0  0  0  0  0  0  0  0  0
  146.5839  134.3874  150.4690 H   0  0  0  0  0  0  0  0  0  0  0  0
  148.2476  134.4845  152.0759 H   0  0  0  0  0  0  0  0  0  0  0  0
  1  2  1  0  0  0  0
  1 26  1  0  0  0  0
  1 27  1  0  0  0  0
  1 28  1  0  0  0  0
  2  7  1  0  0  0  0
  2  3  1  0  0  0  0
  2 29  1  0  0  0  0
  3  4  1  0  0  0  0
  3 30  1  0  0  0  0
  3 31  1  0  0  0  0
  4  5  1  0  0  0  0
  4 32  1  0  0  0  0
  4 33  1  0  0  0  0
  5  6  1  0  0  0  0
  5 34  1  0  0  0  0
  5 35  1  0  0  0  0
  6  7  1  0  0  0  0
  6 36  1  0  0  0  0
  6 37  1  0  0  0  0
  7 24  1  0  0  0  0
  7  8  1  0  0  0  0
  8  9  1  0  0  0  0
  9 10  2  0  0  0  0
  9 11  1  0  0  0  0
 11 12  1  0  0  0  0
 11 24  1  0  0  0  0
 12 13  1  0  0  0  0
 12 38  1  0  0  0  0
 12 39  1  0  0  0  0
 13 14  2  0  0  0  0
 13 15  1  0  0  0  0
 15 16  1  0  0  0  0
 15 40  1  0  0  0  0
 16 17  1  0  0  0  0
 16 41  1  0  0  0  0
 16 42  1  0  0  0  0
 17 18  1  0  0  0  0
 17 43  1  0  0  0  0
 17 44  1  0  0  0  0
 18 23  1  0  0  0  0
 18 19  2  0  0  0  0
 19 20  1  0  0  0  0
 19 45  1  0  0  0  0
 20 21  2  0  0  0  0
 20 46  1  0  0  0  0
 21 22  1  0  0  0  0
 21 47  1  0  0  0  0
 22 23  2  0  0  0  0
 22 48  1  0  0  0  0
 23 49  1  0  0  0  0
 24 25  2  0  0  0  0
M  CHG  1   8  -1
M  CHG  1  23   1
M  END
> <s_m_source_file>
AV-unprocessed.smi

> <i_m_source_file_index>
2973

> <i_lp_mmshare_version>
43012

> <i_f3d_flags>
0

> <s_epik_input>
W0NIMl0xW0NIMl1bQ0gyXVtDSDJdW0NAQEhdKFtDSDNdKVtDQF0xMltOSF1DKD1PKU4oQzI9TylbQ0gyXUMoPU8pW05IXVtDSDJdW0NIMl1jM1tjSF1bY0hdW2NIXVtjSF1uMw==

> <s_epik_cmdline>
J2VwaWtfcHl0aG9uJywgJy1waCcsICc3LjAnLCAnLXRuJywgJzgnLCAnLW1hJywgJzIwMCcsICctbWV0YWxfYmluZGluZycsICctaW1hZScsICc8aW5maWxlLm1hZT4nLCAnLW9tYWUnLCAnPG91dGZpbGUubWFlPic=

> <r_lp_tautomer_probability>
1

> <r_epik_Ionization_Penalty>
7.89073

> <r_epik_Ionization_Penalty_Charging>
7.89073

> <r_epik_Ionization_Penalty_Neutral>
1.56557e-07

> <r_epik_State_Penalty>
8.01193

> <r_epik_Charging_Adjusted_Penalty>
15.9027

> <i_epik_Tot_Q>
0

> <i_epik_Tot_abs_Q>
2

> <r_epik_Metal_State_Penalty>
3.98737

> <b_epik_Metal_Only>
1

> <s_lp_Force_Field>
OPLS_2005

> <r_lp_Energy>
20.3817

> <b_lp_Chiralities_Consistent>
1

> <s_lp_Variant>
AV-unprocessed.smi:2973-14

> <Gold.Version>
5.8.1

> <Gold.Id.Protein>
6NUR|6NUR_protein|mol2

> <Gold.PLP.Fitness>
56.8864

> <Gold.PLP.PLP>
-43.0785

> <Gold.PLP.part.hbond>
-4.0951

> <Gold.PLP.part.metal>
0.0000

> <Gold.PLP.part.buried>
-4.5127

> <Gold.PLP.part.nonpolar>
-34.7639

> <Gold.PLP.part.repulsive>
0.0936

> <Gold.PLP.ligand.clash>
0.0000

> <Gold.PLP.ligand.torsion>
0.6195

> <Gold.PLP.Chemscore.Hbond>
5.0000

> <Gold.PLP.Chemscore.CHOScore>
0.0000

> <Gold.PLP.Chemscore.Metal>
0.0000

> <Gold.Chemscore.Hbonds>
donor molecule, donor type, donor heavy atom, donor atom, acceptor molecule, acceptor atom, score
      L1  H    15    40       P1  7948  1.00
      L1  H    23    49       P1  7948  1.30
      P1  H  7997  8009       L1     8  2.00

> <Gold.PLP.Chemscore.Internal.Correction>
0.0470

> <Gold.Rescore>
     Score         DG    S(hbond)    S(metal)    S(lipo)     H(rot)  DE(clash)    DE(int)     intcor
     18.93     -20.30       2.75        0.00      90.12       1.92       0.15       1.22       ----

> <Gold.Chemscore.Fitness>
18.9284

> <Gold.Chemscore.DG>
-20.2995

> <Gold.Chemscore.ZeroCoef>
-5.4800

> <Gold.Chemscore.Hbond>
2.7499

> <Gold.Chemscore.Metal>
0.0000

> <Gold.Chemscore.Lipo>
90.1172

> <Gold.Chemscore.Internal_Hbond>
0.0000

> <Gold.Chemscore.DEClash>
0.1471

> <Gold.Chemscore.DEInternal>
1.2239

> <Gold.Chemscore.Rot>
1.9175

> <Gold.Chemscore.Internal.Correction>
   9.000000E+99

> <Gold.Chemscore.Hbonds>
donor molecule, donor type, donor heavy atom, donor atom, acceptor molecule, acceptor atom, score
      L1  H    15    40       P1  7948  0.26
      L1  H    23    49       P1  7948  0.06
      P1  H  7997  8009       L1     8  0.34

> <Gold.Chemscore.Hbond.Weighted>
-9.1845

> <Gold.Chemscore.Metal.Weighted>
-0.0000

> <Gold.Chemscore.Lipo.Weighted>
-10.5437

> <Gold.Chemscore.Internal_Hbond.Weighted>
0.0000

> <Gold.Chemscore.DEClash.Weighted>
0.1471

> <Gold.Chemscore.DEInternal.Weighted>
1.2239

> <Gold.Chemscore.Rot.Weighted>
4.9087

> <Gold.Chemscore.Internal.Correction.Weighted>
   9.000000E+99

> <Gold.Protein.RotatedTorsions>
[ 6907 6896 6895 6894 ] final   13.21 input  -60.11 | X-H torsion
[ 7974 7965 7964 7962 ] final  148.72 input  175.53 | X-H torsion
[ 8008 7997 7996 7995 ] final  179.98 input   59.86 | X-H torsion
[ 10167 10162 10161 10158 ] final -140.48 input  -65.29 | X-H torsion
[ 10718 10713 10712 10709 ] final  -99.54 input   66.30 | X-H torsion
[ 10763 10752 10751 10750 ] final  -50.39 input  -60.55 | X-H torsion
[ 11005 11000 10999 10996 ] final   -8.07 input  -57.11 | X-H torsion

> <Gold.Protein.ActiveResidues>
 VAL166  LYS551  ARG553  GLY616  TRP617  ASP618  TYR619  PRO620  LYS621  CYS622 
 ASP623  PHE694  ASN695  SER759  ASP760  ASP761  ALA762  ILE779  LEU786  VAL792 
 PHE793  MET794  SER795  GLU796  ALA797  LYS798  CYS799  TRP800  GLU811  SER814 

> <Gold.Protein.RotatedAtoms>
  151.7827  135.0757  160.0375 H   0  0  0  0  0  0  0  0  0  0  0  0  # atno 6907 bound_to 6896
  152.3212  133.5851  159.5754 H   0  0  0  0  0  0  0  0  0  0  0  0  # atno 6908 bound_to 6896
  150.7370  133.9925  159.3653 H   0  0  0  0  0  0  0  0  0  0  0  0  # atno 6909 bound_to 6896
  144.8492  139.6189  143.5981 H   0  0  0  0  0  0  0  0  0  0  0  0  # atno 7974 bound_to 7965
  156.0372  140.1295  157.0194 H   0  0  0  0  0  0  0  0  0  0  0  0  # atno 8008 bound_to 7997
  154.4375  140.1037  156.6255 H   0  0  0  0  0  0  0  0  0  0  0  0  # atno 8009 bound_to 7997
  155.5720  140.3466  155.4520 H   0  0  0  0  0  0  0  0  0  0  0  0  # atno 8010 bound_to 7997
  139.8277  143.7489  152.2666 H   0  0  0  0  0  0  0  0  0  0  0  0  # atno 10167 bound_to 10162
  156.0137  130.5287  150.6685 H   0  0  0  0  0  0  0  0  0  0  0  0  # atno 10718 bound_to 10713
  154.1096  135.6551  153.4883 H   0  0  0  0  0  0  0  0  0  0  0  0  # atno 10763 bound_to 10752
  153.0261  135.5244  154.7205 H   0  0  0  0  0  0  0  0  0  0  0  0  # atno 10764 bound_to 10752
  154.6381  135.2984  155.0106 H   0  0  0  0  0  0  0  0  0  0  0  0  # atno 10765 bound_to 10752
  140.7195  133.8840  155.8810 H   0  0  0  0  0  0  0  0  0  0  0  0  # atno 11005 bound_to 11000
  146.2771  139.6780  142.9255 LP  0  0  0  0  0  0  0  0  0  0  0  0  # atno 17320 bound_to 7965
  145.4534  141.0429  143.2792 LP  0  0  0  0  0  0  0  0  0  0  0  0  # atno 17321 bound_to 7965
  139.7686  144.7484  151.0257 LP  0  0  0  0  0  0  0  0  0  0  0  0  # atno 17342 bound_to 10162
  140.7809  143.4670  151.0199 LP  0  0  0  0  0  0  0  0  0  0  0  0  # atno 17343 bound_to 10162
  157.4413  131.0861  151.0941 LP  0  0  0  0  0  0  0  0  0  0  0  0  # atno 17370 bound_to 10713
  157.1484  130.6173  149.5575 LP  0  0  0  0  0  0  0  0  0  0  0  0  # atno 17371 bound_to 10713
  141.0015  134.1143  157.4312 LP  0  0  0  0  0  0  0  0  0  0  0  0  # atno 17394 bound_to 11000
  139.8851  135.0069  156.6415 LP  0  0  0  0  0  0  0  0  0  0  0  0  # atno 17395 bound_to 11000

$$$$
