AV-unprocessed.smi:949|AV-procd|sdf|4249|dock3
  -GOLD-   22720 2153D 1   1.00000     0.00000
 Structure written by MMmdl.
 32 33  0  0  0  0  0  0  0  0  1 V2000
  152.1515  138.1575  154.6324 C   0  0  0  0  0  0  0  0  0  0  0  0
  150.6687  138.0028  155.0190 C   0  0  1  0  0  0  0  0  0  0  0  0
  149.8145  138.3222  153.8810 N   0  0  0  0  0  0  0  0  0  0  0  0
  148.8954  139.3866  153.8881 C   0  0  0  0  0  0  0  0  0  0  0  0
  149.0398  140.5188  154.7252 C   0  0  0  0  0  0  0  0  0  0  0  0
  148.0683  141.5372  154.6675 C   0  0  0  0  0  0  0  0  0  0  0  0
  146.9952  141.4961  153.8520 N   0  0  0  0  0  0  0  0  0  0  0  0
  146.8561  140.4178  153.0538 C   0  0  0  0  0  0  0  0  0  0  0  0
  147.7687  139.3420  153.0300 C   0  0  0  0  0  0  0  0  0  0  0  0
  147.5411  138.2664  152.1677 N   0  0  0  0  0  0  0  0  0  0  0  0
  150.3573  136.5763  155.5118 C   0  0  1  0  0  0  0  0  0  0  0  0
  148.8811  136.1800  155.4447 C   0  0  0  0  0  0  0  0  0  0  0  0
  148.9190  134.6634  155.3422 C   0  0  0  0  0  0  0  0  0  0  0  0
  150.3645  134.3539  154.9450 C   0  0  0  0  0  0  0  0  0  0  0  0
  150.9456  135.6155  154.6475 O   0  0  0  0  0  0  0  0  0  0  0  0
  152.8057  137.9812  155.4861 H   0  0  0  0  0  0  0  0  0  0  0  0
  152.3708  139.1595  154.2644 H   0  0  0  0  0  0  0  0  0  0  0  0
  152.4303  137.4519  153.8489 H   0  0  0  0  0  0  0  0  0  0  0  0
  150.4407  138.6879  155.8358 H   0  0  0  0  0  0  0  0  0  0  0  0
  149.8052  137.6794  153.1025 H   0  0  0  0  0  0  0  0  0  0  0  0
  149.8705  140.6281  155.4047 H   0  0  0  0  0  0  0  0  0  0  0  0
  148.1571  142.4110  155.2960 H   0  0  0  0  0  0  0  0  0  0  0  0
  145.9866  140.4148  152.4125 H   0  0  0  0  0  0  0  0  0  0  0  0
  148.1749  137.4809  152.1266 H   0  0  0  0  0  0  0  0  0  0  0  0
  146.7721  138.2689  151.5134 H   0  0  0  0  0  0  0  0  0  0  0  0
  150.7369  136.4255  156.5247 H   0  0  0  0  0  0  0  0  0  0  0  0
  148.3104  136.5295  156.3056 H   0  0  0  0  0  0  0  0  0  0  0  0
  148.4215  136.5936  154.5460 H   0  0  0  0  0  0  0  0  0  0  0  0
  148.6751  134.1934  156.2955 H   0  0  0  0  0  0  0  0  0  0  0  0
  148.2075  134.3038  154.5981 H   0  0  0  0  0  0  0  0  0  0  0  0
  150.9019  133.8979  155.7776 H   0  0  0  0  0  0  0  0  0  0  0  0
  150.4296  133.6820  154.0890 H   0  0  0  0  0  0  0  0  0  0  0  0
  1  2  1  0  0  0  0
  1 16  1  0  0  0  0
  1 17  1  0  0  0  0
  1 18  1  0  0  0  0
  2  3  1  0  0  0  0
  2 11  1  0  0  0  0
  2 19  1  0  0  0  0
  3  4  1  0  0  0  0
  3 20  1  0  0  0  0
  4  9  1  0  0  0  0
  4  5  2  0  0  0  0
  5  6  1  0  0  0  0
  5 21  1  0  0  0  0
  6  7  2  0  0  0  0
  6 22  1  0  0  0  0
  7  8  1  0  0  0  0
  8  9  2  0  0  0  0
  8 23  1  0  0  0  0
  9 10  1  0  0  0  0
 10 24  1  0  0  0  0
 10 25  1  0  0  0  0
 11 15  1  0  0  0  0
 11 12  1  0  0  0  0
 11 26  1  0  0  0  0
 12 13  1  0  0  0  0
 12 27  1  0  0  0  0
 12 28  1  0  0  0  0
 13 14  1  0  0  0  0
 13 29  1  0  0  0  0
 13 30  1  0  0  0  0
 14 15  1  0  0  0  0
 14 31  1  0  0  0  0
 14 32  1  0  0  0  0
M  END
> <s_m_source_file>
AV-unprocessed.smi

> <i_m_source_file_index>
949

> <i_lp_mmshare_version>
43012

> <i_f3d_flags>
0

> <s_epik_input>
TzFbQ0gyXVtDSDJdW0NIMl1bQ0BIXTFbQ0BIXShbQ0gzXSlbTkhdYzJbY0hdW2NIXW5bY0hdYzJbTkgyXQ==

> <s_epik_cmdline>
J2VwaWtfcHl0aG9uJywgJy1waCcsICc3LjAnLCAnLXRuJywgJzgnLCAnLW1hJywgJzIwMCcsICctbWV0YWxfYmluZGluZycsICctaW1hZScsICc8aW5maWxlLm1hZT4nLCAnLW9tYWUnLCAnPG91dGZpbGUubWFlPic=

> <r_epik_Ionization_Penalty>
3.88091

> <r_epik_Ionization_Penalty_Charging>
0

> <r_epik_Ionization_Penalty_Neutral>
3.88091

> <r_epik_State_Penalty>
3.88049

> <r_epik_Charging_Adjusted_Penalty>
3.88049

> <i_epik_Tot_Q>
0

> <i_epik_Tot_abs_Q>
0

> <r_epik_Metal_State_Penalty>
0.313783

> <b_epik_Metal_Only>
1

> <s_lp_Force_Field>
OPLS_2005

> <r_lp_Energy>
24.4145

> <b_lp_Chiralities_Consistent>
1

> <s_lp_Variant>
AV-unprocessed.smi:949-8

> <Gold.Version>
5.8.1

> <Gold.Id.Protein>
6NUR|6NUR_protein|mol2

> <Gold.PLP.Fitness>
38.5058

> <Gold.PLP.PLP>
-24.4476

> <Gold.PLP.part.hbond>
-4.6353

> <Gold.PLP.part.metal>
0.0000

> <Gold.PLP.part.buried>
1.3220

> <Gold.PLP.part.nonpolar>
-22.8117

> <Gold.PLP.part.repulsive>
0.4897

> <Gold.PLP.ligand.clash>
0.0000

> <Gold.PLP.ligand.torsion>
0.4714

> <Gold.PLP.Chemscore.Hbond>
2.9913

> <Gold.PLP.Chemscore.CHOScore>
2.0000

> <Gold.PLP.Chemscore.Metal>
0.0000

> <Gold.Chemscore.Hbonds>
donor molecule, donor type, donor heavy atom, donor atom, acceptor molecule, acceptor atom, score
      L1  H     3    20       P1  7948  0.96
      L1  H    10    24       P1  7948  0.84
      P1  H 10752 10765       L1    15  1.00
      L1  C     6    22       P1  8028  1.00
      L1  C     8    23       P1 10175  1.00

> <Gold.PLP.Chemscore.Internal.Correction>
0.0271

> <Gold.Rescore>
     Score         DG    S(hbond)    S(metal)    S(lipo)     H(rot)  DE(clash)    DE(int)     intcor
     14.06     -16.07       1.79        0.00      66.12       1.22       1.77       0.25       ----

> <Gold.Chemscore.Fitness>
14.0553

> <Gold.Chemscore.DG>
-16.0722

> <Gold.Chemscore.ZeroCoef>
-5.4800

> <Gold.Chemscore.Hbond>
1.7878

> <Gold.Chemscore.Metal>
0.0000

> <Gold.Chemscore.Lipo>
66.1203

> <Gold.Chemscore.Internal_Hbond>
0.0000

> <Gold.Chemscore.DEClash>
1.7693

> <Gold.Chemscore.DEInternal>
0.2475

> <Gold.Chemscore.Rot>
1.2169

> <Gold.Chemscore.Internal.Correction>
   9.000000E+99

> <Gold.Chemscore.Hbonds>
donor molecule, donor type, donor heavy atom, donor atom, acceptor molecule, acceptor atom, score
      L1  H     3    20       P1  7948  0.50
      L1  H    10    24       P1  7948  0.84
      P1  H 10752 10765       L1    15  0.84

> <Gold.Chemscore.Hbond.Weighted>
-5.9712

> <Gold.Chemscore.Metal.Weighted>
-0.0000

> <Gold.Chemscore.Lipo.Weighted>
-7.7361

> <Gold.Chemscore.Internal_Hbond.Weighted>
0.0000

> <Gold.Chemscore.DEClash.Weighted>
1.7693

> <Gold.Chemscore.DEInternal.Weighted>
0.2475

> <Gold.Chemscore.Rot.Weighted>
3.1152

> <Gold.Chemscore.Internal.Correction.Weighted>
   9.000000E+99

> <Gold.Protein.RotatedTorsions>
[ 6907 6896 6895 6894 ] final   63.93 input  -60.11 | X-H torsion
[ 7974 7965 7964 7962 ] final   67.71 input  175.53 | X-H torsion
[ 8008 7997 7996 7995 ] final   42.11 input   59.86 | X-H torsion
[ 10167 10162 10161 10158 ] final    2.42 input  -65.29 | X-H torsion
[ 10718 10713 10712 10709 ] final   55.37 input   66.30 | X-H torsion
[ 10763 10752 10751 10750 ] final  170.33 input  -60.55 | X-H torsion
[ 11005 11000 10999 10996 ] final   43.79 input  -57.11 | X-H torsion

> <Gold.Protein.ActiveResidues>
 VAL166  LYS551  ARG553  GLY616  TRP617  ASP618  TYR619  PRO620  LYS621  CYS622 
 ASP623  PHE694  ASN695  SER759  ASP760  ASP761  ALA762  ILE779  LEU786  VAL792 
 PHE793  MET794  SER795  GLU796  ALA797  LYS798  CYS799  TRP800  GLU811  SER814 

> <Gold.Protein.RotatedAtoms>
  152.4292  134.5811  159.9947 H   0  0  0  0  0  0  0  0  0  0  0  0  # atno 6907 bound_to 6896
  151.5939  133.3358  159.3041 H   0  0  0  0  0  0  0  0  0  0  0  0  # atno 6908 bound_to 6896
  150.8183  134.7413  159.6815 H   0  0  0  0  0  0  0  0  0  0  0  0  # atno 6909 bound_to 6896
  145.8113  139.3034  143.1097 H   0  0  0  0  0  0  0  0  0  0  0  0  # atno 7974 bound_to 7965
  155.2807  140.3372  155.4258 H   0  0  0  0  0  0  0  0  0  0  0  0  # atno 8008 bound_to 7997
  156.2091  140.1762  156.7776 H   0  0  0  0  0  0  0  0  0  0  0  0  # atno 8009 bound_to 7997
  154.5661  140.0678  156.8878 H   0  0  0  0  0  0  0  0  0  0  0  0  # atno 8010 bound_to 7997
  140.6636  143.7239  150.7784 H   0  0  0  0  0  0  0  0  0  0  0  0  # atno 10167 bound_to 10162
  157.5339  130.8649  149.8726 H   0  0  0  0  0  0  0  0  0  0  0  0  # atno 10718 bound_to 10713
  154.3961  135.2754  155.2125 H   0  0  0  0  0  0  0  0  0  0  0  0  # atno 10763 bound_to 10752
  154.4171  135.6009  153.5991 H   0  0  0  0  0  0  0  0  0  0  0  0  # atno 10764 bound_to 10752
  152.9831  135.5963  154.4222 H   0  0  0  0  0  0  0  0  0  0  0  0  # atno 10765 bound_to 10752
  140.1612  134.4338  155.8316 H   0  0  0  0  0  0  0  0  0  0  0  0  # atno 11005 bound_to 11000
  145.9774  140.8711  143.0132 LP  0  0  0  0  0  0  0  0  0  0  0  0  # atno 17320 bound_to 7965
  144.6757  140.2031  143.7385 LP  0  0  0  0  0  0  0  0  0  0  0  0  # atno 17321 bound_to 7965
  140.0912  143.4875  152.2477 LP  0  0  0  0  0  0  0  0  0  0  0  0  # atno 17342 bound_to 10162
  139.5877  144.7538  151.3478 LP  0  0  0  0  0  0  0  0  0  0  0  0  # atno 17343 bound_to 10162
  156.0443  130.3731  150.1356 LP  0  0  0  0  0  0  0  0  0  0  0  0  # atno 17370 bound_to 10713
  156.9539  130.9783  151.3493 LP  0  0  0  0  0  0  0  0  0  0  0  0  # atno 17371 bound_to 10713
  141.2209  133.6914  156.7598 LP  0  0  0  0  0  0  0  0  0  0  0  0  # atno 17394 bound_to 11000
  140.2487  134.8557  157.3646 LP  0  0  0  0  0  0  0  0  0  0  0  0  # atno 17395 bound_to 11000

$$$$
