AV-unprocessed.smi:282|AV-procd|sdf|2118|dock7
  -GOLD-   2262021413D 1   1.00000     0.00000
 Structure written by MMmdl.
 65 69  0  0  0  0  0  0  0  0  2 V2000
  150.3737  130.3296  155.4192 C   0  0  0  0  0  0  0  0  0  0  0  0
  149.4137  131.5248  155.4946 C   0  0  0  0  0  0  0  0  0  0  0  0
  148.7772  131.9167  154.1345 C   0  0  1  0  0  0  0  0  0  0  0  0
  147.7454  130.8576  153.6800 C   0  0  0  0  0  0  0  0  0  0  0  0
  147.0661  131.2364  152.4159 N   0  3  1  0  0  0  0  0  0  0  0  0
  146.1149  130.1886  151.9628 C   0  0  0  0  0  0  0  0  0  0  0  0
  145.4949  130.5448  150.6026 C   0  0  0  0  0  0  0  0  0  0  0  0
  144.8101  131.9151  150.6589 C   0  0  0  0  0  0  0  0  0  0  0  0
  145.8073  132.9752  151.1420 C   0  0  0  0  0  0  0  0  0  0  0  0
  146.4347  132.5831  152.4947 C   0  0  2  0  0  0  0  0  0  0  0  0
  147.4666  133.6329  152.9383 C   0  0  0  0  0  0  0  0  0  0  0  0
  148.1358  133.2381  154.1728 N   0  0  0  0  0  0  0  0  0  0  0  0
  148.8824  134.2587  154.6513 C   0  0  0  0  0  0  0  0  0  0  0  0
  150.2174  134.0506  154.7540 N   0  0  0  0  0  0  0  0  0  0  0  0
  151.0099  135.0233  155.2143 C   0  0  0  0  0  0  0  0  0  0  0  0
  150.6762  136.2509  155.6179 N   0  0  0  0  0  0  0  0  0  0  0  0
  149.3320  136.4612  155.5191 C   0  0  0  0  0  0  0  0  0  0  0  0
  148.3677  135.5225  155.0567 C   0  0  0  0  0  0  0  0  0  0  0  0
  147.0966  136.0793  155.1147 N   0  0  0  0  0  0  0  0  0  0  0  0
  147.2988  137.2804  155.5831 C   0  0  0  0  0  0  0  0  0  0  0  0
  148.6143  137.6027  155.8340 N   0  0  0  0  0  0  0  0  0  0  0  0
  149.1169  138.8661  156.3567 C   0  0  0  0  0  0  0  0  0  0  0  0
  149.7186  139.8324  155.2870 C   0  0  0  0  0  0  0  0  0  0  0  0
  148.5978  140.5407  154.4797 C   0  0  0  0  0  0  0  0  0  0  0  0
  149.0964  141.1916  153.3278 O   0  0  0  0  0  0  0  0  0  0  0  0
  150.6040  140.9034  155.9723 C   0  0  0  0  0  0  0  0  0  0  0  0
  151.9279  140.3312  156.5112 C   0  0  0  0  0  0  0  0  0  0  0  0
  152.6461  139.6959  155.4619 O   0  0  0  0  0  0  0  0  0  0  0  0
  151.9422  138.5949  154.9024 C   0  0  0  0  0  0  0  0  0  0  0  0
  150.6222  139.0810  154.2768 C   0  0  0  0  0  0  0  0  0  0  0  0
  150.8602  130.1687  156.3817 H   0  0  0  0  0  0  0  0  0  0  0  0
  151.1558  130.4987  154.6787 H   0  0  0  0  0  0  0  0  0  0  0  0
  149.8566  129.4057  155.1626 H   0  0  0  0  0  0  0  0  0  0  0  0
  148.6302  131.3184  156.2248 H   0  0  0  0  0  0  0  0  0  0  0  0
  149.9873  132.3584  155.8999 H   0  0  0  0  0  0  0  0  0  0  0  0
  149.5672  131.9535  153.3839 H   0  0  0  0  0  0  0  0  0  0  0  0
  148.2350  129.8959  153.5288 H   0  0  0  0  0  0  0  0  0  0  0  0
  146.9943  130.7134  154.4588 H   0  0  0  0  0  0  0  0  0  0  0  0
  146.6341  129.2326  151.8848 H   0  0  0  0  0  0  0  0  0  0  0  0
  145.3292  130.0620  152.7095 H   0  0  0  0  0  0  0  0  0  0  0  0
  146.2700  130.5514  149.8351 H   0  0  0  0  0  0  0  0  0  0  0  0
  144.7745  129.7806  150.3094 H   0  0  0  0  0  0  0  0  0  0  0  0
  144.4205  132.1832  149.6765 H   0  0  0  0  0  0  0  0  0  0  0  0
  143.9552  131.8753  151.3352 H   0  0  0  0  0  0  0  0  0  0  0  0
  146.5906  133.1026  150.3933 H   0  0  0  0  0  0  0  0  0  0  0  0
  145.3047  133.9391  151.2284 H   0  0  0  0  0  0  0  0  0  0  0  0
  145.6435  132.5391  153.2456 H   0  0  0  0  0  0  0  0  0  0  0  0
  148.2143  133.7700  152.1554 H   0  0  0  0  0  0  0  0  0  0  0  0
  146.9721  134.5960  153.0764 H   0  0  0  0  0  0  0  0  0  0  0  0
  152.0621  134.7852  155.2645 H   0  0  0  0  0  0  0  0  0  0  0  0
  146.4872  137.9725  155.7550 H   0  0  0  0  0  0  0  0  0  0  0  0
  148.2936  139.3558  156.8781 H   0  0  0  0  0  0  0  0  0  0  0  0
  149.8454  138.6347  157.1325 H   0  0  0  0  0  0  0  0  0  0  0  0
  147.8477  139.8191  154.1542 H   0  0  0  0  0  0  0  0  0  0  0  0
  148.0684  141.2688  155.0943 H   0  0  0  0  0  0  0  0  0  0  0  0
  149.3029  140.5367  152.6788 H   0  0  0  0  0  0  0  0  0  0  0  0
  150.8441  141.6909  155.2567 H   0  0  0  0  0  0  0  0  0  0  0  0
  150.0588  141.3900  156.7818 H   0  0  0  0  0  0  0  0  0  0  0  0
  152.5421  141.1377  156.9119 H   0  0  0  0  0  0  0  0  0  0  0  0
  151.7599  139.6326  157.3312 H   0  0  0  0  0  0  0  0  0  0  0  0
  152.5674  138.1366  154.1359 H   0  0  0  0  0  0  0  0  0  0  0  0
  151.7743  137.8326  155.6630 H   0  0  0  0  0  0  0  0  0  0  0  0
  150.0915  138.2455  153.8213 H   0  0  0  0  0  0  0  0  0  0  0  0
  150.8750  139.7484  153.4518 H   0  0  0  0  0  0  0  0  0  0  0  0
  147.7866  131.2988  151.7108 H   0  0  0  0  0  0  0  0  0  0  0  0
  1  2  1  0  0  0  0
  1 31  1  0  0  0  0
  1 32  1  0  0  0  0
  1 33  1  0  0  0  0
  2  3  1  0  0  0  0
  2 34  1  0  0  0  0
  2 35  1  0  0  0  0
  3 12  1  0  0  0  0
  3  4  1  0  0  0  0
  3 36  1  0  0  0  0
  4  5  1  0  0  0  0
  4 37  1  0  0  0  0
  4 38  1  0  0  0  0
  5 10  1  0  0  0  0
  5  6  1  0  0  0  0
  5 65  1  0  0  0  0
  6  7  1  0  0  0  0
  6 39  1  0  0  0  0
  6 40  1  0  0  0  0
  7  8  1  0  0  0  0
  7 41  1  0  0  0  0
  7 42  1  0  0  0  0
  8  9  1  0  0  0  0
  8 43  1  0  0  0  0
  8 44  1  0  0  0  0
  9 10  1  0  0  0  0
  9 45  1  0  0  0  0
  9 46  1  0  0  0  0
 10 11  1  0  0  0  0
 10 47  1  0  0  0  0
 11 12  1  0  0  0  0
 11 48  1  0  0  0  0
 11 49  1  0  0  0  0
 12 13  1  0  0  0  0
 13 18  1  0  0  0  0
 13 14  2  0  0  0  0
 14 15  1  0  0  0  0
 15 16  2  0  0  0  0
 15 50  1  0  0  0  0
 16 17  1  0  0  0  0
 17 21  1  0  0  0  0
 17 18  2  0  0  0  0
 18 19  1  0  0  0  0
 19 20  2  0  0  0  0
 20 21  1  0  0  0  0
 20 51  1  0  0  0  0
 21 22  1  0  0  0  0
 22 23  1  0  0  0  0
 22 52  1  0  0  0  0
 22 53  1  0  0  0  0
 23 30  1  0  0  0  0
 23 24  1  0  0  0  0
 23 26  1  0  0  0  0
 24 25  1  0  0  0  0
 24 54  1  0  0  0  0
 24 55  1  0  0  0  0
 25 56  1  0  0  0  0
 26 27  1  0  0  0  0
 26 57  1  0  0  0  0
 26 58  1  0  0  0  0
 27 28  1  0  0  0  0
 27 59  1  0  0  0  0
 27 60  1  0  0  0  0
 28 29  1  0  0  0  0
 29 30  1  0  0  0  0
 29 61  1  0  0  0  0
 29 62  1  0  0  0  0
 30 63  1  0  0  0  0
 30 64  1  0  0  0  0
M  CHG  1   5   1
M  END
> <s_m_source_file>
AV-unprocessed.smi

> <i_m_source_file_index>
282

> <i_lp_mmshare_version>
43012

> <i_f3d_flags>
0

> <s_epik_input>
W0NIMl0xW0NIMl1bQ0gyXVtDSDJdW0NAQEhdKE4xMilbQ0gyXU4oW0NAQEhdKFtDSDJdMilbQ0gyXVtDSDNdKWMobltjSF1uMyljKGMzNCluW2NIXW40W0NIMl1DNShbQ0gyXVtPSF0pW0NIMl1bQ0gyXU9bQ0gyXVtDSDJdNQ==

> <s_epik_cmdline>
J2VwaWtfcHl0aG9uJywgJy1waCcsICc3LjAnLCAnLXRuJywgJzgnLCAnLW1hJywgJzIwMCcsICctbWV0YWxfYmluZGluZycsICctaW1hZScsICc8aW5maWxlLm1hZT4nLCAnLW9tYWUnLCAnPG91dGZpbGUubWFlPic=

> <r_lp_tautomer_probability>
1

> <r_epik_Ionization_Penalty>
0.00308583

> <r_epik_Ionization_Penalty_Charging>
0.00300384

> <r_epik_Ionization_Penalty_Neutral>
8.19894e-05

> <r_epik_State_Penalty>
-0

> <r_epik_Charging_Adjusted_Penalty>
0.00300384

> <i_epik_Tot_Q>
1

> <i_epik_Tot_abs_Q>
1

> <r_epik_Metal_State_Penalty>
-0

> <b_epik_Metal_Only>
0

> <s_lp_Force_Field>
OPLS_2005

> <r_lp_Energy>
55.6254

> <b_lp_Chiralities_Consistent>
1

> <s_lp_Variant>
AV-unprocessed.smi:282-2

> <Gold.Version>
5.8.1

> <Gold.Id.Protein>
6NUR|6NUR_protein|mol2

> <Gold.PLP.Fitness>
51.6345

> <Gold.PLP.PLP>
-41.9233

> <Gold.PLP.part.hbond>
-4.4854

> <Gold.PLP.part.metal>
0.0000

> <Gold.PLP.part.buried>
-4.5025

> <Gold.PLP.part.nonpolar>
-33.1199

> <Gold.PLP.part.repulsive>
0.3356

> <Gold.PLP.ligand.clash>
0.0000

> <Gold.PLP.ligand.torsion>
0.8934

> <Gold.PLP.Chemscore.Hbond>
3.7516

> <Gold.PLP.Chemscore.CHOScore>
0.0000

> <Gold.PLP.Chemscore.Metal>
0.0000

> <Gold.Chemscore.Hbonds>
donor molecule, donor type, donor heavy atom, donor atom, acceptor molecule, acceptor atom, score
      L1  H     5    65       P1 10747  1.00
      L1  H    25    56       P1  7957  1.00
      P1  H  7997  8009       L1    28  0.90
      P1  H  8011  8017       L1    25  0.50

> <Gold.PLP.Chemscore.Internal.Correction>
0.2432

> <Gold.Rescore>
     Score         DG    S(hbond)    S(metal)    S(lipo)     H(rot)  DE(clash)    DE(int)     intcor
     18.22     -21.84       2.91        0.00     110.44       2.46       1.53       2.09       ----

> <Gold.Chemscore.Fitness>
18.2163

> <Gold.Chemscore.DG>
-21.8383

> <Gold.Chemscore.ZeroCoef>
-5.4800

> <Gold.Chemscore.Hbond>
2.9125

> <Gold.Chemscore.Metal>
0.0000

> <Gold.Chemscore.Lipo>
110.4440

> <Gold.Chemscore.Internal_Hbond>
0.0000

> <Gold.Chemscore.DEClash>
1.5309

> <Gold.Chemscore.DEInternal>
2.0911

> <Gold.Chemscore.Rot>
2.4576

> <Gold.Chemscore.Internal.Correction>
   9.000000E+99

> <Gold.Chemscore.Hbonds>
donor molecule, donor type, donor heavy atom, donor atom, acceptor molecule, acceptor atom, score
      L1  H     5    65       P1 10747  0.99
      L1  H    25    56       P1  7957  0.96
      P1  H  7997  8009       L1    28  0.18
      P1  H  8011  8017       L1    25  0.02

> <Gold.Chemscore.Hbond.Weighted>
-9.7278

> <Gold.Chemscore.Metal.Weighted>
-0.0000

> <Gold.Chemscore.Lipo.Weighted>
-12.9219

> <Gold.Chemscore.Internal_Hbond.Weighted>
0.0000

> <Gold.Chemscore.DEClash.Weighted>
1.5309

> <Gold.Chemscore.DEInternal.Weighted>
2.0911

> <Gold.Chemscore.Rot.Weighted>
6.2915

> <Gold.Chemscore.Internal.Correction.Weighted>
   9.000000E+99

> <Gold.Protein.RotatedTorsions>
[ 6907 6896 6895 6894 ] final  166.51 input  -60.11 | X-H torsion
[ 7974 7965 7964 7962 ] final   99.46 input  175.53 | X-H torsion
[ 8008 7997 7996 7995 ] final -141.98 input   59.86 | X-H torsion
[ 10167 10162 10161 10158 ] final  168.83 input  -65.29 | X-H torsion
[ 10718 10713 10712 10709 ] final -132.71 input   66.30 | X-H torsion
[ 10763 10752 10751 10750 ] final -159.73 input  -60.55 | X-H torsion
[ 11005 11000 10999 10996 ] final  -44.14 input  -57.11 | X-H torsion

> <Gold.Protein.ActiveResidues>
 VAL166  LYS551  ARG553  GLY616  TRP617  ASP618  TYR619  PRO620  LYS621  CYS622 
 ASP623  PHE694  ASN695  SER759  ASP760  ASP761  ALA762  ILE779  LEU786  VAL792 
 PHE793  MET794  SER795  GLU796  ALA797  LYS798  CYS799  TRP800  GLU811  SER814 

> <Gold.Protein.RotatedAtoms>
  151.8778  133.3489  159.3755 H   0  0  0  0  0  0  0  0  0  0  0  0  # atno 6907 bound_to 6896
  150.7135  134.5048  159.5588 H   0  0  0  0  0  0  0  0  0  0  0  0  # atno 6908 bound_to 6896
  152.2594  134.8050  160.0484 H   0  0  0  0  0  0  0  0  0  0  0  0  # atno 6909 bound_to 6896
  145.3985  139.2351  143.3313 H   0  0  0  0  0  0  0  0  0  0  0  0  # atno 7974 bound_to 7965
  155.4867  140.0564  157.2959 H   0  0  0  0  0  0  0  0  0  0  0  0  # atno 8008 bound_to 7997
  154.4639  140.2009  156.0122 H   0  0  0  0  0  0  0  0  0  0  0  0  # atno 8009 bound_to 7997
  156.0939  140.3229  155.7857 H   0  0  0  0  0  0  0  0  0  0  0  0  # atno 8010 bound_to 7997
  139.4977  144.3772  151.9661 H   0  0  0  0  0  0  0  0  0  0  0  0  # atno 10167 bound_to 10162
  156.2374  130.7075  151.0922 H   0  0  0  0  0  0  0  0  0  0  0  0  # atno 10718 bound_to 10713
  154.7450  135.3078  154.8661 H   0  0  0  0  0  0  0  0  0  0  0  0  # atno 10763 bound_to 10752
  153.9464  135.6769  153.4748 H   0  0  0  0  0  0  0  0  0  0  0  0  # atno 10764 bound_to 10752
  153.1047  135.4895  154.8856 H   0  0  0  0  0  0  0  0  0  0  0  0  # atno 10765 bound_to 10752
  141.0431  133.6772  156.2831 H   0  0  0  0  0  0  0  0  0  0  0  0  # atno 11005 bound_to 11000
  146.2763  140.4679  142.8794 LP  0  0  0  0  0  0  0  0  0  0  0  0  # atno 17320 bound_to 7965
  144.8390  140.6828  143.6241 LP  0  0  0  0  0  0  0  0  0  0  0  0  # atno 17321 bound_to 7965
  140.3208  144.3430  150.6010 LP  0  0  0  0  0  0  0  0  0  0  0  0  # atno 17342 bound_to 10162
  140.5724  143.2179  151.7575 LP  0  0  0  0  0  0  0  0  0  0  0  0  # atno 17343 bound_to 10162
  157.7160  131.0709  150.6323 LP  0  0  0  0  0  0  0  0  0  0  0  0  # atno 17370 bound_to 10713
  156.6394  130.4454  149.5758 LP  0  0  0  0  0  0  0  0  0  0  0  0  # atno 17371 bound_to 10713
  140.6198  134.5374  157.5546 LP  0  0  0  0  0  0  0  0  0  0  0  0  # atno 17394 bound_to 11000
  139.9291  134.7999  156.0983 LP  0  0  0  0  0  0  0  0  0  0  0  0  # atno 17395 bound_to 11000

$$$$
