AV-unprocessed.smi:278|AV-procd|sdf|2089|dock9
  -GOLD-   2262021363D 1   1.00000     0.00000
 Structure written by MMmdl.
 50 54  0  0  0  0  0  0  0  0  1 V2000
  152.7553  132.0638  158.8554 O   0  0  0  0  0  0  0  0  0  0  0  0
  153.8870  131.5213  159.6231 S   0  0  0  0  0  0  0  0  0  0  0  0
  153.6702  130.7848  160.8774 O   0  0  0  0  0  0  0  0  0  0  0  0
  154.9493  130.5453  158.5068 C   0  0  0  0  0  0  0  0  0  0  0  0
  155.7364  131.5946  157.7124 C   0  0  0  0  0  0  0  0  0  0  0  0
  156.0469  132.8108  158.6225 C   0  0  1  0  0  0  0  0  0  0  0  0
  155.7967  134.1729  157.9647 C   0  0  0  0  0  0  0  0  0  0  0  0
  155.3748  135.0503  159.0451 N   0  0  0  0  0  0  0  0  0  0  0  0
  154.8147  136.2142  158.6522 C   0  0  0  0  0  0  0  0  0  0  0  0
  154.6171  136.3791  157.3215 N   0  0  0  0  0  0  0  0  0  0  0  0
  154.0643  137.5063  156.8624 C   0  0  0  0  0  0  0  0  0  0  0  0
  153.6444  138.5713  157.5491 N   0  0  0  0  0  0  0  0  0  0  0  0
  153.8433  138.4072  158.8885 C   0  0  0  0  0  0  0  0  0  0  0  0
  154.4171  137.2696  159.5226 C   0  0  0  0  0  0  0  0  0  0  0  0
  154.4548  137.4640  160.8987 N   0  0  0  0  0  0  0  0  0  0  0  0
  153.9355  138.6496  161.0677 C   0  0  0  0  0  0  0  0  0  0  0  0
  153.5421  139.2866  159.9125 N   0  0  0  0  0  0  0  0  0  0  0  0
  152.9362  140.6019  159.8029 C   0  0  0  0  0  0  0  0  0  0  0  0
  153.9207  141.7354  160.1523 C   0  0  2  0  0  0  0  0  0  0  0  0
  154.1791  141.7140  161.5435 O   0  0  0  0  0  0  0  0  0  0  0  0
  153.3733  143.1225  159.7678 C   0  0  1  0  0  0  0  0  0  0  0  0
  152.7800  143.2025  158.3625 C   0  0  0  0  0  0  0  0  0  0  0  0
  151.9053  144.4359  158.4549 C   0  0  0  0  0  0  0  0  0  0  0  0
  151.4782  144.4572  159.9247 C   0  0  0  0  0  0  0  0  0  0  0  0
  152.2602  143.4642  160.5823 O   0  0  0  0  0  0  0  0  0  0  0  0
  154.5714  134.2493  159.9574 C   0  0  0  0  0  0  0  0  0  0  0  0
  155.1468  132.8300  159.8691 C   0  0  1  0  0  0  0  0  0  0  0  0
  157.0836  132.7617  158.9585 H   0  0  0  0  0  0  0  0  0  0  0  0
  155.7310  132.5812  160.7556 H   0  0  0  0  0  0  0  0  0  0  0  0
  155.6177  129.9385  159.1181 H   0  0  0  0  0  0  0  0  0  0  0  0
  154.3441  129.8896  157.8808 H   0  0  0  0  0  0  0  0  0  0  0  0
  156.6455  131.1721  157.2841 H   0  0  0  0  0  0  0  0  0  0  0  0
  155.1177  131.9103  156.8716 H   0  0  0  0  0  0  0  0  0  0  0  0
  156.6966  134.5528  157.4802 H   0  0  0  0  0  0  0  0  0  0  0  0
  155.0147  134.1034  157.2084 H   0  0  0  0  0  0  0  0  0  0  0  0
  153.9406  137.5629  155.7909 H   0  0  0  0  0  0  0  0  0  0  0  0
  153.8270  139.0951  162.0459 H   0  0  0  0  0  0  0  0  0  0  0  0
  152.5709  140.7188  158.7819 H   0  0  0  0  0  0  0  0  0  0  0  0
  152.0610  140.6403  160.4530 H   0  0  0  0  0  0  0  0  0  0  0  0
  154.8647  141.5659  159.6327 H   0  0  0  0  0  0  0  0  0  0  0  0
  153.3531  141.7329  162.0021 H   0  0  0  0  0  0  0  0  0  0  0  0
  154.1423  143.8877  159.8898 H   0  0  0  0  0  0  0  0  0  0  0  0
  153.5378  143.2777  157.5820 H   0  0  0  0  0  0  0  0  0  0  0  0
  152.1651  142.3248  158.1582 H   0  0  0  0  0  0  0  0  0  0  0  0
  152.4909  145.3269  158.2251 H   0  0  0  0  0  0  0  0  0  0  0  0
  151.0588  144.4020  157.7687 H   0  0  0  0  0  0  0  0  0  0  0  0
  151.6574  145.4358  160.3710 H   0  0  0  0  0  0  0  0  0  0  0  0
  150.4205  144.2202  160.0410 H   0  0  0  0  0  0  0  0  0  0  0  0
  154.6536  134.6397  160.9721 H   0  0  0  0  0  0  0  0  0  0  0  0
  153.5173  134.2753  159.6839 H   0  0  0  0  0  0  0  0  0  0  0  0
  1  2  2  0  0  0  0
  2 27  1  0  0  0  0
  2  3  2  0  0  0  0
  2  4  1  0  0  0  0
  4  5  1  0  0  0  0
  4 30  1  0  0  0  0
  4 31  1  0  0  0  0
  5  6  1  0  0  0  0
  5 32  1  0  0  0  0
  5 33  1  0  0  0  0
  6 28  1  0  0  0  0
  6 27  1  0  0  0  0
  6  7  1  0  0  0  0
  7  8  1  0  0  0  0
  7 34  1  0  0  0  0
  7 35  1  0  0  0  0
  8  9  1  0  0  0  0
  8 26  1  0  0  0  0
  9 14  1  0  0  0  0
  9 10  2  0  0  0  0
 10 11  1  0  0  0  0
 11 12  2  0  0  0  0
 11 36  1  0  0  0  0
 12 13  1  0  0  0  0
 13 17  1  0  0  0  0
 13 14  2  0  0  0  0
 14 15  1  0  0  0  0
 15 16  2  0  0  0  0
 16 17  1  0  0  0  0
 16 37  1  0  0  0  0
 17 18  1  0  0  0  0
 18 19  1  0  0  0  0
 18 38  1  0  0  0  0
 18 39  1  0  0  0  0
 19 20  1  0  0  0  0
 19 21  1  0  0  0  0
 19 40  1  0  0  0  0
 20 41  1  0  0  0  0
 21 25  1  0  0  0  0
 21 22  1  0  0  0  0
 21 42  1  0  0  0  0
 22 23  1  0  0  0  0
 22 43  1  0  0  0  0
 22 44  1  0  0  0  0
 23 24  1  0  0  0  0
 23 45  1  0  0  0  0
 23 46  1  0  0  0  0
 24 25  1  0  0  0  0
 24 47  1  0  0  0  0
 24 48  1  0  0  0  0
 26 27  1  0  0  0  0
 26 49  1  0  0  0  0
 26 50  1  0  0  0  0
 27 29  1  0  0  0  0
M  END
> <s_m_source_file>
AV-unprocessed.smi

> <i_m_source_file_index>
278

> <i_lp_mmshare_version>
43012

> <i_f3d_flags>
0

> <s_epik_input>
W0NIMl0xW0NIMl1TKD1PKSg9TylbQ0BASF0oW0NAQEhdMTIpW0NIMl1OKFtDSDJdMiljKG5bY0hdbjMpYyhjMzQpbltjSF1uNFtDSDJdW0NASF0oW09IXSlbQ0BASF01W0NIMl1bQ0gyXVtDSDJdTzU=

> <s_epik_cmdline>
J2VwaWtfcHl0aG9uJywgJy1waCcsICc3LjAnLCAnLXRuJywgJzgnLCAnLW1hJywgJzIwMCcsICctbWV0YWxfYmluZGluZycsICctaW1hZScsICc8aW5maWxlLm1hZT4nLCAnLW9tYWUnLCAnPG91dGZpbGUubWFlPic=

> <r_lp_tautomer_probability>
1

> <r_epik_Ionization_Penalty>
0.000636766

> <r_epik_Ionization_Penalty_Charging>
0

> <r_epik_Ionization_Penalty_Neutral>
0.000636766

> <r_epik_State_Penalty>
0.000329976

> <r_epik_Charging_Adjusted_Penalty>
0.000329976

> <i_epik_Tot_Q>
0

> <i_epik_Tot_abs_Q>
0

> <r_epik_Metal_State_Penalty>
-0

> <b_epik_Metal_Only>
0

> <s_lp_Force_Field>
OPLS_2005

> <r_lp_Energy>
53.1939

> <b_lp_Chiralities_Consistent>
1

> <s_lp_Variant>
AV-unprocessed.smi:278-3

> <Gold.Version>
5.8.1

> <Gold.Id.Protein>
6NUR|6NUR_protein|mol2

> <Gold.PLP.Fitness>
42.2608

> <Gold.PLP.PLP>
-34.1005

> <Gold.PLP.part.hbond>
-4.0000

> <Gold.PLP.part.metal>
0.0000

> <Gold.PLP.part.buried>
-2.5826

> <Gold.PLP.part.nonpolar>
-27.6688

> <Gold.PLP.part.repulsive>
0.0832

> <Gold.PLP.ligand.clash>
0.0000

> <Gold.PLP.ligand.torsion>
0.2707

> <Gold.PLP.Chemscore.Hbond>
2.8800

> <Gold.PLP.Chemscore.CHOScore>
0.0000

> <Gold.PLP.Chemscore.Metal>
0.0000

> <Gold.Chemscore.Hbonds>
donor molecule, donor type, donor heavy atom, donor atom, acceptor molecule, acceptor atom, score
      P1  H  6896  6909       L1     1  1.00
      P1  H  7997  8010       L1    12  0.94
      P1  H 10752 10763       L1    10  0.17

> <Gold.PLP.Chemscore.Internal.Correction>
0.0617

> <Gold.Rescore>
     Score         DG    S(hbond)    S(metal)    S(lipo)     H(rot)  DE(clash)    DE(int)     intcor
     14.21     -14.65       1.77        0.00      81.66       2.46       0.10       0.34       ----

> <Gold.Chemscore.Fitness>
14.2097

> <Gold.Chemscore.DG>
-14.6543

> <Gold.Chemscore.ZeroCoef>
-5.4800

> <Gold.Chemscore.Hbond>
1.7744

> <Gold.Chemscore.Metal>
0.0000

> <Gold.Chemscore.Lipo>
81.6645

> <Gold.Chemscore.Internal_Hbond>
0.0000

> <Gold.Chemscore.DEClash>
0.1049

> <Gold.Chemscore.DEInternal>
0.3397

> <Gold.Chemscore.Rot>
2.4636

> <Gold.Chemscore.Internal.Correction>
   9.000000E+99

> <Gold.Chemscore.Hbonds>
donor molecule, donor type, donor heavy atom, donor atom, acceptor molecule, acceptor atom, score
      P1  H  6896  6909       L1     1  0.93
      P1  H  7997  8010       L1    12  0.47
      P1  H 10752 10763       L1    10  0.01

> <Gold.Chemscore.Hbond.Weighted>
-5.9264

> <Gold.Chemscore.Metal.Weighted>
-0.0000

> <Gold.Chemscore.Lipo.Weighted>
-9.5547

> <Gold.Chemscore.Internal_Hbond.Weighted>
0.0000

> <Gold.Chemscore.DEClash.Weighted>
0.1049

> <Gold.Chemscore.DEInternal.Weighted>
0.3397

> <Gold.Chemscore.Rot.Weighted>
6.3068

> <Gold.Chemscore.Internal.Correction.Weighted>
   9.000000E+99

> <Gold.Protein.RotatedTorsions>
[ 6907 6896 6895 6894 ] final  -79.25 input  -60.11 | X-H torsion
[ 7974 7965 7964 7962 ] final   80.28 input  175.53 | X-H torsion
[ 8008 7997 7996 7995 ] final   54.02 input   59.86 | X-H torsion
[ 10167 10162 10161 10158 ] final  105.00 input  -65.29 | X-H torsion
[ 10718 10713 10712 10709 ] final   32.16 input   66.30 | X-H torsion
[ 10763 10752 10751 10750 ] final  143.23 input  -60.55 | X-H torsion
[ 11005 11000 10999 10996 ] final    3.22 input  -57.11 | X-H torsion

> <Gold.Protein.ActiveResidues>
 VAL166  LYS551  ARG553  GLY616  TRP617  ASP618  TYR619  PRO620  LYS621  CYS622 
 ASP623  PHE694  ASN695  SER759  ASP760  ASP761  ALA762  ILE779  LEU786  VAL792 
 PHE793  MET794  SER795  GLU796  ALA797  LYS798  CYS799  TRP800  GLU811  SER814 

> <Gold.Protein.RotatedAtoms>
  150.6954  134.4149  159.5178 H   0  0  0  0  0  0  0  0  0  0  0  0  # atno 6907 bound_to 6896
  152.1902  134.8676  160.0527 H   0  0  0  0  0  0  0  0  0  0  0  0  # atno 6908 bound_to 6896
  151.9634  133.3668  159.4081 H   0  0  0  0  0  0  0  0  0  0  0  0  # atno 6909 bound_to 6896
  145.6533  139.2453  143.1964 H   0  0  0  0  0  0  0  0  0  0  0  0  # atno 7974 bound_to 7965
  155.4778  140.3467  155.4335 H   0  0  0  0  0  0  0  0  0  0  0  0  # atno 8008 bound_to 7997
  156.1059  140.1448  156.9434 H   0  0  0  0  0  0  0  0  0  0  0  0  # atno 8009 bound_to 7997
  154.4724  140.0896  156.7155 H   0  0  0  0  0  0  0  0  0  0  0  0  # atno 8010 bound_to 7997
  139.7130  144.7074  151.0996 H   0  0  0  0  0  0  0  0  0  0  0  0  # atno 10167 bound_to 10162
  157.2817  130.7258  149.6560 H   0  0  0  0  0  0  0  0  0  0  0  0  # atno 10718 bound_to 10713
  153.9689  135.2952  155.3428 H   0  0  0  0  0  0  0  0  0  0  0  0  # atno 10763 bound_to 10752
  154.7333  135.5058  153.9003 H   0  0  0  0  0  0  0  0  0  0  0  0  # atno 10764 bound_to 10752
  153.0910  135.6707  153.9966 H   0  0  0  0  0  0  0  0  0  0  0  0  # atno 10765 bound_to 10752
  140.5956  133.9884  155.8108 H   0  0  0  0  0  0  0  0  0  0  0  0  # atno 11005 bound_to 11000
  146.1186  140.7338  142.9468 LP  0  0  0  0  0  0  0  0  0  0  0  0  # atno 17320 bound_to 7965
  144.7115  140.4055  143.7077 LP  0  0  0  0  0  0  0  0  0  0  0  0  # atno 17321 bound_to 7965
  140.7737  143.5268  150.9471 LP  0  0  0  0  0  0  0  0  0  0  0  0  # atno 17342 bound_to 10162
  139.8953  143.6902  152.3139 LP  0  0  0  0  0  0  0  0  0  0  0  0  # atno 17343 bound_to 10162
  155.9664  130.4336  150.5012 LP  0  0  0  0  0  0  0  0  0  0  0  0  # atno 17370 bound_to 10713
  157.2958  131.0635  151.2103 LP  0  0  0  0  0  0  0  0  0  0  0  0  # atno 17371 bound_to 10713
  141.0906  133.9922  157.3243 LP  0  0  0  0  0  0  0  0  0  0  0  0  # atno 17394 bound_to 11000
  139.9255  135.0201  156.8218 LP  0  0  0  0  0  0  0  0  0  0  0  0  # atno 17395 bound_to 11000

$$$$
