AV-unprocessed.smi:256|AV-procd|sdf|1960|dock7
  -GOLD-   2262021103D 1   1.00000     0.00000
 Structure written by MMmdl.
 62 65  0  0  0  0  0  0  0  0  2 V2000
  146.3825  133.7871  154.8326 C   0  0  0  0  0  0  0  0  0  0  0  0
  147.3267  134.9774  154.6080 C   0  0  0  0  0  0  0  0  0  0  0  0
  146.6269  136.2414  154.0406 C   0  0  1  0  0  0  0  0  0  0  0  0
  147.5318  137.4746  154.2987 C   0  0  0  0  0  0  0  0  0  0  0  0
  147.0603  138.6706  153.6111 N   0  0  0  0  0  0  0  0  0  0  0  0
  147.5416  139.8781  154.0021 C   0  0  0  0  0  0  0  0  0  0  0  0
  146.8811  141.0157  153.6569 N   0  0  0  0  0  0  0  0  0  0  0  0
  147.3482  142.2089  154.0365 C   0  0  0  0  0  0  0  0  0  0  0  0
  148.4414  142.4887  154.7482 N   0  0  0  0  0  0  0  0  0  0  0  0
  149.1144  141.3534  155.0903 C   0  0  0  0  0  0  0  0  0  0  0  0
  148.7359  140.0204  154.7640 C   0  0  0  0  0  0  0  0  0  0  0  0
  149.6689  139.1259  155.2750 N   0  0  0  0  0  0  0  0  0  0  0  0
  150.5428  139.8855  155.8768 C   0  0  0  0  0  0  0  0  0  0  0  0
  150.2949  141.2378  155.8045 N   0  0  0  0  0  0  0  0  0  0  0  0
  151.1073  142.3032  156.3739 C   0  0  0  0  0  0  0  0  0  0  0  0
  150.7033  142.7031  157.8196 C   0  0  0  0  0  0  0  0  0  0  0  0
  149.2888  142.7005  157.8842 O   0  0  0  0  0  0  0  0  0  0  0  0
  151.2208  141.7367  158.9071 C   0  0  0  0  0  0  0  0  0  0  0  0
  152.7338  141.9042  159.1317 C   0  0  0  0  0  0  0  0  0  0  0  0
  153.0256  143.2543  159.4756 O   0  0  0  0  0  0  0  0  0  0  0  0
  152.6866  144.1779  158.4467 C   0  0  0  0  0  0  0  0  0  0  0  0
  151.1727  144.1292  158.1710 C   0  0  0  0  0  0  0  0  0  0  0  0
  146.8888  138.4921  152.1788 C   0  0  0  0  0  0  0  0  0  0  0  0
  145.8933  137.3594  151.9242 C   0  0  0  0  0  0  0  0  0  0  0  0
  146.2976  136.0885  152.5857 N   0  3  2  0  0  0  0  0  0  0  0  0
  145.3116  135.0114  152.2869 C   0  0  0  0  0  0  0  0  0  0  0  0
  145.0432  134.9112  150.7807 C   0  0  0  0  0  0  0  0  0  0  0  0
  144.0771  133.8997  150.5507 O   0  0  0  0  0  0  0  0  0  0  0  0
  144.4917  132.6337  151.0328 C   0  0  0  0  0  0  0  0  0  0  0  0
  146.9434  132.9059  155.1452 H   0  0  0  0  0  0  0  0  0  0  0  0
  145.8472  133.5303  153.9180 H   0  0  0  0  0  0  0  0  0  0  0  0
  145.6462  133.9919  155.6096 H   0  0  0  0  0  0  0  0  0  0  0  0
  147.8240  135.2244  155.5468 H   0  0  0  0  0  0  0  0  0  0  0  0
  148.1171  134.6271  153.9479 H   0  0  0  0  0  0  0  0  0  0  0  0
  145.6831  136.3969  154.5664 H   0  0  0  0  0  0  0  0  0  0  0  0
  147.5796  137.6736  155.3699 H   0  0  0  0  0  0  0  0  0  0  0  0
  148.5498  137.2658  153.9663 H   0  0  0  0  0  0  0  0  0  0  0  0
  146.7630  143.0617  153.7246 H   0  0  0  0  0  0  0  0  0  0  0  0
  151.4047  139.4783  156.3853 H   0  0  0  0  0  0  0  0  0  0  0  0
  152.1493  141.9868  156.3373 H   0  0  0  0  0  0  0  0  0  0  0  0
  151.0373  143.1681  155.7126 H   0  0  0  0  0  0  0  0  0  0  0  0
  148.9611  143.3835  157.3190 H   0  0  0  0  0  0  0  0  0  0  0  0
  150.7144  141.9456  159.8507 H   0  0  0  0  0  0  0  0  0  0  0  0
  150.9842  140.7002  158.6665 H   0  0  0  0  0  0  0  0  0  0  0  0
  153.0623  141.2574  159.9454 H   0  0  0  0  0  0  0  0  0  0  0  0
  153.3031  141.6123  158.2490 H   0  0  0  0  0  0  0  0  0  0  0  0
  152.9719  145.1790  158.7704 H   0  0  0  0  0  0  0  0  0  0  0  0
  153.2637  143.9651  157.5463 H   0  0  0  0  0  0  0  0  0  0  0  0
  150.9109  144.8279  157.3754 H   0  0  0  0  0  0  0  0  0  0  0  0
  150.6534  144.4768  159.0656 H   0  0  0  0  0  0  0  0  0  0  0  0
  146.5388  139.4017  151.6922 H   0  0  0  0  0  0  0  0  0  0  0  0
  147.8547  138.2512  151.7324 H   0  0  0  0  0  0  0  0  0  0  0  0
  144.9115  137.6629  152.2921 H   0  0  0  0  0  0  0  0  0  0  0  0
  145.7937  137.1963  150.8505 H   0  0  0  0  0  0  0  0  0  0  0  0
  145.6211  134.0401  152.6682 H   0  0  0  0  0  0  0  0  0  0  0  0
  144.3712  135.2113  152.8027 H   0  0  0  0  0  0  0  0  0  0  0  0
  144.6644  135.8668  150.4147 H   0  0  0  0  0  0  0  0  0  0  0  0
  145.9648  134.6956  150.2378 H   0  0  0  0  0  0  0  0  0  0  0  0
  143.7134  131.8957  150.8398 H   0  0  0  0  0  0  0  0  0  0  0  0
  144.6716  132.6602  152.1082 H   0  0  0  0  0  0  0  0  0  0  0  0
  145.4025  132.3005  150.5336 H   0  0  0  0  0  0  0  0  0  0  0  0
  147.1642  135.8079  152.1490 H   0  0  0  0  0  0  0  0  0  0  0  0
  1  2  1  0  0  0  0
  1 30  1  0  0  0  0
  1 31  1  0  0  0  0
  1 32  1  0  0  0  0
  2  3  1  0  0  0  0
  2 33  1  0  0  0  0
  2 34  1  0  0  0  0
  3 25  1  0  0  0  0
  3  4  1  0  0  0  0
  3 35  1  0  0  0  0
  4  5  1  0  0  0  0
  4 36  1  0  0  0  0
  4 37  1  0  0  0  0
  5  6  1  0  0  0  0
  5 23  1  0  0  0  0
  6 11  1  0  0  0  0
  6  7  2  0  0  0  0
  7  8  1  0  0  0  0
  8  9  2  0  0  0  0
  8 38  1  0  0  0  0
  9 10  1  0  0  0  0
 10 14  1  0  0  0  0
 10 11  2  0  0  0  0
 11 12  1  0  0  0  0
 12 13  2  0  0  0  0
 13 14  1  0  0  0  0
 13 39  1  0  0  0  0
 14 15  1  0  0  0  0
 15 16  1  0  0  0  0
 15 40  1  0  0  0  0
 15 41  1  0  0  0  0
 16 22  1  0  0  0  0
 16 17  1  0  0  0  0
 16 18  1  0  0  0  0
 17 42  1  0  0  0  0
 18 19  1  0  0  0  0
 18 43  1  0  0  0  0
 18 44  1  0  0  0  0
 19 20  1  0  0  0  0
 19 45  1  0  0  0  0
 19 46  1  0  0  0  0
 20 21  1  0  0  0  0
 21 22  1  0  0  0  0
 21 47  1  0  0  0  0
 21 48  1  0  0  0  0
 22 49  1  0  0  0  0
 22 50  1  0  0  0  0
 23 24  1  0  0  0  0
 23 51  1  0  0  0  0
 23 52  1  0  0  0  0
 24 25  1  0  0  0  0
 24 53  1  0  0  0  0
 24 54  1  0  0  0  0
 25 26  1  0  0  0  0
 25 62  1  0  0  0  0
 26 27  1  0  0  0  0
 26 55  1  0  0  0  0
 26 56  1  0  0  0  0
 27 28  1  0  0  0  0
 27 57  1  0  0  0  0
 27 58  1  0  0  0  0
 28 29  1  0  0  0  0
 29 59  1  0  0  0  0
 29 60  1  0  0  0  0
 29 61  1  0  0  0  0
M  CHG  1  25   1
M  END
> <s_m_source_file>
AV-unprocessed.smi

> <i_m_source_file_index>
256

> <i_lp_mmshare_version>
43012

> <i_f3d_flags>
0

> <s_epik_input>
W0NIM11PW0NIMl1bQ0gyXU4xW0NIMl1bQ0gyXU4oW0NIMl1bQ0BIXTFbQ0gyXVtDSDNdKWMobltjSF1uMiljKGMyMyluW2NIXW4zW0NIMl1DNChbT0hdKVtDSDJdW0NIMl1PW0NIMl1bQ0gyXTQ=

> <s_epik_cmdline>
J2VwaWtfcHl0aG9uJywgJy1waCcsICc3LjAnLCAnLXRuJywgJzgnLCAnLW1hJywgJzIwMCcsICctbWV0YWxfYmluZGluZycsICctaW1hZScsICc8aW5maWxlLm1hZT4nLCAnLW9tYWUnLCAnPG91dGZpbGUubWFlPic=

> <r_lp_tautomer_probability>
1

> <r_epik_Ionization_Penalty>
0.233023

> <r_epik_Ionization_Penalty_Charging>
0.23295

> <r_epik_Ionization_Penalty_Neutral>
7.2493e-05

> <r_epik_State_Penalty>
0.223667

> <r_epik_Charging_Adjusted_Penalty>
0.456618

> <i_epik_Tot_Q>
1

> <i_epik_Tot_abs_Q>
1

> <r_epik_Metal_State_Penalty>
0.226879

> <b_epik_Metal_Only>
0

> <s_lp_Force_Field>
OPLS_2005

> <r_lp_Energy>
45.9613

> <b_lp_Chiralities_Consistent>
1

> <s_lp_Variant>
AV-unprocessed.smi:256-4

> <Gold.Version>
5.8.1

> <Gold.Id.Protein>
6NUR|6NUR_protein|mol2

> <Gold.PLP.Fitness>
49.0299

> <Gold.PLP.PLP>
-41.5320

> <Gold.PLP.part.hbond>
-2.7339

> <Gold.PLP.part.metal>
0.0000

> <Gold.PLP.part.buried>
-3.3678

> <Gold.PLP.part.nonpolar>
-40.6355

> <Gold.PLP.part.repulsive>
5.6307

> <Gold.PLP.ligand.clash>
0.0000

> <Gold.PLP.ligand.torsion>
1.0727

> <Gold.PLP.Chemscore.Hbond>
3.0328

> <Gold.PLP.Chemscore.CHOScore>
0.0000

> <Gold.PLP.Chemscore.Metal>
0.0000

> <Gold.Chemscore.Hbonds>
donor molecule, donor type, donor heavy atom, donor atom, acceptor molecule, acceptor atom, score
      L1  H    17    42       P1  8028  0.78
      L1  H    25    62       P1  7948  1.89

> <Gold.PLP.Chemscore.Internal.Correction>
0.5451

> <Gold.Rescore>
     Score         DG    S(hbond)    S(metal)    S(lipo)     H(rot)  DE(clash)    DE(int)     intcor
     10.48     -15.73       1.65        0.00     104.38       2.92       3.06       2.19       ----

> <Gold.Chemscore.Fitness>
10.4785

> <Gold.Chemscore.DG>
-15.7279

> <Gold.Chemscore.ZeroCoef>
-5.4800

> <Gold.Chemscore.Hbond>
1.6534

> <Gold.Chemscore.Metal>
0.0000

> <Gold.Chemscore.Lipo>
104.3841

> <Gold.Chemscore.Internal_Hbond>
0.0000

> <Gold.Chemscore.DEClash>
3.0579

> <Gold.Chemscore.DEInternal>
2.1916

> <Gold.Chemscore.Rot>
2.9247

> <Gold.Chemscore.Internal.Correction>
   9.000000E+99

> <Gold.Chemscore.Hbonds>
donor molecule, donor type, donor heavy atom, donor atom, acceptor molecule, acceptor atom, score
      L1  H    17    42       P1  8028  0.34
      L1  H    25    62       P1  7948  0.91

> <Gold.Chemscore.Hbond.Weighted>
-5.5223

> <Gold.Chemscore.Metal.Weighted>
-0.0000

> <Gold.Chemscore.Lipo.Weighted>
-12.2129

> <Gold.Chemscore.Internal_Hbond.Weighted>
0.0000

> <Gold.Chemscore.DEClash.Weighted>
3.0579

> <Gold.Chemscore.DEInternal.Weighted>
2.1916

> <Gold.Chemscore.Rot.Weighted>
7.4873

> <Gold.Chemscore.Internal.Correction.Weighted>
   9.000000E+99

> <Gold.Protein.RotatedTorsions>
[ 6907 6896 6895 6894 ] final  -85.37 input  -60.11 | X-H torsion
[ 7974 7965 7964 7962 ] final  -98.57 input  175.53 | X-H torsion
[ 8008 7997 7996 7995 ] final    5.87 input   59.86 | X-H torsion
[ 10167 10162 10161 10158 ] final    6.92 input  -65.29 | X-H torsion
[ 10718 10713 10712 10709 ] final  174.08 input   66.30 | X-H torsion
[ 10763 10752 10751 10750 ] final   63.48 input  -60.55 | X-H torsion
[ 11005 11000 10999 10996 ] final   84.04 input  -57.11 | X-H torsion

> <Gold.Protein.ActiveResidues>
 VAL166  LYS551  ARG553  GLY616  TRP617  ASP618  TYR619  PRO620  LYS621  CYS622 
 ASP623  PHE694  ASN695  SER759  ASP760  ASP761  ALA762  ILE779  LEU786  VAL792 
 PHE793  MET794  SER795  GLU796  ALA797  LYS798  CYS799  TRP800  GLU811  SER814 

> <Gold.Protein.RotatedAtoms>
  150.6871  134.3216  159.4788 H   0  0  0  0  0  0  0  0  0  0  0  0  # atno 6907 bound_to 6896
  152.1091  134.9285  160.0576 H   0  0  0  0  0  0  0  0  0  0  0  0  # atno 6908 bound_to 6896
  152.0534  133.3995  159.4424 H   0  0  0  0  0  0  0  0  0  0  0  0  # atno 6909 bound_to 6896
  145.3188  140.9417  143.2727 H   0  0  0  0  0  0  0  0  0  0  0  0  # atno 7974 bound_to 7965
  154.7339  140.2736  155.6432 H   0  0  0  0  0  0  0  0  0  0  0  0  # atno 8008 bound_to 7997
  156.2856  140.2710  156.1972 H   0  0  0  0  0  0  0  0  0  0  0  0  # atno 8009 bound_to 7997
  155.0346  140.0371  157.2477 H   0  0  0  0  0  0  0  0  0  0  0  0  # atno 8010 bound_to 7997
  140.6401  143.7795  150.7415 H   0  0  0  0  0  0  0  0  0  0  0  0  # atno 10167 bound_to 10162
  156.9548  131.0042  151.2940 H   0  0  0  0  0  0  0  0  0  0  0  0  # atno 10718 bound_to 10713
  153.0019  135.5427  154.6358 H   0  0  0  0  0  0  0  0  0  0  0  0  # atno 10763 bound_to 10752
  154.5625  135.2835  155.0908 H   0  0  0  0  0  0  0  0  0  0  0  0  # atno 10764 bound_to 10752
  154.2105  135.6468  153.5166 H   0  0  0  0  0  0  0  0  0  0  0  0  # atno 10765 bound_to 10752
  139.9012  134.8188  156.2391 H   0  0  0  0  0  0  0  0  0  0  0  0  # atno 11005 bound_to 11000
  144.8956  139.4717  143.6657 LP  0  0  0  0  0  0  0  0  0  0  0  0  # atno 17320 bound_to 7965
  146.3090  139.7679  142.9034 LP  0  0  0  0  0  0  0  0  0  0  0  0  # atno 17321 bound_to 7965
  140.1424  143.4429  152.2185 LP  0  0  0  0  0  0  0  0  0  0  0  0  # atno 17342 bound_to 10162
  139.5610  144.7405  151.4155 LP  0  0  0  0  0  0  0  0  0  0  0  0  # atno 17343 bound_to 10162
  157.5698  130.8302  149.8375 LP  0  0  0  0  0  0  0  0  0  0  0  0  # atno 17370 bound_to 10713
  156.0347  130.3754  150.1592 LP  0  0  0  0  0  0  0  0  0  0  0  0  # atno 17371 bound_to 10713
  141.0296  133.6996  156.1408 LP  0  0  0  0  0  0  0  0  0  0  0  0  # atno 17394 bound_to 11000
  140.7115  134.4456  157.5581 LP  0  0  0  0  0  0  0  0  0  0  0  0  # atno 17395 bound_to 11000

$$$$
