AV-unprocessed.smi:2282|AV-procd|sdf|9195|dock8
  -GOLD-   2272012413D 1   1.00000     0.00000
 Structure written by MMmdl.
 32 33  0  0  0  0  0  0  0  0  1 V2000
  152.5948  143.4768  161.8776 C   0  0  0  0  0  0  0  0  0  0  0  0
  151.8822  143.3625  160.5429 C   0  0  0  0  0  0  0  0  0  0  0  0
  150.9020  144.2662  160.3242 N   0  0  0  0  0  0  0  0  0  0  0  0
  150.2309  144.2041  159.1561 C   0  0  0  0  0  0  0  0  0  0  0  0
  150.5041  143.2527  158.1551 C   0  0  0  0  0  0  0  0  0  0  0  0
  151.5419  142.3152  158.3733 C   0  0  0  0  0  0  0  0  0  0  0  0
  151.8861  141.2989  157.4393 N   0  0  0  0  0  0  0  0  0  0  0  0
  151.3040  141.0001  156.2636 C   0  0  0  0  0  0  0  0  0  0  0  0
  150.3353  141.5974  155.7933 O   0  0  0  0  0  0  0  0  0  0  0  0
  151.9384  139.8280  155.4960 C   0  0  2  0  0  0  0  0  0  0  0  0
  150.9332  138.7532  155.0334 C   0  0  0  0  0  0  0  0  0  0  0  0
  151.3844  137.4857  155.7406 C   0  0  0  0  0  0  0  0  0  0  0  0
  152.1902  138.0159  156.9214 C   0  0  1  0  0  0  0  0  0  0  0  0
  153.2143  137.0225  157.4801 C   0  0  0  0  0  0  0  0  0  0  0  0
  152.8426  139.1478  156.3643 O   0  0  0  0  0  0  0  0  0  0  0  0
  152.2375  142.3653  159.6042 C   0  0  0  0  0  0  0  0  0  0  0  0
  153.5027  141.2348  159.9535 Cl  0  0  0  0  0  0  0  0  0  0  0  0
  153.6580  143.6636  161.7248 H   0  0  0  0  0  0  0  0  0  0  0  0
  152.4850  142.5532  162.4464 H   0  0  0  0  0  0  0  0  0  0  0  0
  152.1922  144.2926  162.4794 H   0  0  0  0  0  0  0  0  0  0  0  0
  149.4459  144.9322  159.0166 H   0  0  0  0  0  0  0  0  0  0  0  0
  149.9085  143.2528  157.2556 H   0  0  0  0  0  0  0  0  0  0  0  0
  152.7232  140.7787  157.6592 H   0  0  0  0  0  0  0  0  0  0  0  0
  152.5022  140.2089  154.6430 H   0  0  0  0  0  0  0  0  0  0  0  0
  149.9057  138.9951  155.3084 H   0  0  0  0  0  0  0  0  0  0  0  0
  150.9510  138.6252  153.9505 H   0  0  0  0  0  0  0  0  0  0  0  0
  150.5535  136.8494  156.0463 H   0  0  0  0  0  0  0  0  0  0  0  0
  152.0267  136.9063  155.0761 H   0  0  0  0  0  0  0  0  0  0  0  0
  151.5178  138.3445  157.7154 H   0  0  0  0  0  0  0  0  0  0  0  0
  152.7210  136.1340  157.8749 H   0  0  0  0  0  0  0  0  0  0  0  0
  153.7893  137.4724  158.2898 H   0  0  0  0  0  0  0  0  0  0  0  0
  153.9171  136.7028  156.7104 H   0  0  0  0  0  0  0  0  0  0  0  0
  1  2  1  0  0  0  0
  1 18  1  0  0  0  0
  1 19  1  0  0  0  0
  1 20  1  0  0  0  0
  2 16  1  0  0  0  0
  2  3  2  0  0  0  0
  3  4  1  0  0  0  0
  4  5  2  0  0  0  0
  4 21  1  0  0  0  0
  5  6  1  0  0  0  0
  5 22  1  0  0  0  0
  6  7  1  0  0  0  0
  6 16  2  0  0  0  0
  7  8  1  0  0  0  0
  7 23  1  0  0  0  0
  8  9  2  0  0  0  0
  8 10  1  0  0  0  0
 10 15  1  0  0  0  0
 10 11  1  0  0  0  0
 10 24  1  0  0  0  0
 11 12  1  0  0  0  0
 11 25  1  0  0  0  0
 11 26  1  0  0  0  0
 12 13  1  0  0  0  0
 12 27  1  0  0  0  0
 12 28  1  0  0  0  0
 13 14  1  0  0  0  0
 13 15  1  0  0  0  0
 13 29  1  0  0  0  0
 14 30  1  0  0  0  0
 14 31  1  0  0  0  0
 14 32  1  0  0  0  0
 16 17  1  0  0  0  0
M  END
> <s_m_source_file>
AV-unprocessed.smi

> <i_m_source_file_index>
2282

> <i_lp_mmshare_version>
43012

> <i_f3d_flags>
0

> <s_epik_input>
W0NIM11jMW5bY0hdW2NIXWMoYzFDbClbTkhdQyg9TylbQ0BASF0yW0NIMl1bQ0gyXVtDQEhdKE8yKVtDSDNd

> <s_epik_cmdline>
J2VwaWtfcHl0aG9uJywgJy1waCcsICc3LjAnLCAnLXRuJywgJzgnLCAnLW1hJywgJzIwMCcsICctbWV0YWxfYmluZGluZycsICctaW1hZScsICc8aW5maWxlLm1hZT4nLCAnLW9tYWUnLCAnPG91dGZpbGUubWFlPic=

> <r_epik_Ionization_Penalty>
0.00037231

> <r_epik_Ionization_Penalty_Charging>
0

> <r_epik_Ionization_Penalty_Neutral>
0.00037231

> <r_epik_State_Penalty>
0.000225113

> <r_epik_Charging_Adjusted_Penalty>
0.000225113

> <i_epik_Tot_Q>
0

> <i_epik_Tot_abs_Q>
0

> <r_epik_Metal_State_Penalty>
-0

> <b_epik_Metal_Only>
0

> <s_lp_Force_Field>
OPLS_2005

> <r_lp_Energy>
24.6828

> <b_lp_Chiralities_Consistent>
1

> <s_lp_Variant>
AV-unprocessed.smi:2282-1

> <Gold.Version>
5.8.1

> <Gold.Id.Protein>
6NUR|6NUR_protein|mol2

> <Gold.PLP.Fitness>
37.0787

> <Gold.PLP.PLP>
-31.4972

> <Gold.PLP.part.hbond>
-1.0000

> <Gold.PLP.part.metal>
0.0000

> <Gold.PLP.part.buried>
-3.5545

> <Gold.PLP.part.nonpolar>
-26.5059

> <Gold.PLP.part.repulsive>
0.3012

> <Gold.PLP.ligand.clash>
0.0000

> <Gold.PLP.ligand.torsion>
0.2108

> <Gold.PLP.Chemscore.Hbond>
1.0000

> <Gold.PLP.Chemscore.CHOScore>
0.9983

> <Gold.PLP.Chemscore.Metal>
0.0000

> <Gold.Chemscore.Hbonds>
donor molecule, donor type, donor heavy atom, donor atom, acceptor molecule, acceptor atom, score
      P1  H  7997  8008       L1    15  1.00
      L1  C     4    21       P1  8029  0.98

> <Gold.PLP.Chemscore.Internal.Correction>
0.0083

> <Gold.Rescore>
     Score         DG    S(hbond)    S(metal)    S(lipo)     H(rot)  DE(clash)    DE(int)     intcor
     15.51     -17.31       0.95        0.00      95.89       1.00       0.24       1.55       ----

> <Gold.Chemscore.Fitness>
15.5135

> <Gold.Chemscore.DG>
-17.3097

> <Gold.Chemscore.ZeroCoef>
-5.4800

> <Gold.Chemscore.Hbond>
0.9492

> <Gold.Chemscore.Metal>
0.0000

> <Gold.Chemscore.Lipo>
95.8917

> <Gold.Chemscore.Internal_Hbond>
0.0000

> <Gold.Chemscore.DEClash>
0.2425

> <Gold.Chemscore.DEInternal>
1.5537

> <Gold.Chemscore.Rot>
1.0000

> <Gold.Chemscore.Internal.Correction>
   9.000000E+99

> <Gold.Chemscore.Hbonds>
donor molecule, donor type, donor heavy atom, donor atom, acceptor molecule, acceptor atom, score
      P1  H  7997  8008       L1    15  0.70

> <Gold.Chemscore.Hbond.Weighted>
-3.1703

> <Gold.Chemscore.Metal.Weighted>
-0.0000

> <Gold.Chemscore.Lipo.Weighted>
-11.2193

> <Gold.Chemscore.Internal_Hbond.Weighted>
0.0000

> <Gold.Chemscore.DEClash.Weighted>
0.2425

> <Gold.Chemscore.DEInternal.Weighted>
1.5537

> <Gold.Chemscore.Rot.Weighted>
2.5600

> <Gold.Chemscore.Internal.Correction.Weighted>
   9.000000E+99

> <Gold.Protein.RotatedTorsions>
[ 6907 6896 6895 6894 ] final -131.07 input  -60.11 | X-H torsion
[ 7974 7965 7964 7962 ] final   85.20 input  175.53 | X-H torsion
[ 8008 7997 7996 7995 ] final  -51.51 input   59.86 | X-H torsion
[ 10167 10162 10161 10158 ] final  -34.29 input  -65.29 | X-H torsion
[ 10718 10713 10712 10709 ] final   49.67 input   66.30 | X-H torsion
[ 10763 10752 10751 10750 ] final -105.78 input  -60.55 | X-H torsion
[ 11005 11000 10999 10996 ] final   46.76 input  -57.11 | X-H torsion

> <Gold.Protein.ActiveResidues>
 VAL166  LYS551  ARG553  GLY616  TRP617  ASP618  TYR619  PRO620  LYS621  CYS622 
 ASP623  PHE694  ASN695  SER759  ASP760  ASP761  ALA762  ILE779  LEU786  VAL792 
 PHE793  MET794  SER795  GLU796  ALA797  LYS798  CYS799  TRP800  GLU811  SER814 

> <Gold.Protein.RotatedAtoms>
  150.9469  133.6593  159.2779 H   0  0  0  0  0  0  0  0  0  0  0  0  # atno 6907 bound_to 6896
  151.3963  135.0963  159.9551 H   0  0  0  0  0  0  0  0  0  0  0  0  # atno 6908 bound_to 6896
  152.5093  133.8972  159.7478 H   0  0  0  0  0  0  0  0  0  0  0  0  # atno 6909 bound_to 6896
  145.5887  139.2335  143.2312 H   0  0  0  0  0  0  0  0  0  0  0  0  # atno 7974 bound_to 7965
  154.4084  140.1246  156.4840 H   0  0  0  0  0  0  0  0  0  0  0  0  # atno 8008 bound_to 7997
  155.7056  140.3494  155.4932 H   0  0  0  0  0  0  0  0  0  0  0  0  # atno 8009 bound_to 7997
  155.9346  140.1076  157.1095 H   0  0  0  0  0  0  0  0  0  0  0  0  # atno 8010 bound_to 7997
  140.7188  143.3559  151.2061 H   0  0  0  0  0  0  0  0  0  0  0  0  # atno 10167 bound_to 10162
  157.4809  130.8315  149.8092 H   0  0  0  0  0  0  0  0  0  0  0  0  # atno 10718 bound_to 10713
  154.7969  135.4736  154.0183 H   0  0  0  0  0  0  0  0  0  0  0  0  # atno 10763 bound_to 10752
  153.1718  135.6826  153.8604 H   0  0  0  0  0  0  0  0  0  0  0  0  # atno 10764 bound_to 10752
  153.8184  135.3207  155.3385 H   0  0  0  0  0  0  0  0  0  0  0  0  # atno 10765 bound_to 10752
  140.1340  134.4669  155.8500 H   0  0  0  0  0  0  0  0  0  0  0  0  # atno 11005 bound_to 11000
  146.1663  140.6713  142.9254 LP  0  0  0  0  0  0  0  0  0  0  0  0  # atno 17320 bound_to 7965
  144.7361  140.4812  143.6903 LP  0  0  0  0  0  0  0  0  0  0  0  0  # atno 17321 bound_to 7965
  139.7100  143.9392  152.2943 LP  0  0  0  0  0  0  0  0  0  0  0  0  # atno 17342 bound_to 10162
  139.9114  144.6854  150.8558 LP  0  0  0  0  0  0  0  0  0  0  0  0  # atno 17343 bound_to 10162
  156.0121  130.3829  150.2230 LP  0  0  0  0  0  0  0  0  0  0  0  0  # atno 17370 bound_to 10713
  157.0416  131.0037  151.3282 LP  0  0  0  0  0  0  0  0  0  0  0  0  # atno 17371 bound_to 10713
  141.2175  133.6807  156.7122 LP  0  0  0  0  0  0  0  0  0  0  0  0  # atno 17394 bound_to 11000
  140.2806  134.8319  157.3930 LP  0  0  0  0  0  0  0  0  0  0  0  0  # atno 17395 bound_to 11000

$$$$
