AV-unprocessed.smi:21|AV-procd|sdf|148|dock5
  -GOLD-   2262015363D 1   1.00000     0.00000
 Structure written by MMmdl.
 62 65  0  0  0  0  0  0  0  0  2 V2000
  144.9187  136.5883  152.1793 C   0  0  0  0  0  0  0  0  0  0  0  0
  146.2102  136.4506  152.7509 O   0  0  0  0  0  0  0  0  0  0  0  0
  146.2049  136.3571  154.1696 C   0  0  2  0  0  0  0  0  0  0  0  0
  146.2686  137.7349  154.8298 C   0  0  0  0  0  0  0  0  0  0  0  0
  147.7615  138.1110  154.8390 C   0  0  2  0  0  0  0  0  0  0  0  0
  148.1546  139.1241  153.7428 C   0  0  0  0  0  0  0  0  0  0  0  0
  148.8045  140.3249  154.2731 N   0  0  0  0  0  0  0  0  0  0  0  0
  148.2072  141.6282  154.0062 C   0  0  0  0  0  0  0  0  0  0  0  0
  149.9019  140.2194  155.0776 C   0  0  0  0  0  0  0  0  0  0  0  0
  151.0164  139.6238  154.5722 N   0  0  0  0  0  0  0  0  0  0  0  0
  152.1178  139.4842  155.3137 C   0  0  0  0  0  0  0  0  0  0  0  0
  152.3231  139.8573  156.5759 N   0  0  0  0  0  0  0  0  0  0  0  0
  151.2154  140.4542  157.0992 C   0  0  0  0  0  0  0  0  0  0  0  0
  149.9764  140.6793  156.4294 C   0  0  0  0  0  0  0  0  0  0  0  0
  149.0928  141.3097  157.3007 N   0  0  0  0  0  0  0  0  0  0  0  0
  149.7639  141.4459  158.4105 C   0  0  0  0  0  0  0  0  0  0  0  0
  151.0416  140.9389  158.3838 N   0  0  0  0  0  0  0  0  0  0  0  0
  152.0005  140.9495  159.4745 C   0  0  0  0  0  0  0  0  0  0  0  0
  153.2462  141.8401  159.2255 C   0  0  2  0  0  0  0  0  0  0  0  0
  154.4348  141.2262  160.0056 C   0  0  0  0  0  0  0  0  0  0  0  0
  154.8378  139.9851  159.4641 O   0  0  0  0  0  0  0  0  0  0  0  0
  153.0080  143.3376  159.5945 C   0  0  1  0  0  0  0  0  0  0  0  0
  152.0718  144.1006  158.6697 C   0  0  0  0  0  0  0  0  0  0  0  0
  151.7018  145.3122  159.5111 C   0  0  0  0  0  0  0  0  0  0  0  0
  151.5554  144.7898  160.8213 O   0  0  0  0  0  0  0  0  0  0  0  0
  152.3283  143.5997  160.9500 C   0  0  0  0  0  0  0  0  0  0  0  0
  148.5008  136.8430  154.6282 N   0  3  1  0  0  0  0  0  0  0  0  0
  149.6383  136.6334  155.5488 C   0  0  0  0  0  0  0  0  0  0  0  0
  147.5271  135.7319  154.6058 C   0  0  0  0  0  0  0  0  0  0  0  0
  145.3567  135.7635  154.5149 H   0  0  0  0  0  0  0  0  0  0  0  0
  148.0077  138.5198  155.8202 H   0  0  0  0  0  0  0  0  0  0  0  0
  145.0062  136.6360  151.0939 H   0  0  0  0  0  0  0  0  0  0  0  0
  144.4203  137.4990  152.5115 H   0  0  0  0  0  0  0  0  0  0  0  0
  144.2863  135.7346  152.4256 H   0  0  0  0  0  0  0  0  0  0  0  0
  145.6286  138.4765  154.3555 H   0  0  0  0  0  0  0  0  0  0  0  0
  145.9247  137.6432  155.8610 H   0  0  0  0  0  0  0  0  0  0  0  0
  148.8121  138.6508  153.0124 H   0  0  0  0  0  0  0  0  0  0  0  0
  147.2662  139.4109  153.1791 H   0  0  0  0  0  0  0  0  0  0  0  0
  148.9634  142.3366  153.6664 H   0  0  0  0  0  0  0  0  0  0  0  0
  147.7298  142.0257  154.9020 H   0  0  0  0  0  0  0  0  0  0  0  0
  147.4466  141.5636  153.2280 H   0  0  0  0  0  0  0  0  0  0  0  0
  152.9529  139.0015  154.8277 H   0  0  0  0  0  0  0  0  0  0  0  0
  149.3388  141.9106  159.2882 H   0  0  0  0  0  0  0  0  0  0  0  0
  151.4960  141.2592  160.3904 H   0  0  0  0  0  0  0  0  0  0  0  0
  152.3042  139.9138  159.6314 H   0  0  0  0  0  0  0  0  0  0  0  0
  153.4866  141.7778  158.1630 H   0  0  0  0  0  0  0  0  0  0  0  0
  155.2825  141.9116  160.0287 H   0  0  0  0  0  0  0  0  0  0  0  0
  154.1615  141.0324  161.0430 H   0  0  0  0  0  0  0  0  0  0  0  0
  155.3626  139.5325  160.1068 H   0  0  0  0  0  0  0  0  0  0  0  0
  153.9681  143.8566  159.5886 H   0  0  0  0  0  0  0  0  0  0  0  0
  152.5352  144.3806  157.7234 H   0  0  0  0  0  0  0  0  0  0  0  0
  151.1777  143.5128  158.4572 H   0  0  0  0  0  0  0  0  0  0  0  0
  152.5104  146.0446  159.5064 H   0  0  0  0  0  0  0  0  0  0  0  0
  150.7906  145.8036  159.1692 H   0  0  0  0  0  0  0  0  0  0  0  0
  151.6533  142.7877  161.2211 H   0  0  0  0  0  0  0  0  0  0  0  0
  153.0533  143.7223  161.7533 H   0  0  0  0  0  0  0  0  0  0  0  0
  149.2999  136.5596  156.5833 H   0  0  0  0  0  0  0  0  0  0  0  0
  150.3432  137.4626  155.4771 H   0  0  0  0  0  0  0  0  0  0  0  0
  150.1694  135.7159  155.2942 H   0  0  0  0  0  0  0  0  0  0  0  0
  147.4162  135.3256  155.6126 H   0  0  0  0  0  0  0  0  0  0  0  0
  147.8514  134.9206  153.9532 H   0  0  0  0  0  0  0  0  0  0  0  0
  148.8789  136.8995  153.6929 H   0  0  0  0  0  0  0  0  0  0  0  0
  1  2  1  0  0  0  0
  1 32  1  0  0  0  0
  1 33  1  0  0  0  0
  1 34  1  0  0  0  0
  2  3  1  0  0  0  0
  3 30  1  0  0  0  0
  3 29  1  0  0  0  0
  3  4  1  0  0  0  0
  4  5  1  0  0  0  0
  4 35  1  0  0  0  0
  4 36  1  0  0  0  0
  5 31  1  0  0  0  0
  5  6  1  0  0  0  0
  5 27  1  0  0  0  0
  6  7  1  0  0  0  0
  6 37  1  0  0  0  0
  6 38  1  0  0  0  0
  7  8  1  0  0  0  0
  7  9  1  0  0  0  0
  8 39  1  0  0  0  0
  8 40  1  0  0  0  0
  8 41  1  0  0  0  0
  9 14  1  0  0  0  0
  9 10  2  0  0  0  0
 10 11  1  0  0  0  0
 11 12  2  0  0  0  0
 11 42  1  0  0  0  0
 12 13  1  0  0  0  0
 13 17  1  0  0  0  0
 13 14  2  0  0  0  0
 14 15  1  0  0  0  0
 15 16  2  0  0  0  0
 16 17  1  0  0  0  0
 16 43  1  0  0  0  0
 17 18  1  0  0  0  0
 18 19  1  0  0  0  0
 18 44  1  0  0  0  0
 18 45  1  0  0  0  0
 19 20  1  0  0  0  0
 19 22  1  0  0  0  0
 19 46  1  0  0  0  0
 20 21  1  0  0  0  0
 20 47  1  0  0  0  0
 20 48  1  0  0  0  0
 21 49  1  0  0  0  0
 22 26  1  0  0  0  0
 22 23  1  0  0  0  0
 22 50  1  0  0  0  0
 23 24  1  0  0  0  0
 23 51  1  0  0  0  0
 23 52  1  0  0  0  0
 24 25  1  0  0  0  0
 24 53  1  0  0  0  0
 24 54  1  0  0  0  0
 25 26  1  0  0  0  0
 26 55  1  0  0  0  0
 26 56  1  0  0  0  0
 27 28  1  0  0  0  0
 27 29  1  0  0  0  0
 27 62  1  0  0  0  0
 28 57  1  0  0  0  0
 28 58  1  0  0  0  0
 28 59  1  0  0  0  0
 29 60  1  0  0  0  0
 29 61  1  0  0  0  0
M  CHG  1  27   1
M  END
> <s_m_source_file>
AV-unprocessed.smi

> <i_m_source_file_index>
21

> <i_lp_mmshare_version>
43012

> <i_f3d_flags>
0

> <s_epik_input>
W0NIM11PW0NASF0xW0NIMl1bQ0BIXShOKFtDSDNdKVtDSDJdMSlbQ0gyXU4oW0NIM10pYyhuW2NIXW4yKWMoYzIzKW5bY0hdbjNbQ0gyXVtDQEhdKFtDSDJdW09IXSlbQ0BASF00W0NIMl1bQ0gyXU9bQ0gyXTQ=

> <s_epik_cmdline>
J2VwaWtfcHl0aG9uJywgJy1waCcsICc3LjAnLCAnLXRuJywgJzgnLCAnLW1hJywgJzIwMCcsICctbWV0YWxfYmluZGluZycsICctaW1hZScsICc8aW5maWxlLm1hZT4nLCAnLW9tYWUnLCAnPG91dGZpbGUubWFlPic=

> <r_lp_tautomer_probability>
1

> <r_epik_Ionization_Penalty>
0.0157465

> <r_epik_Ionization_Penalty_Charging>
0.015354

> <r_epik_Ionization_Penalty_Neutral>
0.000392529

> <r_epik_State_Penalty>
0.0120612

> <r_epik_Charging_Adjusted_Penalty>
0.0274152

> <i_epik_Tot_Q>
1

> <i_epik_Tot_abs_Q>
1

> <r_epik_Metal_State_Penalty>
0.0121253

> <b_epik_Metal_Only>
0

> <s_lp_Force_Field>
OPLS_2005

> <r_lp_Energy>
58.7805

> <b_lp_Chiralities_Consistent>
1

> <s_lp_Variant>
AV-unprocessed.smi:21-28

> <Gold.Version>
5.8.1

> <Gold.Id.Protein>
6NUR|6NUR_protein|mol2

> <Gold.PLP.Fitness>
56.3751

> <Gold.PLP.PLP>
-50.4018

> <Gold.PLP.part.hbond>
-3.9686

> <Gold.PLP.part.metal>
0.0000

> <Gold.PLP.part.buried>
-4.8453

> <Gold.PLP.part.nonpolar>
-41.5924

> <Gold.PLP.part.repulsive>
0.8595

> <Gold.PLP.ligand.clash>
0.0000

> <Gold.PLP.ligand.torsion>
2.7084

> <Gold.PLP.Chemscore.Hbond>
3.6920

> <Gold.PLP.Chemscore.CHOScore>
0.0000

> <Gold.PLP.Chemscore.Metal>
0.0000

> <Gold.Chemscore.Hbonds>
donor molecule, donor type, donor heavy atom, donor atom, acceptor molecule, acceptor atom, score
      L1  H    27    62       P1  7948  2.00
      P1  H  7989  7998       L1    10  0.85
      P1  H  7997  8010       L1    21  0.67

> <Gold.PLP.Chemscore.Internal.Correction>
0.3140

> <Gold.Rescore>
     Score         DG    S(hbond)    S(metal)    S(lipo)     H(rot)  DE(clash)    DE(int)     intcor
     13.24     -16.53       1.95        0.00     106.14       3.08       0.31       2.98       ----

> <Gold.Chemscore.Fitness>
13.2436

> <Gold.Chemscore.DG>
-16.5327

> <Gold.Chemscore.ZeroCoef>
-5.4800

> <Gold.Chemscore.Hbond>
1.9486

> <Gold.Chemscore.Metal>
0.0000

> <Gold.Chemscore.Lipo>
106.1417

> <Gold.Chemscore.Internal_Hbond>
0.0000

> <Gold.Chemscore.DEClash>
0.3140

> <Gold.Chemscore.DEInternal>
2.9751

> <Gold.Chemscore.Rot>
3.0758

> <Gold.Chemscore.Internal.Correction>
   9.000000E+99

> <Gold.Chemscore.Hbonds>
donor molecule, donor type, donor heavy atom, donor atom, acceptor molecule, acceptor atom, score
      L1  H    27    62       P1  7948  0.95
      P1  H  7989  7998       L1    10  0.05
      P1  H  7997  8010       L1    21  0.53

> <Gold.Chemscore.Hbond.Weighted>
-6.5082

> <Gold.Chemscore.Metal.Weighted>
-0.0000

> <Gold.Chemscore.Lipo.Weighted>
-12.4186

> <Gold.Chemscore.Internal_Hbond.Weighted>
0.0000

> <Gold.Chemscore.DEClash.Weighted>
0.3140

> <Gold.Chemscore.DEInternal.Weighted>
2.9751

> <Gold.Chemscore.Rot.Weighted>
7.8741

> <Gold.Chemscore.Internal.Correction.Weighted>
   9.000000E+99

> <Gold.Protein.RotatedTorsions>
[ 6907 6896 6895 6894 ] final  173.30 input  -60.11 | X-H torsion
[ 7974 7965 7964 7962 ] final -115.44 input  175.53 | X-H torsion
[ 8008 7997 7996 7995 ] final    6.73 input   59.86 | X-H torsion
[ 10167 10162 10161 10158 ] final  -32.82 input  -65.29 | X-H torsion
[ 10718 10713 10712 10709 ] final  164.52 input   66.30 | X-H torsion
[ 10763 10752 10751 10750 ] final  -56.50 input  -60.55 | X-H torsion
[ 11005 11000 10999 10996 ] final  -19.95 input  -57.11 | X-H torsion

> <Gold.Protein.ActiveResidues>
 VAL166  LYS551  ARG553  GLY616  TRP617  ASP618  TYR619  PRO620  LYS621  CYS622 
 ASP623  PHE694  ASN695  SER759  ASP760  ASP761  ALA762  ILE779  LEU786  VAL792 
 PHE793  MET794  SER795  GLU796  ALA797  LYS798  CYS799  TRP800  GLU811  SER814 

> <Gold.Protein.RotatedAtoms>
  151.7705  133.3341  159.3442 H   0  0  0  0  0  0  0  0  0  0  0  0  # atno 6907 bound_to 6896
  150.7463  134.6023  159.6052 H   0  0  0  0  0  0  0  0  0  0  0  0  # atno 6908 bound_to 6896
  152.3344  134.7219  160.0332 H   0  0  0  0  0  0  0  0  0  0  0  0  # atno 6909 bound_to 6896
  145.1084  140.8596  143.3884 H   0  0  0  0  0  0  0  0  0  0  0  0  # atno 7974 bound_to 7965
  154.7447  140.2755  155.6343 H   0  0  0  0  0  0  0  0  0  0  0  0  # atno 8008 bound_to 7997
  156.2882  140.2690  156.2111 H   0  0  0  0  0  0  0  0  0  0  0  0  # atno 8009 bound_to 7997
  155.0213  140.0371  157.2428 H   0  0  0  0  0  0  0  0  0  0  0  0  # atno 8010 bound_to 7997
  140.7215  143.3666  151.1859 H   0  0  0  0  0  0  0  0  0  0  0  0  # atno 10167 bound_to 10162
  157.0932  131.0423  151.2528 H   0  0  0  0  0  0  0  0  0  0  0  0  # atno 10718 bound_to 10713
  154.2076  135.6400  153.5105 H   0  0  0  0  0  0  0  0  0  0  0  0  # atno 10763 bound_to 10752
  152.9997  135.5466  154.6249 H   0  0  0  0  0  0  0  0  0  0  0  0  # atno 10764 bound_to 10752
  154.5678  135.2914  155.0831 H   0  0  0  0  0  0  0  0  0  0  0  0  # atno 10765 bound_to 10752
  140.8417  133.7921  155.9868 H   0  0  0  0  0  0  0  0  0  0  0  0  # atno 11005 bound_to 11000
  145.0875  139.2914  143.5752 LP  0  0  0  0  0  0  0  0  0  0  0  0  # atno 17320 bound_to 7965
  146.3527  140.0401  142.8643 LP  0  0  0  0  0  0  0  0  0  0  0  0  # atno 17321 bound_to 7965
  139.7229  143.9195  152.2992 LP  0  0  0  0  0  0  0  0  0  0  0  0  # atno 17342 bound_to 10162
  139.8958  144.6940  150.8720 LP  0  0  0  0  0  0  0  0  0  0  0  0  # atno 17343 bound_to 10162
  157.4703  130.7705  149.7317 LP  0  0  0  0  0  0  0  0  0  0  0  0  # atno 17370 bound_to 10713
  155.9892  130.3953  150.3082 LP  0  0  0  0  0  0  0  0  0  0  0  0  # atno 17371 bound_to 10713
  140.8888  134.2521  157.5105 LP  0  0  0  0  0  0  0  0  0  0  0  0  # atno 17394 bound_to 11000
  139.8703  134.9651  156.4518 LP  0  0  0  0  0  0  0  0  0  0  0  0  # atno 17395 bound_to 11000

$$$$
