AV-unprocessed.smi:1853|AV-procd|sdf|7528|dock8
  -GOLD-   22720 9243D 1   1.00000     0.00000
 Structure written by MMmdl.
 43 45  0  0  0  0  0  0  0  0  2 V2000
  152.6116  143.4503  162.2808 C   0  0  0  0  0  0  0  0  0  0  0  0
  152.1498  143.1973  160.8605 C   0  0  0  0  0  0  0  0  0  0  0  0
  151.1564  144.0089  160.2782 C   0  0  0  0  0  0  0  0  0  0  0  0
  150.7320  143.7665  158.9579 C   0  0  0  0  0  0  0  0  0  0  0  0
  151.2881  142.7154  158.2004 C   0  0  0  0  0  0  0  0  0  0  0  0
  150.8169  142.5525  156.9158 O   0  0  0  0  0  0  0  0  0  0  0  0
  151.5367  141.6970  156.0379 C   0  0  0  0  0  0  0  0  0  0  0  0
  150.9988  140.2657  156.1729 C   0  0  0  0  0  0  0  0  0  0  0  0
  150.1640  139.8732  155.0283 N   0  0  0  0  0  0  0  0  0  0  0  0
  150.3311  138.8788  154.1088 C   0  0  0  0  0  0  0  0  0  0  0  0
  151.4637  137.8964  154.0503 C   0  0  0  0  0  0  0  0  0  0  0  0
  151.0427  136.5020  153.9484 N   0  0  0  0  0  0  0  0  0  0  0  0
  151.5103  135.5006  154.7079 C   0  0  0  0  0  0  0  0  0  0  0  0
  152.3197  135.6433  155.6225 O   0  0  0  0  0  0  0  0  0  0  0  0
  149.2733  138.9480  153.2492 N   0  3  0  0  0  0  0  0  0  0  0  0
  148.4158  139.9789  153.6327 C   0  0  0  0  0  0  0  0  0  0  0  0
  147.2177  140.4217  153.0805 C   0  0  0  0  0  0  0  0  0  0  0  0
  146.5867  141.5059  153.7252 C   0  0  0  0  0  0  0  0  0  0  0  0
  147.1475  142.1058  154.8716 C   0  0  0  0  0  0  0  0  0  0  0  0
  148.3634  141.6484  155.4213 C   0  0  0  0  0  0  0  0  0  0  0  0
  148.9809  140.5766  154.7771 C   0  0  0  0  0  0  0  0  0  0  0  0
  152.2846  141.9000  158.7941 C   0  0  0  0  0  0  0  0  0  0  0  0
  152.7103  142.1419  160.1148 C   0  0  0  0  0  0  0  0  0  0  0  0
  152.3109  144.4410  162.6233 H   0  0  0  0  0  0  0  0  0  0  0  0
  153.6981  143.3853  162.3470 H   0  0  0  0  0  0  0  0  0  0  0  0
  152.1811  142.7088  162.9540 H   0  0  0  0  0  0  0  0  0  0  0  0
  150.7156  144.8194  160.8401 H   0  0  0  0  0  0  0  0  0  0  0  0
  149.9680  144.3936  158.5232 H   0  0  0  0  0  0  0  0  0  0  0  0
  151.4288  142.0344  155.0060 H   0  0  0  0  0  0  0  0  0  0  0  0
  152.5985  141.7101  156.2880 H   0  0  0  0  0  0  0  0  0  0  0  0
  151.8147  139.5499  156.2760 H   0  0  0  0  0  0  0  0  0  0  0  0
  150.3950  140.1739  157.0761 H   0  0  0  0  0  0  0  0  0  0  0  0
  152.0842  138.1340  153.1862 H   0  0  0  0  0  0  0  0  0  0  0  0
  152.0968  138.0136  154.9305 H   0  0  0  0  0  0  0  0  0  0  0  0
  150.3771  136.2772  153.2230 H   0  0  0  0  0  0  0  0  0  0  0  0
  151.0698  134.5381  154.4049 H   0  0  0  0  0  0  0  0  0  0  0  0
  146.7853  139.9621  152.2039 H   0  0  0  0  0  0  0  0  0  0  0  0
  145.6532  141.8836  153.3338 H   0  0  0  0  0  0  0  0  0  0  0  0
  146.6342  142.9331  155.3398 H   0  0  0  0  0  0  0  0  0  0  0  0
  148.7832  142.1129  156.3013 H   0  0  0  0  0  0  0  0  0  0  0  0
  152.7400  141.0818  158.2574 H   0  0  0  0  0  0  0  0  0  0  0  0
  153.4708  141.5130  160.5545 H   0  0  0  0  0  0  0  0  0  0  0  0
  149.1446  138.3216  152.4652 H   0  0  0  0  0  0  0  0  0  0  0  0
  1  2  1  0  0  0  0
  1 24  1  0  0  0  0
  1 25  1  0  0  0  0
  1 26  1  0  0  0  0
  2 23  1  0  0  0  0
  2  3  2  0  0  0  0
  3  4  1  0  0  0  0
  3 27  1  0  0  0  0
  4  5  2  0  0  0  0
  4 28  1  0  0  0  0
  5  6  1  0  0  0  0
  5 22  1  0  0  0  0
  6  7  1  0  0  0  0
  7  8  1  0  0  0  0
  7 29  1  0  0  0  0
  7 30  1  0  0  0  0
  8  9  1  0  0  0  0
  8 31  1  0  0  0  0
  8 32  1  0  0  0  0
  9 21  1  0  0  0  0
  9 10  1  0  0  0  0
 10 11  1  0  0  0  0
 10 15  2  0  0  0  0
 11 12  1  0  0  0  0
 11 33  1  0  0  0  0
 11 34  1  0  0  0  0
 12 13  1  0  0  0  0
 12 35  1  0  0  0  0
 13 14  2  0  0  0  0
 13 36  1  0  0  0  0
 15 16  1  0  0  0  0
 15 43  1  0  0  0  0
 16 21  2  0  0  0  0
 16 17  1  0  0  0  0
 17 18  2  0  0  0  0
 17 37  1  0  0  0  0
 18 19  1  0  0  0  0
 18 38  1  0  0  0  0
 19 20  2  0  0  0  0
 19 39  1  0  0  0  0
 20 21  1  0  0  0  0
 20 40  1  0  0  0  0
 22 23  2  0  0  0  0
 22 41  1  0  0  0  0
 23 42  1  0  0  0  0
M  CHG  1  15   1
M  END
> <s_m_source_file>
AV-unprocessed.smi

> <i_m_source_file_index>
1853

> <i_lp_mmshare_version>
43012

> <i_f3d_flags>
0

> <s_epik_input>
W0NIM11jMVtjSF1bY0hdYyhbY0hdW2NIXTEpT1tDSDJdW0NIMl1uKGMobjIpW0NIMl1bTkhdW0NIXT1PKWMoYzIzKVtjSF1bY0hdW2NIXVtjSF0z

> <s_epik_cmdline>
J2VwaWtfcHl0aG9uJywgJy1waCcsICc3LjAnLCAnLXRuJywgJzgnLCAnLW1hJywgJzIwMCcsICctbWV0YWxfYmluZGluZycsICctaW1hZScsICc8aW5maWxlLm1hZT4nLCAnLW9tYWUnLCAnPG91dGZpbGUubWFlPic=

> <r_lp_tautomer_probability>
1

> <r_epik_Ionization_Penalty>
1.39966

> <r_epik_Ionization_Penalty_Charging>
1.39966

> <r_epik_Ionization_Penalty_Neutral>
7.38905e-08

> <r_epik_State_Penalty>
1.4817

> <r_epik_Charging_Adjusted_Penalty>
2.88136

> <i_epik_Tot_Q>
1

> <i_epik_Tot_abs_Q>
1

> <r_epik_Metal_State_Penalty>
1.53574

> <b_epik_Metal_Only>
0

> <s_lp_Force_Field>
OPLS_2005

> <r_lp_Energy>
13.1997

> <b_lp_Chiralities_Consistent>
1

> <s_lp_Variant>
AV-unprocessed.smi:1853-2

> <Gold.Version>
5.8.1

> <Gold.Id.Protein>
6NUR|6NUR_protein|mol2

> <Gold.PLP.Fitness>
58.8457

> <Gold.PLP.PLP>
-48.3787

> <Gold.PLP.part.hbond>
-4.9831

> <Gold.PLP.part.metal>
0.0000

> <Gold.PLP.part.buried>
-1.4947

> <Gold.PLP.part.nonpolar>
-41.6140

> <Gold.PLP.part.repulsive>
0.2543

> <Gold.PLP.ligand.clash>
0.0000

> <Gold.PLP.ligand.torsion>
0.7921

> <Gold.PLP.Chemscore.Hbond>
4.0000

> <Gold.PLP.Chemscore.CHOScore>
0.0000

> <Gold.PLP.Chemscore.Metal>
0.0000

> <Gold.Chemscore.Hbonds>
donor molecule, donor type, donor heavy atom, donor atom, acceptor molecule, acceptor atom, score
      L1  H    12    35       P1  7948  0.05
      L1  H    15    43       P1  7948  1.33

> <Gold.PLP.Chemscore.Internal.Correction>
0.0513

> <Gold.Rescore>
     Score         DG    S(hbond)    S(metal)    S(lipo)     H(rot)  DE(clash)    DE(int)     intcor
     17.77     -19.86       1.86        0.00     123.75       2.46       0.29       1.80       ----

> <Gold.Chemscore.Fitness>
17.7749

> <Gold.Chemscore.DG>
-19.8598

> <Gold.Chemscore.ZeroCoef>
-5.4800

> <Gold.Chemscore.Hbond>
1.8561

> <Gold.Chemscore.Metal>
0.0000

> <Gold.Chemscore.Lipo>
123.7504

> <Gold.Chemscore.Internal_Hbond>
0.0000

> <Gold.Chemscore.DEClash>
0.2884

> <Gold.Chemscore.DEInternal>
1.7965

> <Gold.Chemscore.Rot>
2.4603

> <Gold.Chemscore.Internal.Correction>
   9.000000E+99

> <Gold.Chemscore.Hbonds>
donor molecule, donor type, donor heavy atom, donor atom, acceptor molecule, acceptor atom, score
      L1  H    15    43       P1  7948  0.62

> <Gold.Chemscore.Hbond.Weighted>
-6.1993

> <Gold.Chemscore.Metal.Weighted>
-0.0000

> <Gold.Chemscore.Lipo.Weighted>
-14.4788

> <Gold.Chemscore.Internal_Hbond.Weighted>
0.0000

> <Gold.Chemscore.DEClash.Weighted>
0.2884

> <Gold.Chemscore.DEInternal.Weighted>
1.7965

> <Gold.Chemscore.Rot.Weighted>
6.2983

> <Gold.Chemscore.Internal.Correction.Weighted>
   9.000000E+99

> <Gold.Protein.RotatedTorsions>
[ 6907 6896 6895 6894 ] final  -55.62 input  -60.11 | X-H torsion
[ 7974 7965 7964 7962 ] final    1.31 input  175.53 | X-H torsion
[ 8008 7997 7996 7995 ] final   40.92 input   59.86 | X-H torsion
[ 10167 10162 10161 10158 ] final  116.91 input  -65.29 | X-H torsion
[ 10718 10713 10712 10709 ] final  124.48 input   66.30 | X-H torsion
[ 10763 10752 10751 10750 ] final   97.93 input  -60.55 | X-H torsion
[ 11005 11000 10999 10996 ] final -131.53 input  -57.11 | X-H torsion

> <Gold.Protein.ActiveResidues>
 VAL166  LYS551  ARG553  GLY616  TRP617  ASP618  TYR619  PRO620  LYS621  CYS622 
 ASP623  PHE694  ASN695  SER759  ASP760  ASP761  ALA762  ILE779  LEU786  VAL792 
 PHE793  MET794  SER795  GLU796  ALA797  LYS798  CYS799  TRP800  GLU811  SER814 

> <Gold.Protein.RotatedAtoms>
  150.8236  134.7456  159.6793 H   0  0  0  0  0  0  0  0  0  0  0  0  # atno 6907 bound_to 6896
  152.4349  134.5702  159.9929 H   0  0  0  0  0  0  0  0  0  0  0  0  # atno 6908 bound_to 6896
  151.5880  133.3332  159.3058 H   0  0  0  0  0  0  0  0  0  0  0  0  # atno 6909 bound_to 6896
  146.2439  140.1007  142.8348 H   0  0  0  0  0  0  0  0  0  0  0  0  # atno 7974 bound_to 7965
  155.2611  140.3359  155.4273 H   0  0  0  0  0  0  0  0  0  0  0  0  # atno 8008 bound_to 7997
  156.2174  140.1795  156.7599 H   0  0  0  0  0  0  0  0  0  0  0  0  # atno 8009 bound_to 7997
  154.5774  140.0659  156.9039 H   0  0  0  0  0  0  0  0  0  0  0  0  # atno 8010 bound_to 7997
  139.6214  144.7101  151.2626 H   0  0  0  0  0  0  0  0  0  0  0  0  # atno 10167 bound_to 10162
  157.5582  131.1091  150.8585 H   0  0  0  0  0  0  0  0  0  0  0  0  # atno 10718 bound_to 10713
  153.2828  135.4166  155.1095 H   0  0  0  0  0  0  0  0  0  0  0  0  # atno 10763 bound_to 10752
  154.8495  135.3499  154.6088 H   0  0  0  0  0  0  0  0  0  0  0  0  # atno 10764 bound_to 10752
  153.6509  135.7053  153.5267 H   0  0  0  0  0  0  0  0  0  0  0  0  # atno 10765 bound_to 10752
  140.9251  134.1394  157.4282 H   0  0  0  0  0  0  0  0  0  0  0  0  # atno 11005 bound_to 11000
  145.0571  140.9060  143.4961 LP  0  0  0  0  0  0  0  0  0  0  0  0  # atno 17320 bound_to 7965
  145.1115  139.2754  143.5635 LP  0  0  0  0  0  0  0  0  0  0  0  0  # atno 17321 bound_to 7965
  140.7384  143.6648  150.8133 LP  0  0  0  0  0  0  0  0  0  0  0  0  # atno 17342 bound_to 10162
  140.0259  143.5494  152.2781 LP  0  0  0  0  0  0  0  0  0  0  0  0  # atno 17343 bound_to 10162
  156.9090  130.5274  149.5281 LP  0  0  0  0  0  0  0  0  0  0  0  0  # atno 17370 bound_to 10713
  156.0638  130.5685  150.9246 LP  0  0  0  0  0  0  0  0  0  0  0  0  # atno 17371 bound_to 10713
  139.8783  134.9985  156.5904 LP  0  0  0  0  0  0  0  0  0  0  0  0  # atno 17394 bound_to 11000
  140.7937  133.8561  155.8668 LP  0  0  0  0  0  0  0  0  0  0  0  0  # atno 17395 bound_to 11000

$$$$
