AV-unprocessed.smi:2440|AV-procd|sdf|9618|dock9
  -GOLD-   2272013253D 1   1.00000     0.00000
 Structure written by MMmdl.
 53 55  0  0  0  0  0  0  0  0  3 V2000
  152.9330  140.5195  159.6698 C   0  0  0  0  0  0  0  0  0  0  0  0
  152.3533  141.9220  159.7351 C   0  0  0  0  0  0  0  0  0  0  0  0
  152.7092  142.7730  160.8044 C   0  0  0  0  0  0  0  0  0  0  0  0
  152.1999  144.0209  160.8768 N   0  3  0  0  0  0  0  0  0  0  0  0
  151.3409  144.5128  159.9601 C   0  0  0  0  0  0  0  0  0  0  0  0
  150.9457  143.7147  158.8685 C   0  0  0  0  0  0  0  0  0  0  0  0
  151.4651  142.4010  158.7379 C   0  0  0  0  0  0  0  0  0  0  0  0
  151.0953  141.5280  157.6757 N   0  0  0  0  0  0  0  0  0  0  0  0
  149.9357  141.4828  156.9974 C   0  0  0  0  0  0  0  0  0  0  0  0
  148.9797  142.2366  157.1784 O   0  0  0  0  0  0  0  0  0  0  0  0
  149.9538  140.5141  156.0699 N   0  0  0  0  0  0  0  0  0  0  0  0
  148.8642  140.1910  155.1516 C   0  0  2  0  0  0  0  0  0  0  0  0
  148.5515  141.4077  154.2612 C   0  0  0  0  0  0  0  0  0  0  0  0
  147.3014  141.1534  153.3969 C   0  0  0  0  0  0  0  0  0  0  0  0
  146.1104  140.8219  154.2314 N   0  3  2  0  0  0  0  0  0  0  0  0
  145.5323  141.9644  155.0213 C   0  0  0  0  0  0  0  0  0  0  0  0
  144.1717  141.5880  155.6684 C   0  0  0  0  0  0  0  0  0  0  0  0
  143.5241  142.7573  156.4267 C   0  0  0  0  0  0  0  0  0  0  0  0
  143.3428  143.9786  155.5211 C   0  0  0  0  0  0  0  0  0  0  0  0
  144.6884  144.3971  154.9222 C   0  0  0  0  0  0  0  0  0  0  0  0
  145.3451  143.2392  154.1540 C   0  0  0  0  0  0  0  0  0  0  0  0
  146.3985  139.5843  155.0132 C   0  0  0  0  0  0  0  0  0  0  0  0
  147.6150  139.7611  155.9437 C   0  0  0  0  0  0  0  0  0  0  0  0
  153.5953  140.3249  160.5140 H   0  0  0  0  0  0  0  0  0  0  0  0
  153.5090  140.3879  158.7534 H   0  0  0  0  0  0  0  0  0  0  0  0
  152.1368  139.7748  159.6882 H   0  0  0  0  0  0  0  0  0  0  0  0
  153.3817  142.4949  161.6030 H   0  0  0  0  0  0  0  0  0  0  0  0
  150.9921  145.5212  160.1288 H   0  0  0  0  0  0  0  0  0  0  0  0
  150.2411  144.1209  158.1589 H   0  0  0  0  0  0  0  0  0  0  0  0
  151.8243  140.9098  157.3506 H   0  0  0  0  0  0  0  0  0  0  0  0
  150.7894  139.9525  155.9920 H   0  0  0  0  0  0  0  0  0  0  0  0
  149.1485  139.3655  154.4963 H   0  0  0  0  0  0  0  0  0  0  0  0
  148.4066  142.2989  154.8728 H   0  0  0  0  0  0  0  0  0  0  0  0
  149.4050  141.6196  153.6157 H   0  0  0  0  0  0  0  0  0  0  0  0
  147.1158  141.9833  152.7186 H   0  0  0  0  0  0  0  0  0  0  0  0
  147.4979  140.3067  152.7375 H   0  0  0  0  0  0  0  0  0  0  0  0
  146.2229  142.2154  155.8264 H   0  0  0  0  0  0  0  0  0  0  0  0
  143.4848  141.2304  154.9001 H   0  0  0  0  0  0  0  0  0  0  0  0
  144.2872  140.7782  156.3865 H   0  0  0  0  0  0  0  0  0  0  0  0
  142.5584  142.4491  156.8285 H   0  0  0  0  0  0  0  0  0  0  0  0
  144.1430  143.0256  157.2839 H   0  0  0  0  0  0  0  0  0  0  0  0
  142.6366  143.7473  154.7225 H   0  0  0  0  0  0  0  0  0  0  0  0
  142.9127  144.8046  156.0882 H   0  0  0  0  0  0  0  0  0  0  0  0
  144.5475  145.2500  154.2575 H   0  0  0  0  0  0  0  0  0  0  0  0
  145.3547  144.7333  155.7178 H   0  0  0  0  0  0  0  0  0  0  0  0
  146.3021  143.6115  153.7920 H   0  0  0  0  0  0  0  0  0  0  0  0
  144.7454  143.0023  153.2742 H   0  0  0  0  0  0  0  0  0  0  0  0
  145.5315  139.2312  155.5666 H   0  0  0  0  0  0  0  0  0  0  0  0
  146.6128  138.7817  154.3059 H   0  0  0  0  0  0  0  0  0  0  0  0
  147.8149  138.8239  156.4647 H   0  0  0  0  0  0  0  0  0  0  0  0
  147.3870  140.4936  156.7188 H   0  0  0  0  0  0  0  0  0  0  0  0
  145.3845  140.5676  153.5764 H   0  0  0  0  0  0  0  0  0  0  0  0
  152.4718  144.6154  161.6603 H   0  0  0  0  0  0  0  0  0  0  0  0
  1  2  1  0  0  0  0
  1 24  1  0  0  0  0
  1 25  1  0  0  0  0
  1 26  1  0  0  0  0
  2  7  1  0  0  0  0
  2  3  2  0  0  0  0
  3  4  1  0  0  0  0
  3 27  1  0  0  0  0
  4  5  2  0  0  0  0
  4 53  1  0  0  0  0
  5  6  1  0  0  0  0
  5 28  1  0  0  0  0
  6  7  2  0  0  0  0
  6 29  1  0  0  0  0
  7  8  1  0  0  0  0
  8  9  1  0  0  0  0
  8 30  1  0  0  0  0
  9 10  2  0  0  0  0
  9 11  1  0  0  0  0
 11 12  1  0  0  0  0
 11 31  1  0  0  0  0
 12 23  1  0  0  0  0
 12 13  1  0  0  0  0
 12 32  1  0  0  0  0
 13 14  1  0  0  0  0
 13 33  1  0  0  0  0
 13 34  1  0  0  0  0
 14 15  1  0  0  0  0
 14 35  1  0  0  0  0
 14 36  1  0  0  0  0
 15 16  1  0  0  0  0
 15 22  1  0  0  0  0
 15 52  1  0  0  0  0
 16 21  1  0  0  0  0
 16 17  1  0  0  0  0
 16 37  1  0  0  0  0
 17 18  1  0  0  0  0
 17 38  1  0  0  0  0
 17 39  1  0  0  0  0
 18 19  1  0  0  0  0
 18 40  1  0  0  0  0
 18 41  1  0  0  0  0
 19 20  1  0  0  0  0
 19 42  1  0  0  0  0
 19 43  1  0  0  0  0
 20 21  1  0  0  0  0
 20 44  1  0  0  0  0
 20 45  1  0  0  0  0
 21 46  1  0  0  0  0
 21 47  1  0  0  0  0
 22 23  1  0  0  0  0
 22 48  1  0  0  0  0
 22 49  1  0  0  0  0
 23 50  1  0  0  0  0
 23 51  1  0  0  0  0
M  CHG  1   4   1
M  CHG  1  15   1
M  END
> <s_m_source_file>
AV-unprocessed.smi

> <i_m_source_file_index>
2440

> <i_lp_mmshare_version>
43012

> <i_f3d_flags>
0

> <s_epik_input>
W0NIM11jMVtjSF1uW2NIXVtjSF1jMVtOSF1DKD1PKVtOSF1bQ0hdMltDSDJdW0NIMl1OKFtDSDJdW0NIMl0yKVtDSF0zW0NIMl1bQ0gyXVtDSDJdW0NIMl1bQ0gyXTM=

> <s_epik_cmdline>
J2VwaWtfcHl0aG9uJywgJy1waCcsICc3LjAnLCAnLXRuJywgJzgnLCAnLW1hJywgJzIwMCcsICctbWV0YWxfYmluZGluZycsICctaW1hZScsICc8aW5maWxlLm1hZT4nLCAnLW9tYWUnLCAnPG91dGZpbGUubWFlPic=

> <r_epik_Ionization_Penalty>
0.799454

> <r_epik_Ionization_Penalty_Charging>
0.799436

> <r_epik_Ionization_Penalty_Neutral>
1.84398e-05

> <r_epik_State_Penalty>
0.81805

> <r_epik_Charging_Adjusted_Penalty>
1.61749

> <i_epik_Tot_Q>
2

> <i_epik_Tot_abs_Q>
2

> <r_epik_Metal_State_Penalty>
0.955144

> <b_epik_Metal_Only>
0

> <s_lp_Force_Field>
OPLS_2005

> <r_lp_Energy>
43.248

> <b_lp_Chiralities_Consistent>
1

> <s_lp_Variant>
AV-unprocessed.smi:2440-4

> <Gold.Version>
5.8.1

> <Gold.Id.Protein>
6NUR|6NUR_protein|mol2

> <Gold.PLP.Fitness>
41.6153

> <Gold.PLP.PLP>
-36.1356

> <Gold.PLP.part.hbond>
-1.0000

> <Gold.PLP.part.metal>
0.0000

> <Gold.PLP.part.buried>
-8.1307

> <Gold.PLP.part.nonpolar>
-29.8799

> <Gold.PLP.part.repulsive>
1.9638

> <Gold.PLP.ligand.clash>
0.0000

> <Gold.PLP.ligand.torsion>
0.2569

> <Gold.PLP.Chemscore.Hbond>
1.9825

> <Gold.PLP.Chemscore.CHOScore>
0.0000

> <Gold.PLP.Chemscore.Metal>
0.0000

> <Gold.Chemscore.Hbonds>
donor molecule, donor type, donor heavy atom, donor atom, acceptor molecule, acceptor atom, score
      L1  H    15    52       P1 10175  2.00

> <Gold.PLP.Chemscore.Internal.Correction>
0.0461

> <Gold.Rescore>
     Score         DG    S(hbond)    S(metal)    S(lipo)     H(rot)  DE(clash)    DE(int)     intcor
     15.32     -17.79       0.96        0.00     103.64       1.18       0.09       2.38       ----

> <Gold.Chemscore.Fitness>
15.3163

> <Gold.Chemscore.DG>
-17.7946

> <Gold.Chemscore.ZeroCoef>
-5.4800

> <Gold.Chemscore.Hbond>
0.9643

> <Gold.Chemscore.Metal>
0.0000

> <Gold.Chemscore.Lipo>
103.6437

> <Gold.Chemscore.Internal_Hbond>
0.0000

> <Gold.Chemscore.DEClash>
0.0939

> <Gold.Chemscore.DEInternal>
2.3844

> <Gold.Chemscore.Rot>
1.1846

> <Gold.Chemscore.Internal.Correction>
   9.000000E+99

> <Gold.Chemscore.Hbonds>
donor molecule, donor type, donor heavy atom, donor atom, acceptor molecule, acceptor atom, score
      L1  H    15    52       P1 10175  0.90

> <Gold.Chemscore.Hbond.Weighted>
-3.2208

> <Gold.Chemscore.Metal.Weighted>
-0.0000

> <Gold.Chemscore.Lipo.Weighted>
-12.1263

> <Gold.Chemscore.Internal_Hbond.Weighted>
0.0000

> <Gold.Chemscore.DEClash.Weighted>
0.0939

> <Gold.Chemscore.DEInternal.Weighted>
2.3844

> <Gold.Chemscore.Rot.Weighted>
3.0326

> <Gold.Chemscore.Internal.Correction.Weighted>
   9.000000E+99

> <Gold.Protein.RotatedTorsions>
[ 6907 6896 6895 6894 ] final -158.14 input  -60.11 | X-H torsion
[ 7974 7965 7964 7962 ] final  -87.87 input  175.53 | X-H torsion
[ 8008 7997 7996 7995 ] final   -1.39 input   59.86 | X-H torsion
[ 10167 10162 10161 10158 ] final   17.95 input  -65.29 | X-H torsion
[ 10718 10713 10712 10709 ] final   64.71 input   66.30 | X-H torsion
[ 10763 10752 10751 10750 ] final  -84.84 input  -60.55 | X-H torsion
[ 11005 11000 10999 10996 ] final   -4.51 input  -57.11 | X-H torsion

> <Gold.Protein.ActiveResidues>
 VAL166  LYS551  ARG553  GLY616  TRP617  ASP618  TYR619  PRO620  LYS621  CYS622 
 ASP623  PHE694  ASN695  SER759  ASP760  ASP761  ALA762  ILE779  LEU786  VAL792 
 PHE793  MET794  SER795  GLU796  ALA797  LYS798  CYS799  TRP800  GLU811  SER814 

> <Gold.Protein.RotatedAtoms>
  151.3137  133.4070  159.2648 H   0  0  0  0  0  0  0  0  0  0  0  0  # atno 6907 bound_to 6896
  151.0093  134.9385  159.8008 H   0  0  0  0  0  0  0  0  0  0  0  0  # atno 6908 bound_to 6896
  152.5296  134.3101  159.9163 H   0  0  0  0  0  0  0  0  0  0  0  0  # atno 6909 bound_to 6896
  145.4608  140.9561  143.1971 H   0  0  0  0  0  0  0  0  0  0  0  0  # atno 7974 bound_to 7965
  154.6473  140.2560  155.7254 H   0  0  0  0  0  0  0  0  0  0  0  0  # atno 8008 bound_to 7997
  156.2558  140.2875  156.0813 H   0  0  0  0  0  0  0  0  0  0  0  0  # atno 8009 bound_to 7997
  155.1505  140.0382  157.2810 H   0  0  0  0  0  0  0  0  0  0  0  0  # atno 8010 bound_to 7997
  140.5689  143.9198  150.6698 H   0  0  0  0  0  0  0  0  0  0  0  0  # atno 10167 bound_to 10162
  157.6058  130.9175  149.9882 H   0  0  0  0  0  0  0  0  0  0  0  0  # atno 10718 bound_to 10713
  154.6042  135.5506  153.7406 H   0  0  0  0  0  0  0  0  0  0  0  0  # atno 10763 bound_to 10752
  153.0167  135.6374  154.1671 H   0  0  0  0  0  0  0  0  0  0  0  0  # atno 10764 bound_to 10752
  154.1610  135.2897  155.3089 H   0  0  0  0  0  0  0  0  0  0  0  0  # atno 10765 bound_to 10752
  140.6811  133.9153  155.8556 H   0  0  0  0  0  0  0  0  0  0  0  0  # atno 11005 bound_to 11000
  144.8004  139.6152  143.7074 LP  0  0  0  0  0  0  0  0  0  0  0  0  # atno 17320 bound_to 7965
  146.2452  139.6083  142.9464 LP  0  0  0  0  0  0  0  0  0  0  0  0  # atno 17321 bound_to 7965
  140.2669  143.3484  152.1273 LP  0  0  0  0  0  0  0  0  0  0  0  0  # atno 17342 bound_to 10162
  139.5107  144.6889  151.5814 LP  0  0  0  0  0  0  0  0  0  0  0  0  # atno 17343 bound_to 10162
  156.1144  130.3648  149.9994 LP  0  0  0  0  0  0  0  0  0  0  0  0  # atno 17370 bound_to 10713
  156.8086  130.9316  151.3644 LP  0  0  0  0  0  0  0  0  0  0  0  0  # atno 17371 bound_to 10713
  141.0317  134.0747  157.4007 LP  0  0  0  0  0  0  0  0  0  0  0  0  # atno 17394 bound_to 11000
  139.8951  135.0139  156.6987 LP  0  0  0  0  0  0  0  0  0  0  0  0  # atno 17395 bound_to 11000

$$$$
