#       Name:                AV-unprocessed.smi:21
#       Creating user name   scv26
#       Creation time:       Thu Mar 26 15:31:42 2020


#       File generated by GOLD software.
#

@<TRIPOS>MOLECULE
AV-unprocessed.smi:21
    71    74     1
SMALL
NO_CHARGES


@<TRIPOS>ATOM
      1 ****        -6.4282  -0.1372  -4.8982 C.3            1 S1                 0.0000
      2 ****        -5.0960   0.2723  -4.6356 O.3            1 S1                 0.0000
      3 ****        -4.7233   0.1455  -3.2717 C.3            1 S1                 0.0000
      4 ****        -3.3611   0.7846  -3.0310 C.3            1 S1                 0.0000
      5 ****        -2.8134   0.0769  -1.7780 C.3            1 S1                 0.0000
      6 ****        -3.0037   0.8903  -0.4791 C.3            1 S1                 0.0000
      7 ****        -2.1855   2.1017  -0.4233 N.pl3          1 S1                 0.0000
      8 ****        -2.8164   3.3875  -0.7193 C.3            1 S1                 0.0000
      9 ****        -0.8258   2.0411  -0.3064 C.ar           1 S1                 0.0000
     10 ****        -0.1039   3.1389  -0.6613 N.ar           1 S1                 0.0000
     11 ****         1.2280   3.1470  -0.5744 C.ar           1 S1                 0.0000
     12 ****         2.0396   2.1759  -0.1589 N.ar           1 S1                 0.0000
     13 ****         1.3344   1.0691   0.2068 C.ar           1 S1                 0.0000
     14 ****        -0.0831   0.9129   0.1660 C.ar           1 S1                 0.0000
     15 ****        -0.4137  -0.3584   0.6274 N.2            1 S1                 0.0000
     16 ****         0.7293  -0.9126   0.9235 C.2            1 S1                 0.0000
     17 ****         1.8317  -0.1216   0.7069 N.pl3          1 S1                 0.0000
     18 ****         3.2181  -0.4821   0.9529 C.3            1 S1                 0.0000
     19 ****         3.5996  -0.4759   2.4554 C.3            1 S1                 0.0000
     20 ****         3.3570   0.9181   3.0902 C.3            1 S1                 0.0000
     21 ****         3.2821   0.8489   4.4984 O.3            1 S1                 0.0000
     22 ****         5.0658  -0.9580   2.6373 C.3            1 S1                 0.0000
     23 ****         5.5339  -1.1319   4.0724 C.3            1 S1                 0.0000
     24 ****         6.7660  -2.0135   3.9089 C.3            1 S1                 0.0000
     25 ****         6.4866  -2.8538   2.7964 O.3            1 S1                 0.0000
     26 ****         5.3520  -2.3624   2.0899 C.3            1 S1                 0.0000
     27 ****        -3.5631  -1.2014  -1.6786 N.4            1 S1                 1.0000
     28 ****        -2.7183  -2.3983  -1.4788 C.3            1 S1                 0.0000
     29 ****        -4.4727  -1.2983  -2.8395 C.3            1 S1                 0.0000
     30 ****        -5.4596   0.6173  -2.6180 H              1 S1                 0.0000
     31 ****        -1.7524  -0.1279  -1.9300 H              1 S1                 0.0000
     32 ****        -6.6533   0.0137  -5.9538 H              1 S1                 0.0000
     33 ****        -7.1428   0.4464  -4.3167 H              1 S1                 0.0000
     34 ****        -6.5741  -1.1941  -4.6742 H              1 S1                 0.0000
     35 ****        -2.7054   0.5682  -3.8758 H              1 S1                 0.0000
     36 ****        -3.4215   1.8683  -2.9430 H              1 S1                 0.0000
     37 ****        -4.0544   1.1664  -0.3855 H              1 S1                 0.0000
     38 ****        -2.8063   0.2763   0.3978 H              1 S1                 0.0000
     39 ****        -2.5361   4.1329   0.0258 H              1 S1                 0.0000
     40 ****        -3.9037   3.3107  -0.7138 H              1 S1                 0.0000
     41 ****        -2.5138   3.7509  -1.7020 H              1 S1                 0.0000
     42 ****         1.7123   4.0634  -0.8780 H              1 S1                 0.0000
     43 ****         0.8004  -1.9169   1.3156 H              1 S1                 0.0000
     44 ****         3.3720  -1.4691   0.5175 H              1 S1                 0.0000
     45 ****         3.8633   0.2004   0.3984 H              1 S1                 0.0000
     46 ****         2.9416  -1.1894   2.9545 H              1 S1                 0.0000
     47 ****         4.1392   1.6190   2.7973 H              1 S1                 0.0000
     48 ****         2.4124   1.3503   2.7641 H              1 S1                 0.0000
     49 ****         3.1282   1.7191   4.8339 H              1 S1                 0.0000
     50 ****         5.7382  -0.2542   2.1435 H              1 S1                 0.0000
     51 ****         5.7683  -0.1898   4.5685 H              1 S1                 0.0000
     52 ****         4.7768  -1.6519   4.6614 H              1 S1                 0.0000
     53 ****         7.6400  -1.4049   3.6736 H              1 S1                 0.0000
     54 ****         6.9873  -2.5947   4.8042 H              1 S1                 0.0000
     55 ****         4.5137  -3.0324   2.2857 H              1 S1                 0.0000
     56 ****         5.5387  -2.3610   1.0158 H              1 S1                 0.0000
     57 ****        -2.0342  -2.5420  -2.3162 H              1 S1                 0.0000
     58 ****        -3.3380  -3.2904  -1.3847 H              1 S1                 0.0000
     59 ****        -2.1292  -2.3019  -0.5667 H              1 S1                 0.0000
     60 ****        -5.3897  -1.8303  -2.5849 H              1 S1                 0.0000
     61 ****        -3.9805  -1.8416  -3.6485 H              1 S1                 0.0000
     62 ****        -4.1537  -1.1139  -0.8639 H              1 S1                 0.0000
     63 ****        -5.0014   1.2315  -4.9018 LP             1 S1                 0.0000
     64 ****        -4.4780  -0.2889  -5.1862 LP             1 S1                 0.0000
     65 ****        -0.5796   3.9536  -0.9929 LP             1 S1                 0.0000
     66 ****         3.0361   2.2496  -0.1204 LP             1 S1                 0.0000
     67 ****        -1.3262  -0.7584   0.7129 LP             1 S1                 0.0000
     68 ****         4.1419   0.4933   4.8648 LP             1 S1                 0.0000
     69 ****         2.5308   0.2461   4.7670 LP             1 S1                 0.0000
     70 ****         6.2993  -3.7812   3.1203 LP             1 S1                 0.0000
     71 ****         7.2775  -2.8678   2.1846 LP             1 S1                 0.0000
@<TRIPOS>BOND
    1    1    2 1     
    2    1   32 1     
    3    1   33 1     
    4    1   34 1     
    5    2    3 1     
    6    3   30 1     
    7    3   29 1     
    8    3    4 1     
    9    4    5 1     
   10    4   35 1     
   11    4   36 1     
   12    5   31 1     
   13    5    6 1     
   14    5   27 1     
   15    6    7 1     
   16    6   37 1     
   17    6   38 1     
   18    7    8 1     
   19    7    9 1     
   20    8   39 1     
   21    8   40 1     
   22    8   41 1     
   23    9   14 ar    
   24    9   10 ar    
   25   10   11 ar    
   26   11   12 ar    
   27   11   42 1     
   28   12   13 ar    
   29   13   17 1     
   30   13   14 ar    
   31   14   15 1     
   32   15   16 2     
   33   16   17 1     
   34   16   43 1     
   35   17   18 1     
   36   18   19 1     
   37   18   44 1     
   38   18   45 1     
   39   19   20 1     
   40   19   22 1     
   41   19   46 1     
   42   20   21 1     
   43   20   47 1     
   44   20   48 1     
   45   21   49 1     
   46   22   26 1     
   47   22   23 1     
   48   22   50 1     
   49   23   24 1     
   50   23   51 1     
   51   23   52 1     
   52   24   25 1     
   53   24   53 1     
   54   24   54 1     
   55   25   26 1     
   56   26   55 1     
   57   26   56 1     
   58   27   28 1     
   59   27   29 1     
   60   27   62 1     
   61   28   57 1     
   62   28   58 1     
   63   28   59 1     
   64   29   60 1     
   65   29   61 1     
   66    2   63 1     
   67    2   64 1     
   68   10   65 1     
   69   12   66 1     
   70   15   67 1     
   71   21   68 1     
   72   21   69 1     
   73   25   70 1     
   74   25   71 1     
@<TRIPOS>SUBSTRUCTURE
      1 S1             1
@<TRIPOS>SET
LONE_PAIRS      STATIC     ATOMS    <user>   **** ""
9 63 64 65 66 67 68 69 70 71
DONOR_HYDROGENS      STATIC     ATOMS    <user>   **** ""
2 49 62
ATOM$BLUE        STATIC     ATOMS    COLORGROUP SYSTEM
9 63 64 65 66 67 68 69 70 71
ATOM$RED        STATIC     ATOMS    COLORGROUP SYSTEM
2 49 62
