#       Name:                AV-unprocessed.smi:2083
#       Creating user name   scv26
#       Creation time:       Fri Mar 27 11:20:26 2020


#       File generated by GOLD software.
#

@<TRIPOS>MOLECULE
AV-unprocessed.smi:2083
    50    51     1
SMALL
NO_CHARGES


@<TRIPOS>ATOM
      1 ****        -4.3384   6.9353   2.0612 C.3            1 S1                 0.0000
      2 ****        -3.7348   5.6037   1.7737 C.2            1 S1                 0.0000
      3 ****        -3.0015   5.1206   0.7264 C.2            1 S1                 0.0000
      4 ****        -2.7569   3.7730   1.1022 C.2            1 S1                 0.0000
      5 ****        -2.0130   2.9058   0.2615 N.am           1 S1                 0.0000
      6 ****        -1.7052   1.6168   0.4846 C.2            1 S1                 0.0000
      7 ****        -2.0127   0.9779   1.4913 O.2            1 S1                 0.0000
      8 ****        -1.0046   1.0971  -0.5347 N.am           1 S1                 0.0000
      9 ****        -0.5436  -0.2862  -0.6240 C.3            1 S1                 0.0000
     10 ****         0.9454  -0.4462  -0.2213 C.3            1 S1                 0.0000
     11 ****         1.2483   0.0316   1.2123 C.3            1 S1                 0.0000
     12 ****         1.4591  -1.8329  -0.4248 N.4            1 S1                 1.0000
     13 ****         0.6891  -2.9065   0.2609 C.3            1 S1                 0.0000
     14 ****         1.4467  -4.2417   0.2008 C.3            1 S1                 0.0000
     15 ****         1.7602  -4.6300  -1.2518 C.3            1 S1                 0.0000
     16 ****         2.4955  -3.4955  -1.9902 C.3            1 S1                 0.0000
     17 ****         3.9666  -3.3617  -1.5594 C.3            1 S1                 0.0000
     18 ****         1.7229  -2.1668  -1.8509 C.3            1 S1                 0.0000
     19 ****        -3.2908   3.4619   2.2735 N.2            1 S1                 0.0000
     20 ****        -3.9207   4.6336   2.7094 O.3            1 S1                 0.0000
     21 ****        -4.1122   7.6459   1.2660 H              1 S1                 0.0000
     22 ****        -3.9529   7.3402   2.9968 H              1 S1                 0.0000
     23 ****        -5.4223   6.8576   2.1465 H              1 S1                 0.0000
     24 ****        -2.6929   5.6487  -0.1635 H              1 S1                 0.0000
     25 ****        -1.6908   3.3085  -0.6060 H              1 S1                 0.0000
     26 ****        -0.7969   1.6964  -1.3203 H              1 S1                 0.0000
     27 ****        -1.1841  -0.9282  -0.0179 H              1 S1                 0.0000
     28 ****        -0.6906  -0.6026  -1.6562 H              1 S1                 0.0000
     29 ****         1.5320   0.2024  -0.8738 H              1 S1                 0.0000
     30 ****         1.0954   1.1061   1.3130 H              1 S1                 0.0000
     31 ****         2.2855  -0.1681   1.4830 H              1 S1                 0.0000
     32 ****         0.6102  -0.4570   1.9486 H              1 S1                 0.0000
     33 ****         0.5131  -2.6452   1.3039 H              1 S1                 0.0000
     34 ****        -0.2884  -3.0252  -0.2080 H              1 S1                 0.0000
     35 ****         2.3697  -4.1691   0.7768 H              1 S1                 0.0000
     36 ****         0.8538  -5.0258   0.6729 H              1 S1                 0.0000
     37 ****         2.3457  -5.5496  -1.2810 H              1 S1                 0.0000
     38 ****         0.8257  -4.8484  -1.7701 H              1 S1                 0.0000
     39 ****         2.5099  -3.7548  -3.0496 H              1 S1                 0.0000
     40 ****         4.0609  -3.0756  -0.5118 H              1 S1                 0.0000
     41 ****         4.4806  -2.6060  -2.1538 H              1 S1                 0.0000
     42 ****         4.5010  -4.3024  -1.6955 H              1 S1                 0.0000
     43 ****         0.7761  -2.2394  -2.3872 H              1 S1                 0.0000
     44 ****         2.2895  -1.3662  -2.3279 H              1 S1                 0.0000
     45 ****         2.3696  -1.8333   0.0125 H              1 S1                 0.0000
     46 ****        -2.5327   1.4180   2.2234 LP             1 S1                 0.0000
     47 ****        -1.7424   0.0190   1.5769 LP             1 S1                 0.0000
     48 ****        -3.2523   2.5807   2.7447 LP             1 S1                 0.0000
     49 ****        -4.8990   4.4650   2.8293 LP             1 S1                 0.0000
     50 ****        -3.5236   4.9252   3.5797 LP             1 S1                 0.0000
@<TRIPOS>BOND
    1    1    2 1     
    2    1   21 1     
    3    1   22 1     
    4    1   23 1     
    5    2   20 1     
    6    2    3 2     
    7    3    4 1     
    8    3   24 1     
    9    4    5 1     
   10    4   19 2     
   11    5    6 am    
   12    5   25 1     
   13    6    7 2     
   14    6    8 am    
   15    8    9 1     
   16    8   26 1     
   17    9   10 1     
   18    9   27 1     
   19    9   28 1     
   20   10   11 1     
   21   10   12 1     
   22   10   29 1     
   23   11   30 1     
   24   11   31 1     
   25   11   32 1     
   26   12   18 1     
   27   12   13 1     
   28   12   45 1     
   29   13   14 1     
   30   13   33 1     
   31   13   34 1     
   32   14   15 1     
   33   14   35 1     
   34   14   36 1     
   35   15   16 1     
   36   15   37 1     
   37   15   38 1     
   38   16   17 1     
   39   16   18 1     
   40   16   39 1     
   41   17   40 1     
   42   17   41 1     
   43   17   42 1     
   44   18   43 1     
   45   18   44 1     
   46   19   20 1     
   47    7   46 1     
   48    7   47 1     
   49   19   48 1     
   50   20   49 1     
   51   20   50 1     
@<TRIPOS>SUBSTRUCTURE
      1 S1             1
@<TRIPOS>SET
LONE_PAIRS      STATIC     ATOMS    <user>   **** ""
5 46 47 48 49 50
DONOR_HYDROGENS      STATIC     ATOMS    <user>   **** ""
3 25 26 45
ATOM$BLUE        STATIC     ATOMS    COLORGROUP SYSTEM
5 46 47 48 49 50
ATOM$RED        STATIC     ATOMS    COLORGROUP SYSTEM
3 25 26 45
