AV-unprocessed.smi:256|AV-procd|sdf|1962|dock8
  -GOLD-   2262021113D 1   1.00000     0.00000
 Structure written by MMmdl.
 61 64  0  0  0  0  0  0  0  0  1 V2000
  147.9667  134.3978  158.6616 C   0  0  0  0  0  0  0  0  0  0  0  0
  147.1808  134.8242  157.4119 C   0  0  0  0  0  0  0  0  0  0  0  0
  148.0397  135.0372  156.1352 C   0  0  1  0  0  0  0  0  0  0  0  0
  149.0952  136.1404  156.4127 C   0  0  0  0  0  0  0  0  0  0  0  0
  149.9232  136.3997  155.2372 N   0  0  0  0  0  0  0  0  0  0  0  0
  150.7139  137.5030  155.2419 C   0  0  0  0  0  0  0  0  0  0  0  0
  152.0131  137.4126  154.8489 N   0  0  0  0  0  0  0  0  0  0  0  0
  152.7955  138.4959  154.8458 C   0  0  0  0  0  0  0  0  0  0  0  0
  152.4902  139.7466  155.1957 N   0  0  0  0  0  0  0  0  0  0  0  0
  151.1911  139.8432  155.5994 C   0  0  0  0  0  0  0  0  0  0  0  0
  150.2429  138.7827  155.6513 C   0  0  0  0  0  0  0  0  0  0  0  0
  149.0258  139.2608  156.1235 N   0  0  0  0  0  0  0  0  0  0  0  0
  149.2408  140.5307  156.3330 C   0  0  0  0  0  0  0  0  0  0  0  0
  150.5168  140.9639  156.0519 N   0  0  0  0  0  0  0  0  0  0  0  0
  151.0298  142.3170  156.2024 C   0  0  0  0  0  0  0  0  0  0  0  0
  151.1009  142.7989  157.6728 C   0  0  0  0  0  0  0  0  0  0  0  0
  149.7723  142.8896  158.1593 O   0  0  0  0  0  0  0  0  0  0  0  0
  151.8900  141.8292  158.5800 C   0  0  0  0  0  0  0  0  0  0  0  0
  152.1262  142.4131  159.9843 C   0  0  0  0  0  0  0  0  0  0  0  0
  152.7709  143.6774  159.8876 O   0  0  0  0  0  0  0  0  0  0  0  0
  151.9840  144.6454  159.2040 C   0  0  0  0  0  0  0  0  0  0  0  0
  151.7430  144.1983  157.7511 C   0  0  0  0  0  0  0  0  0  0  0  0
  150.5581  135.1958  154.7206 C   0  0  0  0  0  0  0  0  0  0  0  0
  149.4892  134.1336  154.4426 C   0  0  0  0  0  0  0  0  0  0  0  0
  148.6884  133.8033  155.6286 N   0  0  0  0  0  0  0  0  0  0  0  0
  147.7279  132.7326  155.3177 C   0  0  0  0  0  0  0  0  0  0  0  0
  148.3261  131.4389  154.7375 C   0  0  0  0  0  0  0  0  0  0  0  0
  147.2905  130.4944  154.5183 O   0  0  0  0  0  0  0  0  0  0  0  0
  146.4983  130.8095  153.3870 C   0  0  0  0  0  0  0  0  0  0  0  0
  147.3233  134.4154  159.5414 H   0  0  0  0  0  0  0  0  0  0  0  0
  148.8032  135.0709  158.8513 H   0  0  0  0  0  0  0  0  0  0  0  0
  148.3564  133.3839  158.5739 H   0  0  0  0  0  0  0  0  0  0  0  0
  146.3940  134.0958  157.2129 H   0  0  0  0  0  0  0  0  0  0  0  0
  146.6791  135.7497  157.6872 H   0  0  0  0  0  0  0  0  0  0  0  0
  147.3734  135.4128  155.3568 H   0  0  0  0  0  0  0  0  0  0  0  0
  148.6012  137.0719  156.6877 H   0  0  0  0  0  0  0  0  0  0  0  0
  149.7322  135.8486  157.2493 H   0  0  0  0  0  0  0  0  0  0  0  0
  153.8118  138.3374  154.5164 H   0  0  0  0  0  0  0  0  0  0  0  0
  148.4721  141.1899  156.7097 H   0  0  0  0  0  0  0  0  0  0  0  0
  152.0208  142.3552  155.7484 H   0  0  0  0  0  0  0  0  0  0  0  0
  150.4018  142.9870  155.6134 H   0  0  0  0  0  0  0  0  0  0  0  0
  149.4355  142.0145  158.2769 H   0  0  0  0  0  0  0  0  0  0  0  0
  151.3787  140.8695  158.6645 H   0  0  0  0  0  0  0  0  0  0  0  0
  152.8591  141.6210  158.1244 H   0  0  0  0  0  0  0  0  0  0  0  0
  151.1879  142.5116  160.5322 H   0  0  0  0  0  0  0  0  0  0  0  0
  152.7588  141.7407  160.5640 H   0  0  0  0  0  0  0  0  0  0  0  0
  151.0411  144.8022  159.7301 H   0  0  0  0  0  0  0  0  0  0  0  0
  152.5134  145.5984  159.2168 H   0  0  0  0  0  0  0  0  0  0  0  0
  152.7025  144.1843  157.2326 H   0  0  0  0  0  0  0  0  0  0  0  0
  151.1262  144.9324  157.2307 H   0  0  0  0  0  0  0  0  0  0  0  0
  151.1142  135.3971  153.8058 H   0  0  0  0  0  0  0  0  0  0  0  0
  151.2763  134.8252  155.4535 H   0  0  0  0  0  0  0  0  0  0  0  0
  148.8372  134.4724  153.6359 H   0  0  0  0  0  0  0  0  0  0  0  0
  150.0060  133.2487  154.0747 H   0  0  0  0  0  0  0  0  0  0  0  0
  147.2162  132.4222  156.2255 H   0  0  0  0  0  0  0  0  0  0  0  0
  146.9569  133.1101  154.6447 H   0  0  0  0  0  0  0  0  0  0  0  0
  148.8201  131.6648  153.7915 H   0  0  0  0  0  0  0  0  0  0  0  0
  149.0915  131.0267  155.3955 H   0  0  0  0  0  0  0  0  0  0  0  0
  145.7160  130.0601  153.2676 H   0  0  0  0  0  0  0  0  0  0  0  0
  147.0987  130.8170  152.4765 H   0  0  0  0  0  0  0  0  0  0  0  0
  146.0186  131.7827  153.4993 H   0  0  0  0  0  0  0  0  0  0  0  0
  1  2  1  0  0  0  0
  1 30  1  0  0  0  0
  1 31  1  0  0  0  0
  1 32  1  0  0  0  0
  2  3  1  0  0  0  0
  2 33  1  0  0  0  0
  2 34  1  0  0  0  0
  3 25  1  0  0  0  0
  3  4  1  0  0  0  0
  3 35  1  0  0  0  0
  4  5  1  0  0  0  0
  4 36  1  0  0  0  0
  4 37  1  0  0  0  0
  5  6  1  0  0  0  0
  5 23  1  0  0  0  0
  6 11  1  0  0  0  0
  6  7  2  0  0  0  0
  7  8  1  0  0  0  0
  8  9  2  0  0  0  0
  8 38  1  0  0  0  0
  9 10  1  0  0  0  0
 10 14  1  0  0  0  0
 10 11  2  0  0  0  0
 11 12  1  0  0  0  0
 12 13  2  0  0  0  0
 13 14  1  0  0  0  0
 13 39  1  0  0  0  0
 14 15  1  0  0  0  0
 15 16  1  0  0  0  0
 15 40  1  0  0  0  0
 15 41  1  0  0  0  0
 16 22  1  0  0  0  0
 16 17  1  0  0  0  0
 16 18  1  0  0  0  0
 17 42  1  0  0  0  0
 18 19  1  0  0  0  0
 18 43  1  0  0  0  0
 18 44  1  0  0  0  0
 19 20  1  0  0  0  0
 19 45  1  0  0  0  0
 19 46  1  0  0  0  0
 20 21  1  0  0  0  0
 21 22  1  0  0  0  0
 21 47  1  0  0  0  0
 21 48  1  0  0  0  0
 22 49  1  0  0  0  0
 22 50  1  0  0  0  0
 23 24  1  0  0  0  0
 23 51  1  0  0  0  0
 23 52  1  0  0  0  0
 24 25  1  0  0  0  0
 24 53  1  0  0  0  0
 24 54  1  0  0  0  0
 25 26  1  0  0  0  0
 26 27  1  0  0  0  0
 26 55  1  0  0  0  0
 26 56  1  0  0  0  0
 27 28  1  0  0  0  0
 27 57  1  0  0  0  0
 27 58  1  0  0  0  0
 28 29  1  0  0  0  0
 29 59  1  0  0  0  0
 29 60  1  0  0  0  0
 29 61  1  0  0  0  0
M  END
> <s_m_source_file>
AV-unprocessed.smi

> <i_m_source_file_index>
256

> <i_lp_mmshare_version>
43012

> <i_f3d_flags>
0

> <s_epik_input>
W0NIM11PW0NIMl1bQ0gyXU4xW0NIMl1bQ0gyXU4oW0NIMl1bQ0BIXTFbQ0gyXVtDSDNdKWMobltjSF1uMiljKGMyMyluW2NIXW4zW0NIMl1DNChbT0hdKVtDSDJdW0NIMl1PW0NIMl1bQ0gyXTQ=

> <s_epik_cmdline>
J2VwaWtfcHl0aG9uJywgJy1waCcsICc3LjAnLCAnLXRuJywgJzgnLCAnLW1hJywgJzIwMCcsICctbWV0YWxfYmluZGluZycsICctaW1hZScsICc8aW5maWxlLm1hZT4nLCAnLW9tYWUnLCAnPG91dGZpbGUubWFlPic=

> <r_lp_tautomer_probability>
1

> <r_epik_Ionization_Penalty>
0.676279

> <r_epik_Ionization_Penalty_Charging>
0

> <r_epik_Ionization_Penalty_Neutral>
0.676279

> <r_epik_State_Penalty>
0.6855

> <r_epik_Charging_Adjusted_Penalty>
0.6855

> <i_epik_Tot_Q>
0

> <i_epik_Tot_abs_Q>
0

> <r_epik_Metal_State_Penalty>
0.678557

> <b_epik_Metal_Only>
0

> <s_lp_Force_Field>
OPLS_2005

> <r_lp_Energy>
58.0034

> <b_lp_Chiralities_Consistent>
1

> <s_lp_Variant>
AV-unprocessed.smi:256-6

> <Gold.Version>
5.8.1

> <Gold.Id.Protein>
6NUR|6NUR_protein|mol2

> <Gold.PLP.Fitness>
46.7165

> <Gold.PLP.PLP>
-41.9163

> <Gold.PLP.part.hbond>
-3.6074

> <Gold.PLP.part.metal>
0.0000

> <Gold.PLP.part.buried>
-6.7763

> <Gold.PLP.part.nonpolar>
-33.5068

> <Gold.PLP.part.repulsive>
0.3512

> <Gold.PLP.ligand.clash>
0.0000

> <Gold.PLP.ligand.torsion>
0.2971

> <Gold.PLP.Chemscore.Hbond>
1.6660

> <Gold.PLP.Chemscore.CHOScore>
0.0000

> <Gold.PLP.Chemscore.Metal>
0.0000

> <Gold.Chemscore.Hbonds>
donor molecule, donor type, donor heavy atom, donor atom, acceptor molecule, acceptor atom, score
      P1  H  7989  7998       L1     9  0.02
      P1  H  7997  8009       L1     9  0.59
      P1  H 10752 10764       L1     7  0.83

> <Gold.PLP.Chemscore.Internal.Correction>
0.3965

> <Gold.Rescore>
     Score         DG    S(hbond)    S(metal)    S(lipo)     H(rot)  DE(clash)    DE(int)     intcor
     12.76     -14.55       1.49        0.00      97.85       2.87       1.44       0.35       ----

> <Gold.Chemscore.Fitness>
12.7645

> <Gold.Chemscore.DG>
-14.5527

> <Gold.Chemscore.ZeroCoef>
-5.4800

> <Gold.Chemscore.Hbond>
1.4885

> <Gold.Chemscore.Metal>
0.0000

> <Gold.Chemscore.Lipo>
97.8488

> <Gold.Chemscore.Internal_Hbond>
0.0000

> <Gold.Chemscore.DEClash>
1.4384

> <Gold.Chemscore.DEInternal>
0.3498

> <Gold.Chemscore.Rot>
2.8700

> <Gold.Chemscore.Internal.Correction>
   9.000000E+99

> <Gold.Chemscore.Hbonds>
donor molecule, donor type, donor heavy atom, donor atom, acceptor molecule, acceptor atom, score
      P1  H  7997  8009       L1     9  0.07
      P1  H 10752 10764       L1     7  0.70

> <Gold.Chemscore.Hbond.Weighted>
-4.9716

> <Gold.Chemscore.Metal.Weighted>
-0.0000

> <Gold.Chemscore.Lipo.Weighted>
-11.4483

> <Gold.Chemscore.Internal_Hbond.Weighted>
0.0000

> <Gold.Chemscore.DEClash.Weighted>
1.4384

> <Gold.Chemscore.DEInternal.Weighted>
0.3498

> <Gold.Chemscore.Rot.Weighted>
7.3472

> <Gold.Chemscore.Internal.Correction.Weighted>
   9.000000E+99

> <Gold.Protein.RotatedTorsions>
[ 6907 6896 6895 6894 ] final -161.16 input  -60.11 | X-H torsion
[ 7974 7965 7964 7962 ] final  146.47 input  175.53 | X-H torsion
[ 8008 7997 7996 7995 ] final -147.01 input   59.86 | X-H torsion
[ 10167 10162 10161 10158 ] final -160.88 input  -65.29 | X-H torsion
[ 10718 10713 10712 10709 ] final  -46.26 input   66.30 | X-H torsion
[ 10763 10752 10751 10750 ] final  -61.55 input  -60.55 | X-H torsion
[ 11005 11000 10999 10996 ] final   85.79 input  -57.11 | X-H torsion

> <Gold.Protein.ActiveResidues>
 VAL166  LYS551  ARG553  GLY616  TRP617  ASP618  TYR619  PRO620  LYS621  CYS622 
 ASP623  PHE694  ASN695  SER759  ASP760  ASP761  ALA762  ILE779  LEU786  VAL792 
 PHE793  MET794  SER795  GLU796  ALA797  LYS798  CYS799  TRP800  GLU811  SER814 

> <Gold.Protein.RotatedAtoms>
  151.3603  133.3892  159.2688 H   0  0  0  0  0  0  0  0  0  0  0  0  # atno 6907 bound_to 6896
  150.9731  134.9101  159.7810 H   0  0  0  0  0  0  0  0  0  0  0  0  # atno 6908 bound_to 6896
  152.5191  134.3565  159.9322 H   0  0  0  0  0  0  0  0  0  0  0  0  # atno 6909 bound_to 6896
  144.8669  139.5909  143.5905 H   0  0  0  0  0  0  0  0  0  0  0  0  # atno 7974 bound_to 7965
  155.5686  140.0632  157.2812 H   0  0  0  0  0  0  0  0  0  0  0  0  # atno 8008 bound_to 7997
  154.4368  140.1873  156.0901 H   0  0  0  0  0  0  0  0  0  0  0  0  # atno 8009 bound_to 7997
  156.0393  140.3297  155.7230 H   0  0  0  0  0  0  0  0  0  0  0  0  # atno 8010 bound_to 7997
  139.6506  144.0091  152.2159 H   0  0  0  0  0  0  0  0  0  0  0  0  # atno 10167 bound_to 10162
  156.2200  130.4165  149.9005 H   0  0  0  0  0  0  0  0  0  0  0  0  # atno 10718 bound_to 10713
  154.2864  135.6262  153.5367 H   0  0  0  0  0  0  0  0  0  0  0  0  # atno 10763 bound_to 10752
  152.9858  135.5645  154.5439 H   0  0  0  0  0  0  0  0  0  0  0  0  # atno 10764 bound_to 10752
  154.5040  135.2873  155.1373 H   0  0  0  0  0  0  0  0  0  0  0  0  # atno 10765 bound_to 10752
  139.8962  134.8311  156.2631 H   0  0  0  0  0  0  0  0  0  0  0  0  # atno 11005 bound_to 11000
  146.2902  139.7117  142.9166 LP  0  0  0  0  0  0  0  0  0  0  0  0  # atno 17320 bound_to 7965
  145.4205  141.0406  143.2966 LP  0  0  0  0  0  0  0  0  0  0  0  0  # atno 17321 bound_to 7965
  139.9804  144.6432  150.7906 LP  0  0  0  0  0  0  0  0  0  0  0  0  # atno 17342 bound_to 10162
  140.7536  143.3011  151.3078 LP  0  0  0  0  0  0  0  0  0  0  0  0  # atno 17343 bound_to 10162
  156.6654  130.8799  151.3554 LP  0  0  0  0  0  0  0  0  0  0  0  0  # atno 17370 bound_to 10713
  157.7083  130.9410  150.1003 LP  0  0  0  0  0  0  0  0  0  0  0  0  # atno 17371 bound_to 10713
  141.0149  133.7074  156.1173 LP  0  0  0  0  0  0  0  0  0  0  0  0  # atno 17394 bound_to 11000
  140.7315  134.4249  157.5565 LP  0  0  0  0  0  0  0  0  0  0  0  0  # atno 17395 bound_to 11000

$$$$
