AV-unprocessed.smi:54|AV-procd|sdf|535|dock1
  -GOLD-   2262016413D 1   1.00000     0.00000
 Structure written by MMmdl.
 44 46  0  0  0  0  0  0  0  0  1 V2000
  151.4586  145.3465  159.2684 C   0  0  0  0  0  0  0  0  0  0  0  0
  151.2555  144.0885  160.1284 C   0  0  0  0  0  0  0  0  0  0  0  0
  152.1435  144.1196  161.3828 C   0  0  0  0  0  0  0  0  0  0  0  0
  151.5279  142.8249  159.3055 C   0  0  0  0  0  0  0  0  0  0  0  0
  152.3720  141.9934  159.6400 O   0  0  0  0  0  0  0  0  0  0  0  0
  150.7174  142.6628  158.1150 N   0  0  0  0  0  0  0  0  0  0  0  0
  150.8021  141.6417  157.2352 C   0  0  0  0  0  0  0  0  0  0  0  0
  149.8653  141.4125  156.3271 N   0  0  0  0  0  0  0  0  0  0  0  0
  150.0955  140.3310  155.5203 C   0  0  0  0  0  0  0  0  0  0  0  0
  151.1915  139.4919  155.5881 C   0  0  0  0  0  0  0  0  0  0  0  0
  151.1093  138.5090  154.6115 N   0  0  0  0  0  0  0  0  0  0  0  0
  149.9911  138.7701  153.9983 C   0  0  0  0  0  0  0  0  0  0  0  0
  149.2938  139.8448  154.4971 N   0  0  0  0  0  0  0  0  0  0  0  0
  147.9813  140.3616  153.9717 C   0  0  2  0  0  0  0  0  0  0  0  0
  147.1288  140.5996  155.0464 O   0  0  0  0  0  0  0  0  0  0  0  0
  146.2458  139.5011  155.2241 C   0  0  1  0  0  0  0  0  0  0  0  0
  144.9644  139.9724  155.9282 C   0  0  0  0  0  0  0  0  0  0  0  0
  144.3909  141.0533  155.2246 O   0  0  0  0  0  0  0  0  0  0  0  0
  146.0008  139.0093  153.7887 C   0  0  2  0  0  0  0  0  0  0  0  0
  145.7991  137.6108  153.7759 O   0  0  0  0  0  0  0  0  0  0  0  0
  147.2735  139.3798  153.0227 C   0  0  1  0  0  0  0  0  0  0  0  0
  146.9371  140.0049  151.8002 O   0  0  0  0  0  0  0  0  0  0  0  0
  152.2037  139.7159  156.5804 C   0  0  0  0  0  0  0  0  0  0  0  0
  153.2266  139.0657  156.7851 O   0  0  0  0  0  0  0  0  0  0  0  0
  151.9232  140.8287  157.3808 N   0  0  0  0  0  0  0  0  0  0  0  0
  148.2470  141.3058  153.4940 H   0  0  0  0  0  0  0  0  0  0  0  0
  146.7406  138.7339  155.8179 H   0  0  0  0  0  0  0  0  0  0  0  0
  145.1309  139.5117  153.3620 H   0  0  0  0  0  0  0  0  0  0  0  0
  147.9120  138.5235  152.8063 H   0  0  0  0  0  0  0  0  0  0  0  0
  150.8414  145.3177  158.3695 H   0  0  0  0  0  0  0  0  0  0  0  0
  152.4977  145.4549  158.9545 H   0  0  0  0  0  0  0  0  0  0  0  0
  151.1865  146.2450  159.8226 H   0  0  0  0  0  0  0  0  0  0  0  0
  150.2135  144.0659  160.4510 H   0  0  0  0  0  0  0  0  0  0  0  0
  152.0038  143.2250  161.9908 H   0  0  0  0  0  0  0  0  0  0  0  0
  151.9027  144.9795  162.0082 H   0  0  0  0  0  0  0  0  0  0  0  0
  153.2013  144.1853  161.1247 H   0  0  0  0  0  0  0  0  0  0  0  0
  149.9801  143.3378  157.9741 H   0  0  0  0  0  0  0  0  0  0  0  0
  149.6387  138.1759  153.1675 H   0  0  0  0  0  0  0  0  0  0  0  0
  144.2448  139.1595  156.0313 H   0  0  0  0  0  0  0  0  0  0  0  0
  145.1998  140.3270  156.9321 H   0  0  0  0  0  0  0  0  0  0  0  0
  143.8608  140.7078  154.5227 H   0  0  0  0  0  0  0  0  0  0  0  0
  145.3392  137.3831  152.9815 H   0  0  0  0  0  0  0  0  0  0  0  0
  147.7085  140.0311  151.2549 H   0  0  0  0  0  0  0  0  0  0  0  0
  152.5952  141.0499  158.1008 H   0  0  0  0  0  0  0  0  0  0  0  0
  1  2  1  0  0  0  0
  1 30  1  0  0  0  0
  1 31  1  0  0  0  0
  1 32  1  0  0  0  0
  2  3  1  0  0  0  0
  2  4  1  0  0  0  0
  2 33  1  0  0  0  0
  3 34  1  0  0  0  0
  3 35  1  0  0  0  0
  3 36  1  0  0  0  0
  4  5  2  0  0  0  0
  4  6  1  0  0  0  0
  6 37  1  0  0  0  0
  6  7  1  0  0  0  0
  7 25  1  0  0  0  0
  7  8  2  0  0  0  0
  8  9  1  0  0  0  0
  9 13  1  0  0  0  0
  9 10  2  0  0  0  0
 10 11  1  0  0  0  0
 10 23  1  0  0  0  0
 11 12  2  0  0  0  0
 12 13  1  0  0  0  0
 12 38  1  0  0  0  0
 13 14  1  0  0  0  0
 14 26  1  0  0  0  0
 14 21  1  0  0  0  0
 14 15  1  0  0  0  0
 15 16  1  0  0  0  0
 16 27  1  0  0  0  0
 16 17  1  0  0  0  0
 16 19  1  0  0  0  0
 17 18  1  0  0  0  0
 17 39  1  0  0  0  0
 17 40  1  0  0  0  0
 18 41  1  0  0  0  0
 19 28  1  0  0  0  0
 19 20  1  0  0  0  0
 19 21  1  0  0  0  0
 20 42  1  0  0  0  0
 21 29  1  0  0  0  0
 21 22  1  0  0  0  0
 22 43  1  0  0  0  0
 23 24  2  0  0  0  0
 23 25  1  0  0  0  0
 25 44  1  0  0  0  0
M  END
> <s_m_source_file>
AV-unprocessed.smi

> <i_m_source_file_index>
54

> <i_lp_mmshare_version>
43012

> <i_f3d_flags>
0

> <s_epik_input>
W0NIM11bQ0hdKFtDSDNdKUMoPU8pW05IXWMobjEpW25IXWMoPU8pYyhjMTIpbltjSF1uMltDQEBIXTNPW0NASF0oW0NIMl1bT0hdKVtDQEBIXShbT0hdKVtDQEhdM1tPSF0=

> <s_epik_cmdline>
J2VwaWtfcHl0aG9uJywgJy1waCcsICc3LjAnLCAnLXRuJywgJzgnLCAnLW1hJywgJzIwMCcsICctbWV0YWxfYmluZGluZycsICctaW1hZScsICc8aW5maWxlLm1hZT4nLCAnLW9tYWUnLCAnPG91dGZpbGUubWFlPic=

> <r_lp_tautomer_probability>
0.85571

> <r_epik_Ionization_Penalty>
0.0316551

> <r_epik_Ionization_Penalty_Charging>
0.0316043

> <r_epik_Ionization_Penalty_Neutral>
5.07097e-05

> <r_epik_State_Penalty>
3.15494e-07

> <r_epik_Charging_Adjusted_Penalty>
0.0316047

> <i_epik_Tot_Q>
0

> <i_epik_Tot_abs_Q>
0

> <r_epik_Metal_State_Penalty>
0.421206

> <b_epik_Metal_Only>
0

> <s_epik_Chemistry_Notes>
This compound contains an acetal/aminal-like group ( X-CH(R)-Y where X, Y are N, S, or O) that may be acid/base labile, releasing an aldehyde.

> <s_lp_Force_Field>
OPLS_2005

> <r_lp_Energy>
37.5812

> <b_lp_Chiralities_Consistent>
1

> <s_lp_Variant>
AV-unprocessed.smi:54-7

> <Gold.Version>
5.8.1

> <Gold.Id.Protein>
6NUR|6NUR_protein|mol2

> <Gold.PLP.Fitness>
48.4680

> <Gold.PLP.PLP>
-36.1405

> <Gold.PLP.part.hbond>
-3.0000

> <Gold.PLP.part.metal>
0.0000

> <Gold.PLP.part.buried>
-1.2570

> <Gold.PLP.part.nonpolar>
-31.7492

> <Gold.PLP.part.repulsive>
0.4533

> <Gold.PLP.ligand.clash>
0.0000

> <Gold.PLP.ligand.torsion>
0.3512

> <Gold.PLP.Chemscore.Hbond>
2.9920

> <Gold.PLP.Chemscore.CHOScore>
1.3294

> <Gold.PLP.Chemscore.Metal>
0.0000

> <Gold.Chemscore.Hbonds>
donor molecule, donor type, donor heavy atom, donor atom, acceptor molecule, acceptor atom, score
      L1  H    18    41       P1 10175  0.92
      L1  H    22    43       P1  7957  0.99
      P1  H  7997  8009       L1    24  1.00
      L1  C    12    38       P1  7948  1.00
      L1  C    12    38       P1  7957  0.23

> <Gold.PLP.Chemscore.Internal.Correction>
0.0656

> <Gold.Rescore>
     Score         DG    S(hbond)    S(metal)    S(lipo)     H(rot)  DE(clash)    DE(int)     intcor
      8.03      -9.56       2.38        0.00      55.53       4.05       1.31       0.22       ----

> <Gold.Chemscore.Fitness>
8.0314

> <Gold.Chemscore.DG>
-9.5606

> <Gold.Chemscore.ZeroCoef>
-5.4800

> <Gold.Chemscore.Hbond>
2.3803

> <Gold.Chemscore.Metal>
0.0000

> <Gold.Chemscore.Lipo>
55.5268

> <Gold.Chemscore.Internal_Hbond>
0.0000

> <Gold.Chemscore.DEClash>
1.3109

> <Gold.Chemscore.DEInternal>
0.2182

> <Gold.Chemscore.Rot>
4.0493

> <Gold.Chemscore.Internal.Correction>
   9.000000E+99

> <Gold.Chemscore.Hbonds>
donor molecule, donor type, donor heavy atom, donor atom, acceptor molecule, acceptor atom, score
      L1  H    18    41       P1 10175  0.82
      L1  H    22    43       P1  7957  0.94
      P1  H  7997  8009       L1    24  0.33

> <Gold.Chemscore.Hbond.Weighted>
-7.9501

> <Gold.Chemscore.Metal.Weighted>
-0.0000

> <Gold.Chemscore.Lipo.Weighted>
-6.4966

> <Gold.Chemscore.Internal_Hbond.Weighted>
0.0000

> <Gold.Chemscore.DEClash.Weighted>
1.3109

> <Gold.Chemscore.DEInternal.Weighted>
0.2182

> <Gold.Chemscore.Rot.Weighted>
10.3662

> <Gold.Chemscore.Internal.Correction.Weighted>
   9.000000E+99

> <Gold.Protein.RotatedTorsions>
[ 6907 6896 6895 6894 ] final   12.90 input  -60.11 | X-H torsion
[ 7974 7965 7964 7962 ] final   60.91 input  175.53 | X-H torsion
[ 8008 7997 7996 7995 ] final -164.40 input   59.86 | X-H torsion
[ 10167 10162 10161 10158 ] final  -91.78 input  -65.29 | X-H torsion
[ 10718 10713 10712 10709 ] final  154.88 input   66.30 | X-H torsion
[ 10763 10752 10751 10750 ] final  138.40 input  -60.55 | X-H torsion
[ 11005 11000 10999 10996 ] final -119.93 input  -57.11 | X-H torsion

> <Gold.Protein.ActiveResidues>
 VAL166  LYS551  ARG553  GLY616  TRP617  ASP618  TYR619  PRO620  LYS621  CYS622 
 ASP623  PHE694  ASN695  SER759  ASP760  ASP761  ALA762  ILE779  LEU786  VAL792 
 PHE793  MET794  SER795  GLU796  ALA797  LYS798  CYS799  TRP800  GLU811  SER814 

> <Gold.Protein.RotatedAtoms>
  151.7777  135.0770  160.0368 H   0  0  0  0  0  0  0  0  0  0  0  0  # atno 6907 bound_to 6896
  152.3244  133.5885  159.5775 H   0  0  0  0  0  0  0  0  0  0  0  0  # atno 6908 bound_to 6896
  150.7387  133.9878  159.3639 H   0  0  0  0  0  0  0  0  0  0  0  0  # atno 6909 bound_to 6896
  145.8908  139.3509  143.0651 H   0  0  0  0  0  0  0  0  0  0  0  0  # atno 7974 bound_to 7965
  155.8351  140.0940  157.1769 H   0  0  0  0  0  0  0  0  0  0  0  0  # atno 8008 bound_to 7997
  154.3980  140.1411  156.3722 H   0  0  0  0  0  0  0  0  0  0  0  0  # atno 8009 bound_to 7997
  155.8124  140.3449  155.5468 H   0  0  0  0  0  0  0  0  0  0  0  0  # atno 8010 bound_to 7997
  140.3415  143.2940  151.9830 H   0  0  0  0  0  0  0  0  0  0  0  0  # atno 10167 bound_to 10162
  157.2257  131.0728  151.1884 H   0  0  0  0  0  0  0  0  0  0  0  0  # atno 10718 bound_to 10713
  153.8889  135.3035  155.3447 H   0  0  0  0  0  0  0  0  0  0  0  0  # atno 10763 bound_to 10752
  154.7726  135.4878  153.9682 H   0  0  0  0  0  0  0  0  0  0  0  0  # atno 10764 bound_to 10752
  153.1309  135.6803  153.9279 H   0  0  0  0  0  0  0  0  0  0  0  0  # atno 10765 bound_to 10752
  141.0180  134.0166  157.3322 H   0  0  0  0  0  0  0  0  0  0  0  0  # atno 11005 bound_to 11000
  145.8911  140.9303  143.0551 LP  0  0  0  0  0  0  0  0  0  0  0  0  # atno 17320 bound_to 7965
  144.6730  140.0907  143.7465 LP  0  0  0  0  0  0  0  0  0  0  0  0  # atno 17321 bound_to 7965
  139.4840  144.6153  151.7358 LP  0  0  0  0  0  0  0  0  0  0  0  0  # atno 17342 bound_to 10162
  140.5305  144.0738  150.6052 LP  0  0  0  0  0  0  0  0  0  0  0  0  # atno 17343 bound_to 10162
  157.3530  130.7092  149.6452 LP  0  0  0  0  0  0  0  0  0  0  0  0  # atno 17370 bound_to 10713
  155.9679  130.4247  150.4621 LP  0  0  0  0  0  0  0  0  0  0  0  0  # atno 17371 bound_to 10713
  139.9129  135.0193  156.7764 LP  0  0  0  0  0  0  0  0  0  0  0  0  # atno 17394 bound_to 11000
  140.6621  133.9636  155.7810 LP  0  0  0  0  0  0  0  0  0  0  0  0  # atno 17395 bound_to 11000

$$$$
