AV-unprocessed.smi:743|AV-procd|sdf|3560|dock3
  -GOLD-   22720 0553D 1   1.00000     0.00000
 Structure written by MMmdl.
 29 30  0  0  0  0  0  0  0  0  2 V2000
  141.5666  137.6281  154.5777 C   0  0  0  0  0  0  0  0  0  0  0  0
  142.2823  136.6687  153.7641 N   0  0  0  0  0  0  0  0  0  0  0  0
  143.0041  136.8865  152.6112 C   0  0  0  0  0  0  0  0  0  0  0  0
  143.4946  135.6785  152.1937 C   0  0  0  0  0  0  0  0  0  0  0  0
  144.3413  135.3448  150.9815 C   0  0  2  0  0  0  0  0  0  0  0  0
  143.7655  134.2213  150.2376 N   0  0  0  0  0  0  0  0  0  0  0  0
  144.1374  132.9300  150.3190 C   0  0  0  0  0  0  0  0  0  0  0  0
  143.5112  132.0464  149.7396 O   0  0  0  0  0  0  0  0  0  0  0  0
  145.4029  132.5602  151.1115 C   0  0  0  0  0  0  0  0  0  0  0  0
  145.9309  133.6799  152.0268 C   0  0  0  0  0  0  0  0  0  0  0  0
  145.8167  135.0509  151.3470 C   0  0  2  0  0  0  0  0  0  0  0  0
  146.4224  136.1193  152.1639 N   0  3  0  0  0  0  0  0  0  0  0  0
  143.0172  134.7767  153.1890 C   0  0  0  0  0  0  0  0  0  0  0  0
  142.2883  135.3686  154.1196 N   0  0  0  0  0  0  0  0  0  0  0  0
  146.3957  135.0123  150.4229 H   0  0  0  0  0  0  0  0  0  0  0  0
  141.6434  138.6228  154.1380 H   0  0  0  0  0  0  0  0  0  0  0  0
  141.9916  137.6509  155.5816 H   0  0  0  0  0  0  0  0  0  0  0  0
  140.5143  137.3488  154.6394 H   0  0  0  0  0  0  0  0  0  0  0  0
  143.1033  137.8734  152.1829 H   0  0  0  0  0  0  0  0  0  0  0  0
  144.3326  136.1940  150.2970 H   0  0  0  0  0  0  0  0  0  0  0  0
  142.9567  134.4300  149.6692 H   0  0  0  0  0  0  0  0  0  0  0  0
  145.2180  131.6573  151.6943 H   0  0  0  0  0  0  0  0  0  0  0  0
  146.1716  132.3032  150.3821 H   0  0  0  0  0  0  0  0  0  0  0  0
  145.3804  133.6761  152.9687 H   0  0  0  0  0  0  0  0  0  0  0  0
  146.9708  133.4743  152.2828 H   0  0  0  0  0  0  0  0  0  0  0  0
  146.0559  137.0137  151.8704 H   0  0  0  0  0  0  0  0  0  0  0  0
  147.4251  136.1106  152.0430 H   0  0  0  0  0  0  0  0  0  0  0  0
  143.1736  133.7102  153.2572 H   0  0  0  0  0  0  0  0  0  0  0  0
  146.1996  135.9675  153.1374 H   0  0  0  0  0  0  0  0  0  0  0  0
  1  2  1  0  0  0  0
  1 16  1  0  0  0  0
  1 17  1  0  0  0  0
  1 18  1  0  0  0  0
  2 14  1  0  0  0  0
  2  3  1  0  0  0  0
  3  4  2  0  0  0  0
  3 19  1  0  0  0  0
  4  5  1  0  0  0  0
  4 13  1  0  0  0  0
  5 11  1  0  0  0  0
  5  6  1  0  0  0  0
  5 20  1  0  0  0  0
  6  7  1  0  0  0  0
  6 21  1  0  0  0  0
  7  8  2  0  0  0  0
  7  9  1  0  0  0  0
  9 10  1  0  0  0  0
  9 22  1  0  0  0  0
  9 23  1  0  0  0  0
 10 11  1  0  0  0  0
 10 24  1  0  0  0  0
 10 25  1  0  0  0  0
 11 15  1  0  0  0  0
 11 12  1  0  0  0  0
 12 26  1  0  0  0  0
 12 27  1  0  0  0  0
 12 29  1  0  0  0  0
 13 14  2  0  0  0  0
 13 28  1  0  0  0  0
M  CHG  1  12   1
M  END
> <s_m_source_file>
AV-unprocessed.smi

> <i_m_source_file_index>
743

> <i_lp_mmshare_version>
43012

> <i_f3d_flags>
0

> <s_epik_input>
W0NIM11uMVtjSF1jKFtjSF1uMSlbQ0BASF0yW05IXUMoPU8pW0NIMl1bQ0gyXVtDQEBIXTJbTkgyXQ==

> <s_epik_cmdline>
J2VwaWtfcHl0aG9uJywgJy1waCcsICc3LjAnLCAnLXRuJywgJzgnLCAnLW1hJywgJzIwMCcsICctbWV0YWxfYmluZGluZycsICctaW1hZScsICc8aW5maWxlLm1hZT4nLCAnLW9tYWUnLCAnPG91dGZpbGUubWFlPic=

> <r_lp_tautomer_probability>
1

> <r_epik_Ionization_Penalty>
0.00878543

> <r_epik_Ionization_Penalty_Charging>
0.00874185

> <r_epik_Ionization_Penalty_Neutral>
4.35793e-05

> <r_epik_State_Penalty>
0.00660351

> <r_epik_Charging_Adjusted_Penalty>
0.0153454

> <i_epik_Tot_Q>
1

> <i_epik_Tot_abs_Q>
1

> <r_epik_Metal_State_Penalty>
0.00660727

> <b_epik_Metal_Only>
0

> <s_lp_Force_Field>
OPLS_2005

> <r_lp_Energy>
11.1602

> <b_lp_Chiralities_Consistent>
1

> <s_lp_Variant>
AV-unprocessed.smi:743-1

> <Gold.Version>
5.8.1

> <Gold.Id.Protein>
6NUR|6NUR_protein|mol2

> <Gold.PLP.Fitness>
43.4019

> <Gold.PLP.PLP>
-24.8287

> <Gold.PLP.part.hbond>
-2.7751

> <Gold.PLP.part.metal>
0.0000

> <Gold.PLP.part.buried>
-7.1306

> <Gold.PLP.part.nonpolar>
-16.5061

> <Gold.PLP.part.repulsive>
0.3843

> <Gold.PLP.ligand.clash>
0.0000

> <Gold.PLP.ligand.torsion>
0.2656

> <Gold.PLP.Chemscore.Hbond>
3.5620

> <Gold.PLP.Chemscore.CHOScore>
2.7999

> <Gold.PLP.Chemscore.Metal>
0.0000

> <Gold.Chemscore.Hbonds>
donor molecule, donor type, donor heavy atom, donor atom, acceptor molecule, acceptor atom, score
      L1  H     6    21       P1 10186  0.94
      L1  H    12    27       P1  7948  1.95
      P1  H 10785 10796       L1     8  0.65
      L1  C     3    19       P1 10171  0.90
      L1  C     3    19       P1 10175  0.77
      L1  C    13    28       P1 10957  1.00

> <Gold.PLP.Chemscore.Internal.Correction>
0.0189

> <Gold.Rescore>
     Score         DG    S(hbond)    S(metal)    S(lipo)     H(rot)  DE(clash)    DE(int)     intcor
     16.78     -17.04       2.84        0.00      39.57       1.00       0.12       0.15       ----

> <Gold.Chemscore.Fitness>
16.7771

> <Gold.Chemscore.DG>
-17.0433

> <Gold.Chemscore.ZeroCoef>
-5.4800

> <Gold.Chemscore.Hbond>
2.8426

> <Gold.Chemscore.Metal>
0.0000

> <Gold.Chemscore.Lipo>
39.5654

> <Gold.Chemscore.Internal_Hbond>
0.0000

> <Gold.Chemscore.DEClash>
0.1183

> <Gold.Chemscore.DEInternal>
0.1478

> <Gold.Chemscore.Rot>
1.0000

> <Gold.Chemscore.Internal.Correction>
   9.000000E+99

> <Gold.Chemscore.Hbonds>
donor molecule, donor type, donor heavy atom, donor atom, acceptor molecule, acceptor atom, score
      L1  H     6    21       P1 10186  0.88
      L1  H    12    27       P1  7948  0.92
      P1  H 10785 10796       L1     8  0.62

> <Gold.Chemscore.Hbond.Weighted>
-9.4942

> <Gold.Chemscore.Metal.Weighted>
-0.0000

> <Gold.Chemscore.Lipo.Weighted>
-4.6291

> <Gold.Chemscore.Internal_Hbond.Weighted>
0.0000

> <Gold.Chemscore.DEClash.Weighted>
0.1183

> <Gold.Chemscore.DEInternal.Weighted>
0.1478

> <Gold.Chemscore.Rot.Weighted>
2.5600

> <Gold.Chemscore.Internal.Correction.Weighted>
   9.000000E+99

> <Gold.Protein.RotatedTorsions>
[ 6907 6896 6895 6894 ] final  -47.02 input  -60.11 | X-H torsion
[ 7974 7965 7964 7962 ] final -152.17 input  175.53 | X-H torsion
[ 8008 7997 7996 7995 ] final -103.97 input   59.86 | X-H torsion
[ 10167 10162 10161 10158 ] final  121.30 input  -65.29 | X-H torsion
[ 10718 10713 10712 10709 ] final  176.75 input   66.30 | X-H torsion
[ 10763 10752 10751 10750 ] final  116.48 input  -60.55 | X-H torsion
[ 11005 11000 10999 10996 ] final  156.51 input  -57.11 | X-H torsion

> <Gold.Protein.ActiveResidues>
 VAL166  LYS551  ARG553  GLY616  TRP617  ASP618  TYR619  PRO620  LYS621  CYS622 
 ASP623  PHE694  ASN695  SER759  ASP760  ASP761  ALA762  ILE779  LEU786  VAL792 
 PHE793  MET794  SER795  GLU796  ALA797  LYS798  CYS799  TRP800  GLU811  SER814 

> <Gold.Protein.RotatedAtoms>
  150.9051  134.8466  159.7386 H   0  0  0  0  0  0  0  0  0  0  0  0  # atno 6907 bound_to 6896
  152.4914  134.4443  159.9563 H   0  0  0  0  0  0  0  0  0  0  0  0  # atno 6908 bound_to 6896
  151.4491  133.3583  159.2828 H   0  0  0  0  0  0  0  0  0  0  0  0  # atno 6909 bound_to 6896
  144.7809  140.4699  143.5840 H   0  0  0  0  0  0  0  0  0  0  0  0  # atno 7974 bound_to 7965
  154.8785  140.0420  157.1768 H   0  0  0  0  0  0  0  0  0  0  0  0  # atno 8008 bound_to 7997
  154.8663  140.2951  155.5487 H   0  0  0  0  0  0  0  0  0  0  0  0  # atno 8009 bound_to 7997
  156.2999  140.2437  156.3646 H   0  0  0  0  0  0  0  0  0  0  0  0  # atno 8010 bound_to 7997
  139.5928  144.7031  151.3249 H   0  0  0  0  0  0  0  0  0  0  0  0  # atno 10167 bound_to 10162
  156.9156  130.9924  151.3013 H   0  0  0  0  0  0  0  0  0  0  0  0  # atno 10718 bound_to 10713
  153.5379  135.3565  155.2705 H   0  0  0  0  0  0  0  0  0  0  0  0  # atno 10763 bound_to 10752
  154.8720  135.4084  154.3077 H   0  0  0  0  0  0  0  0  0  0  0  0  # atno 10764 bound_to 10752
  153.3778  135.7067  153.6656 H   0  0  0  0  0  0  0  0  0  0  0  0  # atno 10765 bound_to 10752
  140.1682  134.8562  157.2658 H   0  0  0  0  0  0  0  0  0  0  0  0  # atno 11005 bound_to 11000
  145.6053  139.1507  143.3106 LP  0  0  0  0  0  0  0  0  0  0  0  0  # atno 17320 bound_to 7965
  146.2016  140.6172  142.9099 LP  0  0  0  0  0  0  0  0  0  0  0  0  # atno 17321 bound_to 7965
  140.7187  143.7195  150.7707 LP  0  0  0  0  0  0  0  0  0  0  0  0  # atno 17342 bound_to 10162
  140.0755  143.5020  152.2558 LP  0  0  0  0  0  0  0  0  0  0  0  0  # atno 17343 bound_to 10162
  157.5940  130.8464  149.8702 LP  0  0  0  0  0  0  0  0  0  0  0  0  # atno 17370 bound_to 10713
  156.0515  130.3716  150.1190 LP  0  0  0  0  0  0  0  0  0  0  0  0  # atno 17371 bound_to 10713
  140.2409  134.3797  155.7481 LP  0  0  0  0  0  0  0  0  0  0  0  0  # atno 17394 bound_to 11000
  141.2215  133.7264  156.8787 LP  0  0  0  0  0  0  0  0  0  0  0  0  # atno 17395 bound_to 11000

$$$$
