AV-unprocessed.smi:72|AV-procd|sdf|755|dock3
  -GOLD-   2262017 93D 1   1.00000     0.00000
 Structure written by MMmdl.
 29 30  0  0  0  0  0  0  0  0  1 V2000
  154.1320  138.1819  154.3715 N   0  0  0  0  0  0  0  0  0  0  0  0
  152.8318  138.5832  154.5956 C   0  0  0  0  0  0  0  0  0  0  0  0
  151.8301  137.8177  153.9829 N   0  0  0  0  0  0  0  0  0  0  0  0
  150.6073  138.1880  154.1947 C   0  0  0  0  0  0  0  0  0  0  0  0
  150.2998  139.3359  155.0284 N   0  0  0  0  0  0  0  0  0  0  0  0
  148.8679  139.7690  155.2695 C   0  0  2  0  0  0  0  0  0  0  0  0
  148.0727  138.6321  155.4316 O   0  0  0  0  0  0  0  0  0  0  0  0
  146.8320  138.8276  154.7645 C   0  0  2  0  0  0  0  0  0  0  0  0
  146.1242  137.4861  154.5024 C   0  0  0  0  0  0  0  0  0  0  0  0
  144.8467  137.7070  153.9436 O   0  0  0  0  0  0  0  0  0  0  0  0
  147.2026  139.6759  153.5391 C   0  0  2  0  0  0  0  0  0  0  0  0
  147.6876  138.8636  152.4831 O   0  0  0  0  0  0  0  0  0  0  0  0
  148.2774  140.5995  154.1074 C   0  0  2  0  0  0  0  0  0  0  0  0
  149.2054  141.0514  153.1349 O   0  0  0  0  0  0  0  0  0  0  0  0
  151.3667  140.0773  155.6066 C   0  0  0  0  0  0  0  0  0  0  0  0
  151.1321  141.0733  156.2911 O   0  0  0  0  0  0  0  0  0  0  0  0
  152.6691  139.6313  155.3512 N   0  0  0  0  0  0  0  0  0  0  0  0
  148.8630  140.3125  156.2152 H   0  0  0  0  0  0  0  0  0  0  0  0
  146.2112  139.4308  155.4299 H   0  0  0  0  0  0  0  0  0  0  0  0
  146.3456  140.2376  153.1661 H   0  0  0  0  0  0  0  0  0  0  0  0
  147.7957  141.4714  154.5520 H   0  0  0  0  0  0  0  0  0  0  0  0
  154.9341  138.6564  154.7597 H   0  0  0  0  0  0  0  0  0  0  0  0
  154.3782  137.3824  153.8061 H   0  0  0  0  0  0  0  0  0  0  0  0
  149.7454  137.6736  153.7680 H   0  0  0  0  0  0  0  0  0  0  0  0
  146.7092  136.8410  153.8467 H   0  0  0  0  0  0  0  0  0  0  0  0
  145.9953  136.9471  155.4412 H   0  0  0  0  0  0  0  0  0  0  0  0
  144.5720  136.9179  153.5018 H   0  0  0  0  0  0  0  0  0  0  0  0
  148.4979  139.2349  152.1700 H   0  0  0  0  0  0  0  0  0  0  0  0
  149.3868  140.3403  152.5396 H   0  0  0  0  0  0  0  0  0  0  0  0
  1  2  1  0  0  0  0
  1 22  1  0  0  0  0
  1 23  1  0  0  0  0
  2 17  2  0  0  0  0
  2  3  1  0  0  0  0
  3  4  2  0  0  0  0
  4  5  1  0  0  0  0
  4 24  1  0  0  0  0
  5  6  1  0  0  0  0
  5 15  1  0  0  0  0
  6 18  1  0  0  0  0
  6 13  1  0  0  0  0
  6  7  1  0  0  0  0
  7  8  1  0  0  0  0
  8 19  1  0  0  0  0
  8  9  1  0  0  0  0
  8 11  1  0  0  0  0
  9 10  1  0  0  0  0
  9 25  1  0  0  0  0
  9 26  1  0  0  0  0
 10 27  1  0  0  0  0
 11 20  1  0  0  0  0
 11 12  1  0  0  0  0
 11 13  1  0  0  0  0
 12 28  1  0  0  0  0
 13 21  1  0  0  0  0
 13 14  1  0  0  0  0
 14 29  1  0  0  0  0
 15 16  2  0  0  0  0
 15 17  1  0  0  0  0
M  END
> <s_m_source_file>
AV-unprocessed.smi

> <i_m_source_file_index>
72

> <i_lp_mmshare_version>
43012

> <i_f3d_flags>
0

> <s_epik_input>
W05IMl1jMW5bY0hdbihjKD1PKW4xKVtDQEBIXTJPW0NASF0oW0NIMl1bT0hdKVtDQEBIXShbT0hdKVtDQEhdMltPSF0=

> <s_epik_cmdline>
J2VwaWtfcHl0aG9uJywgJy1waCcsICc3LjAnLCAnLXRuJywgJzgnLCAnLW1hJywgJzIwMCcsICctbWV0YWxfYmluZGluZycsICctaW1hZScsICc8aW5maWxlLm1hZT4nLCAnLW9tYWUnLCAnPG91dGZpbGUubWFlPic=

> <r_lp_tautomer_probability>
4.77166e-05

> <r_epik_Ionization_Penalty>
1.3546

> <r_epik_Ionization_Penalty_Charging>
1.46833e-10

> <r_epik_Ionization_Penalty_Neutral>
1.3546

> <r_epik_State_Penalty>
3.51908

> <r_epik_Charging_Adjusted_Penalty>
3.51908

> <i_epik_Tot_Q>
0

> <i_epik_Tot_abs_Q>
0

> <r_epik_Metal_State_Penalty>
3.44088

> <b_epik_Metal_Only>
1

> <s_epik_Chemistry_Notes>
This compound contains an acetal/aminal-like group ( X-CH(R)-Y where X, Y are N, S, or O) that may be acid/base labile, releasing an aldehyde.

> <s_lp_Force_Field>
OPLS_2005

> <r_lp_Energy>
36.4179

> <b_lp_Chiralities_Consistent>
1

> <s_lp_Variant>
AV-unprocessed.smi:72-93

> <Gold.Version>
5.8.1

> <Gold.Id.Protein>
6NUR|6NUR_protein|mol2

> <Gold.PLP.Fitness>
38.0553

> <Gold.PLP.PLP>
-24.9324

> <Gold.PLP.part.hbond>
-5.6726

> <Gold.PLP.part.metal>
0.0000

> <Gold.PLP.part.buried>
-5.3387

> <Gold.PLP.part.nonpolar>
-15.6632

> <Gold.PLP.part.repulsive>
1.0112

> <Gold.PLP.ligand.clash>
0.0000

> <Gold.PLP.ligand.torsion>
0.6085

> <Gold.PLP.Chemscore.Hbond>
3.8154

> <Gold.PLP.Chemscore.CHOScore>
0.9640

> <Gold.PLP.Chemscore.Metal>
0.0000

> <Gold.Chemscore.Hbonds>
donor molecule, donor type, donor heavy atom, donor atom, acceptor molecule, acceptor atom, score
      L1  H    12    28       P1  7957  1.00
      L1  H    14    29       P1  7957  0.63
      P1  H  7997  8008       L1    17  1.00
      P1  H  8011  8017       L1    14  1.00
      L1  C     4    24       P1  7948  1.00

> <Gold.PLP.Chemscore.Internal.Correction>
0.0016

> <Gold.Rescore>
     Score         DG    S(hbond)    S(metal)    S(lipo)     H(rot)  DE(clash)    DE(int)     intcor
      5.56      -7.14       3.05        0.00      16.12       4.06       1.30       0.28       ----

> <Gold.Chemscore.Fitness>
5.5601

> <Gold.Chemscore.DG>
-7.1447

> <Gold.Chemscore.ZeroCoef>
-5.4800

> <Gold.Chemscore.Hbond>
3.0455

> <Gold.Chemscore.Metal>
0.0000

> <Gold.Chemscore.Lipo>
16.1221

> <Gold.Chemscore.Internal_Hbond>
0.0000

> <Gold.Chemscore.DEClash>
1.3043

> <Gold.Chemscore.DEInternal>
0.2802

> <Gold.Chemscore.Rot>
4.0600

> <Gold.Chemscore.Internal.Correction>
   9.000000E+99

> <Gold.Chemscore.Hbonds>
donor molecule, donor type, donor heavy atom, donor atom, acceptor molecule, acceptor atom, score
      L1  H    12    28       P1  7957  0.99
      L1  H    14    29       P1  7957  0.61
      P1  H  7997  8008       L1    17  0.76
      P1  H  8011  8017       L1    14  0.40

> <Gold.Chemscore.Hbond.Weighted>
-10.1720

> <Gold.Chemscore.Metal.Weighted>
-0.0000

> <Gold.Chemscore.Lipo.Weighted>
-1.8863

> <Gold.Chemscore.Internal_Hbond.Weighted>
0.0000

> <Gold.Chemscore.DEClash.Weighted>
1.3043

> <Gold.Chemscore.DEInternal.Weighted>
0.2802

> <Gold.Chemscore.Rot.Weighted>
10.3936

> <Gold.Chemscore.Internal.Correction.Weighted>
   9.000000E+99

> <Gold.Protein.RotatedTorsions>
[ 6907 6896 6895 6894 ] final  -59.76 input  -60.11 | X-H torsion
[ 7974 7965 7964 7962 ] final   38.95 input  175.53 | X-H torsion
[ 8008 7997 7996 7995 ] final  -46.24 input   59.86 | X-H torsion
[ 10167 10162 10161 10158 ] final -164.78 input  -65.29 | X-H torsion
[ 10718 10713 10712 10709 ] final   32.41 input   66.30 | X-H torsion
[ 10763 10752 10751 10750 ] final -152.65 input  -60.55 | X-H torsion
[ 11005 11000 10999 10996 ] final -144.79 input  -57.11 | X-H torsion

> <Gold.Protein.ActiveResidues>
 VAL166  LYS551  ARG553  GLY616  TRP617  ASP618  TYR619  PRO620  LYS621  CYS622 
 ASP623  PHE694  ASN695  SER759  ASP760  ASP761  ALA762  ILE779  LEU786  VAL792 
 PHE793  MET794  SER795  GLU796  ALA797  LYS798  CYS799  TRP800  GLU811  SER814 

> <Gold.Protein.RotatedAtoms>
  150.7906  134.6927  159.6505 H   0  0  0  0  0  0  0  0  0  0  0  0  # atno 6907 bound_to 6896
  152.4011  134.6281  160.0078 H   0  0  0  0  0  0  0  0  0  0  0  0  # atno 6908 bound_to 6896
  151.6552  133.3282  159.3197 H   0  0  0  0  0  0  0  0  0  0  0  0  # atno 6909 bound_to 6896
  146.1022  139.5710  142.9406 H   0  0  0  0  0  0  0  0  0  0  0  0  # atno 7974 bound_to 7965
  154.4006  140.1376  156.3980 H   0  0  0  0  0  0  0  0  0  0  0  0  # atno 8008 bound_to 7997
  155.7852  140.3480  155.5298 H   0  0  0  0  0  0  0  0  0  0  0  0  # atno 8009 bound_to 7997
  155.8635  140.0960  157.1588 H   0  0  0  0  0  0  0  0  0  0  0  0  # atno 8010 bound_to 7997
  139.6227  144.0593  152.1947 H   0  0  0  0  0  0  0  0  0  0  0  0  # atno 10167 bound_to 10162
  157.2849  130.7273  149.6577 H   0  0  0  0  0  0  0  0  0  0  0  0  # atno 10718 bound_to 10713
  154.7980  135.3231  154.7620 H   0  0  0  0  0  0  0  0  0  0  0  0  # atno 10763 bound_to 10752
  153.8294  135.6880  153.4821 H   0  0  0  0  0  0  0  0  0  0  0  0  # atno 10764 bound_to 10752
  153.1681  135.4634  154.9807 H   0  0  0  0  0  0  0  0  0  0  0  0  # atno 10765 bound_to 10752
  140.7989  134.2880  157.4986 H   0  0  0  0  0  0  0  0  0  0  0  0  # atno 11005 bound_to 11000
  145.5831  141.0380  143.2111 LP  0  0  0  0  0  0  0  0  0  0  0  0  # atno 17320 bound_to 7965
  144.7442  139.7365  143.7299 LP  0  0  0  0  0  0  0  0  0  0  0  0  # atno 17321 bound_to 7965
  140.0238  144.6132  150.7544 LP  0  0  0  0  0  0  0  0  0  0  0  0  # atno 17342 bound_to 10162
  140.7392  143.2788  151.3661 LP  0  0  0  0  0  0  0  0  0  0  0  0  # atno 17343 bound_to 10162
  155.9665  130.4327  150.4973 LP  0  0  0  0  0  0  0  0  0  0  0  0  # atno 17370 bound_to 10713
  157.2924  131.0629  151.2124 LP  0  0  0  0  0  0  0  0  0  0  0  0  # atno 17371 bound_to 10713
  139.8723  134.9418  156.3807 LP  0  0  0  0  0  0  0  0  0  0  0  0  # atno 17394 bound_to 11000
  140.9315  133.7576  156.0030 LP  0  0  0  0  0  0  0  0  0  0  0  0  # atno 17395 bound_to 11000

$$$$
