AV-unprocessed.smi:3190|AV-procd|sdf|12195|dock2
  -GOLD-   2272018 33D 1   1.00000     0.00000
 Structure written by MMmdl.
 34 35  0  0  0  0  0  0  0  0  1 V2000
  151.4106  140.5638  155.5123 O   0  0  0  0  0  0  0  0  0  0  0  0
  150.8444  141.6070  155.8380 C   0  0  0  0  0  0  0  0  0  0  0  0
  151.5577  142.5881  156.7682 C   0  0  0  0  0  0  0  0  0  0  0  0
  151.7655  141.9658  158.0299 O   0  0  0  0  0  0  0  0  0  0  0  0
  152.3783  142.7975  159.0056 C   0  0  0  0  0  0  0  0  0  0  0  0
  152.4478  141.9896  160.3133 C   0  0  0  0  0  0  0  0  0  0  0  0
  153.0255  142.8294  161.4635 C   0  0  0  0  0  0  0  0  0  0  0  0
  152.2174  144.1206  161.6665 C   0  0  0  0  0  0  0  0  0  0  0  0
  152.1369  144.9352  160.3656 C   0  0  0  0  0  0  0  0  0  0  0  0
  151.5666  144.0937  159.2118 C   0  0  0  0  0  0  0  0  0  0  0  0
  149.6054  141.9599  155.4472 N   0  0  0  0  0  0  0  0  0  0  0  0
  148.7243  141.2614  154.5816 C   0  0  0  0  0  0  0  0  0  0  0  0
  147.6153  142.0014  154.1080 C   0  0  0  0  0  0  0  0  0  0  0  0
  146.6905  141.4763  153.2741 N   0  0  0  0  0  0  0  0  0  0  0  0
  146.8718  140.1906  152.9044 C   0  0  0  0  0  0  0  0  0  0  0  0
  147.9701  139.4381  153.3666 C   0  0  0  0  0  0  0  0  0  0  0  0
  148.8910  139.9692  154.2001 N   0  0  0  0  0  0  0  0  0  0  0  0
  152.5114  142.8695  156.3195 H   0  0  0  0  0  0  0  0  0  0  0  0
  150.9566  143.4920  156.8715 H   0  0  0  0  0  0  0  0  0  0  0  0
  153.3972  143.0429  158.6998 H   0  0  0  0  0  0  0  0  0  0  0  0
  151.4498  141.6418  160.5838 H   0  0  0  0  0  0  0  0  0  0  0  0
  153.0561  141.0965  160.1659 H   0  0  0  0  0  0  0  0  0  0  0  0
  153.0308  142.2450  162.3841 H   0  0  0  0  0  0  0  0  0  0  0  0
  154.0657  143.0778  161.2483 H   0  0  0  0  0  0  0  0  0  0  0  0
  151.2105  143.8720  162.0047 H   0  0  0  0  0  0  0  0  0  0  0  0
  152.6693  144.7225  162.4554 H   0  0  0  0  0  0  0  0  0  0  0  0
  151.5194  145.8206  160.5200 H   0  0  0  0  0  0  0  0  0  0  0  0
  153.1312  145.2948  160.0979 H   0  0  0  0  0  0  0  0  0  0  0  0
  151.5594  144.6929  158.3016 H   0  0  0  0  0  0  0  0  0  0  0  0
  150.5265  143.8437  159.4247 H   0  0  0  0  0  0  0  0  0  0  0  0
  149.2638  142.8424  155.7994 H   0  0  0  0  0  0  0  0  0  0  0  0
  147.4664  143.0309  154.4003 H   0  0  0  0  0  0  0  0  0  0  0  0
  146.1391  139.7606  152.2377 H   0  0  0  0  0  0  0  0  0  0  0  0
  148.1103  138.4099  153.0676 H   0  0  0  0  0  0  0  0  0  0  0  0
  1  2  2  0  0  0  0
  2  3  1  0  0  0  0
  2 11  1  0  0  0  0
  3  4  1  0  0  0  0
  3 18  1  0  0  0  0
  3 19  1  0  0  0  0
  4  5  1  0  0  0  0
  5 10  1  0  0  0  0
  5  6  1  0  0  0  0
  5 20  1  0  0  0  0
  6  7  1  0  0  0  0
  6 21  1  0  0  0  0
  6 22  1  0  0  0  0
  7  8  1  0  0  0  0
  7 23  1  0  0  0  0
  7 24  1  0  0  0  0
  8  9  1  0  0  0  0
  8 25  1  0  0  0  0
  8 26  1  0  0  0  0
  9 10  1  0  0  0  0
  9 27  1  0  0  0  0
  9 28  1  0  0  0  0
 10 29  1  0  0  0  0
 10 30  1  0  0  0  0
 11 12  1  0  0  0  0
 11 31  1  0  0  0  0
 12 17  1  0  0  0  0
 12 13  2  0  0  0  0
 13 14  1  0  0  0  0
 13 32  1  0  0  0  0
 14 15  2  0  0  0  0
 15 16  1  0  0  0  0
 15 33  1  0  0  0  0
 16 17  2  0  0  0  0
 16 34  1  0  0  0  0
M  END
> <s_m_source_file>
AV-unprocessed.smi

> <i_m_source_file_index>
3190

> <i_lp_mmshare_version>
43012

> <i_f3d_flags>
0

> <s_epik_input>
bjFbY0hdW2NIXW5bY0hdYzFbTkhdQyg9TylbQ0gyXU9bQ0hdMltDSDJdW0NIMl1bQ0gyXVtDSDJdW0NIMl0y

> <s_epik_cmdline>
J2VwaWtfcHl0aG9uJywgJy1waCcsICc3LjAnLCAnLXRuJywgJzgnLCAnLW1hJywgJzIwMCcsICctbWV0YWxfYmluZGluZycsICctaW1hZScsICc8aW5maWxlLm1hZT4nLCAnLW9tYWUnLCAnPG91dGZpbGUubWFlPic=

> <r_lp_tautomer_probability>
1

> <r_epik_Ionization_Penalty>
2.91572e-06

> <r_epik_Ionization_Penalty_Charging>
0

> <r_epik_Ionization_Penalty_Neutral>
2.91572e-06

> <r_epik_State_Penalty>
-0

> <r_epik_Charging_Adjusted_Penalty>
0

> <i_epik_Tot_Q>
0

> <i_epik_Tot_abs_Q>
0

> <r_epik_Metal_State_Penalty>
-0

> <b_epik_Metal_Only>
0

> <s_lp_Force_Field>
OPLS_2005

> <r_lp_Energy>
19.8826

> <b_lp_Chiralities_Consistent>
1

> <s_lp_Variant>
AV-unprocessed.smi:3190-1

> <Gold.Version>
5.8.1

> <Gold.Id.Protein>
6NUR|6NUR_protein|mol2

> <Gold.PLP.Fitness>
49.2907

> <Gold.PLP.PLP>
-36.1919

> <Gold.PLP.part.hbond>
-2.0000

> <Gold.PLP.part.metal>
0.0000

> <Gold.PLP.part.buried>
-2.5263

> <Gold.PLP.part.nonpolar>
-31.0506

> <Gold.PLP.part.repulsive>
0.5355

> <Gold.PLP.ligand.clash>
0.0000

> <Gold.PLP.ligand.torsion>
0.0673

> <Gold.PLP.Chemscore.Hbond>
1.8089

> <Gold.PLP.Chemscore.CHOScore>
2.5990

> <Gold.PLP.Chemscore.Metal>
0.0000

> <Gold.Chemscore.Hbonds>
donor molecule, donor type, donor heavy atom, donor atom, acceptor molecule, acceptor atom, score
      L1  H    11    31       P1  8028  1.00
      P1  H  7989  7998       L1     1  0.80
      L1  C    13    32       P1  8028  1.00
      L1  C    15    33       P1 10175  0.73
      L1  C    16    34       P1  7948  0.80

> <Gold.PLP.Chemscore.Internal.Correction>
0.0098

> <Gold.Rescore>
     Score         DG    S(hbond)    S(metal)    S(lipo)     H(rot)  DE(clash)    DE(int)     intcor
     14.00     -18.10       1.37        0.00     101.83       1.52       2.79       1.31       ----

> <Gold.Chemscore.Fitness>
13.9950

> <Gold.Chemscore.DG>
-18.0973

> <Gold.Chemscore.ZeroCoef>
-5.4800

> <Gold.Chemscore.Hbond>
1.3730

> <Gold.Chemscore.Metal>
0.0000

> <Gold.Chemscore.Lipo>
101.8284

> <Gold.Chemscore.Internal_Hbond>
0.0000

> <Gold.Chemscore.DEClash>
2.7905

> <Gold.Chemscore.DEInternal>
1.3118

> <Gold.Chemscore.Rot>
1.5166

> <Gold.Chemscore.Internal.Correction>
   9.000000E+99

> <Gold.Chemscore.Hbonds>
donor molecule, donor type, donor heavy atom, donor atom, acceptor molecule, acceptor atom, score
      L1  H    11    31       P1  8028  0.97
      P1  H  7989  7998       L1     1  0.19

> <Gold.Chemscore.Hbond.Weighted>
-4.5858

> <Gold.Chemscore.Metal.Weighted>
-0.0000

> <Gold.Chemscore.Lipo.Weighted>
-11.9139

> <Gold.Chemscore.Internal_Hbond.Weighted>
0.0000

> <Gold.Chemscore.DEClash.Weighted>
2.7905

> <Gold.Chemscore.DEInternal.Weighted>
1.3118

> <Gold.Chemscore.Rot.Weighted>
3.8824

> <Gold.Chemscore.Internal.Correction.Weighted>
   9.000000E+99

> <Gold.Protein.RotatedTorsions>
[ 6907 6896 6895 6894 ] final   37.87 input  -60.11 | X-H torsion
[ 7974 7965 7964 7962 ] final  -41.76 input  175.53 | X-H torsion
[ 8008 7997 7996 7995 ] final   81.24 input   59.86 | X-H torsion
[ 10167 10162 10161 10158 ] final  162.99 input  -65.29 | X-H torsion
[ 10718 10713 10712 10709 ] final  -92.39 input   66.30 | X-H torsion
[ 10763 10752 10751 10750 ] final  115.87 input  -60.55 | X-H torsion
[ 11005 11000 10999 10996 ] final   20.81 input  -57.11 | X-H torsion

> <Gold.Protein.ActiveResidues>
 VAL166  LYS551  ARG553  GLY616  TRP617  ASP618  TYR619  PRO620  LYS621  CYS622 
 ASP623  PHE694  ASN695  SER759  ASP760  ASP761  ALA762  ILE779  LEU786  VAL792 
 PHE793  MET794  SER795  GLU796  ALA797  LYS798  CYS799  TRP800  GLU811  SER814 

> <Gold.Protein.RotatedAtoms>
  152.1490  134.9003  160.0549 H   0  0  0  0  0  0  0  0  0  0  0  0  # atno 6907 bound_to 6896
  152.0042  133.3832  159.4202 H   0  0  0  0  0  0  0  0  0  0  0  0  # atno 6908 bound_to 6896
  150.6873  134.3722  159.5041 H   0  0  0  0  0  0  0  0  0  0  0  0  # atno 6909 bound_to 6896
  146.0180  140.6884  142.9192 H   0  0  0  0  0  0  0  0  0  0  0  0  # atno 7974 bound_to 7965
  155.8944  140.3437  155.5980 H   0  0  0  0  0  0  0  0  0  0  0  0  # atno 8008 bound_to 7997
  155.7573  140.0828  157.2191 H   0  0  0  0  0  0  0  0  0  0  0  0  # atno 8009 bound_to 7997
  154.4037  140.1542  156.2780 H   0  0  0  0  0  0  0  0  0  0  0  0  # atno 8010 bound_to 7997
  139.4868  144.4382  151.8985 H   0  0  0  0  0  0  0  0  0  0  0  0  # atno 10167 bound_to 10162
  156.0002  130.4985  150.5618 H   0  0  0  0  0  0  0  0  0  0  0  0  # atno 10718 bound_to 10713
  153.5287  135.3583  155.2666 H   0  0  0  0  0  0  0  0  0  0  0  0  # atno 10763 bound_to 10752
  154.8729  135.4063  154.3176 H   0  0  0  0  0  0  0  0  0  0  0  0  # atno 10764 bound_to 10752
  153.3861  135.7070  153.6597 H   0  0  0  0  0  0  0  0  0  0  0  0  # atno 10765 bound_to 10752
  140.3985  134.1743  155.7663 H   0  0  0  0  0  0  0  0  0  0  0  0  # atno 11005 bound_to 11000
  144.6978  140.3516  143.7180 LP  0  0  0  0  0  0  0  0  0  0  0  0  # atno 17320 bound_to 7965
  145.7238  139.1717  143.2470 LP  0  0  0  0  0  0  0  0  0  0  0  0  # atno 17321 bound_to 7965
  140.3833  144.2708  150.5906 LP  0  0  0  0  0  0  0  0  0  0  0  0  # atno 17342 bound_to 10162
  140.5213  143.2265  151.8384 LP  0  0  0  0  0  0  0  0  0  0  0  0  # atno 17343 bound_to 10162
  157.3526  131.0736  151.1701 LP  0  0  0  0  0  0  0  0  0  0  0  0  # atno 17370 bound_to 10713
  157.2512  130.6615  149.5932 LP  0  0  0  0  0  0  0  0  0  0  0  0  # atno 17371 bound_to 10713
  141.1865  133.8301  157.1066 LP  0  0  0  0  0  0  0  0  0  0  0  0  # atno 17394 bound_to 11000
  140.0353  134.9881  157.0860 LP  0  0  0  0  0  0  0  0  0  0  0  0  # atno 17395 bound_to 11000

$$$$
