AV-unprocessed.smi:1040|AV-procd|sdf|4524|dock3
  -GOLD-   22720 2543D 1   1.00000     0.00000
 Structure written by MMmdl.
 54 55  0  0  0  0  0  0  0  0  1 V2000
  147.3736  134.5127  158.5528 C   0  0  0  0  0  0  0  0  0  0  0  0
  146.7531  135.9174  158.6379 C   0  0  2  0  0  0  0  0  0  0  0  0
  147.4702  136.7865  157.7062 N   0  0  0  0  0  0  0  0  0  0  0  0
  148.8018  136.8215  157.5474 C   0  0  0  0  0  0  0  0  0  0  0  0
  149.5776  136.1187  158.1943 O   0  0  0  0  0  0  0  0  0  0  0  0
  149.1458  137.7086  156.5985 N   0  0  0  0  0  0  0  0  0  0  0  0
  150.4316  138.0782  156.1010 C   0  0  0  0  0  0  0  0  0  0  0  0
  151.6175  137.3464  156.3615 C   0  0  0  0  0  0  0  0  0  0  0  0
  152.8339  137.7882  155.8104 C   0  0  0  0  0  0  0  0  0  0  0  0
  152.8274  138.9475  155.0165 C   0  0  0  0  0  0  0  0  0  0  0  0
  151.7120  139.6603  154.7635 N   0  0  0  0  0  0  0  0  0  0  0  0
  150.5357  139.2437  155.2929 C   0  0  0  0  0  0  0  0  0  0  0  0
  149.3969  140.0298  155.0268 N   0  0  0  0  0  0  0  0  0  0  0  0
  149.6608  141.4668  155.0689 C   0  0  0  0  0  0  0  0  0  0  0  0
  148.3446  142.2609  155.1250 C   0  0  0  0  0  0  0  0  0  0  0  0
  147.4130  141.8652  153.9678 C   0  0  0  0  0  0  0  0  0  0  0  0
  147.1964  140.3431  153.9527 C   0  0  0  0  0  0  0  0  0  0  0  0
  148.5409  139.5962  153.9230 C   0  0  0  0  0  0  0  0  0  0  0  0
  146.9140  136.4236  160.0799 C   0  0  0  0  0  0  0  0  0  0  0  0
  147.7530  137.2853  160.3459 O   0  0  0  0  0  0  0  0  0  0  0  0
  146.1061  135.8559  160.9930 N   0  0  0  0  0  0  0  0  0  0  0  0
  146.0291  136.1209  162.4345 C   0  0  0  0  0  0  0  0  0  0  0  0
  144.9866  135.1483  163.0133 C   0  0  0  0  0  0  0  0  0  0  0  0
  145.5641  137.5685  162.7007 C   0  0  0  0  0  0  0  0  0  0  0  0
  147.3918  135.8545  163.1073 C   0  0  0  0  0  0  0  0  0  0  0  0
  146.8780  133.8190  159.2334 H   0  0  0  0  0  0  0  0  0  0  0  0
  148.4359  134.5210  158.8021 H   0  0  0  0  0  0  0  0  0  0  0  0
  147.2757  134.1043  157.5466 H   0  0  0  0  0  0  0  0  0  0  0  0
  145.6968  135.8684  158.3657 H   0  0  0  0  0  0  0  0  0  0  0  0
  146.9069  137.3910  157.1268 H   0  0  0  0  0  0  0  0  0  0  0  0
  148.3745  138.1777  156.1463 H   0  0  0  0  0  0  0  0  0  0  0  0
  151.6321  136.4582  156.9712 H   0  0  0  0  0  0  0  0  0  0  0  0
  153.7514  137.2485  155.9923 H   0  0  0  0  0  0  0  0  0  0  0  0
  153.7424  139.3151  154.5761 H   0  0  0  0  0  0  0  0  0  0  0  0
  150.2808  141.7215  155.9290 H   0  0  0  0  0  0  0  0  0  0  0  0
  150.2276  141.7468  154.1798 H   0  0  0  0  0  0  0  0  0  0  0  0
  147.8459  142.0720  156.0767 H   0  0  0  0  0  0  0  0  0  0  0  0
  148.5516  143.3308  155.0904 H   0  0  0  0  0  0  0  0  0  0  0  0
  146.4572  142.3816  154.0596 H   0  0  0  0  0  0  0  0  0  0  0  0
  147.8511  142.1821  153.0205 H   0  0  0  0  0  0  0  0  0  0  0  0
  146.6342  140.0454  154.8387 H   0  0  0  0  0  0  0  0  0  0  0  0
  146.5919  140.0584  153.0914 H   0  0  0  0  0  0  0  0  0  0  0  0
  149.0463  139.7842  152.9745 H   0  0  0  0  0  0  0  0  0  0  0  0
  148.3684  138.5210  153.9891 H   0  0  0  0  0  0  0  0  0  0  0  0
  145.4623  135.1591  160.6472 H   0  0  0  0  0  0  0  0  0  0  0  0
  144.8646  135.2899  164.0878 H   0  0  0  0  0  0  0  0  0  0  0  0
  145.2773  134.1094  162.8519 H   0  0  0  0  0  0  0  0  0  0  0  0
  144.0088  135.2913  162.5516 H   0  0  0  0  0  0  0  0  0  0  0  0
  144.6198  137.7810  162.1977 H   0  0  0  0  0  0  0  0  0  0  0  0
  146.2923  138.3042  162.3597 H   0  0  0  0  0  0  0  0  0  0  0  0
  145.4133  137.7417  163.7667 H   0  0  0  0  0  0  0  0  0  0  0  0
  147.3213  135.9577  164.1906 H   0  0  0  0  0  0  0  0  0  0  0  0
  148.1591  136.5513  162.7698 H   0  0  0  0  0  0  0  0  0  0  0  0
  147.7475  134.8451  162.8970 H   0  0  0  0  0  0  0  0  0  0  0  0
  1  2  1  0  0  0  0
  1 26  1  0  0  0  0
  1 27  1  0  0  0  0
  1 28  1  0  0  0  0
  2  3  1  0  0  0  0
  2 19  1  0  0  0  0
  2 29  1  0  0  0  0
  3  4  1  0  0  0  0
  3 30  1  0  0  0  0
  4  5  2  0  0  0  0
  4  6  1  0  0  0  0
  6  7  1  0  0  0  0
  6 31  1  0  0  0  0
  7 12  1  0  0  0  0
  7  8  2  0  0  0  0
  8  9  1  0  0  0  0
  8 32  1  0  0  0  0
  9 10  2  0  0  0  0
  9 33  1  0  0  0  0
 10 11  1  0  0  0  0
 10 34  1  0  0  0  0
 11 12  2  0  0  0  0
 12 13  1  0  0  0  0
 13 18  1  0  0  0  0
 13 14  1  0  0  0  0
 14 15  1  0  0  0  0
 14 35  1  0  0  0  0
 14 36  1  0  0  0  0
 15 16  1  0  0  0  0
 15 37  1  0  0  0  0
 15 38  1  0  0  0  0
 16 17  1  0  0  0  0
 16 39  1  0  0  0  0
 16 40  1  0  0  0  0
 17 18  1  0  0  0  0
 17 41  1  0  0  0  0
 17 42  1  0  0  0  0
 18 43  1  0  0  0  0
 18 44  1  0  0  0  0
 19 20  2  0  0  0  0
 19 21  1  0  0  0  0
 21 22  1  0  0  0  0
 21 45  1  0  0  0  0
 22 23  1  0  0  0  0
 22 24  1  0  0  0  0
 22 25  1  0  0  0  0
 23 46  1  0  0  0  0
 23 47  1  0  0  0  0
 23 48  1  0  0  0  0
 24 49  1  0  0  0  0
 24 50  1  0  0  0  0
 24 51  1  0  0  0  0
 25 52  1  0  0  0  0
 25 53  1  0  0  0  0
 25 54  1  0  0  0  0
M  END
> <s_m_source_file>
AV-unprocessed.smi

> <i_m_source_file_index>
1040

> <i_lp_mmshare_version>
43012

> <i_f3d_flags>
0

> <s_epik_input>
W0NIM11DKFtDSDNdKShbQ0gzXSlbTkhdQyg9TylbQ0BIXShbQ0gzXSlbTkhdQyg9TylbTkhdYzFbY0hdW2NIXVtjSF1uYzFOMltDSDJdW0NIMl1bQ0gyXVtDSDJdW0NIMl0y

> <s_epik_cmdline>
J2VwaWtfcHl0aG9uJywgJy1waCcsICc3LjAnLCAnLXRuJywgJzgnLCAnLW1hJywgJzIwMCcsICctbWV0YWxfYmluZGluZycsICctaW1hZScsICc8aW5maWxlLm1hZT4nLCAnLW9tYWUnLCAnPG91dGZpbGUubWFlPic=

> <r_lp_tautomer_probability>
1

> <r_epik_Ionization_Penalty>
0.0878593

> <r_epik_Ionization_Penalty_Charging>
0

> <r_epik_Ionization_Penalty_Neutral>
0.0878593

> <r_epik_State_Penalty>
0.07381

> <r_epik_Charging_Adjusted_Penalty>
0.07381

> <i_epik_Tot_Q>
0

> <i_epik_Tot_abs_Q>
0

> <r_epik_Metal_State_Penalty>
0.0646628

> <b_epik_Metal_Only>
0

> <s_lp_Force_Field>
OPLS_2005

> <r_lp_Energy>
21.1097

> <b_lp_Chiralities_Consistent>
1

> <s_lp_Variant>
AV-unprocessed.smi:1040-1

> <Gold.Version>
5.8.1

> <Gold.Id.Protein>
6NUR|6NUR_protein|mol2

> <Gold.PLP.Fitness>
42.1179

> <Gold.PLP.PLP>
-35.0190

> <Gold.PLP.part.hbond>
-4.0000

> <Gold.PLP.part.metal>
0.0000

> <Gold.PLP.part.buried>
-1.2259

> <Gold.PLP.part.nonpolar>
-31.5503

> <Gold.PLP.part.repulsive>
0.2023

> <Gold.PLP.ligand.clash>
0.0000

> <Gold.PLP.ligand.torsion>
1.1628

> <Gold.PLP.Chemscore.Hbond>
3.0463

> <Gold.PLP.Chemscore.CHOScore>
0.0000

> <Gold.PLP.Chemscore.Metal>
0.0000

> <Gold.Chemscore.Hbonds>
donor molecule, donor type, donor heavy atom, donor atom, acceptor molecule, acceptor atom, score
      P1  H  6896  6907       L1     5  0.31
      P1  H  6931  6943       L1    20  0.34
      P1  H  6934  6947       L1    20  0.86
      P1  H  7989  7998       L1    11  1.00

> <Gold.PLP.Chemscore.Internal.Correction>
0.2856

> <Gold.Rescore>
     Score         DG    S(hbond)    S(metal)    S(lipo)     H(rot)  DE(clash)    DE(int)     intcor
     17.09     -22.49       3.12        0.00      91.61       1.61       1.83       3.56       ----

> <Gold.Chemscore.Fitness>
17.0941

> <Gold.Chemscore.DG>
-22.4874

> <Gold.Chemscore.ZeroCoef>
-5.4800

> <Gold.Chemscore.Hbond>
3.1201

> <Gold.Chemscore.Metal>
0.0000

> <Gold.Chemscore.Lipo>
91.6150

> <Gold.Chemscore.Internal_Hbond>
0.0000

> <Gold.Chemscore.DEClash>
1.8348

> <Gold.Chemscore.DEInternal>
3.5585

> <Gold.Chemscore.Rot>
1.6143

> <Gold.Chemscore.Internal.Correction>
   9.000000E+99

> <Gold.Chemscore.Hbonds>
donor molecule, donor type, donor heavy atom, donor atom, acceptor molecule, acceptor atom, score
      P1  H  6896  6907       L1     5  0.31
      P1  H  6931  6943       L1    20  0.34
      P1  H  6934  6947       L1    20  0.83
      P1  H  7989  7998       L1    11  0.92

> <Gold.Chemscore.Hbond.Weighted>
-10.4211

> <Gold.Chemscore.Metal.Weighted>
-0.0000

> <Gold.Chemscore.Lipo.Weighted>
-10.7190

> <Gold.Chemscore.Internal_Hbond.Weighted>
0.0000

> <Gold.Chemscore.DEClash.Weighted>
1.8348

> <Gold.Chemscore.DEInternal.Weighted>
3.5585

> <Gold.Chemscore.Rot.Weighted>
4.1326

> <Gold.Chemscore.Internal.Correction.Weighted>
   9.000000E+99

> <Gold.Protein.RotatedTorsions>
[ 6907 6896 6895 6894 ] final  -55.62 input  -60.11 | X-H torsion
[ 7974 7965 7964 7962 ] final  -72.94 input  175.53 | X-H torsion
[ 8008 7997 7996 7995 ] final  -98.39 input   59.86 | X-H torsion
[ 10167 10162 10161 10158 ] final   91.25 input  -65.29 | X-H torsion
[ 10718 10713 10712 10709 ] final   81.87 input   66.30 | X-H torsion
[ 10763 10752 10751 10750 ] final  176.20 input  -60.55 | X-H torsion
[ 11005 11000 10999 10996 ] final   67.11 input  -57.11 | X-H torsion

> <Gold.Protein.ActiveResidues>
 VAL166  LYS551  ARG553  GLY616  TRP617  ASP618  TYR619  PRO620  LYS621  CYS622 
 ASP623  PHE694  ASN695  SER759  ASP760  ASP761  ALA762  ILE779  LEU786  VAL792 
 PHE793  MET794  SER795  GLU796  ALA797  LYS798  CYS799  TRP800  GLU811  SER814 

> <Gold.Protein.RotatedAtoms>
  150.8236  134.7456  159.6793 H   0  0  0  0  0  0  0  0  0  0  0  0  # atno 6907 bound_to 6896
  152.4349  134.5703  159.9929 H   0  0  0  0  0  0  0  0  0  0  0  0  # atno 6908 bound_to 6896
  151.5880  133.3332  159.3058 H   0  0  0  0  0  0  0  0  0  0  0  0  # atno 6909 bound_to 6896
  145.6586  140.9260  143.0946 H   0  0  0  0  0  0  0  0  0  0  0  0  # atno 7974 bound_to 7965
  154.8005  140.0455  157.1269 H   0  0  0  0  0  0  0  0  0  0  0  0  # atno 8008 bound_to 7997
  154.9484  140.3062  155.5067 H   0  0  0  0  0  0  0  0  0  0  0  0  # atno 8009 bound_to 7997
  156.2961  140.2292  156.4559 H   0  0  0  0  0  0  0  0  0  0  0  0  # atno 8010 bound_to 7997
  139.8393  144.6649  150.9303 H   0  0  0  0  0  0  0  0  0  0  0  0  # atno 10167 bound_to 10162
  157.6843  131.0023  150.2290 H   0  0  0  0  0  0  0  0  0  0  0  0  # atno 10718 bound_to 10713
  154.4779  135.2773  155.1593 H   0  0  0  0  0  0  0  0  0  0  0  0  # atno 10763 bound_to 10752
  154.3315  135.6189  153.5557 H   0  0  0  0  0  0  0  0  0  0  0  0  # atno 10764 bound_to 10752
  152.9871  135.5766  154.5174 H   0  0  0  0  0  0  0  0  0  0  0  0  # atno 10765 bound_to 10752
  139.9790  134.6774  156.0298 H   0  0  0  0  0  0  0  0  0  0  0  0  # atno 11005 bound_to 11000
  144.7097  139.8420  143.7418 LP  0  0  0  0  0  0  0  0  0  0  0  0  # atno 17320 bound_to 7965
  146.1144  139.4153  143.0267 LP  0  0  0  0  0  0  0  0  0  0  0  0  # atno 17321 bound_to 7965
  140.7799  143.3928  151.1281 LP  0  0  0  0  0  0  0  0  0  0  0  0  # atno 17342 bound_to 10162
  139.7575  143.8685  152.3092 LP  0  0  0  0  0  0  0  0  0  0  0  0  # atno 17343 bound_to 10162
  156.2927  130.3748  149.7826 LP  0  0  0  0  0  0  0  0  0  0  0  0  # atno 17370 bound_to 10713
  156.5481  130.8329  151.3291 LP  0  0  0  0  0  0  0  0  0  0  0  0  # atno 17371 bound_to 10713
  141.1465  133.6555  156.3882 LP  0  0  0  0  0  0  0  0  0  0  0  0  # atno 17394 bound_to 11000
  140.5134  134.6373  157.5292 LP  0  0  0  0  0  0  0  0  0  0  0  0  # atno 17395 bound_to 11000

$$$$
