AV-unprocessed.smi:82|AV-procd|sdf|795|dock1
  -GOLD-   2262017173D 1   1.00000     0.00000
 Structure written by MMmdl.
 59 62  0  0  0  0  0  0  0  0  2 V2000
  152.5129  143.1369  159.7791 C   0  0  0  0  0  0  0  0  0  0  0  0
  152.3366  142.4206  158.5691 O   0  0  0  0  0  0  0  0  0  0  0  0
  151.1134  142.7350  157.9245 C   0  0  0  0  0  0  0  0  0  0  0  0
  150.9815  141.8729  156.6603 C   0  0  0  0  0  0  0  0  0  0  0  0
  149.6348  141.9782  156.0408 N   0  3  1  0  0  0  0  0  0  0  0  0
  149.5189  141.2922  154.7257 C   0  0  0  0  0  0  0  0  0  0  0  0
  148.1518  141.5757  154.0777 C   0  0  0  0  0  0  0  0  0  0  0  0
  147.0565  141.2565  154.9908 N   0  0  0  0  0  0  0  0  0  0  0  0
  146.4868  140.0220  154.9484 C   0  0  0  0  0  0  0  0  0  0  0  0
  145.9900  139.4716  156.0886 N   0  0  0  0  0  0  0  0  0  0  0  0
  145.4082  138.2695  156.0646 C   0  0  0  0  0  0  0  0  0  0  0  0
  145.2287  137.4517  155.0269 N   0  0  0  0  0  0  0  0  0  0  0  0
  145.7419  137.9853  153.8819 C   0  0  0  0  0  0  0  0  0  0  0  0
  146.3756  139.2543  153.7532 C   0  0  0  0  0  0  0  0  0  0  0  0
  146.7628  139.4533  152.4329 N   0  0  0  0  0  0  0  0  0  0  0  0
  146.3681  138.3733  151.8159 C   0  0  0  0  0  0  0  0  0  0  0  0
  145.7731  137.4253  152.6168 N   0  0  0  0  0  0  0  0  0  0  0  0
  145.2231  136.1698  152.1968 C   0  0  0  0  0  0  0  0  0  0  0  0
  145.8903  134.8471  152.5808 C   0  0  0  0  0  0  0  0  0  0  0  0
  145.4240  134.2298  151.2441 C   0  0  0  0  0  0  0  0  0  0  0  0
  146.4601  133.3390  150.5389 C   0  0  0  0  0  0  0  0  0  0  0  0
  146.6534  132.1267  151.2392 O   0  0  0  0  0  0  0  0  0  0  0  0
  144.0734  133.4877  151.3001 C   0  0  0  0  0  0  0  0  0  0  0  0
  143.5487  133.2748  150.0053 O   0  0  0  0  0  0  0  0  0  0  0  0
  145.3530  135.6923  150.7485 C   0  0  0  0  0  0  0  0  0  0  0  0
  147.1487  141.9084  156.2963 C   0  0  0  0  0  0  0  0  0  0  0  0
  148.5144  141.6523  156.9730 C   0  0  1  0  0  0  0  0  0  0  0  0
  148.6119  140.2329  157.5733 C   0  0  0  0  0  0  0  0  0  0  0  0
  153.4609  142.8555  160.2375 H   0  0  0  0  0  0  0  0  0  0  0  0
  151.7167  142.9130  160.4899 H   0  0  0  0  0  0  0  0  0  0  0  0
  152.5319  144.2127  159.6013 H   0  0  0  0  0  0  0  0  0  0  0  0
  150.2717  142.5861  158.6012 H   0  0  0  0  0  0  0  0  0  0  0  0
  151.1123  143.7890  157.6428 H   0  0  0  0  0  0  0  0  0  0  0  0
  151.7447  142.1500  155.9315 H   0  0  0  0  0  0  0  0  0  0  0  0
  151.1794  140.8365  156.9378 H   0  0  0  0  0  0  0  0  0  0  0  0
  150.3021  141.6312  154.0492 H   0  0  0  0  0  0  0  0  0  0  0  0
  149.6656  140.2194  154.8538 H   0  0  0  0  0  0  0  0  0  0  0  0
  148.0810  142.6349  153.8283 H   0  0  0  0  0  0  0  0  0  0  0  0
  148.0511  141.0394  153.1332 H   0  0  0  0  0  0  0  0  0  0  0  0
  145.0342  137.9108  157.0123 H   0  0  0  0  0  0  0  0  0  0  0  0
  146.5114  138.2348  150.7539 H   0  0  0  0  0  0  0  0  0  0  0  0
  144.1771  136.1796  152.5079 H   0  0  0  0  0  0  0  0  0  0  0  0
  146.9760  134.9357  152.6542 H   0  0  0  0  0  0  0  0  0  0  0  0
  145.4772  134.3753  153.4728 H   0  0  0  0  0  0  0  0  0  0  0  0
  146.1659  133.1131  149.5137 H   0  0  0  0  0  0  0  0  0  0  0  0
  147.4249  133.8428  150.4747 H   0  0  0  0  0  0  0  0  0  0  0  0
  147.3537  131.6484  150.8221 H   0  0  0  0  0  0  0  0  0  0  0  0
  144.1672  132.5251  151.8032 H   0  0  0  0  0  0  0  0  0  0  0  0
  143.3354  134.0539  151.8686 H   0  0  0  0  0  0  0  0  0  0  0  0
  142.7749  133.8078  149.9032 H   0  0  0  0  0  0  0  0  0  0  0  0
  144.4936  135.9284  150.1203 H   0  0  0  0  0  0  0  0  0  0  0  0
  146.2797  136.0286  150.2799 H   0  0  0  0  0  0  0  0  0  0  0  0
  147.0202  142.9796  156.1365 H   0  0  0  0  0  0  0  0  0  0  0  0
  146.3449  141.6102  156.9674 H   0  0  0  0  0  0  0  0  0  0  0  0
  148.5825  142.3511  157.8078 H   0  0  0  0  0  0  0  0  0  0  0  0
  147.7671  140.0355  158.2334 H   0  0  0  0  0  0  0  0  0  0  0  0
  149.5158  140.1066  158.1688 H   0  0  0  0  0  0  0  0  0  0  0  0
  148.6117  139.4586  156.8074 H   0  0  0  0  0  0  0  0  0  0  0  0
  149.5166  142.9614  155.8406 H   0  0  0  0  0  0  0  0  0  0  0  0
  1  2  1  0  0  0  0
  1 29  1  0  0  0  0
  1 30  1  0  0  0  0
  1 31  1  0  0  0  0
  2  3  1  0  0  0  0
  3  4  1  0  0  0  0
  3 32  1  0  0  0  0
  3 33  1  0  0  0  0
  4  5  1  0  0  0  0
  4 34  1  0  0  0  0
  4 35  1  0  0  0  0
  5 27  1  0  0  0  0
  5  6  1  0  0  0  0
  5 59  1  0  0  0  0
  6  7  1  0  0  0  0
  6 36  1  0  0  0  0
  6 37  1  0  0  0  0
  7  8  1  0  0  0  0
  7 38  1  0  0  0  0
  7 39  1  0  0  0  0
  8  9  1  0  0  0  0
  8 26  1  0  0  0  0
  9 14  1  0  0  0  0
  9 10  2  0  0  0  0
 10 11  1  0  0  0  0
 11 12  2  0  0  0  0
 11 40  1  0  0  0  0
 12 13  1  0  0  0  0
 13 17  1  0  0  0  0
 13 14  2  0  0  0  0
 14 15  1  0  0  0  0
 15 16  2  0  0  0  0
 16 17  1  0  0  0  0
 16 41  1  0  0  0  0
 17 18  1  0  0  0  0
 18 25  1  0  0  0  0
 18 19  1  0  0  0  0
 18 42  1  0  0  0  0
 19 20  1  0  0  0  0
 19 43  1  0  0  0  0
 19 44  1  0  0  0  0
 20 21  1  0  0  0  0
 20 23  1  0  0  0  0
 20 25  1  0  0  0  0
 21 22  1  0  0  0  0
 21 45  1  0  0  0  0
 21 46  1  0  0  0  0
 22 47  1  0  0  0  0
 23 24  1  0  0  0  0
 23 48  1  0  0  0  0
 23 49  1  0  0  0  0
 24 50  1  0  0  0  0
 25 51  1  0  0  0  0
 25 52  1  0  0  0  0
 26 27  1  0  0  0  0
 26 53  1  0  0  0  0
 26 54  1  0  0  0  0
 27 28  1  0  0  0  0
 27 55  1  0  0  0  0
 28 56  1  0  0  0  0
 28 57  1  0  0  0  0
 28 58  1  0  0  0  0
M  CHG  1   5   1
M  END
> <s_m_source_file>
AV-unprocessed.smi

> <i_m_source_file_index>
82

> <i_lp_mmshare_version>
43012

> <i_f3d_flags>
0

> <s_epik_input>
W0NIM11PW0NIMl1bQ0gyXU4xW0NIMl1bQ0gyXU4oW0NIMl1bQ0BIXTFbQ0gzXSljKG5bY0hdbjIpYyhjMjMpbltjSF1uM1tDSF0oW0NIMl00KVtDSDJdQzQoW0NIMl1bT0hdKVtDSDJdW09IXQ==

> <s_epik_cmdline>
J2VwaWtfcHl0aG9uJywgJy1waCcsICc3LjAnLCAnLXRuJywgJzgnLCAnLW1hJywgJzIwMCcsICctbWV0YWxfYmluZGluZycsICctaW1hZScsICc8aW5maWxlLm1hZT4nLCAnLW9tYWUnLCAnPG91dGZpbGUubWFlPic=

> <r_lp_tautomer_probability>
1

> <r_epik_Ionization_Penalty>
0.304275

> <r_epik_Ionization_Penalty_Charging>
0.304214

> <r_epik_Ionization_Penalty_Neutral>
6.13137e-05

> <r_epik_State_Penalty>
0.300354

> <r_epik_Charging_Adjusted_Penalty>
0.604567

> <i_epik_Tot_Q>
1

> <i_epik_Tot_abs_Q>
1

> <r_epik_Metal_State_Penalty>
0.301147

> <b_epik_Metal_Only>
0

> <s_lp_Force_Field>
OPLS_2005

> <r_lp_Energy>
55.227

> <b_lp_Chiralities_Consistent>
1

> <s_lp_Variant>
AV-unprocessed.smi:82-2

> <Gold.Version>
5.8.1

> <Gold.Id.Protein>
6NUR|6NUR_protein|mol2

> <Gold.PLP.Fitness>
57.1067

> <Gold.PLP.PLP>
-44.9457

> <Gold.PLP.part.hbond>
-3.0000

> <Gold.PLP.part.metal>
0.0000

> <Gold.PLP.part.buried>
-5.6814

> <Gold.PLP.part.nonpolar>
-36.7342

> <Gold.PLP.part.repulsive>
0.7012

> <Gold.PLP.ligand.clash>
0.0000

> <Gold.PLP.ligand.torsion>
0.5381

> <Gold.PLP.Chemscore.Hbond>
4.0000

> <Gold.PLP.Chemscore.CHOScore>
0.0861

> <Gold.PLP.Chemscore.Metal>
0.0000

> <Gold.Chemscore.Hbonds>
donor molecule, donor type, donor heavy atom, donor atom, acceptor molecule, acceptor atom, score
      L1  H     5    59       P1  8028  2.00
      L1  H    22    47       P1 10747  1.00
      L1  H    24    50       P1 10186  1.00
      L1  C    16    41       P1 10171  0.13

> <Gold.PLP.Chemscore.Internal.Correction>
0.9788

> <Gold.Rescore>
     Score         DG    S(hbond)    S(metal)    S(lipo)     H(rot)  DE(clash)    DE(int)     intcor
     15.27     -17.08       3.00        0.00      92.29       3.60       0.25       1.56       ----

> <Gold.Chemscore.Fitness>
15.2685

> <Gold.Chemscore.DG>
-17.0795

> <Gold.Chemscore.ZeroCoef>
-5.4800

> <Gold.Chemscore.Hbond>
2.9960

> <Gold.Chemscore.Metal>
0.0000

> <Gold.Chemscore.Lipo>
92.2865

> <Gold.Chemscore.Internal_Hbond>
0.0000

> <Gold.Chemscore.DEClash>
0.2468

> <Gold.Chemscore.DEInternal>
1.5642

> <Gold.Chemscore.Rot>
3.5956

> <Gold.Chemscore.Internal.Correction>
   9.000000E+99

> <Gold.Chemscore.Hbonds>
donor molecule, donor type, donor heavy atom, donor atom, acceptor molecule, acceptor atom, score
      L1  H     5    59       P1  8028  1.00
      L1  H    22    47       P1 10747  1.00
      L1  H    24    50       P1 10186  1.00

> <Gold.Chemscore.Hbond.Weighted>
-10.0067

> <Gold.Chemscore.Metal.Weighted>
-0.0000

> <Gold.Chemscore.Lipo.Weighted>
-10.7975

> <Gold.Chemscore.Internal_Hbond.Weighted>
0.0000

> <Gold.Chemscore.DEClash.Weighted>
0.2468

> <Gold.Chemscore.DEInternal.Weighted>
1.5642

> <Gold.Chemscore.Rot.Weighted>
9.2047

> <Gold.Chemscore.Internal.Correction.Weighted>
   9.000000E+99

> <Gold.Protein.RotatedTorsions>
[ 6907 6896 6895 6894 ] final -108.25 input  -60.11 | X-H torsion
[ 7974 7965 7964 7962 ] final  -90.32 input  175.53 | X-H torsion
[ 8008 7997 7996 7995 ] final   87.21 input   59.86 | X-H torsion
[ 10167 10162 10161 10158 ] final  -10.54 input  -65.29 | X-H torsion
[ 10718 10713 10712 10709 ] final -178.43 input   66.30 | X-H torsion
[ 10763 10752 10751 10750 ] final  -78.90 input  -60.55 | X-H torsion
[ 11005 11000 10999 10996 ] final   40.88 input  -57.11 | X-H torsion

> <Gold.Protein.ActiveResidues>
 VAL166  LYS551  ARG553  GLY616  TRP617  ASP618  TYR619  PRO620  LYS621  CYS622 
 ASP623  PHE694  ASN695  SER759  ASP760  ASP761  ALA762  ILE779  LEU786  VAL792 
 PHE793  MET794  SER795  GLU796  ALA797  LYS798  CYS799  TRP800  GLU811  SER814 

> <Gold.Protein.RotatedAtoms>
  150.7491  133.9705  159.3543 H   0  0  0  0  0  0  0  0  0  0  0  0  # atno 6907 bound_to 6896
  151.7638  135.0801  160.0359 H   0  0  0  0  0  0  0  0  0  0  0  0  # atno 6908 bound_to 6896
  152.3385  133.6002  159.5895 H   0  0  0  0  0  0  0  0  0  0  0  0  # atno 6909 bound_to 6896
  145.4281  140.9554  143.2143 H   0  0  0  0  0  0  0  0  0  0  0  0  # atno 7974 bound_to 7965
  155.9725  140.3384  155.6588 H   0  0  0  0  0  0  0  0  0  0  0  0  # atno 8008 bound_to 7997
  155.6656  140.0721  157.2556 H   0  0  0  0  0  0  0  0  0  0  0  0  # atno 8009 bound_to 7997
  154.4170  140.1701  156.1811 H   0  0  0  0  0  0  0  0  0  0  0  0  # atno 8010 bound_to 7997
  140.7116  143.5737  150.9065 H   0  0  0  0  0  0  0  0  0  0  0  0  # atno 10167 bound_to 10162
  156.8442  130.9696  151.3097 H   0  0  0  0  0  0  0  0  0  0  0  0  # atno 10718 bound_to 10713
  154.5318  135.5714  153.6765 H   0  0  0  0  0  0  0  0  0  0  0  0  # atno 10763 bound_to 10752
  152.9941  135.6206  154.2618 H   0  0  0  0  0  0  0  0  0  0  0  0  # atno 10764 bound_to 10752
  154.2545  135.2858  155.2783 H   0  0  0  0  0  0  0  0  0  0  0  0  # atno 10765 bound_to 10752
  140.1888  134.4012  155.8158 H   0  0  0  0  0  0  0  0  0  0  0  0  # atno 11005 bound_to 11000
  144.8201  139.5807  143.6991 LP  0  0  0  0  0  0  0  0  0  0  0  0  # atno 17320 bound_to 7965
  146.2622  139.6436  142.9354 LP  0  0  0  0  0  0  0  0  0  0  0  0  # atno 17321 bound_to 7965
  139.9463  143.6323  152.3041 LP  0  0  0  0  0  0  0  0  0  0  0  0  # atno 17342 bound_to 10162
  139.6826  144.7654  151.1581 LP  0  0  0  0  0  0  0  0  0  0  0  0  # atno 17343 bound_to 10162
  157.6339  130.8751  149.9324 LP  0  0  0  0  0  0  0  0  0  0  0  0  # atno 17370 bound_to 10713
  156.0864  130.3667  150.0480 LP  0  0  0  0  0  0  0  0  0  0  0  0  # atno 17371 bound_to 10713
  141.2225  133.7036  156.8059 LP  0  0  0  0  0  0  0  0  0  0  0  0  # atno 17394 bound_to 11000
  140.2183  134.8776  157.3349 LP  0  0  0  0  0  0  0  0  0  0  0  0  # atno 17395 bound_to 11000

$$$$
