AV-unprocessed.smi:2881|AV-procd|sdf|11067|dock1
  -GOLD-   2272015543D 1   1.00000     0.00000
 Structure written by MMmdl.
 40 42  0  0  0  0  0  0  0  0  1 V2000
  151.2835  130.7947  157.7235 C   0  0  0  0  0  0  0  0  0  0  0  0
  150.6978  131.9458  156.9602 C   0  0  0  0  0  0  0  0  0  0  0  0
  150.2004  131.9538  155.6241 C   0  0  0  0  0  0  0  0  0  0  0  0
  149.7884  133.2416  155.4237 C   0  0  0  0  0  0  0  0  0  0  0  0
  149.1694  133.9046  154.2360 C   0  0  0  0  0  0  0  0  0  0  0  0
  147.8185  133.2739  153.8992 C   0  0  0  0  0  0  0  0  0  0  0  0
  147.4167  132.3022  154.5385 O   0  0  0  0  0  0  0  0  0  0  0  0
  147.1262  133.8411  152.8987 N   0  0  0  0  0  0  0  0  0  0  0  0
  145.8207  133.3958  152.4090 C   0  0  2  0  0  0  0  0  0  0  0  0
  145.9747  132.0935  151.5941 C   0  0  1  0  0  0  0  0  0  0  0  0
  144.5904  131.4431  151.4168 C   0  0  0  0  0  0  0  0  0  0  0  0
  143.9049  132.3862  150.4097 C   0  0  0  0  0  0  0  0  0  0  0  0
  144.9868  133.4526  150.1461 C   0  0  2  0  0  0  0  0  0  0  0  0
  146.2560  132.6111  150.1886 C   0  0  0  0  0  0  0  0  0  0  0  0
  145.1306  134.3580  151.3944 C   0  0  2  0  0  0  0  0  0  0  0  0
  145.8648  135.6870  151.1046 C   0  0  0  0  0  0  0  0  0  0  0  0
  145.4831  136.1966  149.8441 O   0  0  0  0  0  0  0  0  0  0  0  0
  150.0454  133.9125  156.5985 N   0  0  0  0  0  0  0  0  0  0  0  0
  150.6019  133.1316  157.5430 N   0  0  0  0  0  0  0  0  0  0  0  0
  149.8507  134.8891  156.7673 H   0  0  0  0  0  0  0  0  0  0  0  0
  151.2682  129.8804  157.1298 H   0  0  0  0  0  0  0  0  0  0  0  0
  150.7236  130.6043  158.6393 H   0  0  0  0  0  0  0  0  0  0  0  0
  152.3192  130.9931  157.9998 H   0  0  0  0  0  0  0  0  0  0  0  0
  150.1543  131.1371  154.9188 H   0  0  0  0  0  0  0  0  0  0  0  0
  149.8370  133.8425  153.3753 H   0  0  0  0  0  0  0  0  0  0  0  0
  149.0237  134.9664  154.4376 H   0  0  0  0  0  0  0  0  0  0  0  0
  147.5351  134.6385  152.4340 H   0  0  0  0  0  0  0  0  0  0  0  0
  145.1662  133.2139  153.2637 H   0  0  0  0  0  0  0  0  0  0  0  0
  146.7230  131.4063  151.9915 H   0  0  0  0  0  0  0  0  0  0  0  0
  144.6826  130.4394  150.9999 H   0  0  0  0  0  0  0  0  0  0  0  0
  144.0416  131.3648  152.3560 H   0  0  0  0  0  0  0  0  0  0  0  0
  143.6583  131.8503  149.4922 H   0  0  0  0  0  0  0  0  0  0  0  0
  142.9820  132.8159  150.8010 H   0  0  0  0  0  0  0  0  0  0  0  0
  144.8306  133.9964  149.2142 H   0  0  0  0  0  0  0  0  0  0  0  0
  147.1729  133.1973  150.1156 H   0  0  0  0  0  0  0  0  0  0  0  0
  146.2780  131.8231  149.4337 H   0  0  0  0  0  0  0  0  0  0  0  0
  144.1398  134.6137  151.7738 H   0  0  0  0  0  0  0  0  0  0  0  0
  145.6087  136.4362  151.8540 H   0  0  0  0  0  0  0  0  0  0  0  0
  146.9474  135.5606  151.1260 H   0  0  0  0  0  0  0  0  0  0  0  0
  145.2185  137.0975  149.9506 H   0  0  0  0  0  0  0  0  0  0  0  0
  1 21  1  0  0  0  0
  1 22  1  0  0  0  0
  1 23  1  0  0  0  0
  1  2  1  0  0  0  0
  2 19  2  0  0  0  0
  2  3  1  0  0  0  0
  3  4  2  0  0  0  0
  3 24  1  0  0  0  0
  4 18  1  0  0  0  0
  4  5  1  0  0  0  0
  5  6  1  0  0  0  0
  5 25  1  0  0  0  0
  5 26  1  0  0  0  0
  6  7  2  0  0  0  0
  6  8  1  0  0  0  0
  8  9  1  0  0  0  0
  8 27  1  0  0  0  0
  9 15  1  0  0  0  0
  9 10  1  0  0  0  0
  9 28  1  0  0  0  0
 10 14  1  0  0  0  0
 10 11  1  0  0  0  0
 10 29  1  0  0  0  0
 11 12  1  0  0  0  0
 11 30  1  0  0  0  0
 11 31  1  0  0  0  0
 12 13  1  0  0  0  0
 12 32  1  0  0  0  0
 12 33  1  0  0  0  0
 13 14  1  0  0  0  0
 13 15  1  0  0  0  0
 13 34  1  0  0  0  0
 14 35  1  0  0  0  0
 14 36  1  0  0  0  0
 15 16  1  0  0  0  0
 15 37  1  0  0  0  0
 16 17  1  0  0  0  0
 16 38  1  0  0  0  0
 16 39  1  0  0  0  0
 17 40  1  0  0  0  0
 18 19  1  0  0  0  0
 18 20  1  0  0  0  0
M  END
> <s_m_source_file>
AV-unprocessed.smi

> <i_m_source_file_index>
2881

> <i_lp_mmshare_version>
43012

> <i_f3d_flags>
0

> <s_epik_input>
W0NIM11jMVtjSF1jKG5bbkhdMSlbQ0gyXUMoPU8pW05IXVtDQEhdKFtDQEBIXTIzKVtDQEhdKFtDSDJdW09IXSlbQ0BASF0oW0NIMl0zKVtDSDJdW0NIMl0y

> <s_epik_cmdline>
J2VwaWtfcHl0aG9uJywgJy1waCcsICc3LjAnLCAnLXRuJywgJzgnLCAnLW1hJywgJzIwMCcsICctbWV0YWxfYmluZGluZycsICctaW1hZScsICc8aW5maWxlLm1hZT4nLCAnLW9tYWUnLCAnPG91dGZpbGUubWFlPic=

> <r_lp_tautomer_probability>
0.5

> <r_epik_Ionization_Penalty>
0.00013396

> <r_epik_Ionization_Penalty_Charging>
0

> <r_epik_Ionization_Penalty_Neutral>
0.00013396

> <r_epik_State_Penalty>
0.41068

> <r_epik_Charging_Adjusted_Penalty>
0.41068

> <i_epik_Tot_Q>
0

> <i_epik_Tot_abs_Q>
0

> <r_epik_Metal_State_Penalty>
0.41066

> <b_epik_Metal_Only>
0

> <s_lp_Force_Field>
OPLS_2005

> <r_lp_Energy>
49.1739

> <b_lp_Chiralities_Consistent>
1

> <s_lp_Variant>
AV-unprocessed.smi:2881-13

> <Gold.Version>
5.8.1

> <Gold.Id.Protein>
6NUR|6NUR_protein|mol2

> <Gold.PLP.Fitness>
42.6747

> <Gold.PLP.PLP>
-35.4071

> <Gold.PLP.part.hbond>
-3.8432

> <Gold.PLP.part.metal>
0.0000

> <Gold.PLP.part.buried>
-4.0370

> <Gold.PLP.part.nonpolar>
-27.3651

> <Gold.PLP.part.repulsive>
0.1345

> <Gold.PLP.ligand.clash>
0.0000

> <Gold.PLP.ligand.torsion>
0.3756

> <Gold.PLP.Chemscore.Hbond>
2.6598

> <Gold.PLP.Chemscore.CHOScore>
0.0000

> <Gold.PLP.Chemscore.Metal>
0.0000

> <Gold.Chemscore.Hbonds>
donor molecule, donor type, donor heavy atom, donor atom, acceptor molecule, acceptor atom, score
      L1  H     8    27       P1  7948  0.65
      L1  H    17    40       P1 10171  1.00
      P1  H  6896  6909       L1    19  0.99

> <Gold.PLP.Chemscore.Internal.Correction>
0.0395

> <Gold.Rescore>
     Score         DG    S(hbond)    S(metal)    S(lipo)     H(rot)  DE(clash)    DE(int)     intcor
     16.95     -17.60       2.38        0.00      85.41       2.28       0.07       0.57       ----

> <Gold.Chemscore.Fitness>
16.9547

> <Gold.Chemscore.DG>
-17.5972

> <Gold.Chemscore.ZeroCoef>
-5.4800

> <Gold.Chemscore.Hbond>
2.3801

> <Gold.Chemscore.Metal>
0.0000

> <Gold.Chemscore.Lipo>
85.4093

> <Gold.Chemscore.Internal_Hbond>
0.0000

> <Gold.Chemscore.DEClash>
0.0687

> <Gold.Chemscore.DEInternal>
0.5738

> <Gold.Chemscore.Rot>
2.2755

> <Gold.Chemscore.Internal.Correction>
   9.000000E+99

> <Gold.Chemscore.Hbonds>
donor molecule, donor type, donor heavy atom, donor atom, acceptor molecule, acceptor atom, score
      L1  H     8    27       P1  7948  0.55
      L1  H    17    40       P1 10171  0.93
      P1  H  6896  6909       L1    19  0.94

> <Gold.Chemscore.Hbond.Weighted>
-7.9495

> <Gold.Chemscore.Metal.Weighted>
-0.0000

> <Gold.Chemscore.Lipo.Weighted>
-9.9929

> <Gold.Chemscore.Internal_Hbond.Weighted>
0.0000

> <Gold.Chemscore.DEClash.Weighted>
0.0687

> <Gold.Chemscore.DEInternal.Weighted>
0.5738

> <Gold.Chemscore.Rot.Weighted>
5.8252

> <Gold.Chemscore.Internal.Correction.Weighted>
   9.000000E+99

> <Gold.Protein.RotatedTorsions>
[ 6907 6896 6895 6894 ] final  -31.28 input  -60.11 | X-H torsion
[ 7974 7965 7964 7962 ] final   86.94 input  175.53 | X-H torsion
[ 8008 7997 7996 7995 ] final    1.38 input   59.86 | X-H torsion
[ 10167 10162 10161 10158 ] final -173.57 input  -65.29 | X-H torsion
[ 10718 10713 10712 10709 ] final  -68.38 input   66.30 | X-H torsion
[ 10763 10752 10751 10750 ] final -144.12 input  -60.55 | X-H torsion
[ 11005 11000 10999 10996 ] final  158.16 input  -57.11 | X-H torsion

> <Gold.Protein.ActiveResidues>
 VAL166  LYS551  ARG553  GLY616  TRP617  ASP618  TYR619  PRO620  LYS621  CYS622 
 ASP623  PHE694  ASN695  SER759  ASP760  ASP761  ALA762  ILE779  LEU786  VAL792 
 PHE793  MET794  SER795  GLU796  ALA797  LYS798  CYS799  TRP800  GLU811  SER814 

> <Gold.Protein.RotatedAtoms>
  151.0942  134.9934  159.8417 H   0  0  0  0  0  0  0  0  0  0  0  0  # atno 6907 bound_to 6896
  152.5431  134.2029  159.8729 H   0  0  0  0  0  0  0  0  0  0  0  0  # atno 6908 bound_to 6896
  151.2067  133.4535  159.2630 H   0  0  0  0  0  0  0  0  0  0  0  0  # atno 6909 bound_to 6896
  145.5657  139.2308  143.2435 H   0  0  0  0  0  0  0  0  0  0  0  0  # atno 7974 bound_to 7965
  154.6790  140.2628  155.6928 H   0  0  0  0  0  0  0  0  0  0  0  0  # atno 8008 bound_to 7997
  156.2689  140.2814  156.1250 H   0  0  0  0  0  0  0  0  0  0  0  0  # atno 8009 bound_to 7997
  155.1058  140.0375  157.2700 H   0  0  0  0  0  0  0  0  0  0  0  0  # atno 8010 bound_to 7997
  139.5681  144.1707  152.1343 H   0  0  0  0  0  0  0  0  0  0  0  0  # atno 10167 bound_to 10162
  156.0508  130.4294  150.1992 H   0  0  0  0  0  0  0  0  0  0  0  0  # atno 10718 bound_to 10713
  154.8441  135.3449  154.6295 H   0  0  0  0  0  0  0  0  0  0  0  0  # atno 10763 bound_to 10752
  153.6905  135.6975  153.5096 H   0  0  0  0  0  0  0  0  0  0  0  0  # atno 10764 bound_to 10752
  153.2599  135.4326  155.0838 H   0  0  0  0  0  0  0  0  0  0  0  0  # atno 10765 bound_to 10752
  140.1838  134.8456  157.2834 H   0  0  0  0  0  0  0  0  0  0  0  0  # atno 11005 bound_to 11000
  146.1820  140.6482  142.9185 LP  0  0  0  0  0  0  0  0  0  0  0  0  # atno 17320 bound_to 7965
  144.7462  140.5073  143.6834 LP  0  0  0  0  0  0  0  0  0  0  0  0  # atno 17321 bound_to 7965
  140.1234  144.5353  150.6848 LP  0  0  0  0  0  0  0  0  0  0  0  0  # atno 17342 bound_to 10162
  140.6965  143.2407  151.4986 LP  0  0  0  0  0  0  0  0  0  0  0  0  # atno 17343 bound_to 10162
  157.0076  130.9941  151.3374 LP  0  0  0  0  0  0  0  0  0  0  0  0  # atno 17370 bound_to 10713
  157.5432  130.8133  149.8054 LP  0  0  0  0  0  0  0  0  0  0  0  0  # atno 17371 bound_to 10713
  140.2236  134.3993  155.7554 LP  0  0  0  0  0  0  0  0  0  0  0  0  # atno 17394 bound_to 11000
  141.2224  133.7179  156.8530 LP  0  0  0  0  0  0  0  0  0  0  0  0  # atno 17395 bound_to 11000

$$$$
