AV-unprocessed.smi:1965|AV-procd|sdf|7942|dock7
  -GOLD-   2272010113D 1   1.00000     0.00000
 Structure written by MMmdl.
 36 38  0  0  0  0  0  0  0  0  3 V2000
  145.5168  133.8437  154.1872 O   0  0  0  0  0  0  0  0  0  0  0  0
  146.2703  134.7501  153.8345 C   0  0  0  0  0  0  0  0  0  0  0  0
  146.2776  135.9830  154.4047 N   0  5  0  0  0  0  0  0  0  0  0  0
  146.4665  137.1093  153.6923 C   0  0  0  0  0  0  0  0  0  0  0  0
  145.9720  137.2911  152.4623 N   0  0  0  0  0  0  0  0  0  0  0  0
  146.2884  138.5358  151.9152 C   0  0  0  0  0  0  0  0  0  0  0  0
  147.0437  139.3189  152.7471 C   0  0  0  0  0  0  0  0  0  0  0  0
  147.3848  138.5104  154.2501 S   0  0  0  0  0  0  0  0  0  0  0  0
  147.1386  134.5198  152.8323 N   0  0  0  0  0  0  0  0  0  0  0  0
  147.2634  133.2820  152.0736 C   0  0  2  0  0  0  0  0  0  0  0  0
  145.9674  132.8337  151.3707 C   0  0  0  0  0  0  0  0  0  0  0  0
  145.9445  131.2976  151.5016 C   0  0  0  0  0  0  0  0  0  0  0  0
  147.2137  130.9431  152.1659 N   0  3  2  0  0  0  0  0  0  0  0  0
  147.2510  129.6699  152.9178 C   0  0  0  0  0  0  0  0  0  0  0  0
  148.6729  129.4474  153.4730 C   0  0  0  0  0  0  0  0  0  0  0  0
  149.1674  130.6602  154.2886 C   0  0  0  0  0  0  0  0  0  0  0  0
  149.0209  131.9667  153.4847 C   0  0  0  0  0  0  0  0  0  0  0  0
  147.5711  132.1040  152.9937 C   0  0  1  0  0  0  0  0  0  0  0  0
  145.9346  138.7808  150.9247 H   0  0  0  0  0  0  0  0  0  0  0  0
  147.4213  140.3145  152.5686 H   0  0  0  0  0  0  0  0  0  0  0  0
  147.7517  135.2784  152.5717 H   0  0  0  0  0  0  0  0  0  0  0  0
  148.0621  133.3806  151.3354 H   0  0  0  0  0  0  0  0  0  0  0  0
  145.0862  133.2583  151.8544 H   0  0  0  0  0  0  0  0  0  0  0  0
  145.9552  133.1547  150.3285 H   0  0  0  0  0  0  0  0  0  0  0  0
  145.0979  130.9881  152.1165 H   0  0  0  0  0  0  0  0  0  0  0  0
  145.8623  130.7989  150.5354 H   0  0  0  0  0  0  0  0  0  0  0  0
  146.5231  129.6968  153.7301 H   0  0  0  0  0  0  0  0  0  0  0  0
  146.9706  128.8473  152.2590 H   0  0  0  0  0  0  0  0  0  0  0  0
  148.6974  128.5479  154.0888 H   0  0  0  0  0  0  0  0  0  0  0  0
  149.3592  129.2705  152.6437 H   0  0  0  0  0  0  0  0  0  0  0  0
  148.5906  130.7360  155.2115 H   0  0  0  0  0  0  0  0  0  0  0  0
  150.2067  130.5159  154.5854 H   0  0  0  0  0  0  0  0  0  0  0  0
  149.2929  132.8223  154.1038 H   0  0  0  0  0  0  0  0  0  0  0  0
  149.7074  131.9609  152.6369 H   0  0  0  0  0  0  0  0  0  0  0  0
  146.8981  132.1368  153.8541 H   0  0  0  0  0  0  0  0  0  0  0  0
  147.9126  130.8875  151.4390 H   0  0  0  0  0  0  0  0  0  0  0  0
  1  2  2  0  0  0  0
  2  3  1  0  0  0  0
  2  9  1  0  0  0  0
  3  4  1  0  0  0  0
  4  8  1  0  0  0  0
  4  5  2  0  0  0  0
  5  6  1  0  0  0  0
  6  7  2  0  0  0  0
  6 19  1  0  0  0  0
  7  8  1  0  0  0  0
  7 20  1  0  0  0  0
  9 10  1  0  0  0  0
  9 21  1  0  0  0  0
 10 18  1  0  0  0  0
 10 11  1  0  0  0  0
 10 22  1  0  0  0  0
 11 12  1  0  0  0  0
 11 23  1  0  0  0  0
 11 24  1  0  0  0  0
 12 13  1  0  0  0  0
 12 25  1  0  0  0  0
 12 26  1  0  0  0  0
 13 18  1  0  0  0  0
 13 14  1  0  0  0  0
 13 36  1  0  0  0  0
 14 15  1  0  0  0  0
 14 27  1  0  0  0  0
 14 28  1  0  0  0  0
 15 16  1  0  0  0  0
 15 29  1  0  0  0  0
 15 30  1  0  0  0  0
 16 17  1  0  0  0  0
 16 31  1  0  0  0  0
 16 32  1  0  0  0  0
 17 18  1  0  0  0  0
 17 33  1  0  0  0  0
 17 34  1  0  0  0  0
 18 35  1  0  0  0  0
M  CHG  1   3  -1
M  CHG  1  13   1
M  END
> <s_m_source_file>
AV-unprocessed.smi

> <i_m_source_file_index>
1965

> <i_lp_mmshare_version>
43012

> <i_f3d_flags>
0

> <s_epik_input>
czFbY0hdW2NIXW5jMVtOSF1DKD1PKVtOSF1bQ0BIXShbQ0gyXVtDSDJdMilbQ0BASF0oTjIzKVtDSDJdW0NIMl1bQ0gyXVtDSDJdMw==

> <s_epik_cmdline>
J2VwaWtfcHl0aG9uJywgJy1waCcsICc3LjAnLCAnLXRuJywgJzgnLCAnLW1hJywgJzIwMCcsICctbWV0YWxfYmluZGluZycsICctaW1hZScsICc8aW5maWxlLm1hZT4nLCAnLW9tYWUnLCAnPG91dGZpbGUubWFlPic=

> <r_lp_tautomer_probability>
1

> <r_epik_Ionization_Penalty>
7.4116

> <r_epik_Ionization_Penalty_Charging>
6.13869

> <r_epik_Ionization_Penalty_Neutral>
1.27291

> <r_epik_State_Penalty>
6.13761

> <r_epik_Charging_Adjusted_Penalty>
12.2763

> <i_epik_Tot_Q>
0

> <i_epik_Tot_abs_Q>
2

> <r_epik_Metal_State_Penalty>
2.08142

> <b_epik_Metal_Only>
1

> <s_lp_Force_Field>
OPLS_2005

> <r_lp_Energy>
26.2692

> <b_lp_Chiralities_Consistent>
1

> <s_lp_Variant>
AV-unprocessed.smi:1965-11

> <Gold.Version>
5.8.1

> <Gold.Id.Protein>
6NUR|6NUR_protein|mol2

> <Gold.PLP.Fitness>
36.4282

> <Gold.PLP.PLP>
-26.9543

> <Gold.PLP.part.hbond>
-2.0000

> <Gold.PLP.part.metal>
0.0000

> <Gold.PLP.part.buried>
-1.7869

> <Gold.PLP.part.nonpolar>
-24.2009

> <Gold.PLP.part.repulsive>
0.4157

> <Gold.PLP.ligand.clash>
0.0000

> <Gold.PLP.ligand.torsion>
0.5610

> <Gold.PLP.Chemscore.Hbond>
2.0000

> <Gold.PLP.Chemscore.CHOScore>
1.5285

> <Gold.PLP.Chemscore.Metal>
0.0000

> <Gold.Chemscore.Hbonds>
donor molecule, donor type, donor heavy atom, donor atom, acceptor molecule, acceptor atom, score
      L1  H     9    21       P1  7948  1.00
      L1  H    13    36       P1 10747  1.00
      L1  C     6    19       P1 10171  1.00
      L1  C     7    20       P1  7957  0.45

> <Gold.PLP.Chemscore.Internal.Correction>
0.0103

> <Gold.Rescore>
     Score         DG    S(hbond)    S(metal)    S(lipo)     H(rot)  DE(clash)    DE(int)     intcor
     15.65     -17.52       1.99        0.00      68.11       1.00       0.04       1.83       ----

> <Gold.Chemscore.Fitness>
15.6493

> <Gold.Chemscore.DG>
-17.5248

> <Gold.Chemscore.ZeroCoef>
-5.4800

> <Gold.Chemscore.Hbond>
1.9867

> <Gold.Chemscore.Metal>
0.0000

> <Gold.Chemscore.Lipo>
68.1121

> <Gold.Chemscore.Internal_Hbond>
0.0000

> <Gold.Chemscore.DEClash>
0.0436

> <Gold.Chemscore.DEInternal>
1.8319

> <Gold.Chemscore.Rot>
1.0000

> <Gold.Chemscore.Internal.Correction>
   9.000000E+99

> <Gold.Chemscore.Hbonds>
donor molecule, donor type, donor heavy atom, donor atom, acceptor molecule, acceptor atom, score
      L1  H     9    21       P1  7948  1.00
      L1  H    13    36       P1 10747  0.97

> <Gold.Chemscore.Hbond.Weighted>
-6.6357

> <Gold.Chemscore.Metal.Weighted>
-0.0000

> <Gold.Chemscore.Lipo.Weighted>
-7.9691

> <Gold.Chemscore.Internal_Hbond.Weighted>
0.0000

> <Gold.Chemscore.DEClash.Weighted>
0.0436

> <Gold.Chemscore.DEInternal.Weighted>
1.8319

> <Gold.Chemscore.Rot.Weighted>
2.5600

> <Gold.Chemscore.Internal.Correction.Weighted>
   9.000000E+99

> <Gold.Protein.RotatedTorsions>
[ 6907 6896 6895 6894 ] final   52.58 input  -60.11 | X-H torsion
[ 7974 7965 7964 7962 ] final -166.27 input  175.53 | X-H torsion
[ 8008 7997 7996 7995 ] final   53.39 input   59.86 | X-H torsion
[ 10167 10162 10161 10158 ] final    7.77 input  -65.29 | X-H torsion
[ 10718 10713 10712 10709 ] final   82.76 input   66.30 | X-H torsion
[ 10763 10752 10751 10750 ] final   26.05 input  -60.55 | X-H torsion
[ 11005 11000 10999 10996 ] final  -50.88 input  -57.11 | X-H torsion

> <Gold.Protein.ActiveResidues>
 VAL166  LYS551  ARG553  GLY616  TRP617  ASP618  TYR619  PRO620  LYS621  CYS622 
 ASP623  PHE694  ASN695  SER759  ASP760  ASP761  ALA762  ILE779  LEU786  VAL792 
 PHE793  MET794  SER795  GLU796  ALA797  LYS798  CYS799  TRP800  GLU811  SER814 

> <Gold.Protein.RotatedAtoms>
  152.3248  134.7334  160.0304 H   0  0  0  0  0  0  0  0  0  0  0  0  # atno 6907 bound_to 6896
  151.7771  133.3341  159.3469 H   0  0  0  0  0  0  0  0  0  0  0  0  # atno 6908 bound_to 6896
  150.7390  134.5897  159.6025 H   0  0  0  0  0  0  0  0  0  0  0  0  # atno 6909 bound_to 6896
  144.7249  140.2692  143.6253 H   0  0  0  0  0  0  0  0  0  0  0  0  # atno 7974 bound_to 7965
  155.4674  140.3464  155.4321 H   0  0  0  0  0  0  0  0  0  0  0  0  # atno 8008 bound_to 7997
  156.1122  140.1464  156.9352 H   0  0  0  0  0  0  0  0  0  0  0  0  # atno 8009 bound_to 7997
  154.4764  140.0883  156.7251 H   0  0  0  0  0  0  0  0  0  0  0  0  # atno 8010 bound_to 7997
  140.6352  143.7902  150.7350 H   0  0  0  0  0  0  0  0  0  0  0  0  # atno 10167 bound_to 10162
  157.6864  131.0062  150.2423 H   0  0  0  0  0  0  0  0  0  0  0  0  # atno 10718 bound_to 10713
  153.0649  135.6569  154.0378 H   0  0  0  0  0  0  0  0  0  0  0  0  # atno 10763 bound_to 10752
  154.0037  135.2935  155.3401 H   0  0  0  0  0  0  0  0  0  0  0  0  # atno 10764 bound_to 10752
  154.7002  135.5247  153.8585 H   0  0  0  0  0  0  0  0  0  0  0  0  # atno 10765 bound_to 10752
  141.0840  133.6646  156.3795 H   0  0  0  0  0  0  0  0  0  0  0  0  # atno 11005 bound_to 11000
  145.8060  139.1983  143.2020 LP  0  0  0  0  0  0  0  0  0  0  0  0  # atno 17320 bound_to 7965
  146.0636  140.7944  142.9722 LP  0  0  0  0  0  0  0  0  0  0  0  0  # atno 17321 bound_to 7965
  140.1521  143.4348  152.2124 LP  0  0  0  0  0  0  0  0  0  0  0  0  # atno 17342 bound_to 10162
  139.5563  144.7375  151.4284 LP  0  0  0  0  0  0  0  0  0  0  0  0  # atno 17343 bound_to 10162
  156.3035  130.3762  149.7728 LP  0  0  0  0  0  0  0  0  0  0  0  0  # atno 17370 bound_to 10713
  156.5351  130.8275  151.3250 LP  0  0  0  0  0  0  0  0  0  0  0  0  # atno 17371 bound_to 10713
  140.5404  134.6126  157.5378 LP  0  0  0  0  0  0  0  0  0  0  0  0  # atno 17394 bound_to 11000
  139.9656  134.7378  156.0145 LP  0  0  0  0  0  0  0  0  0  0  0  0  # atno 17395 bound_to 11000

$$$$
