AV-unprocessed.smi:58|AV-procd|sdf|583|dock10
  -GOLD-   2262016483D 1   1.00000     0.00000
 Structure written by MMmdl.
 32 33  0  0  0  0  0  0  0  0  1 V2000
  151.6175  145.0759  159.0271 C   0  0  0  0  0  0  0  0  0  0  0  0
  151.9325  143.6657  158.9523 N   0  0  0  0  0  0  0  0  0  0  0  0
  152.4766  142.8527  159.9221 C   0  0  0  0  0  0  0  0  0  0  0  0
  152.5830  141.5987  159.3911 C   0  0  0  0  0  0  0  0  0  0  0  0
  153.0835  140.4628  160.0613 N   0  0  0  0  0  0  0  0  0  0  0  0
  152.0902  141.7502  158.0571 C   0  0  0  0  0  0  0  0  0  0  0  0
  151.9905  140.5748  157.1243 C   0  0  0  0  0  0  0  0  0  0  0  0
  152.8272  139.6741  157.1987 O   0  0  0  0  0  0  0  0  0  0  0  0
  151.0019  140.5833  156.1990 N   0  0  0  0  0  0  0  0  0  0  0  0
  150.7928  139.5731  155.1584 C   0  0  0  0  0  0  0  0  0  0  0  0
  149.4927  139.9528  154.4531 C   0  0  0  0  0  0  0  0  0  0  0  0
  149.3711  141.4494  154.6954 C   0  0  0  0  0  0  0  0  0  0  0  0
  150.0149  141.6643  156.0719 C   0  0  1  0  0  0  0  0  0  0  0  0
  148.9817  141.6159  157.2201 C   0  0  0  0  0  0  0  0  0  0  0  0
  147.9834  142.5948  157.0236 O   0  0  0  0  0  0  0  0  0  0  0  0
  151.6807  142.9888  157.8140 N   0  0  0  0  0  0  0  0  0  0  0  0
  151.8980  145.4702  160.0040 H   0  0  0  0  0  0  0  0  0  0  0  0
  150.5473  145.2233  158.8794 H   0  0  0  0  0  0  0  0  0  0  0  0
  152.1648  145.6181  158.2554 H   0  0  0  0  0  0  0  0  0  0  0  0
  152.7345  143.2289  160.9015 H   0  0  0  0  0  0  0  0  0  0  0  0
  153.4072  140.5129  161.0170 H   0  0  0  0  0  0  0  0  0  0  0  0
  153.2799  139.6011  159.5725 H   0  0  0  0  0  0  0  0  0  0  0  0
  151.6205  139.6116  154.4490 H   0  0  0  0  0  0  0  0  0  0  0  0
  150.7387  138.5639  155.5693 H   0  0  0  0  0  0  0  0  0  0  0  0
  149.4947  139.6942  153.3939 H   0  0  0  0  0  0  0  0  0  0  0  0
  148.6549  139.4353  154.9221 H   0  0  0  0  0  0  0  0  0  0  0  0
  149.9466  141.9846  153.9388 H   0  0  0  0  0  0  0  0  0  0  0  0
  148.3418  141.8042  154.6333 H   0  0  0  0  0  0  0  0  0  0  0  0
  150.5274  142.6283  156.0871 H   0  0  0  0  0  0  0  0  0  0  0  0
  148.5179  140.6315  157.2913 H   0  0  0  0  0  0  0  0  0  0  0  0
  149.4507  141.8169  158.1831 H   0  0  0  0  0  0  0  0  0  0  0  0
  148.3765  143.3446  156.6034 H   0  0  0  0  0  0  0  0  0  0  0  0
  1  2  1  0  0  0  0
  1 17  1  0  0  0  0
  1 18  1  0  0  0  0
  1 19  1  0  0  0  0
  2 16  1  0  0  0  0
  2  3  1  0  0  0  0
  3  4  2  0  0  0  0
  3 20  1  0  0  0  0
  4  5  1  0  0  0  0
  4  6  1  0  0  0  0
  5 21  1  0  0  0  0
  5 22  1  0  0  0  0
  6  7  1  0  0  0  0
  6 16  2  0  0  0  0
  7  8  2  0  0  0  0
  7  9  1  0  0  0  0
  9 13  1  0  0  0  0
  9 10  1  0  0  0  0
 10 11  1  0  0  0  0
 10 23  1  0  0  0  0
 10 24  1  0  0  0  0
 11 12  1  0  0  0  0
 11 25  1  0  0  0  0
 11 26  1  0  0  0  0
 12 13  1  0  0  0  0
 12 27  1  0  0  0  0
 12 28  1  0  0  0  0
 13 14  1  0  0  0  0
 13 29  1  0  0  0  0
 14 15  1  0  0  0  0
 14 30  1  0  0  0  0
 14 31  1  0  0  0  0
 15 32  1  0  0  0  0
M  END
> <s_m_source_file>
AV-unprocessed.smi

> <i_m_source_file_index>
58

> <i_lp_mmshare_version>
43012

> <i_f3d_flags>
0

> <s_epik_input>
W0NIM11uMVtjSF1jKFtOSDJdKWMobjEpQyg9TylOMltDSDJdW0NIMl1bQ0gyXVtDQEhdMltDSDJdW09IXQ==

> <s_epik_cmdline>
J2VwaWtfcHl0aG9uJywgJy1waCcsICc3LjAnLCAnLXRuJywgJzgnLCAnLW1hJywgJzIwMCcsICctbWV0YWxfYmluZGluZycsICctaW1hZScsICc8aW5maWxlLm1hZT4nLCAnLW9tYWUnLCAnPG91dGZpbGUubWFlPic=

> <r_lp_tautomer_probability>
1

> <r_epik_Ionization_Penalty>
5.64206e-05

> <r_epik_Ionization_Penalty_Charging>
0

> <r_epik_Ionization_Penalty_Neutral>
5.64206e-05

> <r_epik_State_Penalty>
-0

> <r_epik_Charging_Adjusted_Penalty>
0

> <i_epik_Tot_Q>
0

> <i_epik_Tot_abs_Q>
0

> <r_epik_Metal_State_Penalty>
-0

> <b_epik_Metal_Only>
0

> <s_lp_Force_Field>
OPLS_2005

> <r_lp_Energy>
40.444

> <b_lp_Chiralities_Consistent>
1

> <s_lp_Variant>
AV-unprocessed.smi:58-1

> <Gold.Version>
5.8.1

> <Gold.Id.Protein>
6NUR|6NUR_protein|mol2

> <Gold.PLP.Fitness>
39.7484

> <Gold.PLP.PLP>
-34.2364

> <Gold.PLP.part.hbond>
-2.0149

> <Gold.PLP.part.metal>
0.0000

> <Gold.PLP.part.buried>
-2.3403

> <Gold.PLP.part.nonpolar>
-28.8024

> <Gold.PLP.part.repulsive>
0.1728

> <Gold.PLP.ligand.clash>
0.0000

> <Gold.PLP.ligand.torsion>
0.3855

> <Gold.PLP.Chemscore.Hbond>
2.0000

> <Gold.PLP.Chemscore.CHOScore>
0.0000

> <Gold.PLP.Chemscore.Metal>
0.0000

> <Gold.Chemscore.Hbonds>
donor molecule, donor type, donor heavy atom, donor atom, acceptor molecule, acceptor atom, score
      L1  H    15    32       P1  8028  1.00
      P1  H  7997  8010       L1     8  1.00

> <Gold.PLP.Chemscore.Internal.Correction>
0.2830

> <Gold.Rescore>
     Score         DG    S(hbond)    S(metal)    S(lipo)     H(rot)  DE(clash)    DE(int)     intcor
     13.23     -16.22       1.72        0.00      75.27       1.49       0.12       2.87       ----

> <Gold.Chemscore.Fitness>
13.2311

> <Gold.Chemscore.DG>
-16.2246

> <Gold.Chemscore.ZeroCoef>
-5.4800

> <Gold.Chemscore.Hbond>
1.7228

> <Gold.Chemscore.Metal>
0.0000

> <Gold.Chemscore.Lipo>
75.2714

> <Gold.Chemscore.Internal_Hbond>
0.0000

> <Gold.Chemscore.DEClash>
0.1187

> <Gold.Chemscore.DEInternal>
2.8748

> <Gold.Chemscore.Rot>
1.4907

> <Gold.Chemscore.Internal.Correction>
   9.000000E+99

> <Gold.Chemscore.Hbonds>
donor molecule, donor type, donor heavy atom, donor atom, acceptor molecule, acceptor atom, score
      L1  H    15    32       P1  8028  0.40
      P1  H  7997  8010       L1     8  0.93

> <Gold.Chemscore.Hbond.Weighted>
-5.7542

> <Gold.Chemscore.Metal.Weighted>
-0.0000

> <Gold.Chemscore.Lipo.Weighted>
-8.8068

> <Gold.Chemscore.Internal_Hbond.Weighted>
0.0000

> <Gold.Chemscore.DEClash.Weighted>
0.1187

> <Gold.Chemscore.DEInternal.Weighted>
2.8748

> <Gold.Chemscore.Rot.Weighted>
3.8163

> <Gold.Chemscore.Internal.Correction.Weighted>
   9.000000E+99

> <Gold.Protein.RotatedTorsions>
[ 6907 6896 6895 6894 ] final  158.79 input  -60.11 | X-H torsion
[ 7974 7965 7964 7962 ] final  130.60 input  175.53 | X-H torsion
[ 8008 7997 7996 7995 ] final   56.58 input   59.86 | X-H torsion
[ 10167 10162 10161 10158 ] final   -1.58 input  -65.29 | X-H torsion
[ 10718 10713 10712 10709 ] final   20.65 input   66.30 | X-H torsion
[ 10763 10752 10751 10750 ] final  171.28 input  -60.55 | X-H torsion
[ 11005 11000 10999 10996 ] final   53.59 input  -57.11 | X-H torsion

> <Gold.Protein.ActiveResidues>
 VAL166  LYS551  ARG553  GLY616  TRP617  ASP618  TYR619  PRO620  LYS621  CYS622 
 ASP623  PHE694  ASN695  SER759  ASP760  ASP761  ALA762  ILE779  LEU786  VAL792 
 PHE793  MET794  SER795  GLU796  ALA797  LYS798  CYS799  TRP800  GLU811  SER814 

> <Gold.Protein.RotatedAtoms>
  151.9952  133.3805  159.4159 H   0  0  0  0  0  0  0  0  0  0  0  0  # atno 6907 bound_to 6896
  150.6916  134.3893  159.5078 H   0  0  0  0  0  0  0  0  0  0  0  0  # atno 6908 bound_to 6896
  152.1632  134.8894  160.0590 H   0  0  0  0  0  0  0  0  0  0  0  0  # atno 6909 bound_to 6896
  145.0162  139.4174  143.5220 H   0  0  0  0  0  0  0  0  0  0  0  0  # atno 7974 bound_to 7965
  155.5199  140.3479  155.4404 H   0  0  0  0  0  0  0  0  0  0  0  0  # atno 8008 bound_to 7997
  156.0792  140.1382  156.9761 H   0  0  0  0  0  0  0  0  0  0  0  0  # atno 8009 bound_to 7997
  154.4570  140.0949  156.6762 H   0  0  0  0  0  0  0  0  0  0  0  0  # atno 8010 bound_to 7997
  140.6816  143.6758  150.8146 H   0  0  0  0  0  0  0  0  0  0  0  0  # atno 10167 bound_to 10162
  157.1274  130.6576  149.5941 H   0  0  0  0  0  0  0  0  0  0  0  0  # atno 10718 bound_to 10713
  154.4097  135.2756  155.2044 H   0  0  0  0  0  0  0  0  0  0  0  0  # atno 10763 bound_to 10752
  154.4035  135.6039  153.5914 H   0  0  0  0  0  0  0  0  0  0  0  0  # atno 10764 bound_to 10752
  152.9831  135.5932  154.4377 H   0  0  0  0  0  0  0  0  0  0  0  0  # atno 10765 bound_to 10752
  140.0755  134.5411  155.9001 H   0  0  0  0  0  0  0  0  0  0  0  0  # atno 11005 bound_to 11000
  146.3478  139.9634  142.8714 LP  0  0  0  0  0  0  0  0  0  0  0  0  # atno 17320 bound_to 7965
  145.1957  140.9832  143.4185 LP  0  0  0  0  0  0  0  0  0  0  0  0  # atno 17321 bound_to 7965
  140.0459  143.5298  152.2696 LP  0  0  0  0  0  0  0  0  0  0  0  0  # atno 17342 bound_to 10162
  139.6143  144.7616  151.2882 LP  0  0  0  0  0  0  0  0  0  0  0  0  # atno 17343 bound_to 10162
  155.9815  130.4823  150.6832 LP  0  0  0  0  0  0  0  0  0  0  0  0  # atno 17370 bound_to 10713
  157.4422  131.0862  151.0931 LP  0  0  0  0  0  0  0  0  0  0  0  0  # atno 17371 bound_to 10713
  141.2028  133.6627  156.6025 LP  0  0  0  0  0  0  0  0  0  0  0  0  # atno 17394 bound_to 11000
  140.3564  134.7725  157.4503 LP  0  0  0  0  0  0  0  0  0  0  0  0  # atno 17395 bound_to 11000

$$$$
