AV-unprocessed.smi:2909|AV-procd|sdf|11173|dock2
  -GOLD-   2272016 63D 1   1.00000     0.00000
 Structure written by MMmdl.
 44 45  0  0  0  0  0  0  0  0  1 V2000
  145.4041  139.6581  155.5512 C   0  0  0  0  0  0  0  0  0  0  0  0
  146.7653  139.4702  154.9486 C   0  0  0  0  0  0  0  0  0  0  0  0
  147.9143  138.8661  155.5388 C   0  0  0  0  0  0  0  0  0  0  0  0
  148.8744  138.9462  154.5690 C   0  0  0  0  0  0  0  0  0  0  0  0
  150.2982  138.4914  154.5478 C   0  0  0  0  0  0  0  0  0  0  0  0
  151.2084  139.5381  155.1892 C   0  0  0  0  0  0  0  0  0  0  0  0
  152.2559  139.8653  154.6317 O   0  0  0  0  0  0  0  0  0  0  0  0
  150.8030  140.0448  156.3645 N   0  0  0  0  0  0  0  0  0  0  0  0
  151.5432  141.0169  157.1628 C   0  0  2  0  0  0  0  0  0  0  0  0
  151.6767  140.5293  158.6151 C   0  0  0  0  0  0  0  0  0  0  0  0
  152.3972  141.5645  159.4929 C   0  0  0  0  0  0  0  0  0  0  0  0
  151.7072  142.9508  159.4704 C   0  0  1  0  0  0  0  0  0  0  0  0
  152.4596  143.9973  160.3447 C   0  0  0  0  0  0  0  0  0  0  0  0
  152.6025  143.5525  161.8135 C   0  0  0  0  0  0  0  0  0  0  0  0
  151.7993  145.3893  160.3108 C   0  0  0  0  0  0  0  0  0  0  0  0
  151.5480  143.4139  158.0009 C   0  0  0  0  0  0  0  0  0  0  0  0
  150.8259  142.3743  157.1288 C   0  0  0  0  0  0  0  0  0  0  0  0
  148.2816  139.5705  153.4945 N   0  0  0  0  0  0  0  0  0  0  0  0
  146.9939  139.8932  153.7142 N   0  0  0  0  0  0  0  0  0  0  0  0
  148.7365  139.7731  152.6156 H   0  0  0  0  0  0  0  0  0  0  0  0
  145.4197  139.4712  156.6251 H   0  0  0  0  0  0  0  0  0  0  0  0
  144.6817  138.9741  155.1053 H   0  0  0  0  0  0  0  0  0  0  0  0
  145.0403  140.6745  155.3977 H   0  0  0  0  0  0  0  0  0  0  0  0
  148.0160  138.4357  156.5238 H   0  0  0  0  0  0  0  0  0  0  0  0
  150.6182  138.3029  153.5222 H   0  0  0  0  0  0  0  0  0  0  0  0
  150.4003  137.5466  155.0835 H   0  0  0  0  0  0  0  0  0  0  0  0
  149.9280  139.7151  156.7459 H   0  0  0  0  0  0  0  0  0  0  0  0
  152.5401  141.1483  156.7374 H   0  0  0  0  0  0  0  0  0  0  0  0
  150.6882  140.3282  159.0308 H   0  0  0  0  0  0  0  0  0  0  0  0
  152.2211  139.5847  158.6459 H   0  0  0  0  0  0  0  0  0  0  0  0
  152.4340  141.1682  160.5067 H   0  0  0  0  0  0  0  0  0  0  0  0
  153.4314  141.6634  159.1609 H   0  0  0  0  0  0  0  0  0  0  0  0
  150.7059  142.8282  159.8867 H   0  0  0  0  0  0  0  0  0  0  0  0
  153.4677  144.1104  159.9433 H   0  0  0  0  0  0  0  0  0  0  0  0
  151.6324  143.3209  162.2543 H   0  0  0  0  0  0  0  0  0  0  0  0
  153.0608  144.3351  162.4188 H   0  0  0  0  0  0  0  0  0  0  0  0
  153.2393  142.6747  161.9157 H   0  0  0  0  0  0  0  0  0  0  0  0
  150.7498  145.3386  160.6023 H   0  0  0  0  0  0  0  0  0  0  0  0
  151.8555  145.8444  159.3226 H   0  0  0  0  0  0  0  0  0  0  0  0
  152.2980  146.0780  160.9935 H   0  0  0  0  0  0  0  0  0  0  0  0
  150.9793  144.3412  157.9480 H   0  0  0  0  0  0  0  0  0  0  0  0
  152.5290  143.6275  157.5744 H   0  0  0  0  0  0  0  0  0  0  0  0
  150.7642  142.7379  156.1024 H   0  0  0  0  0  0  0  0  0  0  0  0
  149.7986  142.2607  157.4787 H   0  0  0  0  0  0  0  0  0  0  0  0
  1 21  1  0  0  0  0
  1 22  1  0  0  0  0
  1 23  1  0  0  0  0
  1  2  1  0  0  0  0
  2 19  2  0  0  0  0
  2  3  1  0  0  0  0
  3  4  2  0  0  0  0
  3 24  1  0  0  0  0
  4 18  1  0  0  0  0
  4  5  1  0  0  0  0
  5  6  1  0  0  0  0
  5 25  1  0  0  0  0
  5 26  1  0  0  0  0
  6  7  2  0  0  0  0
  6  8  1  0  0  0  0
  8  9  1  0  0  0  0
  8 27  1  0  0  0  0
  9 17  1  0  0  0  0
  9 10  1  0  0  0  0
  9 28  1  0  0  0  0
 10 11  1  0  0  0  0
 10 29  1  0  0  0  0
 10 30  1  0  0  0  0
 11 12  1  0  0  0  0
 11 31  1  0  0  0  0
 11 32  1  0  0  0  0
 12 13  1  0  0  0  0
 12 16  1  0  0  0  0
 12 33  1  0  0  0  0
 13 14  1  0  0  0  0
 13 15  1  0  0  0  0
 13 34  1  0  0  0  0
 14 35  1  0  0  0  0
 14 36  1  0  0  0  0
 14 37  1  0  0  0  0
 15 38  1  0  0  0  0
 15 39  1  0  0  0  0
 15 40  1  0  0  0  0
 16 17  1  0  0  0  0
 16 41  1  0  0  0  0
 16 42  1  0  0  0  0
 17 43  1  0  0  0  0
 17 44  1  0  0  0  0
 18 19  1  0  0  0  0
 18 20  1  0  0  0  0
M  END
> <s_m_source_file>
AV-unprocessed.smi

> <i_m_source_file_index>
2909

> <i_lp_mmshare_version>
43012

> <i_f3d_flags>
0

> <s_epik_input>
W0NIM11jMVtjSF1jKG5bbkhdMSlbQ0gyXUMoPU8pW05IXVtDQEBIXTJbQ0gyXVtDSDJdW0NAQEhdKFtDSF0oW0NIM10pW0NIM10pW0NIMl1bQ0gyXTI=

> <s_epik_cmdline>
J2VwaWtfcHl0aG9uJywgJy1waCcsICc3LjAnLCAnLXRuJywgJzgnLCAnLW1hJywgJzIwMCcsICctbWV0YWxfYmluZGluZycsICctaW1hZScsICc8aW5maWxlLm1hZT4nLCAnLW9tYWUnLCAnPG91dGZpbGUubWFlPic=

> <r_lp_tautomer_probability>
0.5

> <r_epik_Ionization_Penalty>
0.00013296

> <r_epik_Ionization_Penalty_Charging>
0

> <r_epik_Ionization_Penalty_Neutral>
0.00013296

> <r_epik_State_Penalty>
0.41068

> <r_epik_Charging_Adjusted_Penalty>
0.41068

> <i_epik_Tot_Q>
0

> <i_epik_Tot_abs_Q>
0

> <r_epik_Metal_State_Penalty>
0.41066

> <b_epik_Metal_Only>
0

> <s_lp_Force_Field>
OPLS_2005

> <r_lp_Energy>
10.7875

> <b_lp_Chiralities_Consistent>
1

> <s_lp_Variant>
AV-unprocessed.smi:2909-3

> <Gold.Version>
5.8.1

> <Gold.Id.Protein>
6NUR|6NUR_protein|mol2

> <Gold.PLP.Fitness>
42.0171

> <Gold.PLP.PLP>
-38.5124

> <Gold.PLP.part.hbond>
-2.0000

> <Gold.PLP.part.metal>
0.0000

> <Gold.PLP.part.buried>
-6.3116

> <Gold.PLP.part.nonpolar>
-30.9331

> <Gold.PLP.part.repulsive>
0.4091

> <Gold.PLP.ligand.clash>
0.0000

> <Gold.PLP.ligand.torsion>
0.5843

> <Gold.PLP.Chemscore.Hbond>
1.5504

> <Gold.PLP.Chemscore.CHOScore>
0.0000

> <Gold.PLP.Chemscore.Metal>
0.0000

> <Gold.Chemscore.Hbonds>
donor molecule, donor type, donor heavy atom, donor atom, acceptor molecule, acceptor atom, score
      L1  H    18    20       P1  7957  1.00
      P1  H  7989  7998       L1     7  0.70

> <Gold.PLP.Chemscore.Internal.Correction>
0.0222

> <Gold.Rescore>
     Score         DG    S(hbond)    S(metal)    S(lipo)     H(rot)  DE(clash)    DE(int)     intcor
     18.69     -19.77       1.90        0.00     100.92       1.50       0.39       0.69       ----

> <Gold.Chemscore.Fitness>
18.6945

> <Gold.Chemscore.DG>
-19.7742

> <Gold.Chemscore.ZeroCoef>
-5.4800

> <Gold.Chemscore.Hbond>
1.8950

> <Gold.Chemscore.Metal>
0.0000

> <Gold.Chemscore.Lipo>
100.9206

> <Gold.Chemscore.Internal_Hbond>
0.0000

> <Gold.Chemscore.DEClash>
0.3851

> <Gold.Chemscore.DEInternal>
0.6946

> <Gold.Chemscore.Rot>
1.5011

> <Gold.Chemscore.Internal.Correction>
   9.000000E+99

> <Gold.Chemscore.Hbonds>
donor molecule, donor type, donor heavy atom, donor atom, acceptor molecule, acceptor atom, score
      L1  H    18    20       P1  7957  1.00
      P1  H  7989  7998       L1     7  0.21

> <Gold.Chemscore.Hbond.Weighted>
-6.3293

> <Gold.Chemscore.Metal.Weighted>
-0.0000

> <Gold.Chemscore.Lipo.Weighted>
-11.8077

> <Gold.Chemscore.Internal_Hbond.Weighted>
0.0000

> <Gold.Chemscore.DEClash.Weighted>
0.3851

> <Gold.Chemscore.DEInternal.Weighted>
0.6946

> <Gold.Chemscore.Rot.Weighted>
3.8429

> <Gold.Chemscore.Internal.Correction.Weighted>
   9.000000E+99

> <Gold.Protein.RotatedTorsions>
[ 6907 6896 6895 6894 ] final  -97.77 input  -60.11 | X-H torsion
[ 7974 7965 7964 7962 ] final   85.79 input  175.53 | X-H torsion
[ 8008 7997 7996 7995 ] final -167.79 input   59.86 | X-H torsion
[ 10167 10162 10161 10158 ] final -120.38 input  -65.29 | X-H torsion
[ 10718 10713 10712 10709 ] final -138.89 input   66.30 | X-H torsion
[ 10763 10752 10751 10750 ] final  107.51 input  -60.55 | X-H torsion
[ 11005 11000 10999 10996 ] final  119.03 input  -57.11 | X-H torsion

> <Gold.Protein.ActiveResidues>
 VAL166  LYS551  ARG553  GLY616  TRP617  ASP618  TYR619  PRO620  LYS621  CYS622 
 ASP623  PHE694  ASN695  SER759  ASP760  ASP761  ALA762  ILE779  LEU786  VAL792 
 PHE793  MET794  SER795  GLU796  ALA797  LYS798  CYS799  TRP800  GLU811  SER814 

> <Gold.Protein.RotatedAtoms>
  150.7026  134.1298  159.4065 H   0  0  0  0  0  0  0  0  0  0  0  0  # atno 6907 bound_to 6896
  151.9284  135.0265  160.0536 H   0  0  0  0  0  0  0  0  0  0  0  0  # atno 6908 bound_to 6896
  152.2197  133.4938  159.5192 H   0  0  0  0  0  0  0  0  0  0  0  0  # atno 6909 bound_to 6896
  145.5809  139.2325  143.2353 H   0  0  0  0  0  0  0  0  0  0  0  0  # atno 7974 bound_to 7965
  155.8826  140.1011  157.1475 H   0  0  0  0  0  0  0  0  0  0  0  0  # atno 8008 bound_to 7997
  154.4006  140.1326  156.4279 H   0  0  0  0  0  0  0  0  0  0  0  0  # atno 8009 bound_to 7997
  155.7625  140.3463  155.5208 H   0  0  0  0  0  0  0  0  0  0  0  0  # atno 8010 bound_to 7997
  140.0365  143.5196  152.2151 H   0  0  0  0  0  0  0  0  0  0  0  0  # atno 10167 bound_to 10162
  156.3045  130.7447  151.1507 H   0  0  0  0  0  0  0  0  0  0  0  0  # atno 10718 bound_to 10713
  153.4078  135.3842  155.2030 H   0  0  0  0  0  0  0  0  0  0  0  0  # atno 10763 bound_to 10752
  154.8735  135.3787  154.4538 H   0  0  0  0  0  0  0  0  0  0  0  0  # atno 10764 bound_to 10752
  153.5043  135.7088  153.5877 H   0  0  0  0  0  0  0  0  0  0  0  0  # atno 10765 bound_to 10752
  139.9131  134.9625  156.7593 H   0  0  0  0  0  0  0  0  0  0  0  0  # atno 11005 bound_to 11000
  146.1717  140.6635  142.9230 LP  0  0  0  0  0  0  0  0  0  0  0  0  # atno 17320 bound_to 7965
  144.7394  140.4901  143.6880 LP  0  0  0  0  0  0  0  0  0  0  0  0  # atno 17321 bound_to 7965
  139.6042  144.7591  151.3101 LP  0  0  0  0  0  0  0  0  0  0  0  0  # atno 17342 bound_to 10162
  140.7279  143.6950  150.7891 LP  0  0  0  0  0  0  0  0  0  0  0  0  # atno 17343 bound_to 10162
  157.7376  131.0550  150.5345 LP  0  0  0  0  0  0  0  0  0  0  0  0  # atno 17370 bound_to 10713
  156.5477  130.4224  149.6123 LP  0  0  0  0  0  0  0  0  0  0  0  0  # atno 17371 bound_to 10713
  140.6711  133.9559  155.7857 LP  0  0  0  0  0  0  0  0  0  0  0  0  # atno 17394 bound_to 11000
  141.0577  134.0392  157.3700 LP  0  0  0  0  0  0  0  0  0  0  0  0  # atno 17395 bound_to 11000

$$$$
