AV-unprocessed.smi:2876|AV-procd|sdf|11042|dock5
  -GOLD-   2272015503D 1   1.00000     0.00000
 Structure written by MMmdl.
 25 26  0  0  0  0  0  0  0  0  2 V2000
  151.7971  137.2623  154.7419 O   0  0  0  0  0  0  0  0  0  0  0  0
  152.2621  138.3585  155.1222 C   0  0  0  0  0  0  0  0  0  0  0  0
  153.4915  138.5930  155.0754 O   0  5  0  0  0  0  0  0  0  0  0  0
  151.3443  139.4369  155.6523 C   0  0  0  0  0  0  0  0  0  0  0  0
  151.8348  140.1873  156.6706 N   0  0  0  0  0  0  0  0  0  0  0  0
  151.0626  141.1521  157.1758 C   0  0  0  0  0  0  0  0  0  0  0  0
  151.5774  141.9038  158.2152 N   0  0  0  0  0  0  0  0  0  0  0  0
  152.6872  141.3150  158.9534 C   0  0  0  0  0  0  0  0  0  0  0  0
  152.9522  142.1104  160.2434 C   0  0  0  0  0  0  0  0  0  0  0  0
  153.1836  143.4790  159.9235 O   0  0  0  0  0  0  0  0  0  0  0  0
  152.0635  144.0700  159.2716 C   0  0  0  0  0  0  0  0  0  0  0  0
  151.7777  143.3240  157.9567 C   0  0  0  0  0  0  0  0  0  0  0  0
  149.8303  141.4678  156.7794 N   0  0  0  0  0  0  0  0  0  0  0  0
  149.3177  140.7384  155.7674 C   0  0  0  0  0  0  0  0  0  0  0  0
  150.0335  139.6921  155.1502 C   0  0  0  0  0  0  0  0  0  0  0  0
  149.2725  138.8234  153.8600 Cl  0  0  0  0  0  0  0  0  0  0  0  0
  152.4606  140.2755  159.1939 H   0  0  0  0  0  0  0  0  0  0  0  0
  153.5786  141.3124  158.3244 H   0  0  0  0  0  0  0  0  0  0  0  0
  152.1109  142.0243  160.9329 H   0  0  0  0  0  0  0  0  0  0  0  0
  153.8275  141.7131  160.7573 H   0  0  0  0  0  0  0  0  0  0  0  0
  151.1928  144.0469  159.9290 H   0  0  0  0  0  0  0  0  0  0  0  0
  152.2827  145.1185  159.0695 H   0  0  0  0  0  0  0  0  0  0  0  0
  152.6106  143.4521  157.2639 H   0  0  0  0  0  0  0  0  0  0  0  0
  150.8918  143.7397  157.4749 H   0  0  0  0  0  0  0  0  0  0  0  0
  148.3192  140.9942  155.4452 H   0  0  0  0  0  0  0  0  0  0  0  0
  1  2  2  0  0  0  0
  2  3  1  0  0  0  0
  2  4  1  0  0  0  0
  4 15  1  0  0  0  0
  4  5  2  0  0  0  0
  5  6  1  0  0  0  0
  6  7  1  0  0  0  0
  6 13  2  0  0  0  0
  7 12  1  0  0  0  0
  7  8  1  0  0  0  0
  8  9  1  0  0  0  0
  8 17  1  0  0  0  0
  8 18  1  0  0  0  0
  9 10  1  0  0  0  0
  9 19  1  0  0  0  0
  9 20  1  0  0  0  0
 10 11  1  0  0  0  0
 11 12  1  0  0  0  0
 11 21  1  0  0  0  0
 11 22  1  0  0  0  0
 12 23  1  0  0  0  0
 12 24  1  0  0  0  0
 13 14  1  0  0  0  0
 14 15  2  0  0  0  0
 14 25  1  0  0  0  0
 15 16  1  0  0  0  0
M  CHG  1   3  -1
M  END
> <s_m_source_file>
AV-unprocessed.smi

> <i_m_source_file_index>
2876

> <i_lp_mmshare_version>
43012

> <i_f3d_flags>
0

> <s_epik_input>
Tz1DKFtPSF0pYzFuYyhuW2NIXWMxQ2wpTjJbQ0gyXVtDSDJdT1tDSDJdW0NIMl0y

> <s_epik_cmdline>
J2VwaWtfcHl0aG9uJywgJy1waCcsICc3LjAnLCAnLXRuJywgJzgnLCAnLW1hJywgJzIwMCcsICctbWV0YWxfYmluZGluZycsICctaW1hZScsICc8aW5maWxlLm1hZT4nLCAnLW9tYWUnLCAnPG91dGZpbGUubWFlPic=

> <r_lp_tautomer_probability>
1

> <r_epik_Ionization_Penalty>
2.42258e-06

> <r_epik_Ionization_Penalty_Charging>
2.2596e-06

> <r_epik_Ionization_Penalty_Neutral>
1.62982e-07

> <r_epik_State_Penalty>
-0

> <r_epik_Charging_Adjusted_Penalty>
2.2596e-06

> <i_epik_Tot_Q>
-1

> <i_epik_Tot_abs_Q>
1

> <r_epik_Metal_State_Penalty>
-0

> <b_epik_Metal_Only>
0

> <s_lp_Force_Field>
OPLS_2005

> <r_lp_Energy>
19.4651

> <b_lp_Chiralities_Consistent>
1

> <s_lp_Variant>
AV-unprocessed.smi:2876-1

> <Gold.Version>
5.8.1

> <Gold.Id.Protein>
6NUR|6NUR_protein|mol2

> <Gold.PLP.Fitness>
39.7467

> <Gold.PLP.PLP>
-29.5571

> <Gold.PLP.part.hbond>
-2.0000

> <Gold.PLP.part.metal>
0.0000

> <Gold.PLP.part.buried>
-3.6658

> <Gold.PLP.part.nonpolar>
-25.4569

> <Gold.PLP.part.repulsive>
0.2239

> <Gold.PLP.ligand.clash>
0.0000

> <Gold.PLP.ligand.torsion>
0.8166

> <Gold.PLP.Chemscore.Hbond>
3.8560

> <Gold.PLP.Chemscore.CHOScore>
0.0000

> <Gold.PLP.Chemscore.Metal>
0.0000

> <Gold.Chemscore.Hbonds>
donor molecule, donor type, donor heavy atom, donor atom, acceptor molecule, acceptor atom, score
      P1  H  7997  8009       L1     3  1.82
      P1  H 10752 10765       L1     1  2.00

> <Gold.PLP.Chemscore.Internal.Correction>
0.2549

> <Gold.Rescore>
     Score         DG    S(hbond)    S(metal)    S(lipo)     H(rot)  DE(clash)    DE(int)     intcor
     16.33     -17.12       1.80        0.00      70.02       1.00       0.02       0.77       ----

> <Gold.Chemscore.Fitness>
16.3298

> <Gold.Chemscore.DG>
-17.1197

> <Gold.Chemscore.ZeroCoef>
-5.4800

> <Gold.Chemscore.Hbond>
1.7984

> <Gold.Chemscore.Metal>
0.0000

> <Gold.Chemscore.Lipo>
70.0247

> <Gold.Chemscore.Internal_Hbond>
0.0000

> <Gold.Chemscore.DEClash>
0.0214

> <Gold.Chemscore.DEInternal>
0.7684

> <Gold.Chemscore.Rot>
1.0000

> <Gold.Chemscore.Internal.Correction>
   9.000000E+99

> <Gold.Chemscore.Hbonds>
donor molecule, donor type, donor heavy atom, donor atom, acceptor molecule, acceptor atom, score
      P1  H  7997  8009       L1     3  0.84
      P1  H 10752 10765       L1     1  0.90

> <Gold.Chemscore.Hbond.Weighted>
-6.0068

> <Gold.Chemscore.Metal.Weighted>
-0.0000

> <Gold.Chemscore.Lipo.Weighted>
-8.1929

> <Gold.Chemscore.Internal_Hbond.Weighted>
0.0000

> <Gold.Chemscore.DEClash.Weighted>
0.0214

> <Gold.Chemscore.DEInternal.Weighted>
0.7684

> <Gold.Chemscore.Rot.Weighted>
2.5600

> <Gold.Chemscore.Internal.Correction.Weighted>
   9.000000E+99

> <Gold.Protein.RotatedTorsions>
[ 6907 6896 6895 6894 ] final   15.03 input  -60.11 | X-H torsion
[ 7974 7965 7964 7962 ] final -152.81 input  175.53 | X-H torsion
[ 8008 7997 7996 7995 ] final -131.92 input   59.86 | X-H torsion
[ 10167 10162 10161 10158 ] final  -17.68 input  -65.29 | X-H torsion
[ 10718 10713 10712 10709 ] final -141.24 input   66.30 | X-H torsion
[ 10763 10752 10751 10750 ] final  165.78 input  -60.55 | X-H torsion
[ 11005 11000 10999 10996 ] final  109.82 input  -57.11 | X-H torsion

> <Gold.Protein.ActiveResidues>
 VAL166  LYS551  ARG553  GLY616  TRP617  ASP618  TYR619  PRO620  LYS621  CYS622 
 ASP623  PHE694  ASN695  SER759  ASP760  ASP761  ALA762  ILE779  LEU786  VAL792 
 PHE793  MET794  SER795  GLU796  ALA797  LYS798  CYS799  TRP800  GLU811  SER814 

> <Gold.Protein.RotatedAtoms>
  151.8116  135.0679  160.0413 H   0  0  0  0  0  0  0  0  0  0  0  0  # atno 6907 bound_to 6896
  152.3017  133.5657  159.5631 H   0  0  0  0  0  0  0  0  0  0  0  0  # atno 6908 bound_to 6896
  150.7276  134.0198  159.3739 H   0  0  0  0  0  0  0  0  0  0  0  0  # atno 6909 bound_to 6896
  144.7774  140.4611  143.5864 H   0  0  0  0  0  0  0  0  0  0  0  0  # atno 7974 bound_to 7965
  155.3203  140.0462  157.3039 H   0  0  0  0  0  0  0  0  0  0  0  0  # atno 8008 bound_to 7997
  154.5384  140.2279  155.8650 H   0  0  0  0  0  0  0  0  0  0  0  0  # atno 8009 bound_to 7997
  156.1857  140.3063  155.9240 H   0  0  0  0  0  0  0  0  0  0  0  0  # atno 8010 bound_to 7997
  140.7250  143.4992  150.9891 H   0  0  0  0  0  0  0  0  0  0  0  0  # atno 10167 bound_to 10162
  156.3318  130.7590  151.1709 H   0  0  0  0  0  0  0  0  0  0  0  0  # atno 10718 bound_to 10713
  154.3292  135.2755  155.2480 H   0  0  0  0  0  0  0  0  0  0  0  0  # atno 10763 bound_to 10752
  154.4799  135.5861  153.6386 H   0  0  0  0  0  0  0  0  0  0  0  0  # atno 10764 bound_to 10752
  152.9868  135.6109  154.3483 H   0  0  0  0  0  0  0  0  0  0  0  0  # atno 10765 bound_to 10752
  139.8869  134.9468  156.6184 H   0  0  0  0  0  0  0  0  0  0  0  0  # atno 11005 bound_to 11000
  145.6148  139.1517  143.3056 LP  0  0  0  0  0  0  0  0  0  0  0  0  # atno 17320 bound_to 7965
  146.1961  140.6261  142.9123 LP  0  0  0  0  0  0  0  0  0  0  0  0  # atno 17321 bound_to 7965
  139.8700  143.7204  152.3167 LP  0  0  0  0  0  0  0  0  0  0  0  0  # atno 17342 bound_to 10162
  139.7450  144.7549  151.0594 LP  0  0  0  0  0  0  0  0  0  0  0  0  # atno 17343 bound_to 10162
  157.7431  131.0479  150.4969 LP  0  0  0  0  0  0  0  0  0  0  0  0  # atno 17370 bound_to 10713
  156.5136  130.4145  149.6288 LP  0  0  0  0  0  0  0  0  0  0  0  0  # atno 17371 bound_to 10713
  140.7758  133.8701  155.8528 LP  0  0  0  0  0  0  0  0  0  0  0  0  # atno 17394 bound_to 11000
  140.9803  134.1415  157.4500 LP  0  0  0  0  0  0  0  0  0  0  0  0  # atno 17395 bound_to 11000

$$$$
