AV-unprocessed.smi:75|AV-procd|sdf|765|dock5
  -GOLD-   2262017103D 1   1.00000     0.00000
 Structure written by MMmdl.
 51 54  0  0  0  0  0  0  0  0  1 V2000
  151.0825  137.5786  153.5535 N   0  0  0  0  0  0  0  0  0  0  0  0
  150.9111  137.4850  154.8742 C   0  0  0  0  0  0  0  0  0  0  0  0
  151.5259  136.6620  155.5492 O   0  0  0  0  0  0  0  0  0  0  0  0
  149.8991  138.4586  155.5014 C   0  0  0  0  0  0  0  0  0  0  0  0
  149.1763  139.4399  154.5336 C   0  0  2  0  0  0  0  0  0  0  0  0
  149.6044  140.9063  154.7740 C   0  0  0  0  0  0  0  0  0  0  0  0
  148.9688  141.7596  153.8289 O   0  0  0  0  0  0  0  0  0  0  0  0
  147.5526  141.7249  153.9558 C   0  0  0  0  0  0  0  0  0  0  0  0
  147.0542  140.3006  153.6707 C   0  0  0  0  0  0  0  0  0  0  0  0
  147.7101  139.3463  154.5568 N   0  0  0  0  0  0  0  0  0  0  0  0
  147.1728  138.1123  154.4258 C   0  0  0  0  0  0  0  0  0  0  0  0
  147.2192  137.3043  155.5131 N   0  0  0  0  0  0  0  0  0  0  0  0
  146.7086  136.0712  155.4517 C   0  0  0  0  0  0  0  0  0  0  0  0
  146.1133  135.4638  154.4228 N   0  0  0  0  0  0  0  0  0  0  0  0
  146.0544  136.2788  153.3300 C   0  0  0  0  0  0  0  0  0  0  0  0
  146.5523  137.6100  153.2464 C   0  0  0  0  0  0  0  0  0  0  0  0
  146.3003  138.1306  151.9832 N   0  0  0  0  0  0  0  0  0  0  0  0
  145.6919  137.1626  151.3548 C   0  0  0  0  0  0  0  0  0  0  0  0
  145.5105  136.0092  152.0853 N   0  0  0  0  0  0  0  0  0  0  0  0
  144.8617  134.8073  151.6441 C   0  0  0  0  0  0  0  0  0  0  0  0
  145.5229  133.4361  151.8128 C   0  0  0  0  0  0  0  0  0  0  0  0
  144.8767  132.9752  150.4845 C   0  0  0  0  0  0  0  0  0  0  0  0
  145.7439  132.1288  149.5314 C   0  0  0  0  0  0  0  0  0  0  0  0
  147.1025  132.5207  149.5433 O   0  0  0  0  0  0  0  0  0  0  0  0
  143.5200  132.2594  150.6237 C   0  0  0  0  0  0  0  0  0  0  0  0
  142.8780  132.1123  149.3733 O   0  0  0  0  0  0  0  0  0  0  0  0
  144.7621  134.4812  150.1525 C   0  0  0  0  0  0  0  0  0  0  0  0
  151.7332  136.9616  153.0895 H   0  0  0  0  0  0  0  0  0  0  0  0
  150.5617  138.2613  153.0225 H   0  0  0  0  0  0  0  0  0  0  0  0
  149.1421  137.8693  156.0208 H   0  0  0  0  0  0  0  0  0  0  0  0
  150.4153  139.0160  156.2835 H   0  0  0  0  0  0  0  0  0  0  0  0
  149.5005  139.1900  153.5233 H   0  0  0  0  0  0  0  0  0  0  0  0
  149.3629  141.2398  155.7840 H   0  0  0  0  0  0  0  0  0  0  0  0
  150.6838  141.0066  154.6584 H   0  0  0  0  0  0  0  0  0  0  0  0
  147.2541  142.0510  154.9536 H   0  0  0  0  0  0  0  0  0  0  0  0
  147.1139  142.4256  153.2454 H   0  0  0  0  0  0  0  0  0  0  0  0
  145.9727  140.2546  153.8060 H   0  0  0  0  0  0  0  0  0  0  0  0
  147.2605  140.0364  152.6324 H   0  0  0  0  0  0  0  0  0  0  0  0
  146.7885  135.4874  156.3569 H   0  0  0  0  0  0  0  0  0  0  0  0
  145.3533  137.2670  150.3342 H   0  0  0  0  0  0  0  0  0  0  0  0
  143.8700  134.7966  152.0991 H   0  0  0  0  0  0  0  0  0  0  0  0
  146.6118  133.4823  151.7730 H   0  0  0  0  0  0  0  0  0  0  0  0
  145.1956  132.8906  152.6983 H   0  0  0  0  0  0  0  0  0  0  0  0
  145.7057  131.0721  149.7969 H   0  0  0  0  0  0  0  0  0  0  0  0
  145.3822  132.2086  148.5058 H   0  0  0  0  0  0  0  0  0  0  0  0
  147.6384  131.7439  149.5944 H   0  0  0  0  0  0  0  0  0  0  0  0
  143.6382  131.2654  151.0556 H   0  0  0  0  0  0  0  0  0  0  0  0
  142.8563  132.8056  151.2950 H   0  0  0  0  0  0  0  0  0  0  0  0
  142.2858  132.8389  149.2526 H   0  0  0  0  0  0  0  0  0  0  0  0
  143.8192  134.7779  149.6922 H   0  0  0  0  0  0  0  0  0  0  0  0
  145.6071  134.8745  149.5855 H   0  0  0  0  0  0  0  0  0  0  0  0
  1  2  1  0  0  0  0
  1 28  1  0  0  0  0
  1 29  1  0  0  0  0
  2  3  2  0  0  0  0
  2  4  1  0  0  0  0
  4  5  1  0  0  0  0
  4 30  1  0  0  0  0
  4 31  1  0  0  0  0
  5 10  1  0  0  0  0
  5  6  1  0  0  0  0
  5 32  1  0  0  0  0
  6  7  1  0  0  0  0
  6 33  1  0  0  0  0
  6 34  1  0  0  0  0
  7  8  1  0  0  0  0
  8  9  1  0  0  0  0
  8 35  1  0  0  0  0
  8 36  1  0  0  0  0
  9 10  1  0  0  0  0
  9 37  1  0  0  0  0
  9 38  1  0  0  0  0
 10 11  1  0  0  0  0
 11 16  1  0  0  0  0
 11 12  2  0  0  0  0
 12 13  1  0  0  0  0
 13 14  2  0  0  0  0
 13 39  1  0  0  0  0
 14 15  1  0  0  0  0
 15 19  1  0  0  0  0
 15 16  2  0  0  0  0
 16 17  1  0  0  0  0
 17 18  2  0  0  0  0
 18 19  1  0  0  0  0
 18 40  1  0  0  0  0
 19 20  1  0  0  0  0
 20 27  1  0  0  0  0
 20 21  1  0  0  0  0
 20 41  1  0  0  0  0
 21 22  1  0  0  0  0
 21 42  1  0  0  0  0
 21 43  1  0  0  0  0
 22 23  1  0  0  0  0
 22 25  1  0  0  0  0
 22 27  1  0  0  0  0
 23 24  1  0  0  0  0
 23 44  1  0  0  0  0
 23 45  1  0  0  0  0
 24 46  1  0  0  0  0
 25 26  1  0  0  0  0
 25 47  1  0  0  0  0
 25 48  1  0  0  0  0
 26 49  1  0  0  0  0
 27 50  1  0  0  0  0
 27 51  1  0  0  0  0
M  END
> <s_m_source_file>
AV-unprocessed.smi

> <i_m_source_file_index>
75

> <i_lp_mmshare_version>
43012

> <i_f3d_flags>
0

> <s_epik_input>
W05IMl1DKD1PKVtDSDJdW0NAQEhdMVtDSDJdT1tDSDJdW0NIMl1OMWMobltjSF1uMiljKGMyMyluW2NIXW4zW0NIXShbQ0gyXTQpW0NIMl1DNChbQ0gyXVtPSF0pW0NIMl1bT0hd

> <s_epik_cmdline>
J2VwaWtfcHl0aG9uJywgJy1waCcsICc3LjAnLCAnLXRuJywgJzgnLCAnLW1hJywgJzIwMCcsICctbWV0YWxfYmluZGluZycsICctaW1hZScsICc8aW5maWxlLm1hZT4nLCAnLW9tYWUnLCAnPG91dGZpbGUubWFlPic=

> <r_lp_tautomer_probability>
1

> <r_epik_Ionization_Penalty>
5.29078e-05

> <r_epik_Ionization_Penalty_Charging>
0

> <r_epik_Ionization_Penalty_Neutral>
5.29078e-05

> <r_epik_State_Penalty>
-0

> <r_epik_Charging_Adjusted_Penalty>
0

> <i_epik_Tot_Q>
0

> <i_epik_Tot_abs_Q>
0

> <r_epik_Metal_State_Penalty>
-0

> <b_epik_Metal_Only>
0

> <s_lp_Force_Field>
OPLS_2005

> <r_lp_Energy>
38.8238

> <b_lp_Chiralities_Consistent>
1

> <s_lp_Variant>
AV-unprocessed.smi:75-1

> <Gold.Version>
5.8.1

> <Gold.Id.Protein>
6NUR|6NUR_protein|mol2

> <Gold.PLP.Fitness>
54.4628

> <Gold.PLP.PLP>
-40.5655

> <Gold.PLP.part.hbond>
-10.0730

> <Gold.PLP.part.metal>
0.0000

> <Gold.PLP.part.buried>
1.2800

> <Gold.PLP.part.nonpolar>
-33.3796

> <Gold.PLP.part.repulsive>
0.9146

> <Gold.PLP.ligand.clash>
0.0000

> <Gold.PLP.ligand.torsion>
1.9505

> <Gold.PLP.Chemscore.Hbond>
4.8605

> <Gold.PLP.Chemscore.CHOScore>
0.8378

> <Gold.PLP.Chemscore.Metal>
0.0000

> <Gold.Chemscore.Hbonds>
donor molecule, donor type, donor heavy atom, donor atom, acceptor molecule, acceptor atom, score
      L1  H     1    28       P1  7949  0.40
      L1  H    24    46       P1 10747  1.00
      L1  H    26    49       P1 10186  0.96
      P1  H  8011  8017       L1     7  0.59
      P1  H 10752 10765       L1     3  1.00
      P1  H 10785 10796       L1    26  0.84
      L1  C    18    40       P1 10171  0.86

> <Gold.PLP.Chemscore.Internal.Correction>
0.7033

> <Gold.Rescore>
     Score         DG    S(hbond)    S(metal)    S(lipo)     H(rot)  DE(clash)    DE(int)     intcor
     12.45     -17.78       4.53        0.00      77.08       4.63       0.86       4.47       ----

> <Gold.Chemscore.Fitness>
12.4464

> <Gold.Chemscore.DG>
-17.7800

> <Gold.Chemscore.ZeroCoef>
-5.4800

> <Gold.Chemscore.Hbond>
4.5283

> <Gold.Chemscore.Metal>
0.0000

> <Gold.Chemscore.Lipo>
77.0803

> <Gold.Chemscore.Internal_Hbond>
0.0000

> <Gold.Chemscore.DEClash>
0.8648

> <Gold.Chemscore.DEInternal>
4.4688

> <Gold.Chemscore.Rot>
4.6261

> <Gold.Chemscore.Internal.Correction>
   9.000000E+99

> <Gold.Chemscore.Hbonds>
donor molecule, donor type, donor heavy atom, donor atom, acceptor molecule, acceptor atom, score
      L1  H     1    28       P1  7949  0.39
      L1  H    24    46       P1 10747  0.96
      L1  H    26    49       P1 10186  0.91
      P1  H  8011  8017       L1     7  0.57
      P1  H 10752 10765       L1     3  0.96
      P1  H 10785 10796       L1    26  0.50

> <Gold.Chemscore.Hbond.Weighted>
-15.1245

> <Gold.Chemscore.Metal.Weighted>
-0.0000

> <Gold.Chemscore.Lipo.Weighted>
-9.0184

> <Gold.Chemscore.Internal_Hbond.Weighted>
0.0000

> <Gold.Chemscore.DEClash.Weighted>
0.8648

> <Gold.Chemscore.DEInternal.Weighted>
4.4688

> <Gold.Chemscore.Rot.Weighted>
11.8429

> <Gold.Chemscore.Internal.Correction.Weighted>
   9.000000E+99

> <Gold.Protein.RotatedTorsions>
[ 6907 6896 6895 6894 ] final  165.43 input  -60.11 | X-H torsion
[ 7974 7965 7964 7962 ] final  161.66 input  175.53 | X-H torsion
[ 8008 7997 7996 7995 ] final  159.93 input   59.86 | X-H torsion
[ 10167 10162 10161 10158 ] final  -29.84 input  -65.29 | X-H torsion
[ 10718 10713 10712 10709 ] final   49.05 input   66.30 | X-H torsion
[ 10763 10752 10751 10750 ] final -161.64 input  -60.55 | X-H torsion
[ 11005 11000 10999 10996 ] final  -51.77 input  -57.11 | X-H torsion

> <Gold.Protein.ActiveResidues>
 VAL166  LYS551  ARG553  GLY616  TRP617  ASP618  TYR619  PRO620  LYS621  CYS622 
 ASP623  PHE694  ASN695  SER759  ASP760  ASP761  ALA762  ILE779  LEU786  VAL792 
 PHE793  MET794  SER795  GLU796  ALA797  LYS798  CYS799  TRP800  GLU811  SER814 

> <Gold.Protein.RotatedAtoms>
  151.8945  133.3523  159.3809 H   0  0  0  0  0  0  0  0  0  0  0  0  # atno 6907 bound_to 6896
  150.7095  134.4890  159.5516 H   0  0  0  0  0  0  0  0  0  0  0  0  # atno 6908 bound_to 6896
  152.2467  134.8175  160.0503 H   0  0  0  0  0  0  0  0  0  0  0  0  # atno 6909 bound_to 6896
  144.7675  139.7929  143.6310 H   0  0  0  0  0  0  0  0  0  0  0  0  # atno 7974 bound_to 7965
  156.2206  140.1818  156.7485 H   0  0  0  0  0  0  0  0  0  0  0  0  # atno 8008 bound_to 7997
  154.5860  140.0658  156.9200 H   0  0  0  0  0  0  0  0  0  0  0  0  # atno 8009 bound_to 7997
  155.2419  140.3322  155.4294 H   0  0  0  0  0  0  0  0  0  0  0  0  # atno 8010 bound_to 7997
  140.7256  143.3896  151.1453 H   0  0  0  0  0  0  0  0  0  0  0  0  # atno 10167 bound_to 10162
  157.4748  130.8278  149.8028 H   0  0  0  0  0  0  0  0  0  0  0  0  # atno 10718 bound_to 10713
  154.7286  135.3041  154.8930 H   0  0  0  0  0  0  0  0  0  0  0  0  # atno 10763 bound_to 10752
  153.9780  135.6734  153.4753 H   0  0  0  0  0  0  0  0  0  0  0  0  # atno 10764 bound_to 10752
  153.0897  135.4965  154.8586 H   0  0  0  0  0  0  0  0  0  0  0  0  # atno 10765 bound_to 10752
  141.0889  133.6637  156.3926 H   0  0  0  0  0  0  0  0  0  0  0  0  # atno 11005 bound_to 11000
  146.1794  139.4980  142.9876 LP  0  0  0  0  0  0  0  0  0  0  0  0  # atno 17320 bound_to 7965
  145.6426  141.0281  143.1803 LP  0  0  0  0  0  0  0  0  0  0  0  0  # atno 17321 bound_to 7965
  139.7499  143.8795  152.3074 LP  0  0  0  0  0  0  0  0  0  0  0  0  # atno 17342 bound_to 10162
  139.8645  144.7100  150.9060 LP  0  0  0  0  0  0  0  0  0  0  0  0  # atno 17343 bound_to 10162
  156.0091  130.3841  150.2326 LP  0  0  0  0  0  0  0  0  0  0  0  0  # atno 17370 bound_to 10713
  157.0509  131.0062  151.3254 LP  0  0  0  0  0  0  0  0  0  0  0  0  # atno 17371 bound_to 10713
  140.5299  134.6222  157.5346 LP  0  0  0  0  0  0  0  0  0  0  0  0  # atno 17394 bound_to 11000
  139.9711  134.7291  156.0040 LP  0  0  0  0  0  0  0  0  0  0  0  0  # atno 17395 bound_to 11000

$$$$
