AV-unprocessed.smi:243|AV-procd|sdf|1850|dock6
  -GOLD-   2262020473D 1   1.00000     0.00000
 Structure written by MMmdl.
 58 61  0  0  0  0  0  0  0  0  2 V2000
  144.2338  131.9960  149.6098 C   0  0  0  0  0  0  0  0  0  0  0  0
  144.1125  133.4751  150.0024 C   0  0  0  0  0  0  0  0  0  0  0  0
  145.4358  134.1309  150.1808 N   0  3  2  0  0  0  0  0  0  0  0  0
  146.3945  133.3223  150.9735 C   0  0  0  0  0  0  0  0  0  0  0  0
  146.0335  133.3244  152.4668 C   0  0  0  0  0  0  0  0  0  0  0  0
  145.9595  134.7619  153.0314 C   0  0  2  0  0  0  0  0  0  0  0  0
  145.6546  134.7815  154.4705 N   0  0  0  0  0  0  0  0  0  0  0  0
  144.2589  134.9764  154.8462 C   0  0  0  0  0  0  0  0  0  0  0  0
  146.5393  135.4008  155.2920 C   0  0  0  0  0  0  0  0  0  0  0  0
  146.0392  136.2024  156.2653 N   0  0  0  0  0  0  0  0  0  0  0  0
  146.8626  136.8423  157.1006 C   0  0  0  0  0  0  0  0  0  0  0  0
  148.1962  136.8239  157.1337 N   0  0  0  0  0  0  0  0  0  0  0  0
  148.7062  136.0280  156.1508 C   0  0  0  0  0  0  0  0  0  0  0  0
  147.9566  135.2845  155.1956 C   0  0  0  0  0  0  0  0  0  0  0  0
  148.8203  134.5784  154.3661 N   0  0  0  0  0  0  0  0  0  0  0  0
  150.0098  134.8919  154.8009 C   0  0  0  0  0  0  0  0  0  0  0  0
  150.0349  135.7666  155.8636 N   0  0  0  0  0  0  0  0  0  0  0  0
  151.2145  136.2857  156.5395 C   0  0  0  0  0  0  0  0  0  0  0  0
  151.8578  137.4956  155.8206 C   0  0  1  0  0  0  0  0  0  0  0  0
  152.2411  137.1065  154.5128 O   0  0  0  0  0  0  0  0  0  0  0  0
  150.9179  138.6889  155.7103 C   0  0  0  0  0  0  0  0  0  0  0  0
  151.8793  139.8692  155.6652 C   0  0  0  0  0  0  0  0  0  0  0  0
  152.8821  139.5024  156.5980 O   0  0  0  0  0  0  0  0  0  0  0  0
  153.0886  138.0938  156.5323 C   0  0  0  0  0  0  0  0  0  0  0  0
  145.0100  135.6380  152.1690 C   0  0  1  0  0  0  0  0  0  0  0  0
  145.0415  137.1162  152.5986 C   0  0  0  0  0  0  0  0  0  0  0  0
  145.3828  135.5338  150.6713 C   0  0  0  0  0  0  0  0  0  0  0  0
  143.2519  131.5225  149.6005 H   0  0  0  0  0  0  0  0  0  0  0  0
  144.8569  131.4489  150.3178 H   0  0  0  0  0  0  0  0  0  0  0  0
  144.6598  131.8697  148.6149 H   0  0  0  0  0  0  0  0  0  0  0  0
  143.5025  134.0111  149.2753 H   0  0  0  0  0  0  0  0  0  0  0  0
  143.5687  133.5220  150.9466 H   0  0  0  0  0  0  0  0  0  0  0  0
  146.4349  132.3016  150.5912 H   0  0  0  0  0  0  0  0  0  0  0  0
  147.3945  133.7365  150.8391 H   0  0  0  0  0  0  0  0  0  0  0  0
  145.0822  132.8102  152.6035 H   0  0  0  0  0  0  0  0  0  0  0  0
  146.7758  132.7413  153.0122 H   0  0  0  0  0  0  0  0  0  0  0  0
  146.9577  135.1913  152.9318 H   0  0  0  0  0  0  0  0  0  0  0  0
  144.1388  134.9868  155.9307 H   0  0  0  0  0  0  0  0  0  0  0  0
  143.6518  134.1596  154.4554 H   0  0  0  0  0  0  0  0  0  0  0  0
  143.8625  135.9100  154.4477 H   0  0  0  0  0  0  0  0  0  0  0  0
  146.3849  137.4591  157.8475 H   0  0  0  0  0  0  0  0  0  0  0  0
  150.9074  134.4912  154.3528 H   0  0  0  0  0  0  0  0  0  0  0  0
  150.9354  136.5581  157.5583 H   0  0  0  0  0  0  0  0  0  0  0  0
  151.9377  135.4740  156.6283 H   0  0  0  0  0  0  0  0  0  0  0  0
  151.4975  137.2087  153.9388 H   0  0  0  0  0  0  0  0  0  0  0  0
  150.2502  138.6448  154.8490 H   0  0  0  0  0  0  0  0  0  0  0  0
  150.3000  138.7675  156.6061 H   0  0  0  0  0  0  0  0  0  0  0  0
  152.3224  139.9758  154.6737 H   0  0  0  0  0  0  0  0  0  0  0  0
  151.4046  140.8127  155.9351 H   0  0  0  0  0  0  0  0  0  0  0  0
  153.1891  137.7288  157.5538 H   0  0  0  0  0  0  0  0  0  0  0  0
  154.0206  137.8681  156.0116 H   0  0  0  0  0  0  0  0  0  0  0  0
  143.9869  135.2813  152.2822 H   0  0  0  0  0  0  0  0  0  0  0  0
  146.0427  137.5362  152.4980 H   0  0  0  0  0  0  0  0  0  0  0  0
  144.7349  137.2459  153.6359 H   0  0  0  0  0  0  0  0  0  0  0  0
  144.3674  137.7159  151.9865 H   0  0  0  0  0  0  0  0  0  0  0  0
  146.3672  135.9771  150.5133 H   0  0  0  0  0  0  0  0  0  0  0  0
  144.6960  136.1231  150.0651 H   0  0  0  0  0  0  0  0  0  0  0  0
  145.8291  134.1759  149.2515 H   0  0  0  0  0  0  0  0  0  0  0  0
  1  2  1  0  0  0  0
  1 28  1  0  0  0  0
  1 29  1  0  0  0  0
  1 30  1  0  0  0  0
  2  3  1  0  0  0  0
  2 31  1  0  0  0  0
  2 32  1  0  0  0  0
  3 27  1  0  0  0  0
  3  4  1  0  0  0  0
  3 58  1  0  0  0  0
  4  5  1  0  0  0  0
  4 33  1  0  0  0  0
  4 34  1  0  0  0  0
  5  6  1  0  0  0  0
  5 35  1  0  0  0  0
  5 36  1  0  0  0  0
  6  7  1  0  0  0  0
  6 25  1  0  0  0  0
  6 37  1  0  0  0  0
  7  8  1  0  0  0  0
  7  9  1  0  0  0  0
  8 38  1  0  0  0  0
  8 39  1  0  0  0  0
  8 40  1  0  0  0  0
  9 14  1  0  0  0  0
  9 10  2  0  0  0  0
 10 11  1  0  0  0  0
 11 12  2  0  0  0  0
 11 41  1  0  0  0  0
 12 13  1  0  0  0  0
 13 17  1  0  0  0  0
 13 14  2  0  0  0  0
 14 15  1  0  0  0  0
 15 16  2  0  0  0  0
 16 17  1  0  0  0  0
 16 42  1  0  0  0  0
 17 18  1  0  0  0  0
 18 19  1  0  0  0  0
 18 43  1  0  0  0  0
 18 44  1  0  0  0  0
 19 24  1  0  0  0  0
 19 20  1  0  0  0  0
 19 21  1  0  0  0  0
 20 45  1  0  0  0  0
 21 22  1  0  0  0  0
 21 46  1  0  0  0  0
 21 47  1  0  0  0  0
 22 23  1  0  0  0  0
 22 48  1  0  0  0  0
 22 49  1  0  0  0  0
 23 24  1  0  0  0  0
 24 50  1  0  0  0  0
 24 51  1  0  0  0  0
 25 26  1  0  0  0  0
 25 27  1  0  0  0  0
 25 52  1  0  0  0  0
 26 53  1  0  0  0  0
 26 54  1  0  0  0  0
 26 55  1  0  0  0  0
 27 56  1  0  0  0  0
 27 57  1  0  0  0  0
M  CHG  1   3   1
M  END
> <s_m_source_file>
AV-unprocessed.smi

> <i_m_source_file_index>
243

> <i_lp_mmshare_version>
43012

> <i_f3d_flags>
0

> <s_epik_input>
W0NIM11bQ0gyXU4xW0NIMl1bQ0gyXVtDQEhdKFtDQEBIXShbQ0gzXSlbQ0gyXTEpTihbQ0gzXSljKG5bY0hdbjIpYyhjMjMpbltjSF1uM1tDSDJdW0NAQF00KFtPSF0pW0NIMl1bQ0gyXU9bQ0gyXTQ=

> <s_epik_cmdline>
J2VwaWtfcHl0aG9uJywgJy1waCcsICc3LjAnLCAnLXRuJywgJzgnLCAnLW1hJywgJzIwMCcsICctbWV0YWxfYmluZGluZycsICctaW1hZScsICc8aW5maWxlLm1hZT4nLCAnLW9tYWUnLCAnPG91dGZpbGUubWFlPic=

> <r_lp_tautomer_probability>
1

> <r_epik_Ionization_Penalty>
0.00253099

> <r_epik_Ionization_Penalty_Charging>
0.00137877

> <r_epik_Ionization_Penalty_Neutral>
0.00115221

> <r_epik_State_Penalty>
-0

> <r_epik_Charging_Adjusted_Penalty>
0.00137877

> <i_epik_Tot_Q>
1

> <i_epik_Tot_abs_Q>
1

> <r_epik_Metal_State_Penalty>
-0

> <b_epik_Metal_Only>
0

> <s_lp_Force_Field>
OPLS_2005

> <r_lp_Energy>
49.0604

> <b_lp_Chiralities_Consistent>
1

> <s_lp_Variant>
AV-unprocessed.smi:243-3

> <Gold.Version>
5.8.1

> <Gold.Id.Protein>
6NUR|6NUR_protein|mol2

> <Gold.PLP.Fitness>
37.5975

> <Gold.PLP.PLP>
-31.8113

> <Gold.PLP.part.hbond>
-3.0002

> <Gold.PLP.part.metal>
0.0000

> <Gold.PLP.part.buried>
-3.2112

> <Gold.PLP.part.nonpolar>
-27.5753

> <Gold.PLP.part.repulsive>
1.8649

> <Gold.PLP.ligand.clash>
0.0000

> <Gold.PLP.ligand.torsion>
1.7902

> <Gold.PLP.Chemscore.Hbond>
2.8480

> <Gold.PLP.Chemscore.CHOScore>
0.0000

> <Gold.PLP.Chemscore.Metal>
0.0000

> <Gold.Chemscore.Hbonds>
donor molecule, donor type, donor heavy atom, donor atom, acceptor molecule, acceptor atom, score
      L1  H     3    58       P1  7921  1.00
      P1  H  7997  8009       L1    23  1.00
      P1  H 10752 10765       L1    20  0.85

> <Gold.PLP.Chemscore.Internal.Correction>
0.8226

> <Gold.Rescore>
     Score         DG    S(hbond)    S(metal)    S(lipo)     H(rot)  DE(clash)    DE(int)     intcor
     14.77     -16.82       2.56        0.00      79.36       2.53       0.21       1.83       ----

> <Gold.Chemscore.Fitness>
14.7749

> <Gold.Chemscore.DG>
-16.8241

> <Gold.Chemscore.ZeroCoef>
-5.4800

> <Gold.Chemscore.Hbond>
2.5559

> <Gold.Chemscore.Metal>
0.0000

> <Gold.Chemscore.Lipo>
79.3616

> <Gold.Chemscore.Internal_Hbond>
0.0000

> <Gold.Chemscore.DEClash>
0.2149

> <Gold.Chemscore.DEInternal>
1.8342

> <Gold.Chemscore.Rot>
2.5305

> <Gold.Chemscore.Internal.Correction>
   9.000000E+99

> <Gold.Chemscore.Hbonds>
donor molecule, donor type, donor heavy atom, donor atom, acceptor molecule, acceptor atom, score
      L1  H     3    58       P1  7921  0.50
      P1  H  7997  8009       L1    23  0.39
      P1  H 10752 10765       L1    20  0.63

> <Gold.Chemscore.Hbond.Weighted>
-8.5367

> <Gold.Chemscore.Metal.Weighted>
-0.0000

> <Gold.Chemscore.Lipo.Weighted>
-9.2853

> <Gold.Chemscore.Internal_Hbond.Weighted>
0.0000

> <Gold.Chemscore.DEClash.Weighted>
0.2149

> <Gold.Chemscore.DEInternal.Weighted>
1.8342

> <Gold.Chemscore.Rot.Weighted>
6.4780

> <Gold.Chemscore.Internal.Correction.Weighted>
   9.000000E+99

> <Gold.Protein.RotatedTorsions>
[ 6907 6896 6895 6894 ] final  -32.88 input  -60.11 | X-H torsion
[ 7974 7965 7964 7962 ] final   64.44 input  175.53 | X-H torsion
[ 8008 7997 7996 7995 ] final -176.42 input   59.86 | X-H torsion
[ 10167 10162 10161 10158 ] final  155.22 input  -65.29 | X-H torsion
[ 10718 10713 10712 10709 ] final -125.46 input   66.30 | X-H torsion
[ 10763 10752 10751 10750 ] final  160.26 input  -60.55 | X-H torsion
[ 11005 11000 10999 10996 ] final -148.51 input  -57.11 | X-H torsion

> <Gold.Protein.ActiveResidues>
 VAL166  LYS551  ARG553  GLY616  TRP617  ASP618  TYR619  PRO620  LYS621  CYS622 
 ASP623  PHE694  ASN695  SER759  ASP760  ASP761  ALA762  ILE779  LEU786  VAL792 
 PHE793  MET794  SER795  GLU796  ALA797  LYS798  CYS799  TRP800  GLU811  SER814 

> <Gold.Protein.RotatedAtoms>
  151.0730  134.9810  159.8317 H   0  0  0  0  0  0  0  0  0  0  0  0  # atno 6907 bound_to 6896
  152.5410  134.2276  159.8822 H   0  0  0  0  0  0  0  0  0  0  0  0  # atno 6908 bound_to 6896
  151.2302  133.4411  159.2637 H   0  0  0  0  0  0  0  0  0  0  0  0  # atno 6909 bound_to 6896
  145.8502  139.3249  143.0879 H   0  0  0  0  0  0  0  0  0  0  0  0  # atno 7974 bound_to 7965
  155.9946  140.1208  157.0606 H   0  0  0  0  0  0  0  0  0  0  0  0  # atno 8008 bound_to 7997
  154.4222  140.1119  156.5681 H   0  0  0  0  0  0  0  0  0  0  0  0  # atno 8009 bound_to 7997
  155.6296  140.3473  155.4680 H   0  0  0  0  0  0  0  0  0  0  0  0  # atno 8010 bound_to 7997
  139.4821  144.5117  151.8013 H   0  0  0  0  0  0  0  0  0  0  0  0  # atno 10167 bound_to 10162
  156.1677  130.6646  151.0137 H   0  0  0  0  0  0  0  0  0  0  0  0  # atno 10718 bound_to 10713
  154.2447  135.2773  155.2840 H   0  0  0  0  0  0  0  0  0  0  0  0  # atno 10763 bound_to 10752
  154.5515  135.5673  153.6930 H   0  0  0  0  0  0  0  0  0  0  0  0  # atno 10764 bound_to 10752
  152.9992  135.6275  154.2592 H   0  0  0  0  0  0  0  0  0  0  0  0  # atno 10765 bound_to 10752
  140.7604  134.3304  157.5103 H   0  0  0  0  0  0  0  0  0  0  0  0  # atno 11005 bound_to 11000
  145.9366  140.9010  143.0329 LP  0  0  0  0  0  0  0  0  0  0  0  0  # atno 17320 bound_to 7965
  144.6729  140.1491  143.7431 LP  0  0  0  0  0  0  0  0  0  0  0  0  # atno 17321 bound_to 7965
  140.4621  144.1707  150.5907 LP  0  0  0  0  0  0  0  0  0  0  0  0  # atno 17342 bound_to 10162
  140.4473  143.2501  151.9394 LP  0  0  0  0  0  0  0  0  0  0  0  0  # atno 17343 bound_to 10162
  157.6780  131.0845  150.7444 LP  0  0  0  0  0  0  0  0  0  0  0  0  # atno 17370 bound_to 10713
  156.7505  130.4767  149.5458 LP  0  0  0  0  0  0  0  0  0  0  0  0  # atno 17371 bound_to 10713
  139.8772  134.9198  156.3237 LP  0  0  0  0  0  0  0  0  0  0  0  0  # atno 17394 bound_to 11000
  140.9668  133.7353  156.0478 LP  0  0  0  0  0  0  0  0  0  0  0  0  # atno 17395 bound_to 11000

$$$$
