AV-unprocessed.smi:524|AV-procd|sdf|2805|dock7
  -GOLD-   2262023283D 1   1.00000     0.00000
 Structure written by MMmdl.
 43 45  0  0  0  0  0  0  0  0  1 V2000
  148.6309  141.6561  154.5917 C   0  0  0  0  0  0  0  0  0  0  0  0
  148.8800  141.1968  155.9080 O   0  0  0  0  0  0  0  0  0  0  0  0
  149.4557  142.1970  156.7325 C   0  0  0  0  0  0  0  0  0  0  0  0
  150.9650  142.2857  156.4669 C   0  0  0  0  0  0  0  0  0  0  0  0
  151.7025  141.2341  157.1648 N   0  0  0  0  0  0  0  0  0  0  0  0
  152.3986  141.3191  158.3327 C   0  0  0  0  0  0  0  0  0  0  0  0
  152.5291  142.5155  159.0406 N   0  0  0  0  0  0  0  0  0  0  0  0
  152.5472  143.8630  158.4692 C   0  0  0  0  0  0  0  0  0  0  0  0
  151.5677  144.8024  159.1959 C   0  0  0  0  0  0  0  0  0  0  0  0
  151.8998  144.8693  160.6929 C   0  0  0  0  0  0  0  0  0  0  0  0
  151.9929  143.4515  161.2742 C   0  0  0  0  0  0  0  0  0  0  0  0
  152.9497  142.5811  160.4397 C   0  0  0  0  0  0  0  0  0  0  0  0
  152.8990  140.1594  158.7681 N   0  0  0  0  0  0  0  0  0  0  0  0
  152.5105  139.2626  157.7865 C   0  0  0  0  0  0  0  0  0  0  0  0
  151.7848  139.8819  156.8214 C   0  0  0  0  0  0  0  0  0  0  0  0
  151.2066  139.1484  155.6858 C   0  0  0  0  0  0  0  0  0  0  0  0
  150.5348  139.6767  154.8030 O   0  0  0  0  0  0  0  0  0  0  0  0
  151.4819  137.8217  155.7140 N   0  0  0  0  0  0  0  0  0  0  0  0
  152.2073  137.1406  156.6525 C   0  0  0  0  0  0  0  0  0  0  0  0
  152.3592  135.9243  156.5416 O   0  0  0  0  0  0  0  0  0  0  0  0
  152.7364  137.8614  157.6936 N   0  0  0  0  0  0  0  0  0  0  0  0
  153.5248  137.2240  158.7504 C   0  0  0  0  0  0  0  0  0  0  0  0
  151.1026  137.2711  154.9576 H   0  0  0  0  0  0  0  0  0  0  0  0
  148.1966  140.8508  153.9995 H   0  0  0  0  0  0  0  0  0  0  0  0
  149.5531  141.9740  154.1037 H   0  0  0  0  0  0  0  0  0  0  0  0
  147.9280  142.4904  154.5922 H   0  0  0  0  0  0  0  0  0  0  0  0
  148.9876  143.1618  156.5326 H   0  0  0  0  0  0  0  0  0  0  0  0
  149.2768  141.9605  157.7824 H   0  0  0  0  0  0  0  0  0  0  0  0
  151.1632  142.2285  155.3990 H   0  0  0  0  0  0  0  0  0  0  0  0
  151.3385  143.2619  156.7611 H   0  0  0  0  0  0  0  0  0  0  0  0
  153.5603  144.2600  158.5476 H   0  0  0  0  0  0  0  0  0  0  0  0
  152.3317  143.8279  157.4021 H   0  0  0  0  0  0  0  0  0  0  0  0
  151.6118  145.8005  158.7591 H   0  0  0  0  0  0  0  0  0  0  0  0
  150.5445  144.4502  159.0619 H   0  0  0  0  0  0  0  0  0  0  0  0
  152.8518  145.3828  160.8325 H   0  0  0  0  0  0  0  0  0  0  0  0
  151.1474  145.4516  161.2253 H   0  0  0  0  0  0  0  0  0  0  0  0
  152.3317  143.4936  162.3096 H   0  0  0  0  0  0  0  0  0  0  0  0
  151.0026  142.9943  161.2894 H   0  0  0  0  0  0  0  0  0  0  0  0
  152.9815  141.5746  160.8588 H   0  0  0  0  0  0  0  0  0  0  0  0
  153.9665  142.9724  160.4942 H   0  0  0  0  0  0  0  0  0  0  0  0
  153.8401  136.2075  158.5116 H   0  0  0  0  0  0  0  0  0  0  0  0
  152.9454  137.1859  159.6733 H   0  0  0  0  0  0  0  0  0  0  0  0
  154.4303  137.7998  158.9456 H   0  0  0  0  0  0  0  0  0  0  0  0
  1  2  1  0  0  0  0
  1 24  1  0  0  0  0
  1 25  1  0  0  0  0
  1 26  1  0  0  0  0
  2  3  1  0  0  0  0
  3  4  1  0  0  0  0
  3 27  1  0  0  0  0
  3 28  1  0  0  0  0
  4  5  1  0  0  0  0
  4 29  1  0  0  0  0
  4 30  1  0  0  0  0
  5 15  1  0  0  0  0
  5  6  1  0  0  0  0
  6  7  1  0  0  0  0
  6 13  2  0  0  0  0
  7 12  1  0  0  0  0
  7  8  1  0  0  0  0
  8  9  1  0  0  0  0
  8 31  1  0  0  0  0
  8 32  1  0  0  0  0
  9 10  1  0  0  0  0
  9 33  1  0  0  0  0
  9 34  1  0  0  0  0
 10 11  1  0  0  0  0
 10 35  1  0  0  0  0
 10 36  1  0  0  0  0
 11 12  1  0  0  0  0
 11 37  1  0  0  0  0
 11 38  1  0  0  0  0
 12 39  1  0  0  0  0
 12 40  1  0  0  0  0
 13 14  1  0  0  0  0
 14 21  1  0  0  0  0
 14 15  2  0  0  0  0
 15 16  1  0  0  0  0
 16 17  2  0  0  0  0
 16 18  1  0  0  0  0
 18 23  1  0  0  0  0
 18 19  1  0  0  0  0
 19 20  2  0  0  0  0
 19 21  1  0  0  0  0
 21 22  1  0  0  0  0
 22 41  1  0  0  0  0
 22 42  1  0  0  0  0
 22 43  1  0  0  0  0
M  END
> <s_m_source_file>
AV-unprocessed.smi

> <i_m_source_file_index>
524

> <i_lp_mmshare_version>
43012

> <i_f3d_flags>
0

> <s_epik_input>
W0NIM11uMWMoPU8pW25IXWMoPU8pYyhjMTIpbihbQ0gyXVtDSDJdT1tDSDNdKWMobjIpTjNbQ0gyXVtDSDJdW0NIMl1bQ0gyXVtDSDJdMw==

> <s_epik_cmdline>
J2VwaWtfcHl0aG9uJywgJy1waCcsICc3LjAnLCAnLXRuJywgJzgnLCAnLW1hJywgJzIwMCcsICctbWV0YWxfYmluZGluZycsICctaW1hZScsICc8aW5maWxlLm1hZT4nLCAnLW9tYWUnLCAnPG91dGZpbGUubWFlPic=

> <r_lp_tautomer_probability>
1

> <r_epik_Ionization_Penalty>
0.000298119

> <r_epik_Ionization_Penalty_Charging>
0.000125384

> <r_epik_Ionization_Penalty_Neutral>
0.000172735

> <r_epik_State_Penalty>
-0

> <r_epik_Charging_Adjusted_Penalty>
0.000125384

> <i_epik_Tot_Q>
0

> <i_epik_Tot_abs_Q>
0

> <r_epik_Metal_State_Penalty>
0.0954001

> <b_epik_Metal_Only>
0

> <s_lp_Force_Field>
OPLS_2005

> <r_lp_Energy>
37.2528

> <b_lp_Chiralities_Consistent>
1

> <s_lp_Variant>
AV-unprocessed.smi:524-1

> <Gold.Version>
5.8.1

> <Gold.Id.Protein>
6NUR|6NUR_protein|mol2

> <Gold.PLP.Fitness>
45.3122

> <Gold.PLP.PLP>
-40.1489

> <Gold.PLP.part.hbond>
-1.9801

> <Gold.PLP.part.metal>
0.0000

> <Gold.PLP.part.buried>
-2.9227

> <Gold.PLP.part.nonpolar>
-35.2334

> <Gold.PLP.part.repulsive>
0.2480

> <Gold.PLP.ligand.clash>
0.0000

> <Gold.PLP.ligand.torsion>
0.6675

> <Gold.PLP.Chemscore.Hbond>
2.0000

> <Gold.PLP.Chemscore.CHOScore>
0.0000

> <Gold.PLP.Chemscore.Metal>
0.0000

> <Gold.Chemscore.Hbonds>
donor molecule, donor type, donor heavy atom, donor atom, acceptor molecule, acceptor atom, score
      P1  H  7989  7998       L1    17  0.88
      P1  H 10752 10764       L1    20  1.00

> <Gold.PLP.Chemscore.Internal.Correction>
0.4983

> <Gold.Rescore>
     Score         DG    S(hbond)    S(metal)    S(lipo)     H(rot)  DE(clash)    DE(int)     intcor
     14.20     -18.58       1.88        0.00      90.90       1.48       1.25       3.14       ----

> <Gold.Chemscore.Fitness>
14.2007

> <Gold.Chemscore.DG>
-18.5838

> <Gold.Chemscore.ZeroCoef>
-5.4800

> <Gold.Chemscore.Hbond>
1.8760

> <Gold.Chemscore.Metal>
0.0000

> <Gold.Chemscore.Lipo>
90.8969

> <Gold.Chemscore.Internal_Hbond>
0.0000

> <Gold.Chemscore.DEClash>
1.2460

> <Gold.Chemscore.DEInternal>
3.1371

> <Gold.Chemscore.Rot>
1.4832

> <Gold.Chemscore.Internal.Correction>
   9.000000E+99

> <Gold.Chemscore.Hbonds>
donor molecule, donor type, donor heavy atom, donor atom, acceptor molecule, acceptor atom, score
      P1  H  7989  7998       L1    17  0.75
      P1  H 10752 10764       L1    20  0.81

> <Gold.Chemscore.Hbond.Weighted>
-6.2659

> <Gold.Chemscore.Metal.Weighted>
-0.0000

> <Gold.Chemscore.Lipo.Weighted>
-10.6349

> <Gold.Chemscore.Internal_Hbond.Weighted>
0.0000

> <Gold.Chemscore.DEClash.Weighted>
1.2460

> <Gold.Chemscore.DEInternal.Weighted>
3.1371

> <Gold.Chemscore.Rot.Weighted>
3.7970

> <Gold.Chemscore.Internal.Correction.Weighted>
   9.000000E+99

> <Gold.Protein.RotatedTorsions>
[ 6907 6896 6895 6894 ] final  -25.98 input  -60.11 | X-H torsion
[ 7974 7965 7964 7962 ] final   -3.43 input  175.53 | X-H torsion
[ 8008 7997 7996 7995 ] final  147.77 input   59.86 | X-H torsion
[ 10167 10162 10161 10158 ] final -127.22 input  -65.29 | X-H torsion
[ 10718 10713 10712 10709 ] final   34.27 input   66.30 | X-H torsion
[ 10763 10752 10751 10750 ] final  -33.29 input  -60.55 | X-H torsion
[ 11005 11000 10999 10996 ] final  137.91 input  -57.11 | X-H torsion

> <Gold.Protein.ActiveResidues>
 VAL166  LYS551  ARG553  GLY616  TRP617  ASP618  TYR619  PRO620  LYS621  CYS622 
 ASP623  PHE694  ASN695  SER759  ASP760  ASP761  ALA762  ILE779  LEU786  VAL792 
 PHE793  MET794  SER795  GLU796  ALA797  LYS798  CYS799  TRP800  GLU811  SER814 

> <Gold.Protein.RotatedAtoms>
  151.1674  135.0302  159.8736 H   0  0  0  0  0  0  0  0  0  0  0  0  # atno 6907 bound_to 6896
  152.5450  134.1210  159.8409 H   0  0  0  0  0  0  0  0  0  0  0  0  # atno 6908 bound_to 6896
  151.1312  133.4989  159.2631 H   0  0  0  0  0  0  0  0  0  0  0  0  # atno 6909 bound_to 6896
  146.2389  140.1720  142.8332 H   0  0  0  0  0  0  0  0  0  0  0  0  # atno 7974 bound_to 7965
  156.2814  140.2146  156.5591 H   0  0  0  0  0  0  0  0  0  0  0  0  # atno 8008 bound_to 7997
  154.7228  140.0502  157.0678 H   0  0  0  0  0  0  0  0  0  0  0  0  # atno 8009 bound_to 7997
  155.0456  140.3150  155.4712 H   0  0  0  0  0  0  0  0  0  0  0  0  # atno 8010 bound_to 7997
  139.9632  143.5927  152.2438 H   0  0  0  0  0  0  0  0  0  0  0  0  # atno 10167 bound_to 10162
  157.3083  130.7386  149.6709 H   0  0  0  0  0  0  0  0  0  0  0  0  # atno 10718 bound_to 10713
  153.8278  135.6869  153.4818 H   0  0  0  0  0  0  0  0  0  0  0  0  # atno 10763 bound_to 10752
  153.1530  135.4610  154.9661 H   0  0  0  0  0  0  0  0  0  0  0  0  # atno 10764 bound_to 10752
  154.7900  135.3298  154.7744 H   0  0  0  0  0  0  0  0  0  0  0  0  # atno 10765 bound_to 10752
  140.0147  134.9424  157.0350 H   0  0  0  0  0  0  0  0  0  0  0  0  # atno 11005 bound_to 11000
  145.0004  140.8627  143.5285 LP  0  0  0  0  0  0  0  0  0  0  0  0  # atno 17320 bound_to 7965
  145.1738  139.2389  143.5328 LP  0  0  0  0  0  0  0  0  0  0  0  0  # atno 17321 bound_to 7965
  139.6538  144.7661  151.2095 LP  0  0  0  0  0  0  0  0  0  0  0  0  # atno 17342 bound_to 10162
  140.7546  143.6118  150.8598 LP  0  0  0  0  0  0  0  0  0  0  0  0  # atno 17343 bound_to 10162
  155.9676  130.4259  150.4675 LP  0  0  0  0  0  0  0  0  0  0  0  0  # atno 17370 bound_to 10713
  157.2668  131.0579  151.2285 LP  0  0  0  0  0  0  0  0  0  0  0  0  # atno 17371 bound_to 10713
  140.4493  134.1599  155.7180 LP  0  0  0  0  0  0  0  0  0  0  0  0  # atno 17394 bound_to 11000
  141.1734  133.8562  157.1498 LP  0  0  0  0  0  0  0  0  0  0  0  0  # atno 17395 bound_to 11000

$$$$
