AV-unprocessed.smi:2159|AV-procd|sdf|8791|dock3
  -GOLD-   2272011573D 1   1.00000     0.00000
 Structure written by MMmdl.
 47 49  0  0  0  0  0  0  0  0  1 V2000
  152.0789  137.5872  154.1632 O   0  0  0  0  0  0  0  0  0  0  0  0
  150.9504  137.6952  154.6434 C   0  0  0  0  0  0  0  0  0  0  0  0
  150.3963  139.0764  154.9954 C   0  0  0  0  0  0  0  0  0  0  0  0
  150.0072  139.1749  156.4835 C   0  0  0  0  0  0  0  0  0  0  0  0
  150.6563  140.3155  157.1325 N   0  0  0  0  0  0  0  0  0  0  0  0
  150.4301  141.6027  156.8085 C   0  0  0  0  0  0  0  0  0  0  0  0
  149.6022  142.0351  156.0074 O   0  0  0  0  0  0  0  0  0  0  0  0
  151.4342  142.4774  157.5441 C   0  0  1  0  0  0  0  0  0  0  0  0
  151.0926  143.8813  158.0456 C   0  0  0  0  0  0  0  0  0  0  0  0
  152.3740  144.4391  158.7201 C   0  0  0  0  0  0  0  0  0  0  0  0
  153.0064  143.4784  159.7702 C   0  0  0  0  0  0  0  0  0  0  0  0
  153.1525  142.0131  159.2801 C   0  0  0  0  0  0  0  0  0  0  0  0
  151.7913  141.5939  158.7233 C   0  0  2  0  0  0  0  0  0  0  0  0
  151.5324  140.2084  158.1499 C   0  0  0  0  0  0  0  0  0  0  0  0
  152.0065  139.1740  158.6186 O   0  0  0  0  0  0  0  0  0  0  0  0
  150.1575  136.6463  154.9154 N   0  0  0  0  0  0  0  0  0  0  0  0
  150.5398  135.2416  154.7894 C   0  0  0  0  0  0  0  0  0  0  0  0
  149.5686  134.4439  153.8949 C   0  0  0  0  0  0  0  0  0  0  0  0
  149.9542  132.9846  153.7118 C   0  0  0  0  0  0  0  0  0  0  0  0
  149.1299  132.1136  152.9684 C   0  0  0  0  0  0  0  0  0  0  0  0
  149.5541  130.7835  152.7838 C   0  0  0  0  0  0  0  0  0  0  0  0
  150.7789  130.3770  153.3475 C   0  0  0  0  0  0  0  0  0  0  0  0
  151.5283  131.3225  154.0752 C   0  0  0  0  0  0  0  0  0  0  0  0
  151.1315  132.6003  154.2568 N   0  0  0  0  0  0  0  0  0  0  0  0
  151.1430  139.8322  154.7493 H   0  0  0  0  0  0  0  0  0  0  0  0
  149.5257  139.2819  154.3704 H   0  0  0  0  0  0  0  0  0  0  0  0
  148.9244  139.2685  156.5866 H   0  0  0  0  0  0  0  0  0  0  0  0
  150.2711  138.2513  157.0024 H   0  0  0  0  0  0  0  0  0  0  0  0
  152.2876  142.5610  156.8671 H   0  0  0  0  0  0  0  0  0  0  0  0
  150.7852  144.5250  157.2209 H   0  0  0  0  0  0  0  0  0  0  0  0
  150.2645  143.8503  158.7551 H   0  0  0  0  0  0  0  0  0  0  0  0
  153.1151  144.6406  157.9457 H   0  0  0  0  0  0  0  0  0  0  0  0
  152.1583  145.4022  159.1836 H   0  0  0  0  0  0  0  0  0  0  0  0
  153.9782  143.8613  160.0832 H   0  0  0  0  0  0  0  0  0  0  0  0
  152.3809  143.4858  160.6638 H   0  0  0  0  0  0  0  0  0  0  0  0
  153.9258  141.9367  158.5148 H   0  0  0  0  0  0  0  0  0  0  0  0
  153.4510  141.3646  160.1045 H   0  0  0  0  0  0  0  0  0  0  0  0
  151.0521  141.7144  159.5185 H   0  0  0  0  0  0  0  0  0  0  0  0
  149.2462  136.8344  155.3079 H   0  0  0  0  0  0  0  0  0  0  0  0
  151.5450  135.1947  154.3702 H   0  0  0  0  0  0  0  0  0  0  0  0
  150.6017  134.7723  155.7727 H   0  0  0  0  0  0  0  0  0  0  0  0
  148.5644  134.4912  154.3191 H   0  0  0  0  0  0  0  0  0  0  0  0
  149.5013  134.9173  152.9148 H   0  0  0  0  0  0  0  0  0  0  0  0
  148.2021  132.4598  152.5375 H   0  0  0  0  0  0  0  0  0  0  0  0
  148.9528  130.0891  152.2157 H   0  0  0  0  0  0  0  0  0  0  0  0
  151.1364  129.3656  153.2237 H   0  0  0  0  0  0  0  0  0  0  0  0
  152.4738  131.0470  154.5188 H   0  0  0  0  0  0  0  0  0  0  0  0
  1  2  2  0  0  0  0
  2  3  1  0  0  0  0
  2 16  1  0  0  0  0
  3  4  1  0  0  0  0
  3 25  1  0  0  0  0
  3 26  1  0  0  0  0
  4  5  1  0  0  0  0
  4 27  1  0  0  0  0
  4 28  1  0  0  0  0
  5 14  1  0  0  0  0
  5  6  1  0  0  0  0
  6  7  2  0  0  0  0
  6  8  1  0  0  0  0
  8 13  1  0  0  0  0
  8  9  1  0  0  0  0
  8 29  1  0  0  0  0
  9 10  1  0  0  0  0
  9 30  1  0  0  0  0
  9 31  1  0  0  0  0
 10 11  1  0  0  0  0
 10 32  1  0  0  0  0
 10 33  1  0  0  0  0
 11 12  1  0  0  0  0
 11 34  1  0  0  0  0
 11 35  1  0  0  0  0
 12 13  1  0  0  0  0
 12 36  1  0  0  0  0
 12 37  1  0  0  0  0
 13 14  1  0  0  0  0
 13 38  1  0  0  0  0
 14 15  2  0  0  0  0
 16 17  1  0  0  0  0
 16 39  1  0  0  0  0
 17 18  1  0  0  0  0
 17 40  1  0  0  0  0
 17 41  1  0  0  0  0
 18 19  1  0  0  0  0
 18 42  1  0  0  0  0
 18 43  1  0  0  0  0
 19 24  1  0  0  0  0
 19 20  2  0  0  0  0
 20 21  1  0  0  0  0
 20 44  1  0  0  0  0
 21 22  2  0  0  0  0
 21 45  1  0  0  0  0
 22 23  1  0  0  0  0
 22 46  1  0  0  0  0
 23 24  2  0  0  0  0
 23 47  1  0  0  0  0
M  END
> <s_m_source_file>
AV-unprocessed.smi

> <i_m_source_file_index>
2159

> <i_lp_mmshare_version>
43012

> <i_f3d_flags>
0

> <s_epik_input>
bjFbY0hdW2NIXVtjSF1bY0hdYzFbQ0gyXVtDSDJdW05IXUMoPU8pW0NIMl1bQ0gyXU4oQzI9TylDKD1PKVtDQEhdKFtDQEBIXTIzKVtDSDJdW0NIMl1bQ0gyXVtDSDJdMw==

> <s_epik_cmdline>
J2VwaWtfcHl0aG9uJywgJy1waCcsICc3LjAnLCAnLXRuJywgJzgnLCAnLW1hJywgJzIwMCcsICctbWV0YWxfYmluZGluZycsICctaW1hZScsICc8aW5maWxlLm1hZT4nLCAnLW9tYWUnLCAnPG91dGZpbGUubWFlPic=

> <r_lp_tautomer_probability>
1

> <r_epik_Ionization_Penalty>
0.026624

> <r_epik_Ionization_Penalty_Charging>
0

> <r_epik_Ionization_Penalty_Neutral>
0.026624

> <r_epik_State_Penalty>
0.0217444

> <r_epik_Charging_Adjusted_Penalty>
0.0217444

> <i_epik_Tot_Q>
0

> <i_epik_Tot_abs_Q>
0

> <r_epik_Metal_State_Penalty>
0.0208054

> <b_epik_Metal_Only>
0

> <s_lp_Force_Field>
OPLS_2005

> <r_lp_Energy>
31.6251

> <b_lp_Chiralities_Consistent>
1

> <s_lp_Variant>
AV-unprocessed.smi:2159-1

> <Gold.Version>
5.8.1

> <Gold.Id.Protein>
6NUR|6NUR_protein|mol2

> <Gold.PLP.Fitness>
48.5258

> <Gold.PLP.PLP>
-46.7624

> <Gold.PLP.part.hbond>
-0.8691

> <Gold.PLP.part.metal>
0.0000

> <Gold.PLP.part.buried>
-6.0958

> <Gold.PLP.part.nonpolar>
-41.3379

> <Gold.PLP.part.repulsive>
1.0628

> <Gold.PLP.ligand.clash>
0.0000

> <Gold.PLP.ligand.torsion>
0.4184

> <Gold.PLP.Chemscore.Hbond>
0.8320

> <Gold.PLP.Chemscore.CHOScore>
0.0000

> <Gold.PLP.Chemscore.Metal>
0.0000

> <Gold.Chemscore.Hbonds>
donor molecule, donor type, donor heavy atom, donor atom, acceptor molecule, acceptor atom, score
      P1  H 10752 10765       L1     1  0.49

> <Gold.PLP.Chemscore.Internal.Correction>
0.1042

> <Gold.Rescore>
     Score         DG    S(hbond)    S(metal)    S(lipo)     H(rot)  DE(clash)    DE(int)     intcor
     15.75     -16.46       0.94        0.00     110.03       1.97       0.03       0.68       ----

> <Gold.Chemscore.Fitness>
15.7453

> <Gold.Chemscore.DG>
-16.4577

> <Gold.Chemscore.ZeroCoef>
-5.4800

> <Gold.Chemscore.Hbond>
0.9427

> <Gold.Chemscore.Metal>
0.0000

> <Gold.Chemscore.Lipo>
110.0290

> <Gold.Chemscore.Internal_Hbond>
0.0000

> <Gold.Chemscore.DEClash>
0.0340

> <Gold.Chemscore.DEInternal>
0.6784

> <Gold.Chemscore.Rot>
1.9704

> <Gold.Chemscore.Internal.Correction>
   9.000000E+99

> <Gold.Chemscore.Hbonds>
donor molecule, donor type, donor heavy atom, donor atom, acceptor molecule, acceptor atom, score
      P1  H 10752 10765       L1     1  0.42

> <Gold.Chemscore.Hbond.Weighted>
-3.1486

> <Gold.Chemscore.Metal.Weighted>
-0.0000

> <Gold.Chemscore.Lipo.Weighted>
-12.8734

> <Gold.Chemscore.Internal_Hbond.Weighted>
0.0000

> <Gold.Chemscore.DEClash.Weighted>
0.0340

> <Gold.Chemscore.DEInternal.Weighted>
0.6784

> <Gold.Chemscore.Rot.Weighted>
5.0443

> <Gold.Chemscore.Internal.Correction.Weighted>
   9.000000E+99

> <Gold.Protein.RotatedTorsions>
[ 6907 6896 6895 6894 ] final   28.69 input  -60.11 | X-H torsion
[ 7974 7965 7964 7962 ] final   58.14 input  175.53 | X-H torsion
[ 8008 7997 7996 7995 ] final   -5.71 input   59.86 | X-H torsion
[ 10167 10162 10161 10158 ] final   87.46 input  -65.29 | X-H torsion
[ 10718 10713 10712 10709 ] final  -90.12 input   66.30 | X-H torsion
[ 10763 10752 10751 10750 ] final  174.76 input  -60.55 | X-H torsion
[ 11005 11000 10999 10996 ] final   19.70 input  -57.11 | X-H torsion

> <Gold.Protein.ActiveResidues>
 VAL166  LYS551  ARG553  GLY616  TRP617  ASP618  TYR619  PRO620  LYS621  CYS622 
 ASP623  PHE694  ASN695  SER759  ASP760  ASP761  ALA762  ILE779  LEU786  VAL792 
 PHE793  MET794  SER795  GLU796  ALA797  LYS798  CYS799  TRP800  GLU811  SER814 

> <Gold.Protein.RotatedAtoms>
  152.0207  134.9824  160.0570 H   0  0  0  0  0  0  0  0  0  0  0  0  # atno 6907 bound_to 6896
  152.1340  133.4419  159.4743 H   0  0  0  0  0  0  0  0  0  0  0  0  # atno 6908 bound_to 6896
  150.6859  134.2305  159.4475 H   0  0  0  0  0  0  0  0  0  0  0  0  # atno 6909 bound_to 6896
  145.9214  139.3732  143.0476 H   0  0  0  0  0  0  0  0  0  0  0  0  # atno 7974 bound_to 7965
  154.6011  140.2451  155.7791 H   0  0  0  0  0  0  0  0  0  0  0  0  # atno 8008 bound_to 7997
  156.2311  140.2966  156.0144 H   0  0  0  0  0  0  0  0  0  0  0  0  # atno 8009 bound_to 7997
  155.2209  140.0400  157.2938 H   0  0  0  0  0  0  0  0  0  0  0  0  # atno 8010 bound_to 7997
  139.8771  144.6460  150.8884 H   0  0  0  0  0  0  0  0  0  0  0  0  # atno 10167 bound_to 10162
  155.9986  130.4898  150.5275 H   0  0  0  0  0  0  0  0  0  0  0  0  # atno 10718 bound_to 10713
  154.4584  135.2767  155.1731 H   0  0  0  0  0  0  0  0  0  0  0  0  # atno 10763 bound_to 10752
  154.3529  135.6146  153.5655 H   0  0  0  0  0  0  0  0  0  0  0  0  # atno 10764 bound_to 10752
  152.9852  135.5816  154.4941 H   0  0  0  0  0  0  0  0  0  0  0  0  # atno 10765 bound_to 10752
  140.4108  134.1620  155.7667 H   0  0  0  0  0  0  0  0  0  0  0  0  # atno 11005 bound_to 11000
  145.8545  140.9510  143.0732 LP  0  0  0  0  0  0  0  0  0  0  0  0  # atno 17320 bound_to 7965
  144.6753  140.0450  143.7480 LP  0  0  0  0  0  0  0  0  0  0  0  0  # atno 17321 bound_to 7965
  140.7751  143.3615  151.1818 LP  0  0  0  0  0  0  0  0  0  0  0  0  # atno 17342 bound_to 10162
  139.7230  143.9194  152.2992 LP  0  0  0  0  0  0  0  0  0  0  0  0  # atno 17343 bound_to 10162
  157.3229  131.0685  151.1918 LP  0  0  0  0  0  0  0  0  0  0  0  0  # atno 17370 bound_to 10713
  157.2826  130.6757  149.6073 LP  0  0  0  0  0  0  0  0  0  0  0  0  # atno 17371 bound_to 10713
  141.1822  133.8390  157.1218 LP  0  0  0  0  0  0  0  0  0  0  0  0  # atno 17394 bound_to 11000
  140.0269  134.9920  157.0703 LP  0  0  0  0  0  0  0  0  0  0  0  0  # atno 17395 bound_to 11000

$$$$
