AV-unprocessed.smi:1669|AV-procd|sdf|6683|dock8
  -GOLD-   22720 7403D 1   1.00000     0.00000
 Structure written by MMmdl.
 48 50  0  0  0  0  0  0  0  0  2 V2000
  154.3002  136.8691  164.5554 C   0  0  0  0  0  0  0  0  0  0  0  0
  155.2809  137.8759  164.0867 N   0  3  1  0  0  0  0  0  0  0  0  0
  156.2423  138.2774  165.1466 C   0  0  0  0  0  0  0  0  0  0  0  0
  155.8265  139.5670  165.8301 C   0  0  0  0  0  0  0  0  0  0  0  0
  155.6131  139.5867  167.2245 C   0  0  0  0  0  0  0  0  0  0  0  0
  155.2310  140.7816  167.8648 C   0  0  0  0  0  0  0  0  0  0  0  0
  155.0588  141.9601  167.1132 C   0  0  0  0  0  0  0  0  0  0  0  0
  155.2674  141.9432  165.7205 C   0  0  0  0  0  0  0  0  0  0  0  0
  155.6496  140.7489  165.0794 C   0  0  0  0  0  0  0  0  0  0  0  0
  155.9528  137.4589  162.8306 C   0  0  0  0  0  0  0  0  0  0  0  0
  155.5147  138.3249  161.6287 C   0  0  2  0  0  0  0  0  0  0  0  0
  155.8936  139.6645  161.8704 O   0  0  0  0  0  0  0  0  0  0  0  0
  153.9968  138.2981  161.3611 C   0  0  0  0  0  0  0  0  0  0  0  0
  153.5919  139.2796  160.3631 N   0  0  0  0  0  0  0  0  0  0  0  0
  153.3953  139.1047  159.0308 C   0  0  0  0  0  0  0  0  0  0  0  0
  153.5733  137.7781  158.3583 C   0  0  0  0  0  0  0  0  0  0  0  0
  152.5802  136.8445  158.7244 O   0  0  0  0  0  0  0  0  0  0  0  0
  153.0388  140.1941  158.3499 N   0  0  0  0  0  0  0  0  0  0  0  0
  152.9857  141.1640  159.3315 C   0  0  0  0  0  0  0  0  0  0  0  0
  152.6669  142.5382  159.2490 C   0  0  0  0  0  0  0  0  0  0  0  0
  152.6809  143.3445  160.4060 C   0  0  0  0  0  0  0  0  0  0  0  0
  153.0108  142.7895  161.6593 C   0  0  0  0  0  0  0  0  0  0  0  0
  153.3316  141.4225  161.7634 C   0  0  0  0  0  0  0  0  0  0  0  0
  153.3205  140.6228  160.6048 C   0  0  0  0  0  0  0  0  0  0  0  0
  154.7973  135.9378  164.8302 H   0  0  0  0  0  0  0  0  0  0  0  0
  153.5700  136.6498  163.7757 H   0  0  0  0  0  0  0  0  0  0  0  0
  153.7453  137.2299  165.4213 H   0  0  0  0  0  0  0  0  0  0  0  0
  156.3486  137.4746  165.8784 H   0  0  0  0  0  0  0  0  0  0  0  0
  157.2362  138.4345  164.7275 H   0  0  0  0  0  0  0  0  0  0  0  0
  155.7440  138.6861  167.8069 H   0  0  0  0  0  0  0  0  0  0  0  0
  155.0704  140.7945  168.9327 H   0  0  0  0  0  0  0  0  0  0  0  0
  154.7658  142.8764  167.6045 H   0  0  0  0  0  0  0  0  0  0  0  0
  155.1345  142.8469  165.1437 H   0  0  0  0  0  0  0  0  0  0  0  0
  155.8088  140.7448  164.0110 H   0  0  0  0  0  0  0  0  0  0  0  0
  157.0309  137.5074  162.9879 H   0  0  0  0  0  0  0  0  0  0  0  0
  155.7303  136.4146  162.6056 H   0  0  0  0  0  0  0  0  0  0  0  0
  156.0285  138.0012  160.7244 H   0  0  0  0  0  0  0  0  0  0  0  0
  156.7957  139.7773  161.6106 H   0  0  0  0  0  0  0  0  0  0  0  0
  153.6834  137.3023  161.0499 H   0  0  0  0  0  0  0  0  0  0  0  0
  153.4514  138.5125  162.2813 H   0  0  0  0  0  0  0  0  0  0  0  0
  153.5401  137.9142  157.2767 H   0  0  0  0  0  0  0  0  0  0  0  0
  154.5584  137.3750  158.5930 H   0  0  0  0  0  0  0  0  0  0  0  0
  151.7499  137.1374  158.3810 H   0  0  0  0  0  0  0  0  0  0  0  0
  152.4102  142.9731  158.2944 H   0  0  0  0  0  0  0  0  0  0  0  0
  152.4350  144.3938  160.3316 H   0  0  0  0  0  0  0  0  0  0  0  0
  153.0158  143.4138  162.5408 H   0  0  0  0  0  0  0  0  0  0  0  0
  153.5810  140.9950  162.7233 H   0  0  0  0  0  0  0  0  0  0  0  0
  154.7466  138.7003  163.8498 H   0  0  0  0  0  0  0  0  0  0  0  0
  1  2  1  0  0  0  0
  1 25  1  0  0  0  0
  1 26  1  0  0  0  0
  1 27  1  0  0  0  0
  2  3  1  0  0  0  0
  2 10  1  0  0  0  0
  2 48  1  0  0  0  0
  3  4  1  0  0  0  0
  3 28  1  0  0  0  0
  3 29  1  0  0  0  0
  4  9  1  0  0  0  0
  4  5  2  0  0  0  0
  5  6  1  0  0  0  0
  5 30  1  0  0  0  0
  6  7  2  0  0  0  0
  6 31  1  0  0  0  0
  7  8  1  0  0  0  0
  7 32  1  0  0  0  0
  8  9  2  0  0  0  0
  8 33  1  0  0  0  0
  9 34  1  0  0  0  0
 10 11  1  0  0  0  0
 10 35  1  0  0  0  0
 10 36  1  0  0  0  0
 11 12  1  0  0  0  0
 11 13  1  0  0  0  0
 11 37  1  0  0  0  0
 12 38  1  0  0  0  0
 13 14  1  0  0  0  0
 13 39  1  0  0  0  0
 13 40  1  0  0  0  0
 14 24  1  0  0  0  0
 14 15  1  0  0  0  0
 15 16  1  0  0  0  0
 15 18  2  0  0  0  0
 16 17  1  0  0  0  0
 16 41  1  0  0  0  0
 16 42  1  0  0  0  0
 17 43  1  0  0  0  0
 18 19  1  0  0  0  0
 19 24  2  0  0  0  0
 19 20  1  0  0  0  0
 20 21  2  0  0  0  0
 20 44  1  0  0  0  0
 21 22  1  0  0  0  0
 21 45  1  0  0  0  0
 22 23  2  0  0  0  0
 22 46  1  0  0  0  0
 23 24  1  0  0  0  0
 23 47  1  0  0  0  0
M  CHG  1   2   1
M  END
> <s_m_source_file>
AV-unprocessed.smi

> <i_m_source_file_index>
1669

> <i_lp_mmshare_version>
43012

> <i_f3d_flags>
0

> <s_epik_input>
W2NIXTFbY0hdW2NIXVtjSF1bY0hdYzFbQ0gyXU4oW0NIM10pW0NIMl1bQ0BIXShbT0hdKVtDSDJdbihjKG4yKVtDSDJdW09IXSljKGMyMylbY0hdW2NIXVtjSF1bY0hdMw==

> <s_epik_cmdline>
J2VwaWtfcHl0aG9uJywgJy1waCcsICc3LjAnLCAnLXRuJywgJzgnLCAnLW1hJywgJzIwMCcsICctbWV0YWxfYmluZGluZycsICctaW1hZScsICc8aW5maWxlLm1hZT4nLCAnLW9tYWUnLCAnPG91dGZpbGUubWFlPic=

> <r_epik_Ionization_Penalty>
0.0949884

> <r_epik_Ionization_Penalty_Charging>
0.0475377

> <r_epik_Ionization_Penalty_Neutral>
0.0474507

> <r_epik_State_Penalty>
0.078247

> <r_epik_Charging_Adjusted_Penalty>
0.125785

> <i_epik_Tot_Q>
1

> <i_epik_Tot_abs_Q>
1

> <r_epik_Metal_State_Penalty>
0.0403451

> <b_epik_Metal_Only>
0

> <s_lp_Force_Field>
OPLS_2005

> <r_lp_Energy>
16.111

> <b_lp_Chiralities_Consistent>
1

> <s_lp_Variant>
AV-unprocessed.smi:1669-1

> <Gold.Version>
5.8.1

> <Gold.Id.Protein>
6NUR|6NUR_protein|mol2

> <Gold.PLP.Fitness>
48.3889

> <Gold.PLP.PLP>
-46.4440

> <Gold.PLP.part.hbond>
-2.0000

> <Gold.PLP.part.metal>
0.0000

> <Gold.PLP.part.buried>
-6.5318

> <Gold.PLP.part.nonpolar>
-38.0096

> <Gold.PLP.part.repulsive>
0.0296

> <Gold.PLP.ligand.clash>
0.0000

> <Gold.PLP.ligand.torsion>
1.7788

> <Gold.PLP.Chemscore.Hbond>
1.8089

> <Gold.PLP.Chemscore.CHOScore>
0.0000

> <Gold.PLP.Chemscore.Metal>
0.0000

> <Gold.Chemscore.Hbonds>
donor molecule, donor type, donor heavy atom, donor atom, acceptor molecule, acceptor atom, score
      P1  H  6896  6909       L1    17  0.24
      P1  H  7997  8009       L1    18  0.71

> <Gold.PLP.Chemscore.Internal.Correction>
0.0759

> <Gold.Rescore>
     Score         DG    S(hbond)    S(metal)    S(lipo)     H(rot)  DE(clash)    DE(int)     intcor
     14.41     -17.64       1.38        0.00     134.03       3.17       0.30       2.92       ----

> <Gold.Chemscore.Fitness>
14.4141

> <Gold.Chemscore.DG>
-17.6371

> <Gold.Chemscore.ZeroCoef>
-5.4800

> <Gold.Chemscore.Hbond>
1.3767

> <Gold.Chemscore.Metal>
0.0000

> <Gold.Chemscore.Lipo>
134.0344

> <Gold.Chemscore.Internal_Hbond>
0.0000

> <Gold.Chemscore.DEClash>
0.2987

> <Gold.Chemscore.DEInternal>
2.9243

> <Gold.Chemscore.Rot>
3.1731

> <Gold.Chemscore.Internal.Correction>
   9.000000E+99

> <Gold.Chemscore.Hbonds>
donor molecule, donor type, donor heavy atom, donor atom, acceptor molecule, acceptor atom, score
      P1  H  6896  6909       L1    17  0.13
      P1  H  7997  8009       L1    18  0.08

> <Gold.Chemscore.Hbond.Weighted>
-4.5981

> <Gold.Chemscore.Metal.Weighted>
-0.0000

> <Gold.Chemscore.Lipo.Weighted>
-15.6820

> <Gold.Chemscore.Internal_Hbond.Weighted>
0.0000

> <Gold.Chemscore.DEClash.Weighted>
0.2987

> <Gold.Chemscore.DEInternal.Weighted>
2.9243

> <Gold.Chemscore.Rot.Weighted>
8.1230

> <Gold.Chemscore.Internal.Correction.Weighted>
   9.000000E+99

> <Gold.Protein.RotatedTorsions>
[ 6907 6896 6895 6894 ] final  150.88 input  -60.11 | X-H torsion
[ 7974 7965 7964 7962 ] final   -2.31 input  175.53 | X-H torsion
[ 8008 7997 7996 7995 ] final  155.72 input   59.86 | X-H torsion
[ 10167 10162 10161 10158 ] final  103.57 input  -65.29 | X-H torsion
[ 10718 10713 10712 10709 ] final   53.53 input   66.30 | X-H torsion
[ 10763 10752 10751 10750 ] final -133.52 input  -60.55 | X-H torsion
[ 11005 11000 10999 10996 ] final  -11.48 input  -57.11 | X-H torsion

> <Gold.Protein.ActiveResidues>
 VAL166  LYS551  ARG553  GLY616  TRP617  ASP618  TYR619  PRO620  LYS621  CYS622 
 ASP623  PHE694  ASN695  SER759  ASP760  ASP761  ALA762  ILE779  LEU786  VAL792 
 PHE793  MET794  SER795  GLU796  ALA797  LYS798  CYS799  TRP800  GLU811  SER814 

> <Gold.Protein.RotatedAtoms>
  152.1084  133.4287  159.4618 H   0  0  0  0  0  0  0  0  0  0  0  0  # atno 6907 bound_to 6896
  150.6866  134.2678  159.4585 H   0  0  0  0  0  0  0  0  0  0  0  0  # atno 6908 bound_to 6896
  152.0544  134.9633  160.0625 H   0  0  0  0  0  0  0  0  0  0  0  0  # atno 6909 bound_to 6896
  146.2406  140.1552  142.8333 H   0  0  0  0  0  0  0  0  0  0  0  0  # atno 7974 bound_to 7965
  156.2463  140.1932  156.6844 H   0  0  0  0  0  0  0  0  0  0  0  0  # atno 8008 bound_to 7997
  154.6298  140.0597  156.9744 H   0  0  0  0  0  0  0  0  0  0  0  0  # atno 8009 bound_to 7997
  155.1729  140.3270  155.4392 H   0  0  0  0  0  0  0  0  0  0  0  0  # atno 8010 bound_to 7997
  139.7251  144.7049  151.0810 H   0  0  0  0  0  0  0  0  0  0  0  0  # atno 10167 bound_to 10162
  157.5175  130.8542  149.8515 H   0  0  0  0  0  0  0  0  0  0  0  0  # atno 10718 bound_to 10713
  154.8731  135.3763  154.4586 H   0  0  0  0  0  0  0  0  0  0  0  0  # atno 10763 bound_to 10752
  153.5256  135.7028  153.5714 H   0  0  0  0  0  0  0  0  0  0  0  0  # atno 10764 bound_to 10752
  153.3942  135.3964  155.1909 H   0  0  0  0  0  0  0  0  0  0  0  0  # atno 10765 bound_to 10752
  140.7557  133.8556  155.9082 H   0  0  0  0  0  0  0  0  0  0  0  0  # atno 11005 bound_to 11000
  145.0135  140.8734  143.5210 LP  0  0  0  0  0  0  0  0  0  0  0  0  # atno 17320 bound_to 7965
  145.1589  139.2470  143.5402 LP  0  0  0  0  0  0  0  0  0  0  0  0  # atno 17321 bound_to 7965
  140.7761  143.5115  150.9646 LP  0  0  0  0  0  0  0  0  0  0  0  0  # atno 17342 bound_to 10162
  139.8803  143.7081  152.3157 LP  0  0  0  0  0  0  0  0  0  0  0  0  # atno 17343 bound_to 10162
  156.0330  130.3759  150.1635 LP  0  0  0  0  0  0  0  0  0  0  0  0  # atno 17370 bound_to 10713
  156.9824  130.9868  151.3434 LP  0  0  0  0  0  0  0  0  0  0  0  0  # atno 17371 bound_to 10713
  140.9710  134.1531  157.4576 LP  0  0  0  0  0  0  0  0  0  0  0  0  # atno 17394 bound_to 11000
  139.8779  134.9978  156.5868 LP  0  0  0  0  0  0  0  0  0  0  0  0  # atno 17395 bound_to 11000

$$$$
