#       Name:                AV-unprocessed.smi:2121
#       Creating user name   scv26
#       Creation time:       Fri Mar 27 11:39:13 2020


#       File generated by GOLD software.
#

@<TRIPOS>MOLECULE
AV-unprocessed.smi:2121
    57    58     1
SMALL
NO_CHARGES


@<TRIPOS>ATOM
      1 ****        -5.1581  -1.5185   3.6751 C.3            1 S1                 0.0000
      2 ****        -4.5056  -0.8708   2.4492 C.3            1 S1                 0.0000
      3 ****        -2.9745  -1.0269   2.4647 C.3            1 S1                 0.0000
      4 ****        -2.3983  -0.5133   1.2263 N.3            1 S1                 0.0000
      5 ****        -1.0030  -0.3014   1.2472 C.ar           1 S1                 0.0000
      6 ****        -0.4227   0.5005   2.2583 C.ar           1 S1                 0.0000
      7 ****         0.9721   0.6893   2.2692 C.ar           1 S1                 0.0000
      8 ****         1.7554   0.0810   1.2693 C.ar           1 S1                 0.0000
      9 ****         3.2683   0.2588   1.2779 C.3            1 S1                 0.0000
     10 ****         3.9090   0.1032  -0.0236 N.am           1 S1                 0.0000
     11 ****         3.9238   1.0342  -0.9892 C.2            1 S1                 0.0000
     12 ****         3.4062   2.1453  -0.8637 O.2            1 S1                 0.0000
     13 ****         4.6417   0.6477  -2.2917 C.3            1 S1                 0.0000
     14 ****         5.9997   1.3683  -2.3255 C.3            1 S1                 0.0000
     15 ****         3.8654   1.0825  -3.4518 N.am           1 S1                 0.0000
     16 ****         2.8039   0.4335  -3.9526 C.2            1 S1                 0.0000
     17 ****         2.2716   1.0641  -4.9999 N.am           1 S1                 0.0000
     18 ****         2.3585  -0.6226  -3.5071 O.2            1 S1                 0.0000
     19 ****         1.0892  -0.6966   0.2968 C.ar           1 S1                 0.0000
     20 ****        -0.2478  -0.8815   0.2820 N.ar           1 S1                 0.0000
     21 ****        -2.9835  -1.1147   0.0299 C.3            1 S1                 0.0000
     22 ****        -4.5207  -1.0009   0.0468 C.3            1 S1                 0.0000
     23 ****        -5.0358   0.4138  -0.2731 C.3            1 S1                 0.0000
     24 ****        -5.0397  -1.4967   1.2830 O.3            1 S1                 0.0000
     25 ****        -4.7907  -1.0703   4.5986 H              1 S1                 0.0000
     26 ****        -4.9487  -2.5879   3.7150 H              1 S1                 0.0000
     27 ****        -6.2407  -1.3917   3.6521 H              1 S1                 0.0000
     28 ****        -4.7650   0.1880   2.4505 H              1 S1                 0.0000
     29 ****        -2.5727  -0.5166   3.3390 H              1 S1                 0.0000
     30 ****        -2.7055  -2.0794   2.5636 H              1 S1                 0.0000
     31 ****        -1.0285   0.9775   3.0141 H              1 S1                 0.0000
     32 ****         1.4320   1.2952   3.0361 H              1 S1                 0.0000
     33 ****         3.5207   1.2345   1.6968 H              1 S1                 0.0000
     34 ****         3.6930  -0.4841   1.9532 H              1 S1                 0.0000
     35 ****         4.3608  -0.7806  -0.2087 H              1 S1                 0.0000
     36 ****         4.7991  -0.4321  -2.3334 H              1 S1                 0.0000
     37 ****         6.6235   1.0757  -1.4798 H              1 S1                 0.0000
     38 ****         5.8862   2.4532  -2.2956 H              1 S1                 0.0000
     39 ****         6.5493   1.1200  -3.2340 H              1 S1                 0.0000
     40 ****         4.1460   1.9488  -3.8871 H              1 S1                 0.0000
     41 ****         1.4693   0.6758  -5.4734 H              1 S1                 0.0000
     42 ****         2.6810   1.9300  -5.3194 H              1 S1                 0.0000
     43 ****         1.6360  -1.1935  -0.4909 H              1 S1                 0.0000
     44 ****        -2.5900  -0.6403  -0.8701 H              1 S1                 0.0000
     45 ****        -2.6954  -2.1661  -0.0085 H              1 S1                 0.0000
     46 ****        -4.9089  -1.6590  -0.7310 H              1 S1                 0.0000
     47 ****        -4.7365   0.7144  -1.2774 H              1 S1                 0.0000
     48 ****        -4.6467   1.1624   0.4165 H              1 S1                 0.0000
     49 ****        -6.1244   0.4497  -0.2288 H              1 S1                 0.0000
     50 ****        -2.6981   0.4382   1.1568 LP             1 S1                 0.0000
     51 ****         2.9464   2.3892  -0.0098 LP             1 S1                 0.0000
     52 ****         3.4458   2.8032  -1.6158 LP             1 S1                 0.0000
     53 ****         2.7936  -1.0551  -2.7175 LP             1 S1                 0.0000
     54 ****         1.5612  -1.0488  -3.9345 LP             1 S1                 0.0000
     55 ****        -0.6751  -1.4381  -0.4304 LP             1 S1                 0.0000
     56 ****        -6.0303  -1.3595   1.2821 LP             1 S1                 0.0000
     57 ****        -4.8387  -2.4749   1.3350 LP             1 S1                 0.0000
@<TRIPOS>BOND
    1    1    2 1     
    2    1   25 1     
    3    1   26 1     
    4    1   27 1     
    5    2   24 1     
    6    2    3 1     
    7    2   28 1     
    8    3    4 1     
    9    3   29 1     
   10    3   30 1     
   11    4    5 1     
   12    4   21 1     
   13    5   20 ar    
   14    5    6 ar    
   15    6    7 ar    
   16    6   31 1     
   17    7    8 ar    
   18    7   32 1     
   19    8    9 1     
   20    8   19 ar    
   21    9   10 1     
   22    9   33 1     
   23    9   34 1     
   24   10   11 am    
   25   10   35 1     
   26   11   12 2     
   27   11   13 1     
   28   13   14 1     
   29   13   15 1     
   30   13   36 1     
   31   14   37 1     
   32   14   38 1     
   33   14   39 1     
   34   15   16 am    
   35   15   40 1     
   36   16   17 am    
   37   16   18 2     
   38   17   41 1     
   39   17   42 1     
   40   19   20 ar    
   41   19   43 1     
   42   21   22 1     
   43   21   44 1     
   44   21   45 1     
   45   22   23 1     
   46   22   24 1     
   47   22   46 1     
   48   23   47 1     
   49   23   48 1     
   50   23   49 1     
   51    4   50 1     
   52   12   51 1     
   53   12   52 1     
   54   18   53 1     
   55   18   54 1     
   56   20   55 1     
   57   24   56 1     
   58   24   57 1     
@<TRIPOS>SUBSTRUCTURE
      1 S1             1
@<TRIPOS>SET
LONE_PAIRS      STATIC     ATOMS    <user>   **** ""
8 50 51 52 53 54 55 56 57
DONOR_HYDROGENS      STATIC     ATOMS    <user>   **** ""
4 35 40 41 42
ATOM$BLUE        STATIC     ATOMS    COLORGROUP SYSTEM
8 50 51 52 53 54 55 56 57
ATOM$RED        STATIC     ATOMS    COLORGROUP SYSTEM
4 35 40 41 42
