#       Name:                AV-unprocessed.smi:3348
#       Creating user name   scv26
#       Creation time:       Fri Mar 27 19:33:42 2020


#       File generated by GOLD software.
#

@<TRIPOS>MOLECULE
AV-unprocessed.smi:3348
    50    51     1
SMALL
NO_CHARGES


@<TRIPOS>ATOM
      1 ****        -0.0952   3.6108  -1.4026 C.3            1 S1                 0.0000
      2 ****        -0.5860   2.4360  -0.5338 C.3            1 S1                 0.0000
      3 ****        -2.1221   2.2925  -0.5545 C.3            1 S1                 0.0000
      4 ****        -2.8110   3.4829  -0.0897 N.pl3          1 S1                 0.0000
      5 ****        -3.5555   4.3860  -0.8193 C.2            1 S1                 0.0000
      6 ****        -4.0087   5.3353   0.0512 C.2            1 S1                 0.0000
      7 ****        -3.4881   4.9181   1.3079 C.2            1 S1                 0.0000
      8 ****        -2.7730   3.8080   1.2201 N.2            1 S1                 0.0000
      9 ****         0.0266   1.1590  -0.9634 N.4            1 S1                 1.0000
     10 ****         1.4502   0.9837  -0.6050 C.3            1 S1                 0.0000
     11 ****         1.9376  -0.4189  -0.9798 C.3            1 S1                 0.0000
     12 ****         1.2742  -1.3590  -0.1486 O.3            1 S1                 0.0000
     13 ****         1.6042  -2.7207  -0.4035 C.3            1 S1                 0.0000
     14 ****         2.9292  -3.0999   0.2924 C.3            1 S1                 0.0000
     15 ****         2.8085  -3.0252   1.8232 C.3            1 S1                 0.0000
     16 ****         1.6528  -3.8996   2.3328 C.3            1 S1                 0.0000
     17 ****         0.3277  -3.5320   1.6459 C.3            1 S1                 0.0000
     18 ****         0.4462  -3.6058   0.1100 C.3            1 S1                 0.0000
     19 ****        -0.8852  -3.2750  -0.5828 C.3            1 S1                 0.0000
     20 ****        -0.5249   4.5572  -1.0738 H              1 S1                 0.0000
     21 ****        -0.3684   3.4697  -2.4489 H              1 S1                 0.0000
     22 ****         0.9869   3.7277  -1.3535 H              1 S1                 0.0000
     23 ****        -0.2826   2.6184   0.4985 H              1 S1                 0.0000
     24 ****        -2.4672   2.0683  -1.5651 H              1 S1                 0.0000
     25 ****        -2.4327   1.4552   0.0725 H              1 S1                 0.0000
     26 ****        -3.6972   4.2819  -1.8849 H              1 S1                 0.0000
     27 ****        -4.6210   6.1960  -0.1744 H              1 S1                 0.0000
     28 ****        -3.6085   5.3851   2.2742 H              1 S1                 0.0000
     29 ****        -0.4825   0.4125  -0.5112 H              1 S1                 0.0000
     30 ****         2.0520   1.7243  -1.1310 H              1 S1                 0.0000
     31 ****         1.5911   1.1519   0.4636 H              1 S1                 0.0000
     32 ****         1.7368  -0.6223  -2.0329 H              1 S1                 0.0000
     33 ****         3.0159  -0.4781  -0.8338 H              1 S1                 0.0000
     34 ****         1.7028  -2.8781  -1.4791 H              1 S1                 0.0000
     35 ****         3.2038  -4.1161   0.0067 H              1 S1                 0.0000
     36 ****         3.7472  -2.4658  -0.0477 H              1 S1                 0.0000
     37 ****         3.7441  -3.3415   2.2851 H              1 S1                 0.0000
     38 ****         2.6481  -1.9907   2.1291 H              1 S1                 0.0000
     39 ****         1.8809  -4.9500   2.1470 H              1 S1                 0.0000
     40 ****         1.5540  -3.7919   3.4134 H              1 S1                 0.0000
     41 ****        -0.4586  -4.2040   1.9915 H              1 S1                 0.0000
     42 ****         0.0269  -2.5278   1.9476 H              1 S1                 0.0000
     43 ****         0.6877  -4.6381  -0.1480 H              1 S1                 0.0000
     44 ****        -1.2149  -2.2613  -0.3539 H              1 S1                 0.0000
     45 ****        -1.6722  -3.9583  -0.2632 H              1 S1                 0.0000
     46 ****        -0.7960  -3.3604  -1.6660 H              1 S1                 0.0000
     47 ****        -0.0830   1.0595  -1.9624 H              1 S1                 0.0000
     48 ****        -2.3085   3.3194   1.9586 LP             1 S1                 0.0000
     49 ****         0.2889  -1.2483  -0.2789 LP             1 S1                 0.0000
     50 ****         1.5098  -1.1546   0.8015 LP             1 S1                 0.0000
@<TRIPOS>BOND
    1    1    2 1     
    2    1   20 1     
    3    1   21 1     
    4    1   22 1     
    5    2    3 1     
    6    2    9 1     
    7    2   23 1     
    8    3    4 1     
    9    3   24 1     
   10    3   25 1     
   11    4    8 1     
   12    4    5 1     
   13    5    6 2     
   14    5   26 1     
   15    6    7 1     
   16    6   27 1     
   17    7    8 2     
   18    7   28 1     
   19    9   10 1     
   20    9   29 1     
   21    9   47 1     
   22   10   11 1     
   23   10   30 1     
   24   10   31 1     
   25   11   12 1     
   26   11   32 1     
   27   11   33 1     
   28   12   13 1     
   29   13   18 1     
   30   13   14 1     
   31   13   34 1     
   32   14   15 1     
   33   14   35 1     
   34   14   36 1     
   35   15   16 1     
   36   15   37 1     
   37   15   38 1     
   38   16   17 1     
   39   16   39 1     
   40   16   40 1     
   41   17   18 1     
   42   17   41 1     
   43   17   42 1     
   44   18   19 1     
   45   18   43 1     
   46   19   44 1     
   47   19   45 1     
   48   19   46 1     
   49    8   48 1     
   50   12   49 1     
   51   12   50 1     
@<TRIPOS>SUBSTRUCTURE
      1 S1             1
@<TRIPOS>SET
LONE_PAIRS      STATIC     ATOMS    <user>   **** ""
3 48 49 50
DONOR_HYDROGENS      STATIC     ATOMS    <user>   **** ""
2 29 47
ATOM$BLUE        STATIC     ATOMS    COLORGROUP SYSTEM
3 48 49 50
ATOM$RED        STATIC     ATOMS    COLORGROUP SYSTEM
2 29 47
