AV-unprocessed.smi:229|AV-procd|sdf|1762|dock5
  -GOLD-   2262020293D 1   1.00000     0.00000
 Structure written by MMmdl.
 58 62  0  0  0  0  0  0  0  0  1 V2000
  144.9640  135.2379  150.4975 C   0  0  0  0  0  0  0  0  0  0  0  0
  145.6045  136.2885  151.4132 C   0  0  0  0  0  0  0  0  0  0  0  0
  144.9243  136.3757  152.7874 C   0  0  1  0  0  0  0  0  0  0  0  0
  145.6992  137.2847  153.7553 C   0  0  0  0  0  0  0  0  0  0  0  0
  144.9678  137.3932  155.0089 N   0  0  0  0  0  0  0  0  0  0  0  0
  145.6322  137.9877  156.0216 C   0  0  0  0  0  0  0  0  0  0  0  0
  145.0148  138.0124  157.2281 N   0  0  0  0  0  0  0  0  0  0  0  0
  145.6138  138.5905  158.2740 C   0  0  0  0  0  0  0  0  0  0  0  0
  146.8030  139.1948  158.3265 N   0  0  0  0  0  0  0  0  0  0  0  0
  147.4202  139.1796  157.1103 C   0  0  0  0  0  0  0  0  0  0  0  0
  146.9110  138.6043  155.9122 C   0  0  0  0  0  0  0  0  0  0  0  0
  147.8163  138.7955  154.8747 N   0  0  0  0  0  0  0  0  0  0  0  0
  148.8070  139.4395  155.4295 C   0  0  0  0  0  0  0  0  0  0  0  0
  148.6528  139.7067  156.7710 N   0  0  0  0  0  0  0  0  0  0  0  0
  149.5883  140.4035  157.6366 C   0  0  0  0  0  0  0  0  0  0  0  0
  149.9884  141.7884  157.0830 C   0  0  1  0  0  0  0  0  0  0  0  0
  148.9497  142.6995  157.3879 O   0  0  0  0  0  0  0  0  0  0  0  0
  151.2916  142.3340  157.7009 C   0  0  1  0  0  0  0  0  0  0  0  0
  151.5683  143.8113  157.4151 C   0  0  0  0  0  0  0  0  0  0  0  0
  152.4823  144.2284  158.5547 C   0  0  0  0  0  0  0  0  0  0  0  0
  152.2344  143.1666  159.6285 C   0  0  0  0  0  0  0  0  0  0  0  0
  151.1867  142.3535  159.1171 O   0  0  0  0  0  0  0  0  0  0  0  0
  143.6173  137.9037  154.8270 C   0  0  0  0  0  0  0  0  0  0  0  0
  142.8394  137.0383  153.8073 C   0  0  2  0  0  0  0  0  0  0  0  0
  141.5099  137.6892  153.4371 C   0  0  0  0  0  0  0  0  0  0  0  0
  140.5110  136.9939  154.3493 C   0  0  0  0  0  0  0  0  0  0  0  0
  140.9688  135.6551  154.3303 O   0  0  0  0  0  0  0  0  0  0  0  0
  142.3904  135.6749  154.3842 C   0  0  0  0  0  0  0  0  0  0  0  0
  143.6082  136.9053  152.6069 O   0  0  0  0  0  0  0  0  0  0  0  0
  145.4768  135.1964  149.5364 H   0  0  0  0  0  0  0  0  0  0  0  0
  143.9156  135.4666  150.3041 H   0  0  0  0  0  0  0  0  0  0  0  0
  145.0130  134.2442  150.9436 H   0  0  0  0  0  0  0  0  0  0  0  0
  146.6580  136.0404  151.5463 H   0  0  0  0  0  0  0  0  0  0  0  0
  145.5783  137.2639  150.9258 H   0  0  0  0  0  0  0  0  0  0  0  0
  144.8716  135.3725  153.2112 H   0  0  0  0  0  0  0  0  0  0  0  0
  146.6947  136.8789  153.9411 H   0  0  0  0  0  0  0  0  0  0  0  0
  145.8267  138.2707  153.3079 H   0  0  0  0  0  0  0  0  0  0  0  0
  145.0607  138.5658  159.2013 H   0  0  0  0  0  0  0  0  0  0  0  0
  149.6840  139.7365  154.8725 H   0  0  0  0  0  0  0  0  0  0  0  0
  149.1411  140.5039  158.6266 H   0  0  0  0  0  0  0  0  0  0  0  0
  150.4656  139.7671  157.7538 H   0  0  0  0  0  0  0  0  0  0  0  0
  150.0958  141.7278  155.9991 H   0  0  0  0  0  0  0  0  0  0  0  0
  148.9747  143.4027  156.7571 H   0  0  0  0  0  0  0  0  0  0  0  0
  152.1524  141.7331  157.4002 H   0  0  0  0  0  0  0  0  0  0  0  0
  152.0150  143.9784  156.4345 H   0  0  0  0  0  0  0  0  0  0  0  0
  150.6404  144.3827  157.4655 H   0  0  0  0  0  0  0  0  0  0  0  0
  153.5277  144.2170  158.2444 H   0  0  0  0  0  0  0  0  0  0  0  0
  152.2460  145.2331  158.9065 H   0  0  0  0  0  0  0  0  0  0  0  0
  153.1261  142.5564  159.7793 H   0  0  0  0  0  0  0  0  0  0  0  0
  151.9524  143.6011  160.5881 H   0  0  0  0  0  0  0  0  0  0  0  0
  143.0918  137.9327  155.7829 H   0  0  0  0  0  0  0  0  0  0  0  0
  143.6812  138.9325  154.4695 H   0  0  0  0  0  0  0  0  0  0  0  0
  141.5041  138.7740  153.5485 H   0  0  0  0  0  0  0  0  0  0  0  0
  141.2571  137.4639  152.3998 H   0  0  0  0  0  0  0  0  0  0  0  0
  140.5606  137.3893  155.3649 H   0  0  0  0  0  0  0  0  0  0  0  0
  139.4838  137.0749  153.9932 H   0  0  0  0  0  0  0  0  0  0  0  0
  142.7746  134.8246  153.8215 H   0  0  0  0  0  0  0  0  0  0  0  0
  142.7097  135.5567  155.4205 H   0  0  0  0  0  0  0  0  0  0  0  0
  1  2  1  0  0  0  0
  1 30  1  0  0  0  0
  1 31  1  0  0  0  0
  1 32  1  0  0  0  0
  2  3  1  0  0  0  0
  2 33  1  0  0  0  0
  2 34  1  0  0  0  0
  3 29  1  0  0  0  0
  3  4  1  0  0  0  0
  3 35  1  0  0  0  0
  4  5  1  0  0  0  0
  4 36  1  0  0  0  0
  4 37  1  0  0  0  0
  5  6  1  0  0  0  0
  5 23  1  0  0  0  0
  6 11  1  0  0  0  0
  6  7  2  0  0  0  0
  7  8  1  0  0  0  0
  8  9  2  0  0  0  0
  8 38  1  0  0  0  0
  9 10  1  0  0  0  0
 10 14  1  0  0  0  0
 10 11  2  0  0  0  0
 11 12  1  0  0  0  0
 12 13  2  0  0  0  0
 13 14  1  0  0  0  0
 13 39  1  0  0  0  0
 14 15  1  0  0  0  0
 15 16  1  0  0  0  0
 15 40  1  0  0  0  0
 15 41  1  0  0  0  0
 16 17  1  0  0  0  0
 16 18  1  0  0  0  0
 16 42  1  0  0  0  0
 17 43  1  0  0  0  0
 18 22  1  0  0  0  0
 18 19  1  0  0  0  0
 18 44  1  0  0  0  0
 19 20  1  0  0  0  0
 19 45  1  0  0  0  0
 19 46  1  0  0  0  0
 20 21  1  0  0  0  0
 20 47  1  0  0  0  0
 20 48  1  0  0  0  0
 21 22  1  0  0  0  0
 21 49  1  0  0  0  0
 21 50  1  0  0  0  0
 23 24  1  0  0  0  0
 23 51  1  0  0  0  0
 23 52  1  0  0  0  0
 24 28  1  0  0  0  0
 24 25  1  0  0  0  0
 24 29  1  0  0  0  0
 25 26  1  0  0  0  0
 25 53  1  0  0  0  0
 25 54  1  0  0  0  0
 26 27  1  0  0  0  0
 26 55  1  0  0  0  0
 26 56  1  0  0  0  0
 27 28  1  0  0  0  0
 28 57  1  0  0  0  0
 28 58  1  0  0  0  0
M  END
> <s_m_source_file>
AV-unprocessed.smi

> <i_m_source_file_index>
229

> <i_lp_mmshare_version>
43012

> <i_f3d_flags>
0

> <s_epik_input>
W0NIMl0xT1tDSDJdW0NIMl1bQ0BdMTJbQ0gyXU4oW0NIMl1bQ0BIXShPMilbQ0gyXVtDSDNdKWMobltjSF1uMyljKGMzNCluW2NIXW40W0NIMl1bQ0BIXShbT0hdKVtDQEBIXTVbQ0gyXVtDSDJdW0NIMl1PNQ==

> <s_epik_cmdline>
J2VwaWtfcHl0aG9uJywgJy1waCcsICc3LjAnLCAnLXRuJywgJzgnLCAnLW1hJywgJzIwMCcsICctbWV0YWxfYmluZGluZycsICctaW1hZScsICc8aW5maWxlLm1hZT4nLCAnLW9tYWUnLCAnPG91dGZpbGUubWFlPic=

> <r_lp_tautomer_probability>
1

> <r_epik_Ionization_Penalty>
0.00318402

> <r_epik_Ionization_Penalty_Charging>
0

> <r_epik_Ionization_Penalty_Neutral>
0.00318402

> <r_epik_State_Penalty>
0.00215642

> <r_epik_Charging_Adjusted_Penalty>
0.00215642

> <i_epik_Tot_Q>
0

> <i_epik_Tot_abs_Q>
0

> <r_epik_Metal_State_Penalty>
-0

> <b_epik_Metal_Only>
0

> <s_lp_Force_Field>
OPLS_2005

> <r_lp_Energy>
58.1289

> <b_lp_Chiralities_Consistent>
1

> <s_lp_Variant>
AV-unprocessed.smi:229-16

> <Gold.Version>
5.8.1

> <Gold.Id.Protein>
6NUR|6NUR_protein|mol2

> <Gold.PLP.Fitness>
42.5088

> <Gold.PLP.PLP>
-37.4902

> <Gold.PLP.part.hbond>
-3.0000

> <Gold.PLP.part.metal>
0.0000

> <Gold.PLP.part.buried>
-6.0730

> <Gold.PLP.part.nonpolar>
-29.5203

> <Gold.PLP.part.repulsive>
0.4084

> <Gold.PLP.ligand.clash>
0.0000

> <Gold.PLP.ligand.torsion>
0.4057

> <Gold.PLP.Chemscore.Hbond>
1.8640

> <Gold.PLP.Chemscore.CHOScore>
0.0000

> <Gold.PLP.Chemscore.Metal>
0.0000

> <Gold.Chemscore.Hbonds>
donor molecule, donor type, donor heavy atom, donor atom, acceptor molecule, acceptor atom, score
      L1  H    17    43       P1  8028  1.00
      P1  H 11000 11005       L1    27  0.86

> <Gold.PLP.Chemscore.Internal.Correction>
0.2380

> <Gold.Rescore>
     Score         DG    S(hbond)    S(metal)    S(lipo)     H(rot)  DE(clash)    DE(int)     intcor
     13.77     -15.66       1.66        0.00      93.43       2.46       0.11       1.78       ----

> <Gold.Chemscore.Fitness>
13.7731

> <Gold.Chemscore.DG>
-15.6608

> <Gold.Chemscore.ZeroCoef>
-5.4800

> <Gold.Chemscore.Hbond>
1.6603

> <Gold.Chemscore.Metal>
0.0000

> <Gold.Chemscore.Lipo>
93.4260

> <Gold.Chemscore.Internal_Hbond>
0.0000

> <Gold.Chemscore.DEClash>
0.1071

> <Gold.Chemscore.DEInternal>
1.7805

> <Gold.Chemscore.Rot>
2.4591

> <Gold.Chemscore.Internal.Correction>
   9.000000E+99

> <Gold.Chemscore.Hbonds>
donor molecule, donor type, donor heavy atom, donor atom, acceptor molecule, acceptor atom, score
      L1  H    17    43       P1  8028  0.85
      P1  H 11000 11005       L1    27  0.50

> <Gold.Chemscore.Hbond.Weighted>
-5.5453

> <Gold.Chemscore.Metal.Weighted>
-0.0000

> <Gold.Chemscore.Lipo.Weighted>
-10.9308

> <Gold.Chemscore.Internal_Hbond.Weighted>
0.0000

> <Gold.Chemscore.DEClash.Weighted>
0.1071

> <Gold.Chemscore.DEInternal.Weighted>
1.7805

> <Gold.Chemscore.Rot.Weighted>
6.2953

> <Gold.Chemscore.Internal.Correction.Weighted>
   9.000000E+99

> <Gold.Protein.RotatedTorsions>
[ 6907 6896 6895 6894 ] final   44.55 input  -60.11 | X-H torsion
[ 7974 7965 7964 7962 ] final   76.42 input  175.53 | X-H torsion
[ 8008 7997 7996 7995 ] final -166.14 input   59.86 | X-H torsion
[ 10167 10162 10161 10158 ] final  178.42 input  -65.29 | X-H torsion
[ 10718 10713 10712 10709 ] final -121.89 input   66.30 | X-H torsion
[ 10763 10752 10751 10750 ] final  167.06 input  -60.55 | X-H torsion
[ 11005 11000 10999 10996 ] final   32.25 input  -57.11 | X-H torsion

> <Gold.Protein.ActiveResidues>
 VAL166  LYS551  ARG553  GLY616  TRP617  ASP618  TYR619  PRO620  LYS621  CYS622 
 ASP623  PHE694  ASN695  SER759  ASP760  ASP761  ALA762  ILE779  LEU786  VAL792 
 PHE793  MET794  SER795  GLU796  ALA797  LYS798  CYS799  TRP800  GLU811  SER814 

> <Gold.Protein.RotatedAtoms>
  152.2338  134.8296  160.0469 H   0  0  0  0  0  0  0  0  0  0  0  0  # atno 6907 bound_to 6896
  151.9035  133.3538  159.3847 H   0  0  0  0  0  0  0  0  0  0  0  0  # atno 6908 bound_to 6896
  150.7033  134.4730  159.5478 H   0  0  0  0  0  0  0  0  0  0  0  0  # atno 6909 bound_to 6896
  145.7030  139.2589  143.1694 H   0  0  0  0  0  0  0  0  0  0  0  0  # atno 7974 bound_to 7965
  155.8597  140.0976  157.1621 H   0  0  0  0  0  0  0  0  0  0  0  0  # atno 8008 bound_to 7997
  154.3990  140.1367  156.4008 H   0  0  0  0  0  0  0  0  0  0  0  0  # atno 8009 bound_to 7997
  155.7870  140.3457  155.5331 H   0  0  0  0  0  0  0  0  0  0  0  0  # atno 8010 bound_to 7997
  139.5293  144.2682  152.0650 H   0  0  0  0  0  0  0  0  0  0  0  0  # atno 10167 bound_to 10162
  156.1374  130.6440  150.9717 H   0  0  0  0  0  0  0  0  0  0  0  0  # atno 10718 bound_to 10713
  154.3482  135.2753  155.2386 H   0  0  0  0  0  0  0  0  0  0  0  0  # atno 10763 bound_to 10752
  154.4627  135.5903  153.6270 H   0  0  0  0  0  0  0  0  0  0  0  0  # atno 10764 bound_to 10752
  152.9852  135.6069  154.3690 H   0  0  0  0  0  0  0  0  0  0  0  0  # atno 10765 bound_to 10752
  140.2755  134.3033  155.7815 H   0  0  0  0  0  0  0  0  0  0  0  0  # atno 11005 bound_to 11000
  146.0781  140.7795  142.9655 LP  0  0  0  0  0  0  0  0  0  0  0  0  # atno 17320 bound_to 7965
  144.6963  140.3445  143.7193 LP  0  0  0  0  0  0  0  0  0  0  0  0  # atno 17321 bound_to 7965
  140.2143  144.4531  150.6371 LP  0  0  0  0  0  0  0  0  0  0  0  0  # atno 17342 bound_to 10162
  140.6460  143.2213  151.6185 LP  0  0  0  0  0  0  0  0  0  0  0  0  # atno 17343 bound_to 10162
  157.6544  131.0892  150.7979 LP  0  0  0  0  0  0  0  0  0  0  0  0  # atno 17370 bound_to 10713
  156.8058  130.4936  149.5363 LP  0  0  0  0  0  0  0  0  0  0  0  0  # atno 17371 bound_to 10713
  141.2171  133.7493  156.9400 LP  0  0  0  0  0  0  0  0  0  0  0  0  # atno 17394 bound_to 11000
  140.1333  134.9342  157.2367 LP  0  0  0  0  0  0  0  0  0  0  0  0  # atno 17395 bound_to 11000

$$$$
