#       Name:                AV-unprocessed.smi:1116
#       Creating user name   scv26
#       Creation time:       Fri Mar 27 03:36:29 2020


#       File generated by GOLD software.
#

@<TRIPOS>MOLECULE
AV-unprocessed.smi:1116
    43    44     1
SMALL
NO_CHARGES


@<TRIPOS>ATOM
      1 ****        -6.5510   2.0557  -2.0265 C.3            1 S1                 0.0000
      2 ****        -5.5670   1.7051  -0.9637 C.2            1 S1                 0.0000
      3 ****        -4.2439   1.7298  -1.1444 N.2            1 S1                 0.0000
      4 ****        -3.5368   1.3547   0.0025 C.2            1 S1                 0.0000
      5 ****        -2.0389   1.3154  -0.0203 C.3            1 S1                 0.0000
      6 ****        -1.5032   0.0724  -0.7502 C.3            1 S1                 0.0000
      7 ****        -0.0450   0.0421  -0.7657 N.am           1 S1                 0.0000
      8 ****         0.7266  -0.3940   0.2418 C.2            1 S1                 0.0000
      9 ****         0.2713  -0.8090   1.3079 O.2            1 S1                 0.0000
     10 ****         2.2397  -0.3438   0.0112 C.3            1 S1                 0.0000
     11 ****         2.9655  -1.5937   0.5450 C.3            1 S1                 0.0000
     12 ****         4.4812  -1.5739   0.2652 C.3            1 S1                 0.0000
     13 ****         5.1455  -0.5643   1.0611 N.am           1 S1                 0.0000
     14 ****         6.0890  -1.0984   1.8341 C.2            1 S1                 0.0000
     15 ****         6.7836  -0.4077   2.5762 O.2            1 S1                 0.0000
     16 ****         6.1290  -2.4340   1.6627 N.pl3          1 S1                -1.0000
     17 ****         5.2084  -2.8260   0.7556 C.2            1 S1                 0.0000
     18 ****         4.9373  -3.9482   0.3313 O.2            1 S1                 0.0000
     19 ****        -4.3513   1.0479   1.0641 C.2            1 S1                 0.0000
     20 ****        -6.0375   1.2167   0.6598 S.3            1 S1                 0.0000
     21 ****        -6.0590   2.1279  -2.9970 H              1 S1                 0.0000
     22 ****        -7.0196   3.0131  -1.7986 H              1 S1                 0.0000
     23 ****        -7.3254   1.2907  -2.0850 H              1 S1                 0.0000
     24 ****        -1.6524   2.2153  -0.5007 H              1 S1                 0.0000
     25 ****        -1.6558   1.3348   1.0008 H              1 S1                 0.0000
     26 ****        -1.8918  -0.8376  -0.2897 H              1 S1                 0.0000
     27 ****        -1.8518   0.0689  -1.7834 H              1 S1                 0.0000
     28 ****         0.4102   0.3695  -1.6054 H              1 S1                 0.0000
     29 ****         2.4428  -0.2325  -1.0552 H              1 S1                 0.0000
     30 ****         2.6260   0.5524   0.4977 H              1 S1                 0.0000
     31 ****         2.7910  -1.7028   1.6171 H              1 S1                 0.0000
     32 ****         2.5308  -2.4782   0.0761 H              1 S1                 0.0000
     33 ****         4.6906  -1.4183  -0.7941 H              1 S1                 0.0000
     34 ****         4.9253   0.4194   1.0134 H              1 S1                 0.0000
     35 ****        -4.0624   0.7318   2.0557 H              1 S1                 0.0000
     36 ****        -3.8066   1.9883  -2.0057 LP             1 S1                 0.0000
     37 ****        -0.7177  -0.8321   1.4541 LP             1 S1                 0.0000
     38 ****         0.8905  -1.1230   2.0276 LP             1 S1                 0.0000
     39 ****         6.6473   0.5823   2.6103 LP             1 S1                 0.0000
     40 ****         7.4851  -0.8358   3.1460 LP             1 S1                 0.0000
     41 ****         6.7543  -3.0504   2.1413 LP             1 S1                 0.0000
     42 ****         4.2208  -4.0630  -0.3568 LP             1 S1                 0.0000
     43 ****         5.4333  -4.7458   0.6744 LP             1 S1                 0.0000
@<TRIPOS>BOND
    1    1    2 1     
    2    1   21 1     
    3    1   22 1     
    4    1   23 1     
    5    2   20 1     
    6    2    3 2     
    7    3    4 1     
    8    4    5 1     
    9    4   19 2     
   10    5    6 1     
   11    5   24 1     
   12    5   25 1     
   13    6    7 1     
   14    6   26 1     
   15    6   27 1     
   16    7    8 am    
   17    7   28 1     
   18    8    9 2     
   19    8   10 1     
   20   10   11 1     
   21   10   29 1     
   22   10   30 1     
   23   11   12 1     
   24   11   31 1     
   25   11   32 1     
   26   12   17 1     
   27   12   13 1     
   28   12   33 1     
   29   13   14 am    
   30   13   34 1     
   31   14   15 2     
   32   14   16 1     
   33   16   17 1     
   34   17   18 2     
   35   19   20 1     
   36   19   35 1     
   37    3   36 1     
   38    9   37 1     
   39    9   38 1     
   40   15   39 1     
   41   15   40 1     
   42   16   41 1     
   43   18   42 1     
   44   18   43 1     
@<TRIPOS>SUBSTRUCTURE
      1 S1             1
@<TRIPOS>SET
LONE_PAIRS      STATIC     ATOMS    <user>   **** ""
8 36 37 38 39 40 41 42 43
DONOR_HYDROGENS      STATIC     ATOMS    <user>   **** ""
2 28 34
ATOM$BLUE        STATIC     ATOMS    COLORGROUP SYSTEM
8 36 37 38 39 40 41 42 43
ATOM$RED        STATIC     ATOMS    COLORGROUP SYSTEM
2 28 34
