AV-unprocessed.smi:912|AV-procd|sdf|4140|dock2
  -GOLD-   22720 2 43D 1   1.00000     0.00000
 Structure written by MMmdl.
 26 26  0  0  0  0  0  0  0  0  1 V2000
  148.0047  140.1328  157.3600 C   0  0  0  0  0  0  0  0  0  0  0  0
  149.0125  141.0565  157.8769 N   0  0  0  0  0  0  0  0  0  0  0  0
  150.4043  140.8933  157.4154 C   0  0  1  0  0  0  0  0  0  0  0  0
  150.8207  139.4700  157.8703 C   0  0  0  0  0  0  0  0  0  0  0  0
  150.5332  141.0492  155.8747 C   0  0  0  0  0  0  0  0  0  0  0  0
  150.0332  142.1612  155.3241 N   0  0  0  0  0  0  0  0  0  0  0  0
  151.0691  140.1807  155.1872 O   0  0  0  0  0  0  0  0  0  0  0  0
  151.3412  141.9319  158.0670 C   0  0  0  0  0  0  0  0  0  0  0  0
  151.2141  143.3238  157.8287 C   0  0  0  0  0  0  0  0  0  0  0  0
  152.1110  144.2115  158.4555 C   0  0  0  0  0  0  0  0  0  0  0  0
  153.1014  143.8105  159.2785 N   0  0  0  0  0  0  0  0  0  0  0  0
  153.2303  142.4872  159.5039 C   0  0  0  0  0  0  0  0  0  0  0  0
  152.3865  141.5175  158.9280 C   0  0  0  0  0  0  0  0  0  0  0  0
  147.0678  140.2982  157.8915 H   0  0  0  0  0  0  0  0  0  0  0  0
  148.2879  139.0915  157.5111 H   0  0  0  0  0  0  0  0  0  0  0  0
  147.8019  140.2924  156.3010 H   0  0  0  0  0  0  0  0  0  0  0  0
  149.0208  140.9321  158.8790 H   0  0  0  0  0  0  0  0  0  0  0  0
  151.8390  139.2202  157.5715 H   0  0  0  0  0  0  0  0  0  0  0  0
  150.1787  138.6941  157.4527 H   0  0  0  0  0  0  0  0  0  0  0  0
  150.7757  139.3771  158.9560 H   0  0  0  0  0  0  0  0  0  0  0  0
  150.1002  142.2989  154.3260 H   0  0  0  0  0  0  0  0  0  0  0  0
  149.5937  142.8576  155.9081 H   0  0  0  0  0  0  0  0  0  0  0  0
  150.4527  143.7269  157.1782 H   0  0  0  0  0  0  0  0  0  0  0  0
  152.0308  145.2754  158.2879 H   0  0  0  0  0  0  0  0  0  0  0  0
  154.0334  142.1899  160.1619 H   0  0  0  0  0  0  0  0  0  0  0  0
  152.5524  140.4724  159.1434 H   0  0  0  0  0  0  0  0  0  0  0  0
  1  2  1  0  0  0  0
  1 14  1  0  0  0  0
  1 15  1  0  0  0  0
  1 16  1  0  0  0  0
  2  3  1  0  0  0  0
  2 17  1  0  0  0  0
  3  4  1  0  0  0  0
  3  5  1  0  0  0  0
  3  8  1  0  0  0  0
  4 18  1  0  0  0  0
  4 19  1  0  0  0  0
  4 20  1  0  0  0  0
  5  6  1  0  0  0  0
  5  7  2  0  0  0  0
  6 21  1  0  0  0  0
  6 22  1  0  0  0  0
  8 13  1  0  0  0  0
  8  9  2  0  0  0  0
  9 10  1  0  0  0  0
  9 23  1  0  0  0  0
 10 11  2  0  0  0  0
 10 24  1  0  0  0  0
 11 12  1  0  0  0  0
 12 13  2  0  0  0  0
 12 25  1  0  0  0  0
 13 26  1  0  0  0  0
M  END
> <s_m_source_file>
AV-unprocessed.smi

> <i_m_source_file_index>
912

> <i_lp_mmshare_version>
43012

> <i_f3d_flags>
0

> <s_epik_input>
W0NIM11bTkhdW0NAQF0oW0NIM10pKEMoPU8pW05IMl0pYzFbY0hdW2NIXW5bY0hdW2NIXTE=

> <s_epik_cmdline>
J2VwaWtfcHl0aG9uJywgJy1waCcsICc3LjAnLCAnLXRuJywgJzgnLCAnLW1hJywgJzIwMCcsICctbWV0YWxfYmluZGluZycsICctaW1hZScsICc8aW5maWxlLm1hZT4nLCAnLW9tYWUnLCAnPG91dGZpbGUubWFlPic=

> <r_epik_Ionization_Penalty>
0.458428

> <r_epik_Ionization_Penalty_Charging>
0

> <r_epik_Ionization_Penalty_Neutral>
0.458428

> <r_epik_State_Penalty>
0.443707

> <r_epik_Charging_Adjusted_Penalty>
0.443707

> <i_epik_Tot_Q>
0

> <i_epik_Tot_abs_Q>
0

> <r_epik_Metal_State_Penalty>
0.312856

> <b_epik_Metal_Only>
0

> <s_lp_Force_Field>
OPLS_2005

> <r_lp_Energy>
10.7043

> <b_lp_Chiralities_Consistent>
1

> <s_lp_Variant>
AV-unprocessed.smi:912-1

> <Gold.Version>
5.8.1

> <Gold.Id.Protein>
6NUR|6NUR_protein|mol2

> <Gold.PLP.Fitness>
29.0577

> <Gold.PLP.PLP>
-24.3045

> <Gold.PLP.part.hbond>
-2.0000

> <Gold.PLP.part.metal>
0.0000

> <Gold.PLP.part.buried>
-3.1320

> <Gold.PLP.part.nonpolar>
-19.3549

> <Gold.PLP.part.repulsive>
0.2428

> <Gold.PLP.ligand.clash>
0.0000

> <Gold.PLP.ligand.torsion>
0.2207

> <Gold.PLP.Chemscore.Hbond>
1.7200

> <Gold.PLP.Chemscore.CHOScore>
0.0000

> <Gold.PLP.Chemscore.Metal>
0.0000

> <Gold.Chemscore.Hbonds>
donor molecule, donor type, donor heavy atom, donor atom, acceptor molecule, acceptor atom, score
      L1  H     6    22       P1  8028  0.72
      P1  H  7989  7998       L1     7  1.00

> <Gold.PLP.Chemscore.Internal.Correction>
0.0346

> <Gold.Rescore>
     Score         DG    S(hbond)    S(metal)    S(lipo)     H(rot)  DE(clash)    DE(int)     intcor
     13.08     -13.69       1.64        0.00      62.19       1.77       0.06       0.56       ----

> <Gold.Chemscore.Fitness>
13.0760

> <Gold.Chemscore.DG>
-13.6935

> <Gold.Chemscore.ZeroCoef>
-5.4800

> <Gold.Chemscore.Hbond>
1.6383

> <Gold.Chemscore.Metal>
0.0000

> <Gold.Chemscore.Lipo>
62.1881

> <Gold.Chemscore.Internal_Hbond>
0.0000

> <Gold.Chemscore.DEClash>
0.0589

> <Gold.Chemscore.DEInternal>
0.5587

> <Gold.Chemscore.Rot>
1.7712

> <Gold.Chemscore.Internal.Correction>
   9.000000E+99

> <Gold.Chemscore.Hbonds>
donor molecule, donor type, donor heavy atom, donor atom, acceptor molecule, acceptor atom, score
      L1  H     6    22       P1  8028  0.69
      P1  H  7989  7998       L1     7  0.77

> <Gold.Chemscore.Hbond.Weighted>
-5.4719

> <Gold.Chemscore.Metal.Weighted>
-0.0000

> <Gold.Chemscore.Lipo.Weighted>
-7.2760

> <Gold.Chemscore.Internal_Hbond.Weighted>
0.0000

> <Gold.Chemscore.DEClash.Weighted>
0.0589

> <Gold.Chemscore.DEInternal.Weighted>
0.5587

> <Gold.Chemscore.Rot.Weighted>
4.5343

> <Gold.Chemscore.Internal.Correction.Weighted>
   9.000000E+99

> <Gold.Protein.RotatedTorsions>
[ 6907 6896 6895 6894 ] final  -97.08 input  -60.11 | X-H torsion
[ 7974 7965 7964 7962 ] final  160.80 input  175.53 | X-H torsion
[ 8008 7997 7996 7995 ] final  131.16 input   59.86 | X-H torsion
[ 10167 10162 10161 10158 ] final  -25.94 input  -65.29 | X-H torsion
[ 10718 10713 10712 10709 ] final -160.96 input   66.30 | X-H torsion
[ 10763 10752 10751 10750 ] final   28.14 input  -60.55 | X-H torsion
[ 11005 11000 10999 10996 ] final   -8.82 input  -57.11 | X-H torsion

> <Gold.Protein.ActiveResidues>
 VAL166  LYS551  ARG553  GLY616  TRP617  ASP618  TYR619  PRO620  LYS621  CYS622 
 ASP623  PHE694  ASN695  SER759  ASP760  ASP761  ALA762  ILE779  LEU786  VAL792 
 PHE793  MET794  SER795  GLU796  ALA797  LYS798  CYS799  TRP800  GLU811  SER814 

> <Gold.Protein.RotatedAtoms>
  150.7006  134.1404  159.4102 H   0  0  0  0  0  0  0  0  0  0  0  0  # atno 6907 bound_to 6896
  151.9388  135.0220  160.0543 H   0  0  0  0  0  0  0  0  0  0  0  0  # atno 6908 bound_to 6896
  152.2111  133.4877  159.5147 H   0  0  0  0  0  0  0  0  0  0  0  0  # atno 6909 bound_to 6896
  144.7718  139.7809  143.6294 H   0  0  0  0  0  0  0  0  0  0  0  0  # atno 7974 bound_to 7965
  156.2966  140.2578  156.2881 H   0  0  0  0  0  0  0  0  0  0  0  0  # atno 8008 bound_to 7997
  154.9537  140.0394  157.2175 H   0  0  0  0  0  0  0  0  0  0  0  0  # atno 8009 bound_to 7997
  154.8012  140.2828  155.5924 H   0  0  0  0  0  0  0  0  0  0  0  0  # atno 8010 bound_to 7997
  140.7285  143.4221  151.0935 H   0  0  0  0  0  0  0  0  0  0  0  0  # atno 10167 bound_to 10162
  156.5895  130.8764  151.2886 H   0  0  0  0  0  0  0  0  0  0  0  0  # atno 10718 bound_to 10713
  153.0510  135.6520  154.0693 H   0  0  0  0  0  0  0  0  0  0  0  0  # atno 10763 bound_to 10752
  154.0381  135.2906  155.3360 H   0  0  0  0  0  0  0  0  0  0  0  0  # atno 10764 bound_to 10752
  154.6799  135.5324  153.8315 H   0  0  0  0  0  0  0  0  0  0  0  0  # atno 10765 bound_to 10752
  140.7276  133.8776  155.8868 H   0  0  0  0  0  0  0  0  0  0  0  0  # atno 11005 bound_to 11000
  146.1870  139.5090  142.9830 LP  0  0  0  0  0  0  0  0  0  0  0  0  # atno 17320 bound_to 7965
  145.6302  141.0305  143.1867 LP  0  0  0  0  0  0  0  0  0  0  0  0  # atno 17321 bound_to 7965
  139.7868  143.8276  152.3146 LP  0  0  0  0  0  0  0  0  0  0  0  0  # atno 17342 bound_to 10162
  139.8246  144.7281  150.9528 LP  0  0  0  0  0  0  0  0  0  0  0  0  # atno 17343 bound_to 10162
  157.7307  130.9689  150.1845 LP  0  0  0  0  0  0  0  0  0  0  0  0  # atno 17370 bound_to 10713
  156.2562  130.3706  149.8179 LP  0  0  0  0  0  0  0  0  0  0  0  0  # atno 17371 bound_to 10713
  140.9949  134.1228  157.4373 LP  0  0  0  0  0  0  0  0  0  0  0  0  # atno 17394 bound_to 11000
  139.8833  135.0051  156.6295 LP  0  0  0  0  0  0  0  0  0  0  0  0  # atno 17395 bound_to 11000

$$$$
