#       Name:                AV-unprocessed.smi:3048
#       Creating user name   scv26
#       Creation time:       Fri Mar 27 17:01:27 2020


#       File generated by GOLD software.
#

@<TRIPOS>MOLECULE
AV-unprocessed.smi:3048
    41    42     1
SMALL
NO_CHARGES


@<TRIPOS>ATOM
      1 ****        -3.9336   2.9021   3.1526 C.3            1 S1                 0.0000
      2 ****        -3.4586   1.7568   2.3053 C.2            1 S1                 0.0000
      3 ****        -3.2856   1.7272   0.8922 C.2            1 S1                 0.0000
      4 ****        -2.8482   0.5584   0.4525 N.2            1 S1                 0.0000
      5 ****        -2.7286  -0.1978   1.5648 N.pl3          1 S1                 0.0000
      6 ****        -2.2552  -1.5670   1.4612 C.3            1 S1                 0.0000
      7 ****        -0.7202  -1.6546   1.4625 C.3            1 S1                 0.0000
      8 ****        -0.1394  -1.0418   0.2511 N.4            1 S1                 1.0000
      9 ****         1.3358  -1.0409   0.2177 C.3            1 S1                 0.0000
     10 ****         1.8541  -0.3352  -1.0434 C.3            1 S1                 0.0000
     11 ****         3.3855  -0.1658  -1.0223 C.3            1 S1                 0.0000
     12 ****         3.8747   0.4681  -2.3296 C.3            1 S1                 0.0000
     13 ****         3.3491  -0.3368  -3.5229 C.3            1 S1                 0.0000
     14 ****         1.8261  -0.5166  -3.4190 C.3            1 S1                 0.0000
     15 ****         1.4924  -1.1249  -2.1747 O.3            1 S1                 0.0000
     16 ****        -3.0914   0.5004   2.6971 C.2            1 S1                 0.0000
     17 ****        -4.2553   3.7494   2.5464 H              1 S1                 0.0000
     18 ****        -3.1487   3.2631   3.8173 H              1 S1                 0.0000
     19 ****        -4.7794   2.6161   3.7781 H              1 S1                 0.0000
     20 ****        -3.4621   2.5175   0.1773 H              1 S1                 0.0000
     21 ****        -2.6562  -2.1290   2.3054 H              1 S1                 0.0000
     22 ****        -2.6697  -2.0221   0.5602 H              1 S1                 0.0000
     23 ****        -0.3195  -1.1639   2.3505 H              1 S1                 0.0000
     24 ****        -0.4130  -2.7000   1.5087 H              1 S1                 0.0000
     25 ****        -0.4788  -1.5410  -0.5590 H              1 S1                 0.0000
     26 ****         1.7029  -0.5238   1.1053 H              1 S1                 0.0000
     27 ****         1.7077  -2.0654   0.2635 H              1 S1                 0.0000
     28 ****         1.3830   0.6468  -1.1193 H              1 S1                 0.0000
     29 ****         3.6876   0.4507  -0.1751 H              1 S1                 0.0000
     30 ****         3.8622  -1.1380  -0.8880 H              1 S1                 0.0000
     31 ****         3.5190   1.4973  -2.3948 H              1 S1                 0.0000
     32 ****         4.9641   0.5108  -2.3488 H              1 S1                 0.0000
     33 ****         3.6083   0.1607  -4.4579 H              1 S1                 0.0000
     34 ****         3.8299  -1.3157  -3.5451 H              1 S1                 0.0000
     35 ****         1.3130   0.4413  -3.5164 H              1 S1                 0.0000
     36 ****         1.4684  -1.1524  -4.2292 H              1 S1                 0.0000
     37 ****        -3.0571   0.0513   3.6791 H              1 S1                 0.0000
     38 ****        -0.4629  -0.0862   0.1959 H              1 S1                 0.0000
     39 ****        -2.6506   0.2944  -0.4915 LP             1 S1                 0.0000
     40 ****         0.5045  -1.2781  -2.1515 LP             1 S1                 0.0000
     41 ****         1.9674  -2.0027  -2.1135 LP             1 S1                 0.0000
@<TRIPOS>BOND
    1    1    2 1     
    2    1   17 1     
    3    1   18 1     
    4    1   19 1     
    5    2   16 2     
    6    2    3 1     
    7    3    4 2     
    8    3   20 1     
    9    4    5 1     
   10    5    6 1     
   11    5   16 1     
   12    6    7 1     
   13    6   21 1     
   14    6   22 1     
   15    7    8 1     
   16    7   23 1     
   17    7   24 1     
   18    8    9 1     
   19    8   25 1     
   20    8   38 1     
   21    9   10 1     
   22    9   26 1     
   23    9   27 1     
   24   10   15 1     
   25   10   11 1     
   26   10   28 1     
   27   11   12 1     
   28   11   29 1     
   29   11   30 1     
   30   12   13 1     
   31   12   31 1     
   32   12   32 1     
   33   13   14 1     
   34   13   33 1     
   35   13   34 1     
   36   14   15 1     
   37   14   35 1     
   38   14   36 1     
   39   16   37 1     
   40    4   39 1     
   41   15   40 1     
   42   15   41 1     
@<TRIPOS>SUBSTRUCTURE
      1 S1             1
@<TRIPOS>SET
LONE_PAIRS      STATIC     ATOMS    <user>   **** ""
3 39 40 41
DONOR_HYDROGENS      STATIC     ATOMS    <user>   **** ""
2 25 38
ATOM$BLUE        STATIC     ATOMS    COLORGROUP SYSTEM
3 39 40 41
ATOM$RED        STATIC     ATOMS    COLORGROUP SYSTEM
2 25 38
