AV-unprocessed.smi:1533|AV-procd|sdf|6164|dock3
  -GOLD-   22720 6313D 1   1.00000     0.00000
 Structure written by MMmdl.
 37 39  0  0  0  0  0  0  0  0  1 V2000
  153.1082  137.4588  154.0066 C   0  0  0  0  0  0  0  0  0  0  0  0
  152.4644  137.8266  155.2998 C   0  0  0  0  0  0  0  0  0  0  0  0
  153.1871  138.1094  156.3771 N   0  0  0  0  0  0  0  0  0  0  0  0
  152.2189  138.4027  157.3482 O   0  0  0  0  0  0  0  0  0  0  0  0
  151.0211  138.2401  156.7363 C   0  0  0  0  0  0  0  0  0  0  0  0
  149.7753  138.5266  157.5053 C   0  0  0  0  0  0  0  0  0  0  0  0
  148.7956  137.3424  157.4951 C   0  0  0  0  0  0  0  0  0  0  0  0
  148.0842  137.2211  158.7625 N   0  0  0  0  0  0  0  0  0  0  0  0
  148.1002  136.1393  159.5562 C   0  0  0  0  0  0  0  0  0  0  0  0
  148.7410  135.1220  159.2889 O   0  0  0  0  0  0  0  0  0  0  0  0
  147.2862  136.2460  160.8582 C   0  0  2  0  0  0  0  0  0  0  0  0
  148.0908  135.9613  162.1505 C   0  0  0  0  0  0  0  0  0  0  0  0
  147.2434  134.8855  162.8556 C   0  0  2  0  0  0  0  0  0  0  0  0
  147.3896  133.5452  162.1107 C   0  0  0  0  0  0  0  0  0  0  0  0
  146.5535  133.7721  160.8381 C   0  0  0  0  0  0  0  0  0  0  0  0
  146.1072  135.2441  160.9817 C   0  0  1  0  0  0  0  0  0  0  0  0
  145.8269  135.3062  162.4803 C   0  0  0  0  0  0  0  0  0  0  0  0
  151.1137  137.8986  155.4533 N   0  0  0  0  0  0  0  0  0  0  0  0
  154.1946  137.5217  154.0790 H   0  0  0  0  0  0  0  0  0  0  0  0
  152.7765  138.1322  153.2160 H   0  0  0  0  0  0  0  0  0  0  0  0
  152.8392  136.4395  153.7291 H   0  0  0  0  0  0  0  0  0  0  0  0
  150.0524  138.7836  158.5285 H   0  0  0  0  0  0  0  0  0  0  0  0
  149.3006  139.4112  157.0787 H   0  0  0  0  0  0  0  0  0  0  0  0
  148.0555  137.4805  156.7062 H   0  0  0  0  0  0  0  0  0  0  0  0
  149.3210  136.4128  157.2686 H   0  0  0  0  0  0  0  0  0  0  0  0
  147.5384  138.0177  159.0582 H   0  0  0  0  0  0  0  0  0  0  0  0
  146.8859  137.2596  160.9255 H   0  0  0  0  0  0  0  0  0  0  0  0
  149.1146  135.6248  161.9807 H   0  0  0  0  0  0  0  0  0  0  0  0
  148.1473  136.8622  162.7627 H   0  0  0  0  0  0  0  0  0  0  0  0
  147.4349  134.8127  163.9266 H   0  0  0  0  0  0  0  0  0  0  0  0
  148.4310  133.3110  161.8866 H   0  0  0  0  0  0  0  0  0  0  0  0
  146.9795  132.7225  162.6977 H   0  0  0  0  0  0  0  0  0  0  0  0
  147.1053  133.5626  159.9226 H   0  0  0  0  0  0  0  0  0  0  0  0
  145.6834  133.1141  160.8408 H   0  0  0  0  0  0  0  0  0  0  0  0
  145.2518  135.5028  160.3570 H   0  0  0  0  0  0  0  0  0  0  0  0
  145.0638  134.5990  162.8109 H   0  0  0  0  0  0  0  0  0  0  0  0
  145.5632  136.3049  162.8335 H   0  0  0  0  0  0  0  0  0  0  0  0
  1  2  1  0  0  0  0
  1 19  1  0  0  0  0
  1 20  1  0  0  0  0
  1 21  1  0  0  0  0
  2 18  1  0  0  0  0
  2  3  2  0  0  0  0
  3  4  1  0  0  0  0
  4  5  1  0  0  0  0
  5  6  1  0  0  0  0
  5 18  2  0  0  0  0
  6  7  1  0  0  0  0
  6 22  1  0  0  0  0
  6 23  1  0  0  0  0
  7  8  1  0  0  0  0
  7 24  1  0  0  0  0
  7 25  1  0  0  0  0
  8  9  1  0  0  0  0
  8 26  1  0  0  0  0
  9 10  2  0  0  0  0
  9 11  1  0  0  0  0
 11 16  1  0  0  0  0
 11 12  1  0  0  0  0
 11 27  1  0  0  0  0
 12 13  1  0  0  0  0
 12 28  1  0  0  0  0
 12 29  1  0  0  0  0
 13 17  1  0  0  0  0
 13 14  1  0  0  0  0
 13 30  1  0  0  0  0
 14 15  1  0  0  0  0
 14 31  1  0  0  0  0
 14 32  1  0  0  0  0
 15 16  1  0  0  0  0
 15 33  1  0  0  0  0
 15 34  1  0  0  0  0
 16 17  1  0  0  0  0
 16 35  1  0  0  0  0
 17 36  1  0  0  0  0
 17 37  1  0  0  0  0
M  END
> <s_m_source_file>
AV-unprocessed.smi

> <i_m_source_file_index>
1533

> <i_lp_mmshare_version>
43012

> <i_f3d_flags>
0

> <s_epik_input>
W0NIM11jMW5vYyhuMSlbQ0gyXVtDSDJdW05IXUMoPU8pW0NASF0oW0NIMl1bQ0BASF0yMylbQ0BASF0oW0NIMl0zKVtDSDJdW0NIMl0y

> <s_epik_cmdline>
J2VwaWtfcHl0aG9uJywgJy1waCcsICc3LjAnLCAnLXRuJywgJzgnLCAnLW1hJywgJzIwMCcsICctbWV0YWxfYmluZGluZycsICctaW1hZScsICc8aW5maWxlLm1hZT4nLCAnLW9tYWUnLCAnPG91dGZpbGUubWFlPic=

> <r_lp_tautomer_probability>
1

> <r_epik_Ionization_Penalty>
1.90116e-08

> <r_epik_Ionization_Penalty_Charging>
0

> <r_epik_Ionization_Penalty_Neutral>
1.90116e-08

> <r_epik_State_Penalty>
-0

> <r_epik_Charging_Adjusted_Penalty>
0

> <i_epik_Tot_Q>
0

> <i_epik_Tot_abs_Q>
0

> <r_epik_Metal_State_Penalty>
-0

> <b_epik_Metal_Only>
0

> <s_lp_Force_Field>
OPLS_2005

> <r_lp_Energy>
42.9891

> <b_lp_Chiralities_Consistent>
1

> <s_lp_Variant>
AV-unprocessed.smi:1533-3

> <Gold.Version>
5.8.1

> <Gold.Id.Protein>
6NUR|6NUR_protein|mol2

> <Gold.PLP.Fitness>
36.2460

> <Gold.PLP.PLP>
-30.8280

> <Gold.PLP.part.hbond>
-2.0000

> <Gold.PLP.part.metal>
0.0000

> <Gold.PLP.part.buried>
-4.7128

> <Gold.PLP.part.nonpolar>
-24.5073

> <Gold.PLP.part.repulsive>
0.1594

> <Gold.PLP.ligand.clash>
0.0000

> <Gold.PLP.ligand.torsion>
0.3025

> <Gold.PLP.Chemscore.Hbond>
2.0000

> <Gold.PLP.Chemscore.CHOScore>
0.0000

> <Gold.PLP.Chemscore.Metal>
0.0000

> <Gold.Chemscore.Hbonds>
donor molecule, donor type, donor heavy atom, donor atom, acceptor molecule, acceptor atom, score
      P1  H  6896  6908       L1    10  1.00
      P1  H  7997  8009       L1     3  0.13

> <Gold.PLP.Chemscore.Internal.Correction>
0.0229

> <Gold.Rescore>
     Score         DG    S(hbond)    S(metal)    S(lipo)     H(rot)  DE(clash)    DE(int)     intcor
     14.20     -15.55       1.97        0.00      70.39       1.85       0.10       1.25       ----

> <Gold.Chemscore.Fitness>
14.2031

> <Gold.Chemscore.DG>
-15.5509

> <Gold.Chemscore.ZeroCoef>
-5.4800

> <Gold.Chemscore.Hbond>
1.9666

> <Gold.Chemscore.Metal>
0.0000

> <Gold.Chemscore.Lipo>
70.3910

> <Gold.Chemscore.Internal_Hbond>
0.0000

> <Gold.Chemscore.DEClash>
0.1014

> <Gold.Chemscore.DEInternal>
1.2465

> <Gold.Chemscore.Rot>
1.8490

> <Gold.Chemscore.Internal.Correction>
   9.000000E+99

> <Gold.Chemscore.Hbonds>
donor molecule, donor type, donor heavy atom, donor atom, acceptor molecule, acceptor atom, score
      P1  H  6896  6908       L1    10  0.94
      P1  H  7997  8009       L1     3  0.02

> <Gold.Chemscore.Hbond.Weighted>
-6.5685

> <Gold.Chemscore.Metal.Weighted>
-0.0000

> <Gold.Chemscore.Lipo.Weighted>
-8.2357

> <Gold.Chemscore.Internal_Hbond.Weighted>
0.0000

> <Gold.Chemscore.DEClash.Weighted>
0.1014

> <Gold.Chemscore.DEInternal.Weighted>
1.2465

> <Gold.Chemscore.Rot.Weighted>
4.7334

> <Gold.Chemscore.Internal.Correction.Weighted>
   9.000000E+99

> <Gold.Protein.RotatedTorsions>
[ 6907 6896 6895 6894 ] final  162.86 input  -60.11 | X-H torsion
[ 7974 7965 7964 7962 ] final  -65.92 input  175.53 | X-H torsion
[ 8008 7997 7996 7995 ] final  168.60 input   59.86 | X-H torsion
[ 10167 10162 10161 10158 ] final -111.21 input  -65.29 | X-H torsion
[ 10718 10713 10712 10709 ] final -126.37 input   66.30 | X-H torsion
[ 10763 10752 10751 10750 ] final -169.45 input  -60.55 | X-H torsion
[ 11005 11000 10999 10996 ] final  177.71 input  -57.11 | X-H torsion

> <Gold.Protein.ActiveResidues>
 VAL166  LYS551  ARG553  GLY616  TRP617  ASP618  TYR619  PRO620  LYS621  CYS622 
 ASP623  PHE694  ASN695  SER759  ASP760  ASP761  ALA762  ILE779  LEU786  VAL792 
 PHE793  MET794  SER795  GLU796  ALA797  LYS798  CYS799  TRP800  GLU811  SER814 

> <Gold.Protein.RotatedAtoms>
  151.9340  133.3619  159.3940 H   0  0  0  0  0  0  0  0  0  0  0  0  # atno 6907 bound_to 6896
  150.7011  134.4508  159.5344 H   0  0  0  0  0  0  0  0  0  0  0  0  # atno 6908 bound_to 6896
  152.2153  134.8463  160.0543 H   0  0  0  0  0  0  0  0  0  0  0  0  # atno 6909 bound_to 6896
  145.7483  140.8921  143.0493 H   0  0  0  0  0  0  0  0  0  0  0  0  # atno 7974 bound_to 7965
  156.1532  140.1586  156.8735 H   0  0  0  0  0  0  0  0  0  0  0  0  # atno 8008 bound_to 7997
  154.5091  140.0805  156.7990 H   0  0  0  0  0  0  0  0  0  0  0  0  # atno 8009 bound_to 7997
  155.3854  140.3407  155.4251 H   0  0  0  0  0  0  0  0  0  0  0  0  # atno 8010 bound_to 7997
  140.1360  143.4319  152.1594 H   0  0  0  0  0  0  0  0  0  0  0  0  # atno 10167 bound_to 10162
  156.1759  130.6699  151.0242 H   0  0  0  0  0  0  0  0  0  0  0  0  # atno 10718 bound_to 10713
  154.6522  135.2913  154.9973 H   0  0  0  0  0  0  0  0  0  0  0  0  # atno 10763 bound_to 10752
  154.1062  135.6569  153.4881 H   0  0  0  0  0  0  0  0  0  0  0  0  # atno 10764 bound_to 10752
  153.0382  135.5254  154.7434 H   0  0  0  0  0  0  0  0  0  0  0  0  # atno 10765 bound_to 10752
  140.3871  134.6895  157.4485 H   0  0  0  0  0  0  0  0  0  0  0  0  # atno 11005 bound_to 11000
  144.6855  139.9556  143.7479 LP  0  0  0  0  0  0  0  0  0  0  0  0  # atno 17320 bound_to 7965
  146.0381  139.3396  143.0714 LP  0  0  0  0  0  0  0  0  0  0  0  0  # atno 17321 bound_to 7965
  139.5495  144.7326  151.4478 LP  0  0  0  0  0  0  0  0  0  0  0  0  # atno 17342 bound_to 10162
  140.6788  143.8128  150.7094 LP  0  0  0  0  0  0  0  0  0  0  0  0  # atno 17343 bound_to 10162
  157.6835  131.0831  150.7305 LP  0  0  0  0  0  0  0  0  0  0  0  0  # atno 17370 bound_to 10713
  156.7363  130.4725  149.5488 LP  0  0  0  0  0  0  0  0  0  0  0  0  # atno 17371 bound_to 10713
  140.0435  134.6233  155.8951 LP  0  0  0  0  0  0  0  0  0  0  0  0  # atno 17394 bound_to 11000
  141.1904  133.6568  156.5409 LP  0  0  0  0  0  0  0  0  0  0  0  0  # atno 17395 bound_to 11000

$$$$
