#       Name:                AV-unprocessed.smi:1793
#       Creating user name   scv26
#       Creation time:       Fri Mar 27 08:47:10 2020


#       File generated by GOLD software.
#

@<TRIPOS>MOLECULE
AV-unprocessed.smi:1793
    52    54     1
SMALL
NO_CHARGES


@<TRIPOS>ATOM
      1 ****        -3.3591  -0.5426   1.7096 C.3            1 S1                 0.0000
      2 ****        -3.1433  -0.0107   0.2840 C.3            1 S1                 0.0000
      3 ****        -1.7151   0.1305   0.0093 N.am           1 S1                 0.0000
      4 ****        -0.9822   1.2312   0.2227 C.2            1 S1                 0.0000
      5 ****        -1.4347   2.2753   0.6926 O.2            1 S1                 0.0000
      6 ****         0.2986   1.0306  -0.1262 N.am           1 S1                 0.0000
      7 ****         1.3917   1.9291   0.0188 C.ar           1 S1                 0.0000
      8 ****         1.2306   3.3209  -0.1859 C.ar           1 S1                 0.0000
      9 ****         2.3519   4.1638  -0.1029 C.ar           1 S1                 0.0000
     10 ****         3.6016   3.5817   0.1667 C.ar           1 S1                 0.0000
     11 ****         3.7736   2.2573   0.3503 N.ar           1 S1                 0.0000
     12 ****         2.6992   1.4322   0.2883 C.ar           1 S1                 0.0000
     13 ****         2.9372   0.0554   0.5075 N.3            1 S1                 0.0000
     14 ****         4.2975  -0.4730   0.4996 C.3            1 S1                 0.0000
     15 ****         4.1924  -1.8486   1.1520 C.3            1 S1                 0.0000
     16 ****         3.1129  -1.6262   2.2063 C.3            1 S1                 0.0000
     17 ****         2.1634  -0.6234   1.5434 C.3            1 S1                 0.0000
     18 ****        -3.8026  -0.9106  -0.7799 C.3            1 S1                 0.0000
     19 ****        -3.7065  -0.3768  -2.2209 C.3            1 S1                 0.0000
     20 ****        -2.9938  -1.4808  -2.9812 C.3            1 S1                 0.0000
     21 ****        -3.2625  -2.7066  -2.1206 C.3            1 S1                 0.0000
     22 ****        -3.1730  -2.1899  -0.8039 O.3            1 S1                 0.0000
     23 ****        -4.4213  -0.6424   1.9334 H              1 S1                 0.0000
     24 ****        -2.9301   0.1327   2.4507 H              1 S1                 0.0000
     25 ****        -2.8971  -1.5210   1.8445 H              1 S1                 0.0000
     26 ****        -3.6204   0.9688   0.2194 H              1 S1                 0.0000
     27 ****        -1.2521  -0.6793  -0.3768 H              1 S1                 0.0000
     28 ****         0.5427   0.0925  -0.4080 H              1 S1                 0.0000
     29 ****         0.2698   3.7496  -0.4274 H              1 S1                 0.0000
     30 ****         2.2575   5.2288  -0.2551 H              1 S1                 0.0000
     31 ****         4.4885   4.1945   0.2315 H              1 S1                 0.0000
     32 ****         4.6946  -0.5338  -0.5139 H              1 S1                 0.0000
     33 ****         4.9615   0.1579   1.0919 H              1 S1                 0.0000
     34 ****         3.8543  -2.5848   0.4216 H              1 S1                 0.0000
     35 ****         5.1376  -2.1937   1.5719 H              1 S1                 0.0000
     36 ****         2.6134  -2.5472   2.5078 H              1 S1                 0.0000
     37 ****         3.5572  -1.1775   3.0957 H              1 S1                 0.0000
     38 ****         1.7470   0.0735   2.2721 H              1 S1                 0.0000
     39 ****         1.3363  -1.1540   1.0715 H              1 S1                 0.0000
     40 ****        -4.8552  -1.0586  -0.5333 H              1 S1                 0.0000
     41 ****        -4.7072  -0.2213  -2.6255 H              1 S1                 0.0000
     42 ****        -3.1731   0.5714  -2.2977 H              1 S1                 0.0000
     43 ****        -3.3477  -1.5930  -4.0064 H              1 S1                 0.0000
     44 ****        -1.9224  -1.2784  -3.0100 H              1 S1                 0.0000
     45 ****        -4.2665  -3.0965  -2.2956 H              1 S1                 0.0000
     46 ****        -2.5431  -3.5079  -2.2897 H              1 S1                 0.0000
     47 ****        -2.4021   2.3348   0.9388 LP             1 S1                 0.0000
     48 ****        -0.8349   3.0639   0.8280 LP             1 S1                 0.0000
     49 ****         4.6848   1.8869   0.5305 LP             1 S1                 0.0000
     50 ****         2.5564  -0.1831  -0.3859 LP             1 S1                 0.0000
     51 ****        -3.6358  -2.8063  -0.1669 LP             1 S1                 0.0000
     52 ****        -2.2125  -2.0988  -0.5412 LP             1 S1                 0.0000
@<TRIPOS>BOND
    1    1    2 1     
    2    1   23 1     
    3    1   24 1     
    4    1   25 1     
    5    2    3 1     
    6    2   18 1     
    7    2   26 1     
    8    3    4 am    
    9    3   27 1     
   10    4    5 2     
   11    4    6 am    
   12    6    7 1     
   13    6   28 1     
   14    7   12 ar    
   15    7    8 ar    
   16    8    9 ar    
   17    8   29 1     
   18    9   10 ar    
   19    9   30 1     
   20   10   11 ar    
   21   10   31 1     
   22   11   12 ar    
   23   12   13 1     
   24   13   17 1     
   25   13   14 1     
   26   14   15 1     
   27   14   32 1     
   28   14   33 1     
   29   15   16 1     
   30   15   34 1     
   31   15   35 1     
   32   16   17 1     
   33   16   36 1     
   34   16   37 1     
   35   17   38 1     
   36   17   39 1     
   37   18   22 1     
   38   18   19 1     
   39   18   40 1     
   40   19   20 1     
   41   19   41 1     
   42   19   42 1     
   43   20   21 1     
   44   20   43 1     
   45   20   44 1     
   46   21   22 1     
   47   21   45 1     
   48   21   46 1     
   49    5   47 1     
   50    5   48 1     
   51   11   49 1     
   52   13   50 1     
   53   22   51 1     
   54   22   52 1     
@<TRIPOS>SUBSTRUCTURE
      1 S1             1
@<TRIPOS>SET
LONE_PAIRS      STATIC     ATOMS    <user>   **** ""
6 47 48 49 50 51 52
DONOR_HYDROGENS      STATIC     ATOMS    <user>   **** ""
2 27 28
ATOM$BLUE        STATIC     ATOMS    COLORGROUP SYSTEM
6 47 48 49 50 51 52
ATOM$RED        STATIC     ATOMS    COLORGROUP SYSTEM
2 27 28
