AV-unprocessed.smi:3354|AV-procd|sdf|12962|dock10
  -GOLD-   2272019403D 1   1.00000     0.00000
 Structure written by MMmdl.
 38 40  0  0  0  0  0  0  0  0  1 V2000
  150.3535  142.7225  158.6954 C   0  0  0  0  0  0  0  0  0  0  0  0
  151.3201  141.7862  158.0031 C   0  0  1  0  0  0  0  0  0  0  0  0
  151.9945  140.6810  158.7836 C   0  0  0  0  0  0  0  0  0  0  0  0
  150.9490  140.3436  157.7393 C   0  0  2  0  0  0  0  0  0  0  0  0
  151.3339  139.7498  156.4948 N   0  0  0  0  0  0  0  0  0  0  0  0
  150.2967  139.2392  155.6142 C   0  0  0  0  0  0  0  0  0  0  0  0
  151.0402  138.6688  154.3945 C   0  0  2  0  0  0  0  0  0  0  0  0
  150.4640  137.3924  153.9809 N   0  0  0  0  0  0  0  0  0  0  0  0
  150.7252  136.2123  154.5597 C   0  0  0  0  0  0  0  0  0  0  0  0
  151.4821  136.0825  155.5216 O   0  0  0  0  0  0  0  0  0  0  0  0
  150.0414  135.2184  153.9672 N   0  0  0  0  0  0  0  0  0  0  0  0
  150.0722  133.8276  154.2574 C   0  0  0  0  0  0  0  0  0  0  0  0
  150.9010  133.2374  155.2422 C   0  0  0  0  0  0  0  0  0  0  0  0
  150.8565  131.8413  155.4200 C   0  0  0  0  0  0  0  0  0  0  0  0
  149.9922  131.0861  154.6040 C   0  0  0  0  0  0  0  0  0  0  0  0
  149.2062  131.6335  153.6531 N   0  0  0  0  0  0  0  0  0  0  0  0
  149.2547  132.9726  153.4878 C   0  0  0  0  0  0  0  0  0  0  0  0
  152.5052  138.5393  154.8401 C   0  0  0  0  0  0  0  0  0  0  0  0
  152.5480  139.2915  156.1594 C   0  0  0  0  0  0  0  0  0  0  0  0
  153.5834  139.4178  156.8117 O   0  0  0  0  0  0  0  0  0  0  0  0
  149.7636  142.1891  159.4417 H   0  0  0  0  0  0  0  0  0  0  0  0
  149.6736  143.1621  157.9656 H   0  0  0  0  0  0  0  0  0  0  0  0
  150.8994  143.5253  159.1910 H   0  0  0  0  0  0  0  0  0  0  0  0
  151.9334  142.2730  157.2467 H   0  0  0  0  0  0  0  0  0  0  0  0
  153.0439  140.4982  158.5604 H   0  0  0  0  0  0  0  0  0  0  0  0
  151.7154  140.5521  159.8275 H   0  0  0  0  0  0  0  0  0  0  0  0
  149.9876  140.0148  158.1299 H   0  0  0  0  0  0  0  0  0  0  0  0
  149.7326  138.4696  156.1440 H   0  0  0  0  0  0  0  0  0  0  0  0
  149.6007  140.0286  155.3271 H   0  0  0  0  0  0  0  0  0  0  0  0
  150.9761  139.3870  153.5745 H   0  0  0  0  0  0  0  0  0  0  0  0
  149.8263  137.4107  153.1984 H   0  0  0  0  0  0  0  0  0  0  0  0
  149.3887  135.4951  153.2485 H   0  0  0  0  0  0  0  0  0  0  0  0
  151.5761  133.8191  155.8501 H   0  0  0  0  0  0  0  0  0  0  0  0
  151.4756  131.3597  156.1624 H   0  0  0  0  0  0  0  0  0  0  0  0
  149.9358  130.0131  154.7140 H   0  0  0  0  0  0  0  0  0  0  0  0
  148.6152  133.3751  152.7158 H   0  0  0  0  0  0  0  0  0  0  0  0
  152.7974  137.5021  155.0117 H   0  0  0  0  0  0  0  0  0  0  0  0
  153.1922  138.9770  154.1148 H   0  0  0  0  0  0  0  0  0  0  0  0
  1  2  1  0  0  0  0
  1 21  1  0  0  0  0
  1 22  1  0  0  0  0
  1 23  1  0  0  0  0
  2  4  1  0  0  0  0
  2  3  1  0  0  0  0
  2 24  1  0  0  0  0
  3  4  1  0  0  0  0
  3 25  1  0  0  0  0
  3 26  1  0  0  0  0
  4  5  1  0  0  0  0
  4 27  1  0  0  0  0
  5 19  1  0  0  0  0
  5  6  1  0  0  0  0
  6  7  1  0  0  0  0
  6 28  1  0  0  0  0
  6 29  1  0  0  0  0
  7  8  1  0  0  0  0
  7 18  1  0  0  0  0
  7 30  1  0  0  0  0
  8  9  1  0  0  0  0
  8 31  1  0  0  0  0
  9 10  2  0  0  0  0
  9 11  1  0  0  0  0
 11 12  1  0  0  0  0
 11 32  1  0  0  0  0
 12 17  1  0  0  0  0
 12 13  2  0  0  0  0
 13 14  1  0  0  0  0
 13 33  1  0  0  0  0
 14 15  2  0  0  0  0
 14 34  1  0  0  0  0
 15 16  1  0  0  0  0
 15 35  1  0  0  0  0
 16 17  2  0  0  0  0
 17 36  1  0  0  0  0
 18 19  1  0  0  0  0
 18 37  1  0  0  0  0
 18 38  1  0  0  0  0
 19 20  2  0  0  0  0
M  END
> <s_m_source_file>
AV-unprocessed.smi

> <i_m_source_file_index>
3354

> <i_lp_mmshare_version>
43012

> <i_f3d_flags>
0

> <s_epik_input>
W0NIM11bQ0BASF0xW0NIMl1bQ0BIXTFOMltDSDJdW0NASF0oW0NIMl1DMj1PKVtOSF1DKD1PKVtOSF1jM1tjSF1bY0hdW2NIXW5bY0hdMw==

> <s_epik_cmdline>
J2VwaWtfcHl0aG9uJywgJy1waCcsICc3LjAnLCAnLXRuJywgJzgnLCAnLW1hJywgJzIwMCcsICctbWV0YWxfYmluZGluZycsICctaW1hZScsICc8aW5maWxlLm1hZT4nLCAnLW9tYWUnLCAnPG91dGZpbGUubWFlPic=

> <r_epik_Ionization_Penalty>
0.00456191

> <r_epik_Ionization_Penalty_Charging>
0

> <r_epik_Ionization_Penalty_Neutral>
0.00456191

> <r_epik_State_Penalty>
0.00327094

> <r_epik_Charging_Adjusted_Penalty>
0.00327094

> <i_epik_Tot_Q>
0

> <i_epik_Tot_abs_Q>
0

> <r_epik_Metal_State_Penalty>
-0

> <b_epik_Metal_Only>
0

> <s_lp_Force_Field>
OPLS_2005

> <r_lp_Energy>
40.9267

> <b_lp_Chiralities_Consistent>
1

> <s_lp_Variant>
AV-unprocessed.smi:3354-8

> <Gold.Version>
5.8.1

> <Gold.Id.Protein>
6NUR|6NUR_protein|mol2

> <Gold.PLP.Fitness>
43.6732

> <Gold.PLP.PLP>
-34.2776

> <Gold.PLP.part.hbond>
-5.1980

> <Gold.PLP.part.metal>
0.0000

> <Gold.PLP.part.buried>
-1.4486

> <Gold.PLP.part.nonpolar>
-27.8867

> <Gold.PLP.part.repulsive>
0.2608

> <Gold.PLP.ligand.clash>
0.1028

> <Gold.PLP.ligand.torsion>
0.5141

> <Gold.PLP.Chemscore.Hbond>
3.3825

> <Gold.PLP.Chemscore.CHOScore>
0.0000

> <Gold.PLP.Chemscore.Metal>
0.0000

> <Gold.Chemscore.Hbonds>
donor molecule, donor type, donor heavy atom, donor atom, acceptor molecule, acceptor atom, score
      L1  H     8    31       P1  7948  0.83
      L1  H    11    32       P1  7948  0.80
      P1  H 10752 10763       L1    10  1.00

> <Gold.PLP.Chemscore.Internal.Correction>
0.3794

> <Gold.Rescore>
     Score         DG    S(hbond)    S(metal)    S(lipo)     H(rot)  DE(clash)    DE(int)     intcor
     15.30     -19.93       2.85        0.00      69.11       1.24       0.06       4.57       ----

> <Gold.Chemscore.Fitness>
15.3015

> <Gold.Chemscore.DG>
-19.9306

> <Gold.Chemscore.ZeroCoef>
-5.4800

> <Gold.Chemscore.Hbond>
2.8529

> <Gold.Chemscore.Metal>
0.0000

> <Gold.Chemscore.Lipo>
69.1120

> <Gold.Chemscore.Internal_Hbond>
0.0000

> <Gold.Chemscore.DEClash>
0.0601

> <Gold.Chemscore.DEInternal>
4.5690

> <Gold.Chemscore.Rot>
1.2361

> <Gold.Chemscore.Internal.Correction>
   9.000000E+99

> <Gold.Chemscore.Hbonds>
donor molecule, donor type, donor heavy atom, donor atom, acceptor molecule, acceptor atom, score
      L1  H     8    31       P1  7948  0.41
      L1  H    11    32       P1  7948  0.11
      P1  H  7997  8010       L1    20  0.02
      P1  H 10752 10763       L1    10  0.74

> <Gold.Chemscore.Hbond.Weighted>
-9.5288

> <Gold.Chemscore.Metal.Weighted>
-0.0000

> <Gold.Chemscore.Lipo.Weighted>
-8.0861

> <Gold.Chemscore.Internal_Hbond.Weighted>
0.0000

> <Gold.Chemscore.DEClash.Weighted>
0.0601

> <Gold.Chemscore.DEInternal.Weighted>
4.5690

> <Gold.Chemscore.Rot.Weighted>
3.1643

> <Gold.Chemscore.Internal.Correction.Weighted>
   9.000000E+99

> <Gold.Protein.RotatedTorsions>
[ 6907 6896 6895 6894 ] final  -48.44 input  -60.11 | X-H torsion
[ 7974 7965 7964 7962 ] final   95.12 input  175.53 | X-H torsion
[ 8008 7997 7996 7995 ] final   71.61 input   59.86 | X-H torsion
[ 10167 10162 10161 10158 ] final  121.40 input  -65.29 | X-H torsion
[ 10718 10713 10712 10709 ] final  114.03 input   66.30 | X-H torsion
[ 10763 10752 10751 10750 ] final   85.10 input  -60.55 | X-H torsion
[ 11005 11000 10999 10996 ] final  -48.85 input  -57.11 | X-H torsion

> <Gold.Protein.ActiveResidues>
 VAL166  LYS551  ARG553  GLY616  TRP617  ASP618  TYR619  PRO620  LYS621  CYS622 
 ASP623  PHE694  ASN695  SER759  ASP760  ASP761  ALA762  ILE779  LEU786  VAL792 
 PHE793  MET794  SER795  GLU796  ALA797  LYS798  CYS799  TRP800  GLU811  SER814 

> <Gold.Protein.RotatedAtoms>
  150.8905  134.8308  159.7289 H   0  0  0  0  0  0  0  0  0  0  0  0  # atno 6907 bound_to 6896
  152.4834  134.4655  159.9629 H   0  0  0  0  0  0  0  0  0  0  0  0  # atno 6908 bound_to 6896
  151.4718  133.3528  159.2860 H   0  0  0  0  0  0  0  0  0  0  0  0  # atno 6909 bound_to 6896
  145.4564  139.2290  143.3011 H   0  0  0  0  0  0  0  0  0  0  0  0  # atno 7974 bound_to 7965
  155.7565  140.3487  155.5176 H   0  0  0  0  0  0  0  0  0  0  0  0  # atno 8008 bound_to 7997
  155.8954  140.1025  157.1409 H   0  0  0  0  0  0  0  0  0  0  0  0  # atno 8009 bound_to 7997
  154.4038  140.1296  156.4356 H   0  0  0  0  0  0  0  0  0  0  0  0  # atno 8010 bound_to 7997
  139.5922  144.7029  151.3263 H   0  0  0  0  0  0  0  0  0  0  0  0  # atno 10167 bound_to 10162
  157.6305  131.0992  150.7126 H   0  0  0  0  0  0  0  0  0  0  0  0  # atno 10718 bound_to 10713
  153.1443  135.4629  154.9543 H   0  0  0  0  0  0  0  0  0  0  0  0  # atno 10763 bound_to 10752
  154.7773  135.3177  154.8067 H   0  0  0  0  0  0  0  0  0  0  0  0  # atno 10764 bound_to 10752
  153.8583  135.6915  153.4839 H   0  0  0  0  0  0  0  0  0  0  0  0  # atno 10765 bound_to 10752
  141.0725  133.6675  156.3501 H   0  0  0  0  0  0  0  0  0  0  0  0  # atno 11005 bound_to 11000
  146.2476  140.5328  142.8907 LP  0  0  0  0  0  0  0  0  0  0  0  0  # atno 17320 bound_to 7965
  144.8030  140.6247  143.6466 LP  0  0  0  0  0  0  0  0  0  0  0  0  # atno 17321 bound_to 7965
  140.7182  143.7208  150.7697 LP  0  0  0  0  0  0  0  0  0  0  0  0  # atno 17342 bound_to 10162
  140.0766  143.5009  152.2552 LP  0  0  0  0  0  0  0  0  0  0  0  0  # atno 17343 bound_to 10162
  156.7466  130.4755  149.5465 LP  0  0  0  0  0  0  0  0  0  0  0  0  # atno 17370 bound_to 10713
  156.1505  130.6306  151.0589 LP  0  0  0  0  0  0  0  0  0  0  0  0  # atno 17371 bound_to 10713
  140.5643  134.5903  157.5442 LP  0  0  0  0  0  0  0  0  0  0  0  0  # atno 17394 bound_to 11000
  139.9538  134.7571  156.0388 LP  0  0  0  0  0  0  0  0  0  0  0  0  # atno 17395 bound_to 11000

$$$$
