#       Name:                AV-unprocessed.smi:2562
#       Creating user name   scv26
#       Creation time:       Fri Mar 27 14:09:16 2020


#       File generated by GOLD software.
#

@<TRIPOS>MOLECULE
AV-unprocessed.smi:2562
    35    36     1
SMALL
NO_CHARGES


@<TRIPOS>ATOM
      1 ****        -2.8447   4.1248  -1.4403 C.3            1 S1                 0.0000
      2 ****        -2.2466   2.7136  -1.4321 C.3            1 S1                 0.0000
      3 ****        -0.7179   2.7220  -1.2842 C.3            1 S1                 0.0000
      4 ****        -0.1441   1.3437  -1.2648 C.2            1 S1                 0.0000
      5 ****         0.2157   0.7289  -2.3906 N.2            1 S1                 0.0000
      6 ****         0.6297  -0.4718  -1.9336 N.pl3          1 S1                 0.0000
      7 ****         0.4843  -0.5159  -0.6073 C.2            1 S1                 0.0000
      8 ****         0.8644  -1.7212   0.1940 C.3            1 S1                 0.0000
      9 ****         2.2105  -1.5404   0.9224 C.3            1 S1                 0.0000
     10 ****         2.4940  -2.7061   1.7579 N.3            1 S1                 0.0000
     11 ****         1.3973  -2.9653   2.6897 C.3            1 S1                 0.0000
     12 ****         0.0679  -3.1045   1.9262 C.3            1 S1                 0.0000
     13 ****        -0.1668  -1.9304   1.1557 O.3            1 S1                 0.0000
     14 ****        -0.0098   0.6166  -0.1150 N.2            1 S1                 0.0000
     15 ****         0.9813  -1.2011  -2.5373 H              1 S1                 0.0000
     16 ****        -3.9294   4.0861  -1.5436 H              1 S1                 0.0000
     17 ****        -2.4520   4.7140  -2.2694 H              1 S1                 0.0000
     18 ****        -2.6176   4.6541  -0.5145 H              1 S1                 0.0000
     19 ****        -2.6896   2.1416  -0.6157 H              1 S1                 0.0000
     20 ****        -2.5228   2.2005  -2.3540 H              1 S1                 0.0000
     21 ****        -0.2667   3.2854  -2.1022 H              1 S1                 0.0000
     22 ****        -0.4355   3.2340  -0.3635 H              1 S1                 0.0000
     23 ****         0.9130  -2.5813  -0.4772 H              1 S1                 0.0000
     24 ****         3.0131  -1.3936   0.1995 H              1 S1                 0.0000
     25 ****         2.1774  -0.6427   1.5415 H              1 S1                 0.0000
     26 ****         3.3521  -2.5515   2.2777 H              1 S1                 0.0000
     27 ****         1.5978  -3.8710   3.2625 H              1 S1                 0.0000
     28 ****         1.3215  -2.1493   3.4094 H              1 S1                 0.0000
     29 ****         0.0778  -3.9845   1.2809 H              1 S1                 0.0000
     30 ****        -0.7552  -3.2350   2.6286 H              1 S1                 0.0000
     31 ****         0.1866   1.0689  -3.3306 LP             1 S1                 0.0000
     32 ****         2.5957  -3.5027   1.1620 LP             1 S1                 0.0000
     33 ****        -1.0411  -2.0238   0.6794 LP             1 S1                 0.0000
     34 ****        -0.2039  -1.1414   1.7690 LP             1 S1                 0.0000
     35 ****        -0.2229   0.8659   0.8297 LP             1 S1                 0.0000
@<TRIPOS>BOND
    1    1    2 1     
    2    1   16 1     
    3    1   17 1     
    4    1   18 1     
    5    2    3 1     
    6    2   19 1     
    7    2   20 1     
    8    3    4 1     
    9    3   21 1     
   10    3   22 1     
   11    4   14 1     
   12    4    5 2     
   13    5    6 1     
   14    6   15 1     
   15    6    7 1     
   16    7    8 1     
   17    7   14 2     
   18    8   13 1     
   19    8    9 1     
   20    8   23 1     
   21    9   10 1     
   22    9   24 1     
   23    9   25 1     
   24   10   11 1     
   25   10   26 1     
   26   11   12 1     
   27   11   27 1     
   28   11   28 1     
   29   12   13 1     
   30   12   29 1     
   31   12   30 1     
   32    5   31 1     
   33   10   32 1     
   34   13   33 1     
   35   13   34 1     
   36   14   35 1     
@<TRIPOS>SUBSTRUCTURE
      1 S1             1
@<TRIPOS>SET
LONE_PAIRS      STATIC     ATOMS    <user>   **** ""
5 31 32 33 34 35
DONOR_HYDROGENS      STATIC     ATOMS    <user>   **** ""
2 15 26
ATOM$BLUE        STATIC     ATOMS    COLORGROUP SYSTEM
5 31 32 33 34 35
ATOM$RED        STATIC     ATOMS    COLORGROUP SYSTEM
2 15 26
