AV-unprocessed.smi:1427|AV-procd|sdf|5811|dock3
  -GOLD-   22720 5463D 1   1.00000     0.00000
 Structure written by MMmdl.
 33 34  0  0  0  0  0  0  0  0  1 V2000
  146.0777  135.0473  153.3459 C   0  0  0  0  0  0  0  0  0  0  0  0
  145.5594  136.1558  152.4200 C   0  0  2  0  0  0  0  0  0  0  0  0
  145.3375  135.6325  150.9856 C   0  0  0  0  0  0  0  0  0  0  0  0
  145.3165  134.1817  150.9176 N   0  0  0  0  0  0  0  0  0  0  0  0
  144.2356  133.3509  150.7096 C   0  0  0  0  0  0  0  0  0  0  0  0
  144.7027  132.0680  150.7140 C   0  0  0  0  0  0  0  0  0  0  0  0
  146.1000  132.2179  150.9374 C   0  0  0  0  0  0  0  0  0  0  0  0
  146.4643  133.4840  151.0616 N   0  0  0  0  0  0  0  0  0  0  0  0
  146.5144  137.2628  152.4254 N   0  0  0  0  0  0  0  0  0  0  0  0
  146.4683  138.3439  153.2243 C   0  0  0  0  0  0  0  0  0  0  0  0
  145.5901  138.5126  154.0700 O   0  0  0  0  0  0  0  0  0  0  0  0
  147.5534  139.4220  153.0490 C   0  0  1  0  0  0  0  0  0  0  0  0
  147.4155  140.5486  154.0986 C   0  0  0  0  0  0  0  0  0  0  0  0
  148.8145  140.7674  154.6914 C   0  0  0  0  0  0  0  0  0  0  0  0
  149.6241  139.6167  154.1229 C   0  0  0  0  0  0  0  0  0  0  0  0
  150.7857  139.3806  154.4462 O   0  0  0  0  0  0  0  0  0  0  0  0
  148.9071  138.9215  153.2425 N   0  0  0  0  0  0  0  0  0  0  0  0
  145.3808  134.2094  153.3824 H   0  0  0  0  0  0  0  0  0  0  0  0
  146.2036  135.4137  154.3652 H   0  0  0  0  0  0  0  0  0  0  0  0
  147.0413  134.6641  153.0076 H   0  0  0  0  0  0  0  0  0  0  0  0
  144.6005  136.4876  152.8224 H   0  0  0  0  0  0  0  0  0  0  0  0
  144.4077  136.0271  150.5718 H   0  0  0  0  0  0  0  0  0  0  0  0
  146.1388  135.9814  150.3333 H   0  0  0  0  0  0  0  0  0  0  0  0
  143.2369  133.7386  150.5720 H   0  0  0  0  0  0  0  0  0  0  0  0
  144.1332  131.1607  150.5768 H   0  0  0  0  0  0  0  0  0  0  0  0
  146.8552  131.4496  151.0135 H   0  0  0  0  0  0  0  0  0  0  0  0
  147.2707  137.2090  151.7584 H   0  0  0  0  0  0  0  0  0  0  0  0
  147.4852  139.8333  152.0410 H   0  0  0  0  0  0  0  0  0  0  0  0
  147.0361  141.4626  153.6404 H   0  0  0  0  0  0  0  0  0  0  0  0
  146.7204  140.2823  154.8972 H   0  0  0  0  0  0  0  0  0  0  0  0
  149.2440  141.7154  154.3658 H   0  0  0  0  0  0  0  0  0  0  0  0
  148.8066  140.7407  155.7815 H   0  0  0  0  0  0  0  0  0  0  0  0
  149.2601  138.1196  152.7402 H   0  0  0  0  0  0  0  0  0  0  0  0
  1  2  1  0  0  0  0
  1 18  1  0  0  0  0
  1 19  1  0  0  0  0
  1 20  1  0  0  0  0
  2  3  1  0  0  0  0
  2  9  1  0  0  0  0
  2 21  1  0  0  0  0
  3  4  1  0  0  0  0
  3 22  1  0  0  0  0
  3 23  1  0  0  0  0
  4  8  1  0  0  0  0
  4  5  1  0  0  0  0
  5  6  2  0  0  0  0
  5 24  1  0  0  0  0
  6  7  1  0  0  0  0
  6 25  1  0  0  0  0
  7  8  2  0  0  0  0
  7 26  1  0  0  0  0
  9 10  1  0  0  0  0
  9 27  1  0  0  0  0
 10 11  2  0  0  0  0
 10 12  1  0  0  0  0
 12 17  1  0  0  0  0
 12 13  1  0  0  0  0
 12 28  1  0  0  0  0
 13 14  1  0  0  0  0
 13 29  1  0  0  0  0
 13 30  1  0  0  0  0
 14 15  1  0  0  0  0
 14 31  1  0  0  0  0
 14 32  1  0  0  0  0
 15 16  2  0  0  0  0
 15 17  1  0  0  0  0
 17 33  1  0  0  0  0
M  END
> <s_m_source_file>
AV-unprocessed.smi

> <i_m_source_file_index>
1427

> <i_lp_mmshare_version>
43012

> <i_f3d_flags>
0

> <s_epik_input>
bjFbY0hdW2NIXVtjSF1uMVtDSDJdW0NAQEhdKFtDSDNdKVtOSF1DKD1PKVtDQEBIXTJbQ0gyXVtDSDJdQyg9TylbTkhdMg==

> <s_epik_cmdline>
J2VwaWtfcHl0aG9uJywgJy1waCcsICc3LjAnLCAnLXRuJywgJzgnLCAnLW1hJywgJzIwMCcsICctbWV0YWxfYmluZGluZycsICctaW1hZScsICc8aW5maWxlLm1hZT4nLCAnLW9tYWUnLCAnPG91dGZpbGUubWFlPic=

> <r_lp_tautomer_probability>
1

> <r_epik_Ionization_Penalty>
0.000310707

> <r_epik_Ionization_Penalty_Charging>
0

> <r_epik_Ionization_Penalty_Neutral>
0.000310707

> <r_epik_State_Penalty>
-0

> <r_epik_Charging_Adjusted_Penalty>
0

> <i_epik_Tot_Q>
0

> <i_epik_Tot_abs_Q>
0

> <r_epik_Metal_State_Penalty>
-0

> <b_epik_Metal_Only>
0

> <s_lp_Force_Field>
OPLS_2005

> <r_lp_Energy>
14.9883

> <b_lp_Chiralities_Consistent>
1

> <s_lp_Variant>
AV-unprocessed.smi:1427-3

> <Gold.Version>
5.8.1

> <Gold.Id.Protein>
6NUR|6NUR_protein|mol2

> <Gold.PLP.Fitness>
40.7725

> <Gold.PLP.PLP>
-29.5872

> <Gold.PLP.part.hbond>
-3.6899

> <Gold.PLP.part.metal>
0.0000

> <Gold.PLP.part.buried>
-2.8486

> <Gold.PLP.part.nonpolar>
-24.3140

> <Gold.PLP.part.repulsive>
0.6246

> <Gold.PLP.ligand.clash>
0.0000

> <Gold.PLP.ligand.torsion>
1.1367

> <Gold.PLP.Chemscore.Hbond>
2.4760

> <Gold.PLP.Chemscore.CHOScore>
2.0000

> <Gold.PLP.Chemscore.Metal>
0.0000

> <Gold.Chemscore.Hbonds>
donor molecule, donor type, donor heavy atom, donor atom, acceptor molecule, acceptor atom, score
      L1  H     9    27       P1  7948  0.62
      L1  H    17    33       P1  7948  0.91
      P1  H  7989  7998       L1    16  0.90
      L1  C     5    24       P1 10186  0.97
      L1  C     7    26       P1 10747  1.00

> <Gold.PLP.Chemscore.Internal.Correction>
0.0308

> <Gold.Rescore>
     Score         DG    S(hbond)    S(metal)    S(lipo)     H(rot)  DE(clash)    DE(int)     intcor
     11.38     -14.24       2.15        0.00      54.65       1.88       0.32       2.54       ----

> <Gold.Chemscore.Fitness>
11.3765

> <Gold.Chemscore.DG>
-14.2371

> <Gold.Chemscore.ZeroCoef>
-5.4800

> <Gold.Chemscore.Hbond>
2.1502

> <Gold.Chemscore.Metal>
0.0000

> <Gold.Chemscore.Lipo>
54.6457

> <Gold.Chemscore.Internal_Hbond>
0.0000

> <Gold.Chemscore.DEClash>
0.3197

> <Gold.Chemscore.DEInternal>
2.5409

> <Gold.Chemscore.Rot>
1.8821

> <Gold.Chemscore.Internal.Correction>
   9.000000E+99

> <Gold.Chemscore.Hbonds>
donor molecule, donor type, donor heavy atom, donor atom, acceptor molecule, acceptor atom, score
      L1  H     9    27       P1  7948  0.62
      L1  H    17    33       P1  7948  0.79
      P1  H  7989  7998       L1    16  0.18

> <Gold.Chemscore.Hbond.Weighted>
-7.1816

> <Gold.Chemscore.Metal.Weighted>
-0.0000

> <Gold.Chemscore.Lipo.Weighted>
-6.3936

> <Gold.Chemscore.Internal_Hbond.Weighted>
0.0000

> <Gold.Chemscore.DEClash.Weighted>
0.3197

> <Gold.Chemscore.DEInternal.Weighted>
2.5409

> <Gold.Chemscore.Rot.Weighted>
4.8181

> <Gold.Chemscore.Internal.Correction.Weighted>
   9.000000E+99

> <Gold.Protein.RotatedTorsions>
[ 6907 6896 6895 6894 ] final  -72.92 input  -60.11 | X-H torsion
[ 7974 7965 7964 7962 ] final  178.98 input  175.53 | X-H torsion
[ 8008 7997 7996 7995 ] final  -79.22 input   59.86 | X-H torsion
[ 10167 10162 10161 10158 ] final  -19.97 input  -65.29 | X-H torsion
[ 10718 10713 10712 10709 ] final  -22.09 input   66.30 | X-H torsion
[ 10763 10752 10751 10750 ] final   93.50 input  -60.55 | X-H torsion
[ 11005 11000 10999 10996 ] final    6.51 input  -57.11 | X-H torsion

> <Gold.Protein.ActiveResidues>
 VAL166  LYS551  ARG553  GLY616  TRP617  ASP618  TYR619  PRO620  LYS621  CYS622 
 ASP623  PHE694  ASN695  SER759  ASP760  ASP761  ALA762  ILE779  LEU786  VAL792 
 PHE793  MET794  SER795  GLU796  ALA797  LYS798  CYS799  TRP800  GLU811  SER814 

> <Gold.Protein.RotatedAtoms>
  150.7150  134.5092  159.5598 H   0  0  0  0  0  0  0  0  0  0  0  0  # atno 6907 bound_to 6896
  152.2673  134.7968  160.0429 H   0  0  0  0  0  0  0  0  0  0  0  0  # atno 6908 bound_to 6896
  151.8660  133.3431  159.3756 H   0  0  0  0  0  0  0  0  0  0  0  0  # atno 6909 bound_to 6896
  144.7150  140.0479  143.6436 H   0  0  0  0  0  0  0  0  0  0  0  0  # atno 7974 bound_to 7965
  154.5764  140.0682  156.9041 H   0  0  0  0  0  0  0  0  0  0  0  0  # atno 8008 bound_to 7997
  155.2541  140.3354  155.4261 H   0  0  0  0  0  0  0  0  0  0  0  0  # atno 8009 bound_to 7997
  156.2157  140.1777  156.7579 H   0  0  0  0  0  0  0  0  0  0  0  0  # atno 8010 bound_to 7997
  140.7272  143.4768  151.0172 H   0  0  0  0  0  0  0  0  0  0  0  0  # atno 10167 bound_to 10162
  156.5093  130.4606  149.6657 H   0  0  0  0  0  0  0  0  0  0  0  0  # atno 10718 bound_to 10713
  153.2310  135.4323  155.0595 H   0  0  0  0  0  0  0  0  0  0  0  0  # atno 10763 bound_to 10752
  154.8297  135.3379  154.6787 H   0  0  0  0  0  0  0  0  0  0  0  0  # atno 10764 bound_to 10752
  153.7214  135.7017  153.5068 H   0  0  0  0  0  0  0  0  0  0  0  0  # atno 10765 bound_to 10752
  140.5587  134.0213  155.7963 H   0  0  0  0  0  0  0  0  0  0  0  0  # atno 11005 bound_to 11000
  145.9968  139.3059  143.0951 LP  0  0  0  0  0  0  0  0  0  0  0  0  # atno 17320 bound_to 7965
  145.8839  140.9346  143.0587 LP  0  0  0  0  0  0  0  0  0  0  0  0  # atno 17321 bound_to 7965
  139.8463  143.7496  152.3179 LP  0  0  0  0  0  0  0  0  0  0  0  0  # atno 17342 bound_to 10162
  139.7663  144.7491  151.0290 LP  0  0  0  0  0  0  0  0  0  0  0  0  # atno 17343 bound_to 10162
  156.3256  130.7304  151.2224 LP  0  0  0  0  0  0  0  0  0  0  0  0  # atno 17370 bound_to 10713
  157.7453  131.0444  150.4790 LP  0  0  0  0  0  0  0  0  0  0  0  0  # atno 17371 bound_to 10713
  141.1128  133.9589  157.2879 LP  0  0  0  0  0  0  0  0  0  0  0  0  # atno 17394 bound_to 11000
  139.9418  135.0190  156.8733 LP  0  0  0  0  0  0  0  0  0  0  0  0  # atno 17395 bound_to 11000

$$$$
