AV-unprocessed.smi:685|AV-procd|sdf|3335|dock8
  -GOLD-   22720 0303D 1   1.00000     0.00000
 Structure written by MMmdl.
 51 52  0  0  0  0  0  0  0  0  2 V2000
  146.7279  141.8611  154.1183 C   0  0  0  0  0  0  0  0  0  0  0  0
  148.0584  141.4108  154.6217 C   0  0  0  0  0  0  0  0  0  0  0  0
  148.8767  142.1609  155.4072 N   0  3  0  0  0  0  0  0  0  0  0  0
  149.9980  141.4820  155.6900 N   0  0  0  0  0  0  0  0  0  0  0  0
  151.0175  142.1142  156.5277 C   0  0  0  0  0  0  0  0  0  0  0  0
  149.9635  140.2506  155.1052 C   0  0  0  0  0  0  0  0  0  0  0  0
  151.0473  139.2273  155.2102 C   0  0  0  0  0  0  0  0  0  0  0  0
  148.7376  140.2023  154.4290 C   0  0  0  0  0  0  0  0  0  0  0  0
  148.2213  139.0456  153.6200 C   0  0  0  0  0  0  0  0  0  0  0  0
  146.7282  138.7465  153.8757 C   0  0  2  0  0  0  0  0  0  0  0  0
  146.4566  138.2434  155.3019 C   0  0  0  0  0  0  0  0  0  0  0  0
  146.2384  137.7581  152.9192 N   0  0  0  0  0  0  0  0  0  0  0  0
  146.3126  137.8715  151.5835 C   0  0  0  0  0  0  0  0  0  0  0  0
  146.8323  138.8345  151.0178 O   0  0  0  0  0  0  0  0  0  0  0  0
  145.7156  136.7165  150.7734 C   0  0  0  0  0  0  0  0  0  0  0  0
  145.3530  135.4935  151.6379 C   0  0  0  0  0  0  0  0  0  0  0  0
  145.0869  134.2237  150.8098 C   0  0  0  0  0  0  0  0  0  0  0  0
  144.0730  133.2774  151.4570 C   0  0  0  0  0  0  0  0  0  0  0  0
  144.3027  131.9235  150.7781 C   0  0  0  0  0  0  0  0  0  0  0  0
  145.7457  131.9469  150.2512 C   0  0  0  0  0  0  0  0  0  0  0  0
  146.3121  133.3264  150.6067 C   0  0  0  0  0  0  0  0  0  0  0  0
  146.6240  141.6245  153.0593 H   0  0  0  0  0  0  0  0  0  0  0  0
  146.6138  142.9381  154.2445 H   0  0  0  0  0  0  0  0  0  0  0  0
  145.9297  141.3604  154.6662 H   0  0  0  0  0  0  0  0  0  0  0  0
  152.0052  141.8850  156.1267 H   0  0  0  0  0  0  0  0  0  0  0  0
  150.9352  141.7236  157.5423 H   0  0  0  0  0  0  0  0  0  0  0  0
  150.8768  143.1958  156.5385 H   0  0  0  0  0  0  0  0  0  0  0  0
  150.6294  138.2216  155.1790 H   0  0  0  0  0  0  0  0  0  0  0  0
  151.5931  139.3376  156.1473 H   0  0  0  0  0  0  0  0  0  0  0  0
  151.7478  139.3387  154.3828 H   0  0  0  0  0  0  0  0  0  0  0  0
  148.3734  139.2617  152.5618 H   0  0  0  0  0  0  0  0  0  0  0  0
  148.8116  138.1495  153.8144 H   0  0  0  0  0  0  0  0  0  0  0  0
  146.1541  139.6644  153.7372 H   0  0  0  0  0  0  0  0  0  0  0  0
  146.7388  138.9869  156.0476 H   0  0  0  0  0  0  0  0  0  0  0  0
  147.0132  137.3299  155.5138 H   0  0  0  0  0  0  0  0  0  0  0  0
  145.3973  138.0276  155.4456 H   0  0  0  0  0  0  0  0  0  0  0  0
  145.7999  136.9318  153.3001 H   0  0  0  0  0  0  0  0  0  0  0  0
  144.8281  137.0838  150.2572 H   0  0  0  0  0  0  0  0  0  0  0  0
  146.4286  136.4233  150.0018 H   0  0  0  0  0  0  0  0  0  0  0  0
  146.1481  135.3009  152.3598 H   0  0  0  0  0  0  0  0  0  0  0  0
  144.4590  135.7170  152.2220 H   0  0  0  0  0  0  0  0  0  0  0  0
  144.7017  134.5108  149.8297 H   0  0  0  0  0  0  0  0  0  0  0  0
  144.2794  133.1861  152.5245 H   0  0  0  0  0  0  0  0  0  0  0  0
  143.0459  133.6273  151.3493 H   0  0  0  0  0  0  0  0  0  0  0  0
  144.1326  131.0971  151.4690 H   0  0  0  0  0  0  0  0  0  0  0  0
  143.6091  131.8002  149.9453 H   0  0  0  0  0  0  0  0  0  0  0  0
  146.3494  131.1479  150.6828 H   0  0  0  0  0  0  0  0  0  0  0  0
  145.7457  131.8067  149.1694 H   0  0  0  0  0  0  0  0  0  0  0  0
  146.9864  133.7048  149.8379 H   0  0  0  0  0  0  0  0  0  0  0  0
  146.8791  133.2560  151.5361 H   0  0  0  0  0  0  0  0  0  0  0  0
  148.7284  143.0976  155.7612 H   0  0  0  0  0  0  0  0  0  0  0  0
  1  2  1  0  0  0  0
  1 22  1  0  0  0  0
  1 23  1  0  0  0  0
  1 24  1  0  0  0  0
  2  8  1  0  0  0  0
  2  3  2  0  0  0  0
  3  4  1  0  0  0  0
  3 51  1  0  0  0  0
  4  5  1  0  0  0  0
  4  6  1  0  0  0  0
  5 25  1  0  0  0  0
  5 26  1  0  0  0  0
  5 27  1  0  0  0  0
  6  7  1  0  0  0  0
  6  8  2  0  0  0  0
  7 28  1  0  0  0  0
  7 29  1  0  0  0  0
  7 30  1  0  0  0  0
  8  9  1  0  0  0  0
  9 10  1  0  0  0  0
  9 31  1  0  0  0  0
  9 32  1  0  0  0  0
 10 11  1  0  0  0  0
 10 12  1  0  0  0  0
 10 33  1  0  0  0  0
 11 34  1  0  0  0  0
 11 35  1  0  0  0  0
 11 36  1  0  0  0  0
 12 13  1  0  0  0  0
 12 37  1  0  0  0  0
 13 14  2  0  0  0  0
 13 15  1  0  0  0  0
 15 16  1  0  0  0  0
 15 38  1  0  0  0  0
 15 39  1  0  0  0  0
 16 17  1  0  0  0  0
 16 40  1  0  0  0  0
 16 41  1  0  0  0  0
 17 21  1  0  0  0  0
 17 18  1  0  0  0  0
 17 42  1  0  0  0  0
 18 19  1  0  0  0  0
 18 43  1  0  0  0  0
 18 44  1  0  0  0  0
 19 20  1  0  0  0  0
 19 45  1  0  0  0  0
 19 46  1  0  0  0  0
 20 21  1  0  0  0  0
 20 47  1  0  0  0  0
 20 48  1  0  0  0  0
 21 49  1  0  0  0  0
 21 50  1  0  0  0  0
M  CHG  1   3   1
M  END
> <s_m_source_file>
AV-unprocessed.smi

> <i_m_source_file_index>
685

> <i_lp_mmshare_version>
43012

> <i_f3d_flags>
0

> <s_epik_input>
W0NIM11jMW5uKFtDSDNdKWMoW0NIM10pYzFbQ0gyXVtDQEhdKFtDSDNdKVtOSF1DKD1PKVtDSDJdW0NIMl1bQ0hdMltDSDJdW0NIMl1bQ0gyXVtDSDJdMg==

> <s_epik_cmdline>
J2VwaWtfcHl0aG9uJywgJy1waCcsICc3LjAnLCAnLXRuJywgJzgnLCAnLW1hJywgJzIwMCcsICctbWV0YWxfYmluZGluZycsICctaW1hZScsICc8aW5maWxlLm1hZT4nLCAnLW9tYWUnLCAnPG91dGZpbGUubWFlPic=

> <r_lp_tautomer_probability>
1

> <r_epik_Ionization_Penalty>
2.26429

> <r_epik_Ionization_Penalty_Charging>
2.26429

> <r_epik_Ionization_Penalty_Neutral>
2.3289e-07

> <r_epik_State_Penalty>
2.41237

> <r_epik_Charging_Adjusted_Penalty>
4.67666

> <i_epik_Tot_Q>
1

> <i_epik_Tot_abs_Q>
1

> <r_epik_Metal_State_Penalty>
2.42525

> <b_epik_Metal_Only>
0

> <s_lp_Force_Field>
OPLS_2005

> <r_lp_Energy>
28.552

> <b_lp_Chiralities_Consistent>
1

> <s_lp_Variant>
AV-unprocessed.smi:685-3

> <Gold.Version>
5.8.1

> <Gold.Id.Protein>
6NUR|6NUR_protein|mol2

> <Gold.PLP.Fitness>
49.2482

> <Gold.PLP.PLP>
-42.2514

> <Gold.PLP.part.hbond>
-2.0426

> <Gold.PLP.part.metal>
0.0000

> <Gold.PLP.part.buried>
-0.8234

> <Gold.PLP.part.nonpolar>
-41.9295

> <Gold.PLP.part.repulsive>
1.3201

> <Gold.PLP.ligand.clash>
0.0555

> <Gold.PLP.ligand.torsion>
0.8204

> <Gold.PLP.Chemscore.Hbond>
2.8800

> <Gold.PLP.Chemscore.CHOScore>
0.0000

> <Gold.PLP.Chemscore.Metal>
0.0000

> <Gold.Chemscore.Hbonds>
donor molecule, donor type, donor heavy atom, donor atom, acceptor molecule, acceptor atom, score
      L1  H     3    51       P1  8028  2.00
      P1  H  7954  7966       L1    14  0.88

> <Gold.PLP.Chemscore.Internal.Correction>
0.0532

> <Gold.Rescore>
     Score         DG    S(hbond)    S(metal)    S(lipo)     H(rot)  DE(clash)    DE(int)     intcor
     16.82     -19.49       1.94        0.00      99.44       1.61       0.68       1.99       ----

> <Gold.Chemscore.Fitness>
16.8163

> <Gold.Chemscore.DG>
-19.4895

> <Gold.Chemscore.ZeroCoef>
-5.4800

> <Gold.Chemscore.Hbond>
1.9448

> <Gold.Chemscore.Metal>
0.0000

> <Gold.Chemscore.Lipo>
99.4356

> <Gold.Chemscore.Internal_Hbond>
0.0000

> <Gold.Chemscore.DEClash>
0.6782

> <Gold.Chemscore.DEInternal>
1.9950

> <Gold.Chemscore.Rot>
1.6095

> <Gold.Chemscore.Internal.Correction>
   9.000000E+99

> <Gold.Chemscore.Hbonds>
donor molecule, donor type, donor heavy atom, donor atom, acceptor molecule, acceptor atom, score
      L1  H     3    51       P1  8028  0.96
      P1  H  7954  7966       L1    14  0.22

> <Gold.Chemscore.Hbond.Weighted>
-6.4958

> <Gold.Chemscore.Metal.Weighted>
-0.0000

> <Gold.Chemscore.Lipo.Weighted>
-11.6340

> <Gold.Chemscore.Internal_Hbond.Weighted>
0.0000

> <Gold.Chemscore.DEClash.Weighted>
0.6782

> <Gold.Chemscore.DEInternal.Weighted>
1.9950

> <Gold.Chemscore.Rot.Weighted>
4.1202

> <Gold.Chemscore.Internal.Correction.Weighted>
   9.000000E+99

> <Gold.Protein.RotatedTorsions>
[ 6907 6896 6895 6894 ] final -149.55 input  -60.11 | X-H torsion
[ 7974 7965 7964 7962 ] final  -83.20 input  175.53 | X-H torsion
[ 8008 7997 7996 7995 ] final   -3.50 input   59.86 | X-H torsion
[ 10167 10162 10161 10158 ] final   71.09 input  -65.29 | X-H torsion
[ 10718 10713 10712 10709 ] final   64.90 input   66.30 | X-H torsion
[ 10763 10752 10751 10750 ] final -159.81 input  -60.55 | X-H torsion
[ 11005 11000 10999 10996 ] final -137.69 input  -57.11 | X-H torsion

> <Gold.Protein.ActiveResidues>
 VAL166  LYS551  ARG553  GLY616  TRP617  ASP618  TYR619  PRO620  LYS621  CYS622 
 ASP623  PHE694  ASN695  SER759  ASP760  ASP761  ALA762  ILE779  LEU786  VAL792 
 PHE793  MET794  SER795  GLU796  ALA797  LYS798  CYS799  TRP800  GLU811  SER814 

> <Gold.Protein.RotatedAtoms>
  151.1858  133.4697  159.2594 H   0  0  0  0  0  0  0  0  0  0  0  0  # atno 6907 bound_to 6896
  151.1213  135.0081  159.8550 H   0  0  0  0  0  0  0  0  0  0  0  0  # atno 6908 bound_to 6896
  152.5456  134.1769  159.8672 H   0  0  0  0  0  0  0  0  0  0  0  0  # atno 6909 bound_to 6896
  145.5231  140.9529  143.1644 H   0  0  0  0  0  0  0  0  0  0  0  0  # atno 7974 bound_to 7965
  154.6242  140.2507  155.7512 H   0  0  0  0  0  0  0  0  0  0  0  0  # atno 8008 bound_to 7997
  156.2444  140.2920  156.0484 H   0  0  0  0  0  0  0  0  0  0  0  0  # atno 8009 bound_to 7997
  155.1848  140.0390  157.2879 H   0  0  0  0  0  0  0  0  0  0  0  0  # atno 8010 bound_to 7997
  140.0499  144.5320  150.7371 H   0  0  0  0  0  0  0  0  0  0  0  0  # atno 10167 bound_to 10162
  157.6070  130.9185  149.9906 H   0  0  0  0  0  0  0  0  0  0  0  0  # atno 10718 bound_to 10713
  154.7444  135.3076  154.8672 H   0  0  0  0  0  0  0  0  0  0  0  0  # atno 10763 bound_to 10752
  153.9477  135.6767  153.4748 H   0  0  0  0  0  0  0  0  0  0  0  0  # atno 10764 bound_to 10752
  153.1041  135.4898  154.8845 H   0  0  0  0  0  0  0  0  0  0  0  0  # atno 10765 bound_to 10752
  140.8687  134.2078  157.4664 H   0  0  0  0  0  0  0  0  0  0  0  0  # atno 11005 bound_to 11000
  144.7665  139.6833  143.7212 LP  0  0  0  0  0  0  0  0  0  0  0  0  # atno 17320 bound_to 7965
  146.2093  139.5438  142.9692 LP  0  0  0  0  0  0  0  0  0  0  0  0  # atno 17321 bound_to 7965
  140.7221  143.2599  151.4242 LP  0  0  0  0  0  0  0  0  0  0  0  0  # atno 17342 bound_to 10162
  139.5960  144.1397  152.2144 LP  0  0  0  0  0  0  0  0  0  0  0  0  # atno 17343 bound_to 10162
  156.1159  130.3648  149.9968 LP  0  0  0  0  0  0  0  0  0  0  0  0  # atno 17370 bound_to 10713
  156.8058  130.9307  151.3645 LP  0  0  0  0  0  0  0  0  0  0  0  0  # atno 17371 bound_to 10713
  139.8711  134.9764  156.4919 LP  0  0  0  0  0  0  0  0  0  0  0  0  # atno 17394 bound_to 11000
  140.8599  133.8068  155.9254 LP  0  0  0  0  0  0  0  0  0  0  0  0  # atno 17395 bound_to 11000

$$$$
