AV-unprocessed.smi:1197|AV-procd|sdf|5009|dock7
  -GOLD-   22720 4 23D 1   1.00000     0.00000
 Structure written by MMmdl.
 41 42  0  0  0  0  0  0  0  0  2 V2000
  151.1263  141.8684  157.9050 C   0  0  0  0  0  0  0  0  0  0  0  0
  150.9876  141.7143  156.4969 O   0  0  0  0  0  0  0  0  0  0  0  0
  150.5613  140.4958  156.0100 C   0  0  0  0  0  0  0  0  0  0  0  0
  150.0287  139.5570  156.9157 C   0  0  0  0  0  0  0  0  0  0  0  0
  149.5919  138.3108  156.4273 C   0  0  0  0  0  0  0  0  0  0  0  0
  149.7094  138.0393  155.0434 C   0  0  0  0  0  0  0  0  0  0  0  0
  149.2847  136.8304  154.4290 N   0  0  0  0  0  0  0  0  0  0  0  0
  148.8430  135.7071  155.0200 C   0  0  0  0  0  0  0  0  0  0  0  0
  148.7712  135.5259  156.2353 O   0  0  0  0  0  0  0  0  0  0  0  0
  148.5035  134.7821  154.1106 N   0  0  0  0  0  0  0  0  0  0  0  0
  148.0019  133.4450  154.4103 C   0  0  0  0  0  0  0  0  0  0  0  0
  148.5892  132.4170  153.4293 C   0  0  0  0  0  0  0  0  0  0  0  0
  147.6758  132.1398  152.2922 N   0  3  0  0  0  0  0  0  0  0  0  0
  146.6209  131.1566  152.6360 C   0  0  0  0  0  0  0  0  0  0  0  0
  145.7365  130.8644  151.4115 C   0  0  0  0  0  0  0  0  0  0  0  0
  145.1740  132.0773  150.9274 O   0  0  0  0  0  0  0  0  0  0  0  0
  146.1736  132.9997  150.5124 C   0  0  0  0  0  0  0  0  0  0  0  0
  147.0700  133.3624  151.7083 C   0  0  0  0  0  0  0  0  0  0  0  0
  150.2418  139.0519  154.2188 C   0  0  0  0  0  0  0  0  0  0  0  0
  150.6639  140.2478  154.6806 N   0  0  0  0  0  0  0  0  0  0  0  0
  151.4785  142.8762  158.1243 H   0  0  0  0  0  0  0  0  0  0  0  0
  151.8554  141.1675  158.3140 H   0  0  0  0  0  0  0  0  0  0  0  0
  150.1723  141.7329  158.4166 H   0  0  0  0  0  0  0  0  0  0  0  0
  149.9511  139.7905  157.9673 H   0  0  0  0  0  0  0  0  0  0  0  0
  149.1643  137.5996  157.1171 H   0  0  0  0  0  0  0  0  0  0  0  0
  149.3775  136.8003  153.4241 H   0  0  0  0  0  0  0  0  0  0  0  0
  148.5974  135.0237  153.1348 H   0  0  0  0  0  0  0  0  0  0  0  0
  148.2336  133.1653  155.4380 H   0  0  0  0  0  0  0  0  0  0  0  0
  146.9147  133.4612  154.3293 H   0  0  0  0  0  0  0  0  0  0  0  0
  149.5295  132.8154  153.0447 H   0  0  0  0  0  0  0  0  0  0  0  0
  148.8362  131.4856  153.9417 H   0  0  0  0  0  0  0  0  0  0  0  0
  147.0770  130.2297  152.9854 H   0  0  0  0  0  0  0  0  0  0  0  0
  146.0116  131.5435  153.4543 H   0  0  0  0  0  0  0  0  0  0  0  0
  146.3104  130.3747  150.6231 H   0  0  0  0  0  0  0  0  0  0  0  0
  144.9286  130.1855  151.6851 H   0  0  0  0  0  0  0  0  0  0  0  0
  146.7631  132.5761  149.6977 H   0  0  0  0  0  0  0  0  0  0  0  0
  145.6884  133.8946  150.1221 H   0  0  0  0  0  0  0  0  0  0  0  0
  146.4816  133.8791  152.4683 H   0  0  0  0  0  0  0  0  0  0  0  0
  147.8435  134.0554  151.3795 H   0  0  0  0  0  0  0  0  0  0  0  0
  150.3369  138.8975  153.1539 H   0  0  0  0  0  0  0  0  0  0  0  0
  148.2356  131.7107  151.5690 H   0  0  0  0  0  0  0  0  0  0  0  0
  1  2  1  0  0  0  0
  1 21  1  0  0  0  0
  1 22  1  0  0  0  0
  1 23  1  0  0  0  0
  2  3  1  0  0  0  0
  3 20  1  0  0  0  0
  3  4  2  0  0  0  0
  4  5  1  0  0  0  0
  4 24  1  0  0  0  0
  5  6  2  0  0  0  0
  5 25  1  0  0  0  0
  6  7  1  0  0  0  0
  6 19  1  0  0  0  0
  7  8  1  0  0  0  0
  7 26  1  0  0  0  0
  8  9  2  0  0  0  0
  8 10  1  0  0  0  0
 10 11  1  0  0  0  0
 10 27  1  0  0  0  0
 11 12  1  0  0  0  0
 11 28  1  0  0  0  0
 11 29  1  0  0  0  0
 12 13  1  0  0  0  0
 12 30  1  0  0  0  0
 12 31  1  0  0  0  0
 13 18  1  0  0  0  0
 13 14  1  0  0  0  0
 13 41  1  0  0  0  0
 14 15  1  0  0  0  0
 14 32  1  0  0  0  0
 14 33  1  0  0  0  0
 15 16  1  0  0  0  0
 15 34  1  0  0  0  0
 15 35  1  0  0  0  0
 16 17  1  0  0  0  0
 17 18  1  0  0  0  0
 17 36  1  0  0  0  0
 17 37  1  0  0  0  0
 18 38  1  0  0  0  0
 18 39  1  0  0  0  0
 19 20  2  0  0  0  0
 19 40  1  0  0  0  0
M  CHG  1  13   1
M  END
> <s_m_source_file>
AV-unprocessed.smi

> <i_m_source_file_index>
1197

> <i_lp_mmshare_version>
43012

> <i_f3d_flags>
0

> <s_epik_input>
W0NIM11PYzFbY0hdW2NIXWMoW2NIXW4xKVtOSF1DKD1PKVtOSF1bQ0gyXVtDSDJdTjJbQ0gyXVtDSDJdT1tDSDJdW0NIMl0y

> <s_epik_cmdline>
J2VwaWtfcHl0aG9uJywgJy1waCcsICc3LjAnLCAnLXRuJywgJzgnLCAnLW1hJywgJzIwMCcsICctbWV0YWxfYmluZGluZycsICctaW1hZScsICc8aW5maWxlLm1hZT4nLCAnLW9tYWUnLCAnPG91dGZpbGUubWFlPic=

> <r_lp_tautomer_probability>
1

> <r_epik_Ionization_Penalty>
0.602607

> <r_epik_Ionization_Penalty_Charging>
0.602531

> <r_epik_Ionization_Penalty_Neutral>
7.65795e-05

> <r_epik_State_Penalty>
0.617039

> <r_epik_Charging_Adjusted_Penalty>
1.21957

> <i_epik_Tot_Q>
1

> <i_epik_Tot_abs_Q>
1

> <r_epik_Metal_State_Penalty>
0.617043

> <b_epik_Metal_Only>
0

> <s_lp_Force_Field>
OPLS_2005

> <r_lp_Energy>
19.492

> <b_lp_Chiralities_Consistent>
1

> <s_lp_Variant>
AV-unprocessed.smi:1197-2

> <Gold.Version>
5.8.1

> <Gold.Id.Protein>
6NUR|6NUR_protein|mol2

> <Gold.PLP.Fitness>
43.7507

> <Gold.PLP.PLP>
-30.3913

> <Gold.PLP.part.hbond>
-4.0000

> <Gold.PLP.part.metal>
0.0000

> <Gold.PLP.part.buried>
-5.0196

> <Gold.PLP.part.nonpolar>
-21.6885

> <Gold.PLP.part.repulsive>
0.2865

> <Gold.PLP.ligand.clash>
0.2418

> <Gold.PLP.ligand.torsion>
0.7164

> <Gold.PLP.Chemscore.Hbond>
4.0000

> <Gold.PLP.Chemscore.CHOScore>
1.0000

> <Gold.PLP.Chemscore.Metal>
0.0000

> <Gold.Chemscore.Hbonds>
donor molecule, donor type, donor heavy atom, donor atom, acceptor molecule, acceptor atom, score
      L1  H     7    26       P1  7948  1.00
      L1  H    10    27       P1  7948  1.00
      L1  H    13    41       P1 10747  1.00
      P1  H  7989  7998       L1    20  1.00
      L1  C    19    40       P1  7957  1.00

> <Gold.PLP.Chemscore.Internal.Correction>
0.0341

> <Gold.Rescore>
     Score         DG    S(hbond)    S(metal)    S(lipo)     H(rot)  DE(clash)    DE(int)     intcor
     18.69     -20.37       3.59        0.00      64.83       1.83       0.04       1.64       ----

> <Gold.Chemscore.Fitness>
18.6920

> <Gold.Chemscore.DG>
-20.3688

> <Gold.Chemscore.ZeroCoef>
-5.4800

> <Gold.Chemscore.Hbond>
3.5864

> <Gold.Chemscore.Metal>
0.0000

> <Gold.Chemscore.Lipo>
64.8252

> <Gold.Chemscore.Internal_Hbond>
0.0000

> <Gold.Chemscore.DEClash>
0.0355

> <Gold.Chemscore.DEInternal>
1.6413

> <Gold.Chemscore.Rot>
1.8260

> <Gold.Chemscore.Internal.Correction>
   9.000000E+99

> <Gold.Chemscore.Hbonds>
donor molecule, donor type, donor heavy atom, donor atom, acceptor molecule, acceptor atom, score
      L1  H     7    26       P1  7948  0.89
      L1  H    10    27       P1  7948  0.62
      L1  H    13    41       P1 10747  1.00
      P1  H  7989  7998       L1    20  0.55

> <Gold.Chemscore.Hbond.Weighted>
-11.9787

> <Gold.Chemscore.Metal.Weighted>
-0.0000

> <Gold.Chemscore.Lipo.Weighted>
-7.5846

> <Gold.Chemscore.Internal_Hbond.Weighted>
0.0000

> <Gold.Chemscore.DEClash.Weighted>
0.0355

> <Gold.Chemscore.DEInternal.Weighted>
1.6413

> <Gold.Chemscore.Rot.Weighted>
4.6744

> <Gold.Chemscore.Internal.Correction.Weighted>
   9.000000E+99

> <Gold.Protein.RotatedTorsions>
[ 6907 6896 6895 6894 ] final  122.52 input  -60.11 | X-H torsion
[ 7974 7965 7964 7962 ] final   74.47 input  175.53 | X-H torsion
[ 8008 7997 7996 7995 ] final   87.92 input   59.86 | X-H torsion
[ 10167 10162 10161 10158 ] final  -50.68 input  -65.29 | X-H torsion
[ 10718 10713 10712 10709 ] final -138.91 input   66.30 | X-H torsion
[ 10763 10752 10751 10750 ] final   -0.88 input  -60.55 | X-H torsion
[ 11005 11000 10999 10996 ] final -109.75 input  -57.11 | X-H torsion

> <Gold.Protein.ActiveResidues>
 VAL166  LYS551  ARG553  GLY616  TRP617  ASP618  TYR619  PRO620  LYS621  CYS622 
 ASP623  PHE694  ASN695  SER759  ASP760  ASP761  ALA762  ILE779  LEU786  VAL792 
 PHE793  MET794  SER795  GLU796  ALA797  LYS798  CYS799  TRP800  GLU811  SER814 

> <Gold.Protein.RotatedAtoms>
  152.4236  133.7157  159.6504 H   0  0  0  0  0  0  0  0  0  0  0  0  # atno 6907 bound_to 6896
  150.8112  133.8407  159.3187 H   0  0  0  0  0  0  0  0  0  0  0  0  # atno 6908 bound_to 6896
  151.6117  135.1041  160.0134 H   0  0  0  0  0  0  0  0  0  0  0  0  # atno 6909 bound_to 6896
  145.7278  139.2672  143.1558 H   0  0  0  0  0  0  0  0  0  0  0  0  # atno 7974 bound_to 7965
  155.9814  140.3377  155.6666 H   0  0  0  0  0  0  0  0  0  0  0  0  # atno 8008 bound_to 7997
  155.6544  140.0709  157.2594 H   0  0  0  0  0  0  0  0  0  0  0  0  # atno 8009 bound_to 7997
  154.4193  140.1720  156.1696 H   0  0  0  0  0  0  0  0  0  0  0  0  # atno 8010 bound_to 7997
  140.6626  143.2648  151.4394 H   0  0  0  0  0  0  0  0  0  0  0  0  # atno 10167 bound_to 10162
  156.3047  130.7448  151.1509 H   0  0  0  0  0  0  0  0  0  0  0  0  # atno 10718 bound_to 10713
  153.3376  135.6979  153.6894 H   0  0  0  0  0  0  0  0  0  0  0  0  # atno 10763 bound_to 10752
  153.5671  135.3523  155.2823 H   0  0  0  0  0  0  0  0  0  0  0  0  # atno 10764 bound_to 10752
  154.8630  135.4263  154.2581 H   0  0  0  0  0  0  0  0  0  0  0  0  # atno 10765 bound_to 10752
  141.0830  133.9187  157.2247 H   0  0  0  0  0  0  0  0  0  0  0  0  # atno 11005 bound_to 11000
  146.0565  140.8015  142.9756 LP  0  0  0  0  0  0  0  0  0  0  0  0  # atno 17320 bound_to 7965
  144.6900  140.3132  143.7244 LP  0  0  0  0  0  0  0  0  0  0  0  0  # atno 17321 bound_to 7965
  139.5864  144.1595  152.2034 LP  0  0  0  0  0  0  0  0  0  0  0  0  # atno 17342 bound_to 10162
  140.0936  144.5600  150.7037 LP  0  0  0  0  0  0  0  0  0  0  0  0  # atno 17343 bound_to 10162
  157.7377  131.0549  150.5341 LP  0  0  0  0  0  0  0  0  0  0  0  0  # atno 17370 bound_to 10713
  156.5473  130.4223  149.6124 LP  0  0  0  0  0  0  0  0  0  0  0  0  # atno 17371 bound_to 10713
  139.9646  135.0145  156.9352 LP  0  0  0  0  0  0  0  0  0  0  0  0  # atno 17394 bound_to 11000
  140.5425  134.0706  155.7345 LP  0  0  0  0  0  0  0  0  0  0  0  0  # atno 17395 bound_to 11000

$$$$
