#       Name:                AV-unprocessed.smi:3345
#       Creating user name   scv26
#       Creation time:       Fri Mar 27 19:31:35 2020


#       File generated by GOLD software.
#

@<TRIPOS>MOLECULE
AV-unprocessed.smi:3345
    47    48     1
SMALL
NO_CHARGES


@<TRIPOS>ATOM
      1 ****        -2.0274  -2.2609   2.2939 C.3            1 S1                 0.0000
      2 ****        -1.5440  -1.0730   1.4516 C.3            1 S1                 0.0000
      3 ****        -1.9371  -1.2292  -0.0352 C.3            1 S1                 0.0000
      4 ****        -1.3476  -0.1836  -0.9117 N.4            1 S1                 1.0000
      5 ****        -1.2881  -0.5904  -2.3353 C.3            1 S1                 0.0000
      6 ****        -0.6038   0.5007  -3.1768 C.3            1 S1                 0.0000
      7 ****        -1.2838   1.7387  -3.0091 O.3            1 S1                 0.0000
      8 ****        -1.2738   2.1752  -1.6552 C.3            1 S1                 0.0000
      9 ****        -2.0004   1.1411  -0.7803 C.3            1 S1                 0.0000
     10 ****        -0.0941  -0.9377   1.5873 N.am           1 S1                 0.0000
     11 ****         0.5702   0.1993   1.8529 C.2            1 S1                 0.0000
     12 ****         0.0106   1.2664   2.1051 O.2            1 S1                 0.0000
     13 ****         2.1010   0.1192   1.7695 C.3            1 S1                 0.0000
     14 ****         2.8033   1.1884   2.6304 C.3            1 S1                 0.0000
     15 ****         2.5156   0.1761   0.3728 N.pl3          1 S1                 0.0000
     16 ****         2.8505  -0.8090  -0.4633 C.2            1 S1                 0.0000
     17 ****         3.1174  -0.4017  -1.6961 N.2            1 S1                 0.0000
     18 ****         2.9177   0.9406  -1.5418 C.2            1 S1                 0.0000
     19 ****         2.5315   1.3368  -0.3296 N.2            1 S1                 0.0000
     20 ****        -3.1099  -2.3734   2.2263 H              1 S1                 0.0000
     21 ****        -1.7770  -2.1230   3.3465 H              1 S1                 0.0000
     22 ****        -1.5742  -3.1963   1.9636 H              1 S1                 0.0000
     23 ****        -2.0379  -0.1854   1.8490 H              1 S1                 0.0000
     24 ****        -1.5834  -2.2037  -0.3758 H              1 S1                 0.0000
     25 ****        -3.0220  -1.2425  -0.1494 H              1 S1                 0.0000
     26 ****        -0.7351  -1.5253  -2.4321 H              1 S1                 0.0000
     27 ****        -2.2979  -0.7724  -2.7064 H              1 S1                 0.0000
     28 ****         0.4437   0.6088  -2.8948 H              1 S1                 0.0000
     29 ****        -0.6216   0.2279  -4.2320 H              1 S1                 0.0000
     30 ****        -0.2482   2.3235  -1.3129 H              1 S1                 0.0000
     31 ****        -1.7748   3.1410  -1.5910 H              1 S1                 0.0000
     32 ****        -3.0473   1.0671  -1.0786 H              1 S1                 0.0000
     33 ****        -1.9884   1.4735   0.2570 H              1 S1                 0.0000
     34 ****         0.4531  -1.7679   1.4102 H              1 S1                 0.0000
     35 ****         2.4003  -0.8566   2.1561 H              1 S1                 0.0000
     36 ****         2.5064   1.1078   3.6767 H              1 S1                 0.0000
     37 ****         2.5714   2.2014   2.2989 H              1 S1                 0.0000
     38 ****         3.8863   1.0688   2.5893 H              1 S1                 0.0000
     39 ****         2.8906  -1.8468  -0.1665 H              1 S1                 0.0000
     40 ****         3.0389   1.6439  -2.3526 H              1 S1                 0.0000
     41 ****        -0.3900  -0.0676  -0.6118 H              1 S1                 0.0000
     42 ****        -2.2325   1.6283  -3.3053 LP             1 S1                 0.0000
     43 ****        -0.8365   2.4316  -3.5746 LP             1 S1                 0.0000
     44 ****        -0.9881   1.3162   2.1193 LP             1 S1                 0.0000
     45 ****         0.5547   2.0835   2.2958 LP             1 S1                 0.0000
     46 ****         3.3867  -0.9252  -2.5044 LP             1 S1                 0.0000
     47 ****         2.3088   2.2598  -0.0157 LP             1 S1                 0.0000
@<TRIPOS>BOND
    1    1    2 1     
    2    1   20 1     
    3    1   21 1     
    4    1   22 1     
    5    2    3 1     
    6    2   10 1     
    7    2   23 1     
    8    3    4 1     
    9    3   24 1     
   10    3   25 1     
   11    4    9 1     
   12    4    5 1     
   13    4   41 1     
   14    5    6 1     
   15    5   26 1     
   16    5   27 1     
   17    6    7 1     
   18    6   28 1     
   19    6   29 1     
   20    7    8 1     
   21    8    9 1     
   22    8   30 1     
   23    8   31 1     
   24    9   32 1     
   25    9   33 1     
   26   10   11 am    
   27   10   34 1     
   28   11   12 2     
   29   11   13 1     
   30   13   14 1     
   31   13   15 1     
   32   13   35 1     
   33   14   36 1     
   34   14   37 1     
   35   14   38 1     
   36   15   19 1     
   37   15   16 1     
   38   16   17 2     
   39   16   39 1     
   40   17   18 1     
   41   18   19 2     
   42   18   40 1     
   43    7   42 1     
   44    7   43 1     
   45   12   44 1     
   46   12   45 1     
   47   17   46 1     
   48   19   47 1     
@<TRIPOS>SUBSTRUCTURE
      1 S1             1
@<TRIPOS>SET
LONE_PAIRS      STATIC     ATOMS    <user>   **** ""
6 42 43 44 45 46 47
DONOR_HYDROGENS      STATIC     ATOMS    <user>   **** ""
2 41 34
ATOM$BLUE        STATIC     ATOMS    COLORGROUP SYSTEM
6 42 43 44 45 46 47
ATOM$RED        STATIC     ATOMS    COLORGROUP SYSTEM
2 41 34
