#       Name:                AV-unprocessed.smi:2248
#       Creating user name   scv26
#       Creation time:       Fri Mar 27 12:29:39 2020


#       File generated by GOLD software.
#

@<TRIPOS>MOLECULE
AV-unprocessed.smi:2248
    40    41     1
SMALL
NO_CHARGES


@<TRIPOS>ATOM
      1 ****        -3.5312   4.2198  -0.1517 C.3            1 S1                 0.0000
      2 ****        -3.7371   2.7353   0.0642 C.ar           1 S1                 0.0000
      3 ****        -5.0307   2.1779   0.0718 C.ar           1 S1                 0.0000
      4 ****        -5.1536   0.7917   0.2748 C.ar           1 S1                 0.0000
      5 ****        -3.9864   0.0253   0.4581 C.ar           1 S1                 0.0000
      6 ****        -2.7254   0.6624   0.4336 C.ar           1 S1                 0.0000
      7 ****        -1.6116  -0.1993   0.6195 N.am           1 S1                 0.0000
      8 ****        -0.3070   0.1248   0.6536 C.2            1 S1                 0.0000
      9 ****         0.1473   1.2662   0.5661 O.2            1 S1                 0.0000
     10 ****         0.4608  -0.9652   0.7971 N.am           1 S1                 0.0000
     11 ****         1.9185  -0.9555   0.8519 C.3            1 S1                 0.0000
     12 ****         2.4413  -2.3018   1.2716 C.2            1 S1                 0.0000
     13 ****         3.2512  -2.8447   0.3654 C.2            1 S1                 0.0000
     14 ****         3.4193  -1.9864  -0.8609 C.3            1 S1                 0.0000
     15 ****         4.8981  -1.6849  -1.1559 C.3            1 S1                 0.0000
     16 ****         5.0178  -0.9633  -2.3634 O.3            1 S1                 0.0000
     17 ****         2.5724  -0.7276  -0.5366 C.3            1 S1                 0.0000
     18 ****        -2.6177   2.0004   0.2385 N.ar           1 S1                 0.0000
     19 ****         2.2630  -0.2102   1.5710 H              1 S1                 0.0000
     20 ****         2.9783  -2.5260  -1.7003 H              1 S1                 0.0000
     21 ****        -4.4590   4.7717   0.0013 H              1 S1                 0.0000
     22 ****        -3.1844   4.4080  -1.1680 H              1 S1                 0.0000
     23 ****        -2.7870   4.6102   0.5434 H              1 S1                 0.0000
     24 ****        -5.9062   2.7934  -0.0743 H              1 S1                 0.0000
     25 ****        -6.1263   0.3229   0.2881 H              1 S1                 0.0000
     26 ****        -4.0639  -1.0410   0.6140 H              1 S1                 0.0000
     27 ****        -1.8334  -1.1784   0.7215 H              1 S1                 0.0000
     28 ****         0.0084  -1.8652   0.8613 H              1 S1                 0.0000
     29 ****         2.1807  -2.7507   2.2188 H              1 S1                 0.0000
     30 ****         3.7366  -3.8045   0.4646 H              1 S1                 0.0000
     31 ****         5.3500  -1.1119  -0.3454 H              1 S1                 0.0000
     32 ****         5.4639  -2.6122  -1.2520 H              1 S1                 0.0000
     33 ****         5.9332  -0.7871  -2.5189 H              1 S1                 0.0000
     34 ****         1.8288  -0.5624  -1.3177 H              1 S1                 0.0000
     35 ****         3.1922   0.1695  -0.5065 H              1 S1                 0.0000
     36 ****        -0.4721   2.0441   0.4599 LP             1 S1                 0.0000
     37 ****         1.1355   1.4150   0.6013 LP             1 S1                 0.0000
     38 ****         4.5159  -0.1013  -2.2921 LP             1 S1                 0.0000
     39 ****         4.6457  -1.5043  -3.1177 LP             1 S1                 0.0000
     40 ****        -1.7187   2.4380   0.2239 LP             1 S1                 0.0000
@<TRIPOS>BOND
    1    1    2 1     
    2    1   21 1     
    3    1   22 1     
    4    1   23 1     
    5    2   18 ar    
    6    2    3 ar    
    7    3    4 ar    
    8    3   24 1     
    9    4    5 ar    
   10    4   25 1     
   11    5    6 ar    
   12    5   26 1     
   13    6    7 1     
   14    6   18 ar    
   15    7    8 am    
   16    7   27 1     
   17    8    9 2     
   18    8   10 am    
   19   10   11 1     
   20   10   28 1     
   21   11   19 1     
   22   11   17 1     
   23   11   12 1     
   24   12   13 2     
   25   12   29 1     
   26   13   14 1     
   27   13   30 1     
   28   14   20 1     
   29   14   15 1     
   30   14   17 1     
   31   15   16 1     
   32   15   31 1     
   33   15   32 1     
   34   16   33 1     
   35   17   34 1     
   36   17   35 1     
   37    9   36 1     
   38    9   37 1     
   39   16   38 1     
   40   16   39 1     
   41   18   40 1     
@<TRIPOS>SUBSTRUCTURE
      1 S1             1
@<TRIPOS>SET
LONE_PAIRS      STATIC     ATOMS    <user>   **** ""
5 36 37 38 39 40
DONOR_HYDROGENS      STATIC     ATOMS    <user>   **** ""
3 27 28 33
ATOM$BLUE        STATIC     ATOMS    COLORGROUP SYSTEM
5 36 37 38 39 40
ATOM$RED        STATIC     ATOMS    COLORGROUP SYSTEM
3 27 28 33
