AV-unprocessed.smi:112|AV-procd|sdf|1090|dock6
  -GOLD-   2262018193D 1   1.00000     0.00000
 Structure written by MMmdl.
 54 57  0  0  0  0  0  0  0  0  3 V2000
  146.3658  137.6663  156.4816 C   0  0  0  0  0  0  0  0  0  0  0  0
  147.7563  137.4274  155.9150 C   0  0  0  0  0  0  0  0  0  0  0  0
  148.2807  136.1863  155.7929 C   0  0  0  0  0  0  0  0  0  0  0  0
  149.5384  135.9310  155.2803 N   0  0  0  0  0  0  0  0  0  0  0  0
  150.0460  134.5039  155.2403 C   0  0  1  0  0  0  0  0  0  0  0  0
  150.0428  133.8070  156.6088 C   0  0  0  0  0  0  0  0  0  0  0  0
  149.7098  132.3784  156.2258 C   0  0  2  0  0  0  0  0  0  0  0  0
  150.8911  131.6676  155.9024 O   0  0  0  0  0  0  0  0  0  0  0  0
  148.7890  132.5696  155.0097 C   0  0  2  0  0  0  0  0  0  0  0  0
  148.7005  131.4055  154.0072 C   0  0  0  0  0  0  0  0  0  0  0  0
  147.6505  131.6244  153.0887 O   0  0  0  0  0  0  0  0  0  0  0  0
  149.2457  133.7595  154.3694 O   0  0  0  0  0  0  0  0  0  0  0  0
  150.3617  137.0115  154.8921 C   0  0  0  0  0  0  0  0  0  0  0  0
  151.5105  136.8252  154.4875 O   0  0  0  0  0  0  0  0  0  0  0  0
  149.8373  138.3203  154.9910 N   0  0  0  0  0  0  0  0  0  0  0  0
  150.6918  139.4600  154.5856 C   0  0  0  0  0  0  0  0  0  0  0  0
  150.9092  140.5036  155.7039 C   0  0  0  0  0  0  0  0  0  0  0  0
  150.3922  141.6154  155.5888 O   0  0  0  0  0  0  0  0  0  0  0  0
  151.6665  140.1425  156.7697 N   0  0  0  0  0  0  0  0  0  0  0  0
  152.2977  138.8184  156.9071 C   0  0  0  0  0  0  0  0  0  0  0  0
  153.0683  138.8418  158.2451 C   0  0  0  0  0  0  0  0  0  0  0  0
  152.7829  140.2151  158.7770 C   0  0  0  0  0  0  0  0  0  0  0  0
  153.2407  140.7567  159.9900 C   0  0  0  0  0  0  0  0  0  0  0  0
  152.8674  142.0800  160.3330 C   0  0  0  0  0  0  0  0  0  0  0  0
  153.3300  142.6825  161.5989 N   0  3  0  0  0  0  0  0  0  0  0  0
  154.1056  142.0401  162.2995 O   0  0  0  0  0  0  0  0  0  0  0  0
  152.9181  143.7994  161.8952 O   0  5  0  0  0  0  0  0  0  0  0  0
  152.0427  142.8174  159.4423 C   0  0  0  0  0  0  0  0  0  0  0  0
  151.5918  142.2575  158.2270 C   0  0  0  0  0  0  0  0  0  0  0  0
  151.9764  140.9375  157.9052 C   0  0  0  0  0  0  0  0  0  0  0  0
  148.5427  138.5901  155.4986 C   0  0  0  0  0  0  0  0  0  0  0  0
  148.1306  139.7486  155.5851 O   0  0  0  0  0  0  0  0  0  0  0  0
  145.8747  136.7336  156.7604 H   0  0  0  0  0  0  0  0  0  0  0  0
  145.7357  138.1681  155.7465 H   0  0  0  0  0  0  0  0  0  0  0  0
  146.4199  138.2934  157.3722 H   0  0  0  0  0  0  0  0  0  0  0  0
  147.6766  135.3494  156.1133 H   0  0  0  0  0  0  0  0  0  0  0  0
  151.0491  134.5452  154.8148 H   0  0  0  0  0  0  0  0  0  0  0  0
  151.0026  133.9242  157.1133 H   0  0  0  0  0  0  0  0  0  0  0  0
  149.2664  134.2121  157.2559 H   0  0  0  0  0  0  0  0  0  0  0  0
  149.2040  131.8510  157.0350 H   0  0  0  0  0  0  0  0  0  0  0  0
  150.7051  130.7417  155.9343 H   0  0  0  0  0  0  0  0  0  0  0  0
  147.7847  132.7870  155.3760 H   0  0  0  0  0  0  0  0  0  0  0  0
  149.6312  131.3341  153.4441 H   0  0  0  0  0  0  0  0  0  0  0  0
  148.5626  130.4481  154.5096 H   0  0  0  0  0  0  0  0  0  0  0  0
  147.9904  131.5320  152.2120 H   0  0  0  0  0  0  0  0  0  0  0  0
  151.6640  139.1024  154.2439 H   0  0  0  0  0  0  0  0  0  0  0  0
  150.2697  139.9570  153.7114 H   0  0  0  0  0  0  0  0  0  0  0  0
  151.5414  138.0324  156.9194 H   0  0  0  0  0  0  0  0  0  0  0  0
  152.9816  138.6240  156.0798 H   0  0  0  0  0  0  0  0  0  0  0  0
  152.7078  138.0797  158.9365 H   0  0  0  0  0  0  0  0  0  0  0  0
  154.1405  138.7073  158.0985 H   0  0  0  0  0  0  0  0  0  0  0  0
  153.8655  140.1619  160.6399 H   0  0  0  0  0  0  0  0  0  0  0  0
  151.7456  143.8271  159.6844 H   0  0  0  0  0  0  0  0  0  0  0  0
  150.9664  142.8518  157.5801 H   0  0  0  0  0  0  0  0  0  0  0  0
  1  2  1  0  0  0  0
  1 33  1  0  0  0  0
  1 34  1  0  0  0  0
  1 35  1  0  0  0  0
  2 31  1  0  0  0  0
  2  3  2  0  0  0  0
  3  4  1  0  0  0  0
  3 36  1  0  0  0  0
  4  5  1  0  0  0  0
  4 13  1  0  0  0  0
  5 12  1  0  0  0  0
  5  6  1  0  0  0  0
  5 37  1  0  0  0  0
  6  7  1  0  0  0  0
  6 38  1  0  0  0  0
  6 39  1  0  0  0  0
  7  8  1  0  0  0  0
  7  9  1  0  0  0  0
  7 40  1  0  0  0  0
  8 41  1  0  0  0  0
  9 10  1  0  0  0  0
  9 12  1  0  0  0  0
  9 42  1  0  0  0  0
 10 11  1  0  0  0  0
 10 43  1  0  0  0  0
 10 44  1  0  0  0  0
 11 45  1  0  0  0  0
 13 14  2  0  0  0  0
 13 15  1  0  0  0  0
 15 16  1  0  0  0  0
 15 31  1  0  0  0  0
 16 17  1  0  0  0  0
 16 46  1  0  0  0  0
 16 47  1  0  0  0  0
 17 18  2  0  0  0  0
 17 19  1  0  0  0  0
 19 30  1  0  0  0  0
 19 20  1  0  0  0  0
 20 21  1  0  0  0  0
 20 48  1  0  0  0  0
 20 49  1  0  0  0  0
 21 22  1  0  0  0  0
 21 50  1  0  0  0  0
 21 51  1  0  0  0  0
 22 30  2  0  0  0  0
 22 23  1  0  0  0  0
 23 24  2  0  0  0  0
 23 52  1  0  0  0  0
 24 25  1  0  0  0  0
 24 28  1  0  0  0  0
 25 26  2  0  0  0  0
 25 27  1  0  0  0  0
 28 29  2  0  0  0  0
 28 53  1  0  0  0  0
 29 30  1  0  0  0  0
 29 54  1  0  0  0  0
 31 32  2  0  0  0  0
M  CHG  1  25   1
M  CHG  1  27  -1
M  END
> <s_m_source_file>
AV-unprocessed.smi

> <i_m_source_file_index>
112

> <i_lp_mmshare_version>
43012

> <i_f3d_flags>
0

> <s_epik_input>
W09IXVtDSDJdW0NAQEhdKE8xKVtDQEhdKFtPSF0pW0NIMl1bQ0BIXTFuKFtjSF1jMltDSDNdKWMoPU8pbihjMj1PKVtDSDJdQyg9TylOKFtDSDJdW0NIMl0zKWMoYzM0KVtjSF1bY0hdYyhbY0hdNClbTitdKD1PKVtPLV0=

> <s_epik_cmdline>
J2VwaWtfcHl0aG9uJywgJy1waCcsICc3LjAnLCAnLXRuJywgJzgnLCAnLW1hJywgJzIwMCcsICctbWV0YWxfYmluZGluZycsICctaW1hZScsICc8aW5maWxlLm1hZT4nLCAnLW9tYWUnLCAnPG91dGZpbGUubWFlPic=

> <r_lp_tautomer_probability>
1

> <r_epik_Ionization_Penalty>
2.5696e-07

> <r_epik_Ionization_Penalty_Charging>
1.04886e-08

> <r_epik_Ionization_Penalty_Neutral>
2.46472e-07

> <r_epik_State_Penalty>
-0

> <r_epik_Charging_Adjusted_Penalty>
1.04886e-08

> <i_epik_Tot_Q>
0

> <i_epik_Tot_abs_Q>
2

> <r_epik_Metal_State_Penalty>
-0

> <b_epik_Metal_Only>
0

> <s_epik_Chemistry_Notes>
This compound contains an acetal/aminal-like group ( X-CH(R)-Y where X, Y are N, S, or O) that may be acid/base labile, releasing an aldehyde.

> <s_lp_Force_Field>
OPLS_2005

> <r_lp_Energy>
55.491

> <b_lp_Chiralities_Consistent>
1

> <s_lp_Variant>
AV-unprocessed.smi:112-8

> <Gold.Version>
5.8.1

> <Gold.Id.Protein>
6NUR|6NUR_protein|mol2

> <Gold.PLP.Fitness>
54.2739

> <Gold.PLP.PLP>
-48.5736

> <Gold.PLP.part.hbond>
-3.0449

> <Gold.PLP.part.metal>
0.0000

> <Gold.PLP.part.buried>
-4.9742

> <Gold.PLP.part.nonpolar>
-40.6618

> <Gold.PLP.part.repulsive>
0.6247

> <Gold.PLP.ligand.clash>
0.0000

> <Gold.PLP.ligand.torsion>
0.1712

> <Gold.PLP.Chemscore.Hbond>
2.0000

> <Gold.PLP.Chemscore.CHOScore>
0.0000

> <Gold.PLP.Chemscore.Metal>
0.0000

> <Gold.Chemscore.Hbonds>
donor molecule, donor type, donor heavy atom, donor atom, acceptor molecule, acceptor atom, score
      L1  H    11    45       P1 10747  0.41
      P1  H 10752 10765       L1    14  1.00

> <Gold.PLP.Chemscore.Internal.Correction>
0.0427

> <Gold.Rescore>
     Score         DG    S(hbond)    S(metal)    S(lipo)     H(rot)  DE(clash)    DE(int)     intcor
      9.95     -14.01       1.98        0.00      88.50       3.29       0.03       4.03       ----

> <Gold.Chemscore.Fitness>
9.9549

> <Gold.Chemscore.DG>
-14.0120

> <Gold.Chemscore.ZeroCoef>
-5.4800

> <Gold.Chemscore.Hbond>
1.9773

> <Gold.Chemscore.Metal>
0.0000

> <Gold.Chemscore.Lipo>
88.4993

> <Gold.Chemscore.Internal_Hbond>
0.0000

> <Gold.Chemscore.DEClash>
0.0296

> <Gold.Chemscore.DEInternal>
4.0275

> <Gold.Chemscore.Rot>
3.2916

> <Gold.Chemscore.Internal.Correction>
   9.000000E+99

> <Gold.Chemscore.Hbonds>
donor molecule, donor type, donor heavy atom, donor atom, acceptor molecule, acceptor atom, score
      L1  H    11    45       P1 10747  0.41
      P1  H 10752 10765       L1    14  1.00

> <Gold.Chemscore.Hbond.Weighted>
-6.6041

> <Gold.Chemscore.Metal.Weighted>
-0.0000

> <Gold.Chemscore.Lipo.Weighted>
-10.3544

> <Gold.Chemscore.Internal_Hbond.Weighted>
0.0000

> <Gold.Chemscore.DEClash.Weighted>
0.0296

> <Gold.Chemscore.DEInternal.Weighted>
4.0275

> <Gold.Chemscore.Rot.Weighted>
8.4265

> <Gold.Chemscore.Internal.Correction.Weighted>
   9.000000E+99

> <Gold.Protein.RotatedTorsions>
[ 6907 6896 6895 6894 ] final -166.28 input  -60.11 | X-H torsion
[ 7974 7965 7964 7962 ] final  149.99 input  175.53 | X-H torsion
[ 8008 7997 7996 7995 ] final  125.74 input   59.86 | X-H torsion
[ 10167 10162 10161 10158 ] final -160.46 input  -65.29 | X-H torsion
[ 10718 10713 10712 10709 ] final   75.84 input   66.30 | X-H torsion
[ 10763 10752 10751 10750 ] final  167.06 input  -60.55 | X-H torsion
[ 11005 11000 10999 10996 ] final  -71.18 input  -57.11 | X-H torsion

> <Gold.Protein.ActiveResidues>
 VAL166  LYS551  ARG553  GLY616  TRP617  ASP618  TYR619  PRO620  LYS621  CYS622 
 ASP623  PHE694  ASN695  SER759  ASP760  ASP761  ALA762  ILE779  LEU786  VAL792 
 PHE793  MET794  SER795  GLU796  ALA797  LYS798  CYS799  TRP800  GLU811  SER814 

> <Gold.Protein.RotatedAtoms>
  151.4411  133.3643  159.2781 H   0  0  0  0  0  0  0  0  0  0  0  0  # atno 6907 bound_to 6896
  150.9157  134.8576  159.7466 H   0  0  0  0  0  0  0  0  0  0  0  0  # atno 6908 bound_to 6896
  152.4955  134.4345  159.9575 H   0  0  0  0  0  0  0  0  0  0  0  0  # atno 6909 bound_to 6896
  144.8397  139.6351  143.6022 H   0  0  0  0  0  0  0  0  0  0  0  0  # atno 7974 bound_to 7965
  156.2843  140.2709  156.1998 H   0  0  0  0  0  0  0  0  0  0  0  0  # atno 8008 bound_to 7997
  155.0373  140.0386  157.2514 H   0  0  0  0  0  0  0  0  0  0  0  0  # atno 8009 bound_to 7997
  154.7304  140.2705  155.6466 H   0  0  0  0  0  0  0  0  0  0  0  0  # atno 8010 bound_to 7997
  139.6538  144.0036  152.2180 H   0  0  0  0  0  0  0  0  0  0  0  0  # atno 10167 bound_to 10162
  157.6650  130.9746  150.1412 H   0  0  0  0  0  0  0  0  0  0  0  0  # atno 10718 bound_to 10713
  154.3483  135.2753  155.2386 H   0  0  0  0  0  0  0  0  0  0  0  0  # atno 10763 bound_to 10752
  154.4626  135.5903  153.6270 H   0  0  0  0  0  0  0  0  0  0  0  0  # atno 10764 bound_to 10752
  152.9852  135.6069  154.3691 H   0  0  0  0  0  0  0  0  0  0  0  0  # atno 10765 bound_to 10752
  141.1587  133.6810  156.6866 H   0  0  0  0  0  0  0  0  0  0  0  0  # atno 11005 bound_to 11000
  146.2691  139.6592  142.9308 LP  0  0  0  0  0  0  0  0  0  0  0  0  # atno 17320 bound_to 7965
  145.4720  141.0436  143.2693 LP  0  0  0  0  0  0  0  0  0  0  0  0  # atno 17321 bound_to 7965
  139.9757  144.6463  150.7947 LP  0  0  0  0  0  0  0  0  0  0  0  0  # atno 17342 bound_to 10162
  140.7550  143.3037  151.3015 LP  0  0  0  0  0  0  0  0  0  0  0  0  # atno 17343 bound_to 10162
  156.2234  130.3676  149.8529 LP  0  0  0  0  0  0  0  0  0  0  0  0  # atno 17370 bound_to 10713
  156.6376  130.8691  151.3507 LP  0  0  0  0  0  0  0  0  0  0  0  0  # atno 17371 bound_to 10713
  140.3062  134.8123  157.4139 LP  0  0  0  0  0  0  0  0  0  0  0  0  # atno 17394 bound_to 11000
  140.1218  134.5209  155.8177 LP  0  0  0  0  0  0  0  0  0  0  0  0  # atno 17395 bound_to 11000

$$$$
