AV-unprocessed.smi:2129|AV-procd|sdf|8683|dock8
  -GOLD-   2272011433D 1   1.00000     0.00000
 Structure written by MMmdl.
 34 34  0  0  0  0  0  0  0  0  1 V2000
  152.6978  141.6763  160.0371 C   0  0  0  0  0  0  0  0  0  0  0  0
  152.9439  143.1784  159.8085 C   0  0  0  0  0  0  0  0  0  0  0  0
  151.8201  143.9377  159.0517 C   0  0  0  0  0  0  0  0  0  0  0  0
  150.4895  143.8254  159.8213 C   0  0  0  0  0  0  0  0  0  0  0  0
  152.1823  145.4345  158.9369 C   0  0  0  0  0  0  0  0  0  0  0  0
  151.5887  143.3671  157.7197 N   0  0  0  0  0  0  0  0  0  0  0  0
  150.8409  142.3012  157.3735 C   0  0  0  0  0  0  0  0  0  0  0  0
  150.2306  141.6098  158.1872 O   0  0  0  0  0  0  0  0  0  0  0  0
  150.7452  141.9483  155.8790 C   0  0  0  0  0  0  0  0  0  0  0  0
  150.9438  140.5221  155.5707 N   0  0  0  0  0  0  0  0  0  0  0  0
  150.1504  139.8956  154.6200 C   0  0  0  0  0  0  0  0  0  0  0  0
  150.2672  138.5856  154.2978 C   0  0  0  0  0  0  0  0  0  0  0  0
  151.2635  137.7484  154.9575 C   0  0  0  0  0  0  0  0  0  0  0  0
  151.4451  136.5536  154.7350 O   0  0  0  0  0  0  0  0  0  0  0  0
  152.0415  138.4146  155.9082 N   0  0  0  0  0  0  0  0  0  0  0  0
  151.9260  139.7639  156.2457 C   0  0  0  0  0  0  0  0  0  0  0  0
  152.6571  140.2501  157.1075 O   0  0  0  0  0  0  0  0  0  0  0  0
  152.7442  137.8747  156.3923 H   0  0  0  0  0  0  0  0  0  0  0  0
  153.5437  141.2277  160.5578 H   0  0  0  0  0  0  0  0  0  0  0  0
  152.5736  141.1383  159.0973 H   0  0  0  0  0  0  0  0  0  0  0  0
  151.8124  141.4990  160.6469 H   0  0  0  0  0  0  0  0  0  0  0  0
  153.1089  143.6545  160.7757 H   0  0  0  0  0  0  0  0  0  0  0  0
  153.8866  143.2887  159.2717 H   0  0  0  0  0  0  0  0  0  0  0  0
  150.5885  144.1946  160.8427 H   0  0  0  0  0  0  0  0  0  0  0  0
  150.1358  142.7955  159.8763 H   0  0  0  0  0  0  0  0  0  0  0  0
  149.7034  144.4073  159.3381 H   0  0  0  0  0  0  0  0  0  0  0  0
  152.2520  145.8971  159.9220 H   0  0  0  0  0  0  0  0  0  0  0  0
  151.4303  145.9845  158.3698 H   0  0  0  0  0  0  0  0  0  0  0  0
  153.1426  145.5898  158.4452 H   0  0  0  0  0  0  0  0  0  0  0  0
  152.0380  143.8568  156.9597 H   0  0  0  0  0  0  0  0  0  0  0  0
  149.7674  142.2728  155.5206 H   0  0  0  0  0  0  0  0  0  0  0  0
  151.4642  142.5576  155.3281 H   0  0  0  0  0  0  0  0  0  0  0  0
  149.3952  140.4765  154.1097 H   0  0  0  0  0  0  0  0  0  0  0  0
  149.6184  138.1545  153.5490 H   0  0  0  0  0  0  0  0  0  0  0  0
  1  2  1  0  0  0  0
  1 19  1  0  0  0  0
  1 20  1  0  0  0  0
  1 21  1  0  0  0  0
  2  3  1  0  0  0  0
  2 22  1  0  0  0  0
  2 23  1  0  0  0  0
  3  4  1  0  0  0  0
  3  5  1  0  0  0  0
  3  6  1  0  0  0  0
  4 24  1  0  0  0  0
  4 25  1  0  0  0  0
  4 26  1  0  0  0  0
  5 27  1  0  0  0  0
  5 28  1  0  0  0  0
  5 29  1  0  0  0  0
  6  7  1  0  0  0  0
  6 30  1  0  0  0  0
  7  8  2  0  0  0  0
  7  9  1  0  0  0  0
  9 10  1  0  0  0  0
  9 31  1  0  0  0  0
  9 32  1  0  0  0  0
 10 16  1  0  0  0  0
 10 11  1  0  0  0  0
 11 12  2  0  0  0  0
 11 33  1  0  0  0  0
 12 13  1  0  0  0  0
 12 34  1  0  0  0  0
 13 14  2  0  0  0  0
 13 15  1  0  0  0  0
 15 18  1  0  0  0  0
 15 16  1  0  0  0  0
 16 17  2  0  0  0  0
M  END
> <s_m_source_file>
AV-unprocessed.smi

> <i_m_source_file_index>
2129

> <i_lp_mmshare_version>
43012

> <i_f3d_flags>
0

> <s_epik_input>
W0NIM11bQ0gyXUMoW0NIM10pKFtDSDNdKVtOSF1DKD1PKVtDSDJdbjFbY0hdW2NIXWMoPU8pW25IXWMxPU8=

> <s_epik_cmdline>
J2VwaWtfcHl0aG9uJywgJy1waCcsICc3LjAnLCAnLXRuJywgJzgnLCAnLW1hJywgJzIwMCcsICctbWV0YWxfYmluZGluZycsICctaW1hZScsICc8aW5maWxlLm1hZT4nLCAnLW9tYWUnLCAnPG91dGZpbGUubWFlPic=

> <r_lp_tautomer_probability>
0.999537

> <r_epik_Ionization_Penalty>
0.00293907

> <r_epik_Ionization_Penalty_Charging>
0.00293905

> <r_epik_Ionization_Penalty_Neutral>
1.95902e-08

> <r_epik_State_Penalty>
0.0020607

> <r_epik_Charging_Adjusted_Penalty>
0.00499975

> <i_epik_Tot_Q>
0

> <i_epik_Tot_abs_Q>
0

> <r_epik_Metal_State_Penalty>
0.360223

> <b_epik_Metal_Only>
0

> <s_lp_Force_Field>
OPLS_2005

> <r_lp_Energy>
5.65175

> <b_lp_Chiralities_Consistent>
1

> <s_lp_Variant>
AV-unprocessed.smi:2129-1

> <Gold.Version>
5.8.1

> <Gold.Id.Protein>
6NUR|6NUR_protein|mol2

> <Gold.PLP.Fitness>
40.1714

> <Gold.PLP.PLP>
-36.0010

> <Gold.PLP.part.hbond>
-2.0000

> <Gold.PLP.part.metal>
0.0000

> <Gold.PLP.part.buried>
-2.0273

> <Gold.PLP.part.nonpolar>
-31.0043

> <Gold.PLP.part.repulsive>
0.3267

> <Gold.PLP.ligand.clash>
0.0000

> <Gold.PLP.ligand.torsion>
0.9233

> <Gold.PLP.Chemscore.Hbond>
2.0000

> <Gold.PLP.Chemscore.CHOScore>
0.0000

> <Gold.PLP.Chemscore.Metal>
0.0000

> <Gold.Chemscore.Hbonds>
donor molecule, donor type, donor heavy atom, donor atom, acceptor molecule, acceptor atom, score
      P1  H  7997  8008       L1    17  0.98
      P1  H 10752 10765       L1    14  1.00

> <Gold.PLP.Chemscore.Internal.Correction>
0.0170

> <Gold.Rescore>
     Score         DG    S(hbond)    S(metal)    S(lipo)     H(rot)  DE(clash)    DE(int)     intcor
     11.51     -16.03       1.95        0.00      77.22       1.95       0.12       4.39       ----

> <Gold.Chemscore.Fitness>
11.5126

> <Gold.Chemscore.DG>
-16.0310

> <Gold.Chemscore.ZeroCoef>
-5.4800

> <Gold.Chemscore.Hbond>
1.9472

> <Gold.Chemscore.Metal>
0.0000

> <Gold.Chemscore.Lipo>
77.2212

> <Gold.Chemscore.Internal_Hbond>
0.0000

> <Gold.Chemscore.DEClash>
0.1242

> <Gold.Chemscore.DEInternal>
4.3942

> <Gold.Chemscore.Rot>
1.9483

> <Gold.Chemscore.Internal.Correction>
   9.000000E+99

> <Gold.Chemscore.Hbonds>
donor molecule, donor type, donor heavy atom, donor atom, acceptor molecule, acceptor atom, score
      P1  H  7997  8008       L1    17  0.82
      P1  H 10752 10765       L1    14  1.00

> <Gold.Chemscore.Hbond.Weighted>
-6.5038

> <Gold.Chemscore.Metal.Weighted>
-0.0000

> <Gold.Chemscore.Lipo.Weighted>
-9.0349

> <Gold.Chemscore.Internal_Hbond.Weighted>
0.0000

> <Gold.Chemscore.DEClash.Weighted>
0.1242

> <Gold.Chemscore.DEInternal.Weighted>
4.3942

> <Gold.Chemscore.Rot.Weighted>
4.9876

> <Gold.Chemscore.Internal.Correction.Weighted>
   9.000000E+99

> <Gold.Protein.RotatedTorsions>
[ 6907 6896 6895 6894 ] final  172.43 input  -60.11 | X-H torsion
[ 7974 7965 7964 7962 ] final -138.90 input  175.53 | X-H torsion
[ 8008 7997 7996 7995 ] final  -66.78 input   59.86 | X-H torsion
[ 10167 10162 10161 10158 ] final   78.07 input  -65.29 | X-H torsion
[ 10718 10713 10712 10709 ] final -159.73 input   66.30 | X-H torsion
[ 10763 10752 10751 10750 ] final  171.11 input  -60.55 | X-H torsion
[ 11005 11000 10999 10996 ] final -167.97 input  -57.11 | X-H torsion

> <Gold.Protein.ActiveResidues>
 VAL166  LYS551  ARG553  GLY616  TRP617  ASP618  TYR619  PRO620  LYS621  CYS622 
 ASP623  PHE694  ASN695  SER759  ASP760  ASP761  ALA762  ILE779  LEU786  VAL792 
 PHE793  MET794  SER795  GLU796  ALA797  LYS798  CYS799  TRP800  GLU811  SER814 

> <Gold.Protein.RotatedAtoms>
  151.7844  133.3353  159.3480 H   0  0  0  0  0  0  0  0  0  0  0  0  # atno 6907 bound_to 6896
  150.7414  134.5901  159.5992 H   0  0  0  0  0  0  0  0  0  0  0  0  # atno 6908 bound_to 6896
  152.3254  134.7329  160.0354 H   0  0  0  0  0  0  0  0  0  0  0  0  # atno 6909 bound_to 6896
  144.8720  140.6381  143.5261 H   0  0  0  0  0  0  0  0  0  0  0  0  # atno 7974 bound_to 7965
  154.4756  140.0906  156.7254 H   0  0  0  0  0  0  0  0  0  0  0  0  # atno 8008 bound_to 7997
  155.4605  140.3461  155.4294 H   0  0  0  0  0  0  0  0  0  0  0  0  # atno 8009 bound_to 7997
  156.1111  140.1448  156.9325 H   0  0  0  0  0  0  0  0  0  0  0  0  # atno 8010 bound_to 7997
  139.9748  144.5868  150.7952 H   0  0  0  0  0  0  0  0  0  0  0  0  # atno 10167 bound_to 10162
  156.5723  130.8693  151.2841 H   0  0  0  0  0  0  0  0  0  0  0  0  # atno 10718 bound_to 10713
  154.4073  135.2756  155.2059 H   0  0  0  0  0  0  0  0  0  0  0  0  # atno 10763 bound_to 10752
  154.4060  135.6033  153.5928 H   0  0  0  0  0  0  0  0  0  0  0  0  # atno 10764 bound_to 10752
  152.9831  135.5938  154.4349 H   0  0  0  0  0  0  0  0  0  0  0  0  # atno 10765 bound_to 10752
  140.5473  134.5463  157.5114 H   0  0  0  0  0  0  0  0  0  0  0  0  # atno 11005 bound_to 11000
  145.4113  139.1580  143.4124 LP  0  0  0  0  0  0  0  0  0  0  0  0  # atno 17320 bound_to 7965
  146.2937  140.4217  142.8730 LP  0  0  0  0  0  0  0  0  0  0  0  0  # atno 17321 bound_to 7965
  140.7509  143.2964  151.3194 LP  0  0  0  0  0  0  0  0  0  0  0  0  # atno 17342 bound_to 10162
  139.6453  144.0462  152.2586 LP  0  0  0  0  0  0  0  0  0  0  0  0  # atno 17343 bound_to 10162
  157.7345  130.9748  150.2034 LP  0  0  0  0  0  0  0  0  0  0  0  0  # atno 17370 bound_to 10713
  156.2704  130.3721  149.8037 LP  0  0  0  0  0  0  0  0  0  0  0  0  # atno 17371 bound_to 10713
  139.9473  134.7679  156.0531 LP  0  0  0  0  0  0  0  0  0  0  0  0  # atno 17394 bound_to 11000
  141.1192  133.6618  156.3172 LP  0  0  0  0  0  0  0  0  0  0  0  0  # atno 17395 bound_to 11000

$$$$
