AV-unprocessed.smi:1594|AV-procd|sdf|6414|dock10
  -GOLD-   22720 7 53D 1   1.00000     0.00000
 Structure written by MMmdl.
 35 36  0  0  0  0  0  0  0  0  1 V2000
  151.0717  145.6696  160.0950 C   0  0  0  0  0  0  0  0  0  0  0  0
  151.7301  144.3499  160.3772 C   0  0  0  0  0  0  0  0  0  0  0  0
  152.0418  144.0266  161.6211 N   0  0  0  0  0  0  0  0  0  0  0  0
  152.6252  142.7577  161.5519 O   0  0  0  0  0  0  0  0  0  0  0  0
  152.6426  142.3631  160.2533 C   0  0  0  0  0  0  0  0  0  0  0  0
  153.2277  141.0215  159.9685 C   0  0  0  0  0  0  0  0  0  0  0  0
  152.0943  143.3280  159.4542 C   0  0  0  0  0  0  0  0  0  0  0  0
  151.9105  143.3200  157.9562 C   0  0  0  0  0  0  0  0  0  0  0  0
  151.1043  142.1027  157.4866 C   0  0  0  0  0  0  0  0  0  0  0  0
  151.4261  140.9581  157.8104 O   0  0  0  0  0  0  0  0  0  0  0  0
  150.0419  142.3727  156.7130 N   0  0  0  0  0  0  0  0  0  0  0  0
  149.1270  141.3775  156.1617 C   0  0  0  0  0  0  0  0  0  0  0  0
  149.2687  141.3261  154.6332 C   0  0  0  0  0  0  0  0  0  0  0  0
  148.2127  140.3912  154.0207 C   0  0  0  0  0  0  0  0  0  0  0  0
  146.9083  140.8115  154.4061 O   0  0  0  0  0  0  0  0  0  0  0  0
  146.7003  140.7542  155.8131 C   0  0  0  0  0  0  0  0  0  0  0  0
  147.6699  141.7088  156.5282 C   0  0  0  0  0  0  0  0  0  0  0  0
  150.2447  145.5508  159.3947 H   0  0  0  0  0  0  0  0  0  0  0  0
  151.7805  146.3715  159.6554 H   0  0  0  0  0  0  0  0  0  0  0  0
  150.6722  146.1240  161.0025 H   0  0  0  0  0  0  0  0  0  0  0  0
  152.6952  140.5322  159.1527 H   0  0  0  0  0  0  0  0  0  0  0  0
  153.1688  140.3749  160.8440 H   0  0  0  0  0  0  0  0  0  0  0  0
  154.2757  141.1116  159.6828 H   0  0  0  0  0  0  0  0  0  0  0  0
  151.3991  144.2250  157.6254 H   0  0  0  0  0  0  0  0  0  0  0  0
  152.8727  143.3113  157.4431 H   0  0  0  0  0  0  0  0  0  0  0  0
  149.8498  143.3392  156.4926 H   0  0  0  0  0  0  0  0  0  0  0  0
  149.3803  140.3935  156.5612 H   0  0  0  0  0  0  0  0  0  0  0  0
  149.1463  142.3259  154.2139 H   0  0  0  0  0  0  0  0  0  0  0  0
  150.2691  140.9913  154.3566 H   0  0  0  0  0  0  0  0  0  0  0  0
  148.2814  140.4112  152.9330 H   0  0  0  0  0  0  0  0  0  0  0  0
  148.3799  139.3587  154.3308 H   0  0  0  0  0  0  0  0  0  0  0  0
  145.6700  141.0375  156.0288 H   0  0  0  0  0  0  0  0  0  0  0  0
  146.8295  139.7310  156.1692 H   0  0  0  0  0  0  0  0  0  0  0  0
  147.5235  141.6462  157.6070 H   0  0  0  0  0  0  0  0  0  0  0  0
  147.4387  142.7355  156.2407 H   0  0  0  0  0  0  0  0  0  0  0  0
  1  2  1  0  0  0  0
  1 18  1  0  0  0  0
  1 19  1  0  0  0  0
  1 20  1  0  0  0  0
  2  7  1  0  0  0  0
  2  3  2  0  0  0  0
  3  4  1  0  0  0  0
  4  5  1  0  0  0  0
  5  6  1  0  0  0  0
  5  7  2  0  0  0  0
  6 21  1  0  0  0  0
  6 22  1  0  0  0  0
  6 23  1  0  0  0  0
  7  8  1  0  0  0  0
  8  9  1  0  0  0  0
  8 24  1  0  0  0  0
  8 25  1  0  0  0  0
  9 10  2  0  0  0  0
  9 11  1  0  0  0  0
 11 12  1  0  0  0  0
 11 26  1  0  0  0  0
 12 17  1  0  0  0  0
 12 13  1  0  0  0  0
 12 27  1  0  0  0  0
 13 14  1  0  0  0  0
 13 28  1  0  0  0  0
 13 29  1  0  0  0  0
 14 15  1  0  0  0  0
 14 30  1  0  0  0  0
 14 31  1  0  0  0  0
 15 16  1  0  0  0  0
 16 17  1  0  0  0  0
 16 32  1  0  0  0  0
 16 33  1  0  0  0  0
 17 34  1  0  0  0  0
 17 35  1  0  0  0  0
M  END
> <s_m_source_file>
AV-unprocessed.smi

> <i_m_source_file_index>
1594

> <i_lp_mmshare_version>
43012

> <i_f3d_flags>
0

> <s_epik_input>
W0NIM11jMW5vYyhbQ0gzXSljMVtDSDJdQyg9TylbTkhdW0NIXTJbQ0gyXVtDSDJdT1tDSDJdW0NIMl0y

> <s_epik_cmdline>
J2VwaWtfcHl0aG9uJywgJy1waCcsICc3LjAnLCAnLXRuJywgJzgnLCAnLW1hJywgJzIwMCcsICctbWV0YWxfYmluZGluZycsICctaW1hZScsICc8aW5maWxlLm1hZT4nLCAnLW9tYWUnLCAnPG91dGZpbGUubWFlPic=

> <r_lp_tautomer_probability>
1

> <r_epik_Ionization_Penalty>
2.34123e-08

> <r_epik_Ionization_Penalty_Charging>
0

> <r_epik_Ionization_Penalty_Neutral>
2.34123e-08

> <r_epik_State_Penalty>
-0

> <r_epik_Charging_Adjusted_Penalty>
0

> <i_epik_Tot_Q>
0

> <i_epik_Tot_abs_Q>
0

> <r_epik_Metal_State_Penalty>
-0

> <b_epik_Metal_Only>
0

> <s_lp_Force_Field>
OPLS_2005

> <r_lp_Energy>
1.65601

> <b_lp_Chiralities_Consistent>
1

> <s_lp_Variant>
AV-unprocessed.smi:1594-1

> <Gold.Version>
5.8.1

> <Gold.Id.Protein>
6NUR|6NUR_protein|mol2

> <Gold.PLP.Fitness>
36.9522

> <Gold.PLP.PLP>
-34.1680

> <Gold.PLP.part.hbond>
-1.0000

> <Gold.PLP.part.metal>
0.0000

> <Gold.PLP.part.buried>
-6.7681

> <Gold.PLP.part.nonpolar>
-28.0694

> <Gold.PLP.part.repulsive>
0.3728

> <Gold.PLP.ligand.clash>
0.0000

> <Gold.PLP.ligand.torsion>
0.1087

> <Gold.PLP.Chemscore.Hbond>
1.0000

> <Gold.PLP.Chemscore.CHOScore>
0.0000

> <Gold.PLP.Chemscore.Metal>
0.0000

> <Gold.Chemscore.Hbonds>
donor molecule, donor type, donor heavy atom, donor atom, acceptor molecule, acceptor atom, score
      L1  H    11    26       P1  8028  1.00

> <Gold.PLP.Chemscore.Internal.Correction>
0.0016

> <Gold.Rescore>
     Score         DG    S(hbond)    S(metal)    S(lipo)     H(rot)  DE(clash)    DE(int)     intcor
     15.52     -15.67       0.98        0.00      89.45       1.38       0.04       0.12       ----

> <Gold.Chemscore.Fitness>
15.5154

> <Gold.Chemscore.DG>
-15.6742

> <Gold.Chemscore.ZeroCoef>
-5.4800

> <Gold.Chemscore.Hbond>
0.9755

> <Gold.Chemscore.Metal>
0.0000

> <Gold.Chemscore.Lipo>
89.4491

> <Gold.Chemscore.Internal_Hbond>
0.0000

> <Gold.Chemscore.DEClash>
0.0409

> <Gold.Chemscore.DEInternal>
0.1179

> <Gold.Chemscore.Rot>
1.3786

> <Gold.Chemscore.Internal.Correction>
   9.000000E+99

> <Gold.Chemscore.Hbonds>
donor molecule, donor type, donor heavy atom, donor atom, acceptor molecule, acceptor atom, score
      L1  H    11    26       P1  8028  0.98

> <Gold.Chemscore.Hbond.Weighted>
-3.2580

> <Gold.Chemscore.Metal.Weighted>
-0.0000

> <Gold.Chemscore.Lipo.Weighted>
-10.4655

> <Gold.Chemscore.Internal_Hbond.Weighted>
0.0000

> <Gold.Chemscore.DEClash.Weighted>
0.0409

> <Gold.Chemscore.DEInternal.Weighted>
0.1179

> <Gold.Chemscore.Rot.Weighted>
3.5293

> <Gold.Chemscore.Internal.Correction.Weighted>
   9.000000E+99

> <Gold.Protein.RotatedTorsions>
[ 6907 6896 6895 6894 ] final  -16.03 input  -60.11 | X-H torsion
[ 7974 7965 7964 7962 ] final  -42.72 input  175.53 | X-H torsion
[ 8008 7997 7996 7995 ] final  -61.28 input   59.86 | X-H torsion
[ 10167 10162 10161 10158 ] final  -75.76 input  -65.29 | X-H torsion
[ 10718 10713 10712 10709 ] final  -53.42 input   66.30 | X-H torsion
[ 10763 10752 10751 10750 ] final  -58.97 input  -60.55 | X-H torsion
[ 11005 11000 10999 10996 ] final  -95.84 input  -57.11 | X-H torsion

> <Gold.Protein.ActiveResidues>
 VAL166  LYS551  ARG553  GLY616  TRP617  ASP618  TYR619  PRO620  LYS621  CYS622 
 ASP623  PHE694  ASN695  SER759  ASP760  ASP761  ALA762  ILE779  LEU786  VAL792 
 PHE793  MET794  SER795  GLU796  ALA797  LYS798  CYS799  TRP800  GLU811  SER814 

> <Gold.Protein.RotatedAtoms>
  151.3149  135.0804  159.9285 H   0  0  0  0  0  0  0  0  0  0  0  0  # atno 6907 bound_to 6896
  152.5269  133.9698  159.7767 H   0  0  0  0  0  0  0  0  0  0  0  0  # atno 6908 bound_to 6896
  151.0008  133.6006  159.2725 H   0  0  0  0  0  0  0  0  0  0  0  0  # atno 6909 bound_to 6896
  146.0088  140.6988  142.9234 H   0  0  0  0  0  0  0  0  0  0  0  0  # atno 7974 bound_to 7965
  154.4440  140.1021  156.6407 H   0  0  0  0  0  0  0  0  0  0  0  0  # atno 8008 bound_to 7997
  155.5505  140.3485  155.4449 H   0  0  0  0  0  0  0  0  0  0  0  0  # atno 8009 bound_to 7997
  156.0532  140.1309  157.0015 H   0  0  0  0  0  0  0  0  0  0  0  0  # atno 8010 bound_to 7997
  140.4915  143.2379  151.7900 H   0  0  0  0  0  0  0  0  0  0  0  0  # atno 10167 bound_to 10162
  156.1537  130.4151  149.9904 H   0  0  0  0  0  0  0  0  0  0  0  0  # atno 10718 bound_to 10713
  154.2464  135.6334  153.5225 H   0  0  0  0  0  0  0  0  0  0  0  0  # atno 10763 bound_to 10752
  152.9920  135.5554  154.5855 H   0  0  0  0  0  0  0  0  0  0  0  0  # atno 10764 bound_to 10752
  154.5372  135.2892  155.1102 H   0  0  0  0  0  0  0  0  0  0  0  0  # atno 10765 bound_to 10752
  141.1429  133.8055  157.0491 H   0  0  0  0  0  0  0  0  0  0  0  0  # atno 11005 bound_to 11000
  144.6945  140.3362  143.7207 LP  0  0  0  0  0  0  0  0  0  0  0  0  # atno 17320 bound_to 7965
  145.7374  139.1754  143.2396 LP  0  0  0  0  0  0  0  0  0  0  0  0  # atno 17321 bound_to 7965
  139.4852  144.4643  151.9503 LP  0  0  0  0  0  0  0  0  0  0  0  0  # atno 17342 bound_to 10162
  140.3730  144.2831  150.5917 LP  0  0  0  0  0  0  0  0  0  0  0  0  # atno 17343 bound_to 10162
  156.7754  130.9202  151.3645 LP  0  0  0  0  0  0  0  0  0  0  0  0  # atno 17370 bound_to 10713
  157.6677  130.9023  149.9970 LP  0  0  0  0  0  0  0  0  0  0  0  0  # atno 17371 bound_to 10713
  140.0644  134.9737  157.1360 LP  0  0  0  0  0  0  0  0  0  0  0  0  # atno 17394 bound_to 11000
  140.3802  134.2295  155.7171 LP  0  0  0  0  0  0  0  0  0  0  0  0  # atno 17395 bound_to 11000

$$$$
