AV-unprocessed.smi:2061|AV-procd|sdf|8364|dock6
  -GOLD-   2272011 33D 1   1.00000     0.00000
 Structure written by MMmdl.
 45 46  0  0  0  0  0  0  0  0  1 V2000
  143.3625  132.5807  150.5615 C   0  0  0  0  0  0  0  0  0  0  0  0
  144.0388  133.8105  151.0636 C   0  0  0  0  0  0  0  0  0  0  0  0
  144.0493  135.1073  150.6325 C   0  0  0  0  0  0  0  0  0  0  0  0
  144.9021  135.7490  151.5699 C   0  0  0  0  0  0  0  0  0  0  0  0
  145.1844  137.1351  151.4678 N   0  0  0  0  0  0  0  0  0  0  0  0
  145.9588  137.8748  152.2798 C   0  0  0  0  0  0  0  0  0  0  0  0
  146.5448  137.4533  153.2776 O   0  0  0  0  0  0  0  0  0  0  0  0
  146.0139  139.1501  151.8695 N   0  0  0  0  0  0  0  0  0  0  0  0
  146.7519  140.2260  152.5292 C   0  0  0  0  0  0  0  0  0  0  0  0
  146.6818  140.1305  154.0761 C   0  0  2  0  0  0  0  0  0  0  0  0
  145.7470  141.2479  154.5918 C   0  0  0  0  0  0  0  0  0  0  0  0
  148.0043  140.1134  154.7396 N   0  0  0  0  0  0  0  0  0  0  0  0
  148.6813  141.4124  154.6767 C   0  0  0  0  0  0  0  0  0  0  0  0
  150.0661  141.4128  155.3534 C   0  0  1  0  0  0  0  0  0  0  0  0
  149.9921  141.3773  156.8898 C   0  0  0  0  0  0  0  0  0  0  0  0
  150.8704  140.3559  154.8341 O   0  0  0  0  0  0  0  0  0  0  0  0
  150.2697  139.0655  154.8835 C   0  0  2  0  0  0  0  0  0  0  0  0
  151.2306  138.0699  154.2250 C   0  0  0  0  0  0  0  0  0  0  0  0
  148.9035  139.1050  154.1750 C   0  0  0  0  0  0  0  0  0  0  0  0
  145.3687  134.9190  152.4906 N   0  0  0  0  0  0  0  0  0  0  0  0
  144.8180  133.6725  152.1705 O   0  0  0  0  0  0  0  0  0  0  0  0
  142.5004  132.8348  149.9447 H   0  0  0  0  0  0  0  0  0  0  0  0
  143.0141  131.9627  151.3894 H   0  0  0  0  0  0  0  0  0  0  0  0
  144.0466  131.9840  149.9581 H   0  0  0  0  0  0  0  0  0  0  0  0
  143.5309  135.5255  149.7824 H   0  0  0  0  0  0  0  0  0  0  0  0
  144.7569  137.6131  150.6885 H   0  0  0  0  0  0  0  0  0  0  0  0
  145.4920  139.4049  151.0439 H   0  0  0  0  0  0  0  0  0  0  0  0
  147.7930  140.2390  152.2023 H   0  0  0  0  0  0  0  0  0  0  0  0
  146.3508  141.1766  152.1798 H   0  0  0  0  0  0  0  0  0  0  0  0
  146.1826  139.1865  154.3005 H   0  0  0  0  0  0  0  0  0  0  0  0
  144.8378  141.3111  153.9932 H   0  0  0  0  0  0  0  0  0  0  0  0
  146.2321  142.2240  154.5556 H   0  0  0  0  0  0  0  0  0  0  0  0
  145.4227  141.0710  155.6167 H   0  0  0  0  0  0  0  0  0  0  0  0
  148.7975  141.7081  153.6329 H   0  0  0  0  0  0  0  0  0  0  0  0
  148.0812  142.1862  155.1524 H   0  0  0  0  0  0  0  0  0  0  0  0
  150.5705  142.3406  155.0816 H   0  0  0  0  0  0  0  0  0  0  0  0
  149.4787  142.2593  157.2732 H   0  0  0  0  0  0  0  0  0  0  0  0
  150.9908  141.3608  157.3265 H   0  0  0  0  0  0  0  0  0  0  0  0
  149.4526  140.5037  157.2550 H   0  0  0  0  0  0  0  0  0  0  0  0
  150.1315  138.7694  155.9237 H   0  0  0  0  0  0  0  0  0  0  0  0
  150.8274  137.0573  154.2546 H   0  0  0  0  0  0  0  0  0  0  0  0
  152.1926  138.0596  154.7380 H   0  0  0  0  0  0  0  0  0  0  0  0
  151.4124  138.3280  153.1813 H   0  0  0  0  0  0  0  0  0  0  0  0
  148.4651  138.1119  154.2613 H   0  0  0  0  0  0  0  0  0  0  0  0
  149.0473  139.2945  153.1101 H   0  0  0  0  0  0  0  0  0  0  0  0
  1  2  1  0  0  0  0
  1 22  1  0  0  0  0
  1 23  1  0  0  0  0
  1 24  1  0  0  0  0
  2 21  1  0  0  0  0
  2  3  2  0  0  0  0
  3  4  1  0  0  0  0
  3 25  1  0  0  0  0
  4  5  1  0  0  0  0
  4 20  2  0  0  0  0
  5  6  1  0  0  0  0
  5 26  1  0  0  0  0
  6  7  2  0  0  0  0
  6  8  1  0  0  0  0
  8  9  1  0  0  0  0
  8 27  1  0  0  0  0
  9 10  1  0  0  0  0
  9 28  1  0  0  0  0
  9 29  1  0  0  0  0
 10 11  1  0  0  0  0
 10 12  1  0  0  0  0
 10 30  1  0  0  0  0
 11 31  1  0  0  0  0
 11 32  1  0  0  0  0
 11 33  1  0  0  0  0
 12 19  1  0  0  0  0
 12 13  1  0  0  0  0
 13 14  1  0  0  0  0
 13 34  1  0  0  0  0
 13 35  1  0  0  0  0
 14 15  1  0  0  0  0
 14 16  1  0  0  0  0
 14 36  1  0  0  0  0
 15 37  1  0  0  0  0
 15 38  1  0  0  0  0
 15 39  1  0  0  0  0
 16 17  1  0  0  0  0
 17 18  1  0  0  0  0
 17 19  1  0  0  0  0
 17 40  1  0  0  0  0
 18 41  1  0  0  0  0
 18 42  1  0  0  0  0
 18 43  1  0  0  0  0
 19 44  1  0  0  0  0
 19 45  1  0  0  0  0
 20 21  1  0  0  0  0
M  END
> <s_m_source_file>
AV-unprocessed.smi

> <i_m_source_file_index>
2061

> <i_lp_mmshare_version>
43012

> <i_f3d_flags>
0

> <s_epik_input>
W0NIM11jMVtjSF1jKG5vMSlbTkhdQyg9TylbTkhdW0NIMl1bQ0BIXShbQ0gzXSlOMltDSDJdW0NAQEhdKFtDSDNdKU9bQ0BASF0oW0NIM10pW0NIMl0y

> <s_epik_cmdline>
J2VwaWtfcHl0aG9uJywgJy1waCcsICc3LjAnLCAnLXRuJywgJzgnLCAnLW1hJywgJzIwMCcsICctbWV0YWxfYmluZGluZycsICctaW1hZScsICc8aW5maWxlLm1hZT4nLCAnLW9tYWUnLCAnPG91dGZpbGUubWFlPic=

> <r_epik_Ionization_Penalty>
0.214073

> <r_epik_Ionization_Penalty_Charging>
0

> <r_epik_Ionization_Penalty_Neutral>
0.214073

> <r_epik_State_Penalty>
0.204211

> <r_epik_Charging_Adjusted_Penalty>
0.204211

> <i_epik_Tot_Q>
0

> <i_epik_Tot_abs_Q>
0

> <r_epik_Metal_State_Penalty>
0.217067

> <b_epik_Metal_Only>
0

> <s_lp_Force_Field>
OPLS_2005

> <r_lp_Energy>
31.479

> <b_lp_Chiralities_Consistent>
1

> <s_lp_Variant>
AV-unprocessed.smi:2061-5

> <Gold.Version>
5.8.1

> <Gold.Id.Protein>
6NUR|6NUR_protein|mol2

> <Gold.PLP.Fitness>
40.8274

> <Gold.PLP.PLP>
-34.9872

> <Gold.PLP.part.hbond>
-3.9576

> <Gold.PLP.part.metal>
0.0000

> <Gold.PLP.part.buried>
-1.3159

> <Gold.PLP.part.nonpolar>
-31.8054

> <Gold.PLP.part.repulsive>
2.0360

> <Gold.PLP.ligand.clash>
0.0000

> <Gold.PLP.ligand.torsion>
0.9149

> <Gold.PLP.Chemscore.Hbond>
2.5437

> <Gold.PLP.Chemscore.CHOScore>
0.0000

> <Gold.PLP.Chemscore.Metal>
0.0000

> <Gold.Chemscore.Hbonds>
donor molecule, donor type, donor heavy atom, donor atom, acceptor molecule, acceptor atom, score
      L1  H     5    26       P1 10171  1.00
      L1  H     8    27       P1 10171  0.53
      P1  H  7989  7998       L1    16  1.00

> <Gold.PLP.Chemscore.Internal.Correction>
0.0390

> <Gold.Rescore>
     Score         DG    S(hbond)    S(metal)    S(lipo)     H(rot)  DE(clash)    DE(int)     intcor
     13.97     -17.78       2.19        0.00      76.54       1.55       0.10       3.72       ----

> <Gold.Chemscore.Fitness>
13.9702

> <Gold.Chemscore.DG>
-17.7833

> <Gold.Chemscore.ZeroCoef>
-5.4800

> <Gold.Chemscore.Hbond>
2.1884

> <Gold.Chemscore.Metal>
0.0000

> <Gold.Chemscore.Lipo>
76.5397

> <Gold.Chemscore.Internal_Hbond>
0.0000

> <Gold.Chemscore.DEClash>
0.0980

> <Gold.Chemscore.DEInternal>
3.7151

> <Gold.Chemscore.Rot>
1.5474

> <Gold.Chemscore.Internal.Correction>
   9.000000E+99

> <Gold.Chemscore.Hbonds>
donor molecule, donor type, donor heavy atom, donor atom, acceptor molecule, acceptor atom, score
      L1  H     5    26       P1 10171  0.98
      L1  H     8    27       P1 10171  0.53
      P1  H  7989  7998       L1    16  0.68

> <Gold.Chemscore.Hbond.Weighted>
-7.3094

> <Gold.Chemscore.Metal.Weighted>
-0.0000

> <Gold.Chemscore.Lipo.Weighted>
-8.9551

> <Gold.Chemscore.Internal_Hbond.Weighted>
0.0000

> <Gold.Chemscore.DEClash.Weighted>
0.0980

> <Gold.Chemscore.DEInternal.Weighted>
3.7151

> <Gold.Chemscore.Rot.Weighted>
3.9612

> <Gold.Chemscore.Internal.Correction.Weighted>
   9.000000E+99

> <Gold.Protein.RotatedTorsions>
[ 6907 6896 6895 6894 ] final -126.18 input  -60.11 | X-H torsion
[ 7974 7965 7964 7962 ] final -168.29 input  175.53 | X-H torsion
[ 8008 7997 7996 7995 ] final  165.30 input   59.86 | X-H torsion
[ 10167 10162 10161 10158 ] final -128.58 input  -65.29 | X-H torsion
[ 10718 10713 10712 10709 ] final -160.26 input   66.30 | X-H torsion
[ 10763 10752 10751 10750 ] final -129.03 input  -60.55 | X-H torsion
[ 11005 11000 10999 10996 ] final  -29.46 input  -57.11 | X-H torsion

> <Gold.Protein.ActiveResidues>
 VAL166  LYS551  ARG553  GLY616  TRP617  ASP618  TYR619  PRO620  LYS621  CYS622 
 ASP623  PHE694  ASN695  SER759  ASP760  ASP761  ALA762  ILE779  LEU786  VAL792 
 PHE793  MET794  SER795  GLU796  ALA797  LYS798  CYS799  TRP800  GLU811  SER814 

> <Gold.Protein.RotatedAtoms>
  150.8943  133.7202  159.2895 H   0  0  0  0  0  0  0  0  0  0  0  0  # atno 6907 bound_to 6896
  151.4741  135.1046  159.9769 H   0  0  0  0  0  0  0  0  0  0  0  0  # atno 6908 bound_to 6896
  152.4839  133.8276  159.7141 H   0  0  0  0  0  0  0  0  0  0  0  0  # atno 6909 bound_to 6896
  144.7206  140.2391  143.6294 H   0  0  0  0  0  0  0  0  0  0  0  0  # atno 7974 bound_to 7965
  156.1812  140.1674  156.8271 H   0  0  0  0  0  0  0  0  0  0  0  0  # atno 8008 bound_to 7997
  154.5362  140.0746  156.8464 H   0  0  0  0  0  0  0  0  0  0  0  0  # atno 8009 bound_to 7997
  155.3307  140.3379  155.4242 H   0  0  0  0  0  0  0  0  0  0  0  0  # atno 8010 bound_to 7997
  139.9488  143.6080  152.2482 H   0  0  0  0  0  0  0  0  0  0  0  0  # atno 10167 bound_to 10162
  156.5796  130.8724  151.2861 H   0  0  0  0  0  0  0  0  0  0  0  0  # atno 10718 bound_to 10713
  154.8757  135.3908  154.3854 H   0  0  0  0  0  0  0  0  0  0  0  0  # atno 10763 bound_to 10752
  153.4596  135.7029  153.6063 H   0  0  0  0  0  0  0  0  0  0  0  0  # atno 10764 bound_to 10752
  153.4568  135.3821  155.2284 H   0  0  0  0  0  0  0  0  0  0  0  0  # atno 10765 bound_to 10752
  140.9298  133.7345  156.0920 H   0  0  0  0  0  0  0  0  0  0  0  0  # atno 11005 bound_to 11000
  145.8337  139.2097  143.1868 LP  0  0  0  0  0  0  0  0  0  0  0  0  # atno 17320 bound_to 7965
  146.0408  140.8166  142.9829 LP  0  0  0  0  0  0  0  0  0  0  0  0  # atno 17321 bound_to 7965
  139.6645  144.7662  151.1899 LP  0  0  0  0  0  0  0  0  0  0  0  0  # atno 17342 bound_to 10162
  140.7589  143.5958  150.8749 LP  0  0  0  0  0  0  0  0  0  0  0  0  # atno 17343 bound_to 10162
  157.7329  130.9723  150.1953 LP  0  0  0  0  0  0  0  0  0  0  0  0  # atno 17370 bound_to 10713
  156.2643  130.3714  149.8098 LP  0  0  0  0  0  0  0  0  0  0  0  0  # atno 17371 bound_to 10713
  140.7877  134.3653  157.5472 LP  0  0  0  0  0  0  0  0  0  0  0  0  # atno 17394 bound_to 11000
  139.8794  134.9121  156.3052 LP  0  0  0  0  0  0  0  0  0  0  0  0  # atno 17395 bound_to 11000

$$$$
