AV-unprocessed.smi:62|AV-procd|sdf|602|dock8
  -GOLD-   2262016493D 1   1.00000     0.00000
 Structure written by MMmdl.
 31 32  0  0  0  0  0  0  0  0  3 V2000
  151.8256  142.6328  159.2459 C   0  0  0  0  0  0  0  0  0  0  0  0
  151.4695  141.9790  158.0051 N   0  0  0  0  0  0  0  0  0  0  0  0
  150.4454  142.2773  157.1376 C   0  0  0  0  0  0  0  0  0  0  0  0
  150.4965  141.3927  156.0952 C   0  0  0  0  0  0  0  0  0  0  0  0
  149.5491  141.3928  154.9153 C   0  0  0  0  0  0  0  0  0  0  0  0
  148.3214  142.1689  155.2104 N   0  3  2  0  0  0  0  0  0  0  0  0
  147.5816  141.7052  156.4016 C   0  0  0  0  0  0  0  0  0  0  0  0
  146.1641  142.2340  156.2108 C   0  0  0  0  0  0  0  0  0  0  0  0
  145.9540  142.0728  154.7078 C   0  0  1  0  0  0  0  0  0  0  0  0
  144.9953  142.9827  154.2110 O   0  0  0  0  0  0  0  0  0  0  0  0
  147.3466  142.2965  154.0991 C   0  0  0  0  0  0  0  0  0  0  0  0
  151.6156  140.5558  156.4399 C   0  0  0  0  0  0  0  0  0  0  0  0
  152.0751  139.3970  155.5941 C   0  0  0  0  0  0  0  0  0  0  0  0
  151.5180  139.1514  154.5028 O   0  0  0  0  0  0  0  0  0  0  0  0
  153.0218  138.7020  156.0237 O   0  5  0  0  0  0  0  0  0  0  0  0
  152.1883  140.9261  157.5778 N   0  0  0  0  0  0  0  0  0  0  0  0
  151.3214  143.5971  159.3179 H   0  0  0  0  0  0  0  0  0  0  0  0
  152.9034  142.7944  159.2868 H   0  0  0  0  0  0  0  0  0  0  0  0
  151.5242  142.0097  160.0884 H   0  0  0  0  0  0  0  0  0  0  0  0
  149.7674  143.0962  157.3280 H   0  0  0  0  0  0  0  0  0  0  0  0
  149.9966  141.7443  153.9885 H   0  0  0  0  0  0  0  0  0  0  0  0
  149.2424  140.3685  154.7002 H   0  0  0  0  0  0  0  0  0  0  0  0
  147.5661  140.6141  156.4263 H   0  0  0  0  0  0  0  0  0  0  0  0
  148.0411  142.0595  157.3248 H   0  0  0  0  0  0  0  0  0  0  0  0
  145.4239  141.6969  156.8047 H   0  0  0  0  0  0  0  0  0  0  0  0
  146.1258  143.2876  156.4927 H   0  0  0  0  0  0  0  0  0  0  0  0
  145.6250  141.0540  154.4973 H   0  0  0  0  0  0  0  0  0  0  0  0
  144.1558  142.5490  154.1791 H   0  0  0  0  0  0  0  0  0  0  0  0
  147.4490  143.2945  153.6710 H   0  0  0  0  0  0  0  0  0  0  0  0
  147.5222  141.5783  153.3006 H   0  0  0  0  0  0  0  0  0  0  0  0
  148.6161  143.1112  155.4213 H   0  0  0  0  0  0  0  0  0  0  0  0
  1  2  1  0  0  0  0
  1 17  1  0  0  0  0
  1 18  1  0  0  0  0
  1 19  1  0  0  0  0
  2 16  1  0  0  0  0
  2  3  1  0  0  0  0
  3  4  2  0  0  0  0
  3 20  1  0  0  0  0
  4  5  1  0  0  0  0
  4 12  1  0  0  0  0
  5  6  1  0  0  0  0
  5 21  1  0  0  0  0
  5 22  1  0  0  0  0
  6 11  1  0  0  0  0
  6  7  1  0  0  0  0
  6 31  1  0  0  0  0
  7  8  1  0  0  0  0
  7 23  1  0  0  0  0
  7 24  1  0  0  0  0
  8  9  1  0  0  0  0
  8 25  1  0  0  0  0
  8 26  1  0  0  0  0
  9 10  1  0  0  0  0
  9 11  1  0  0  0  0
  9 27  1  0  0  0  0
 10 28  1  0  0  0  0
 11 29  1  0  0  0  0
 11 30  1  0  0  0  0
 12 13  1  0  0  0  0
 12 16  2  0  0  0  0
 13 14  2  0  0  0  0
 13 15  1  0  0  0  0
M  CHG  1   6   1
M  CHG  1  15  -1
M  END
> <s_m_source_file>
AV-unprocessed.smi

> <i_m_source_file_index>
62

> <i_lp_mmshare_version>
43012

> <i_f3d_flags>
0

> <s_epik_input>
W0NIM11uMVtjSF1jKGMobjEpQyg9TylbT0hdKVtDSDJdTjJbQ0gyXVtDSDJdW0NAQEhdKFtPSF0pW0NIMl0y

> <s_epik_cmdline>
J2VwaWtfcHl0aG9uJywgJy1waCcsICc3LjAnLCAnLXRuJywgJzgnLCAnLW1hJywgJzIwMCcsICctbWV0YWxfYmluZGluZycsICctaW1hZScsICc8aW5maWxlLm1hZT4nLCAnLW9tYWUnLCAnPG91dGZpbGUubWFlPic=

> <r_epik_Ionization_Penalty>
0.0522993

> <r_epik_Ionization_Penalty_Charging>
0.0522915

> <r_epik_Ionization_Penalty_Neutral>
7.84975e-06

> <r_epik_State_Penalty>
0.0448084

> <r_epik_Charging_Adjusted_Penalty>
0.0970998

> <i_epik_Tot_Q>
0

> <i_epik_Tot_abs_Q>
2

> <r_epik_Metal_State_Penalty>
0.0448097

> <b_epik_Metal_Only>
0

> <s_lp_Force_Field>
OPLS_2005

> <r_lp_Energy>
19.3892

> <b_lp_Chiralities_Consistent>
1

> <s_lp_Variant>
AV-unprocessed.smi:62-2

> <Gold.Version>
5.8.1

> <Gold.Id.Protein>
6NUR|6NUR_protein|mol2

> <Gold.PLP.Fitness>
47.4418

> <Gold.PLP.PLP>
-30.0907

> <Gold.PLP.part.hbond>
-3.8855

> <Gold.PLP.part.metal>
0.0000

> <Gold.PLP.part.buried>
-2.4118

> <Gold.PLP.part.nonpolar>
-23.3085

> <Gold.PLP.part.repulsive>
0.2555

> <Gold.PLP.ligand.clash>
0.0000

> <Gold.PLP.ligand.torsion>
0.2480

> <Gold.PLP.Chemscore.Hbond>
5.0000

> <Gold.PLP.Chemscore.CHOScore>
0.9457

> <Gold.PLP.Chemscore.Metal>
0.0000

> <Gold.Chemscore.Hbonds>
donor molecule, donor type, donor heavy atom, donor atom, acceptor molecule, acceptor atom, score
      L1  H     6    31       P1  8028  2.00
      P1  H  7989  7998       L1    14  1.00
      P1  H  7997  8008       L1    15  2.00
      L1  C     3    20       P1  8028  0.95

> <Gold.PLP.Chemscore.Internal.Correction>
0.0099

> <Gold.Rescore>
     Score         DG    S(hbond)    S(metal)    S(lipo)     H(rot)  DE(clash)    DE(int)     intcor
     14.54     -15.94       2.54        0.00      56.45       1.81       0.19       1.22       ----

> <Gold.Chemscore.Fitness>
14.5388

> <Gold.Chemscore.DG>
-15.9426

> <Gold.Chemscore.ZeroCoef>
-5.4800

> <Gold.Chemscore.Hbond>
2.5418

> <Gold.Chemscore.Metal>
0.0000

> <Gold.Chemscore.Lipo>
56.4476

> <Gold.Chemscore.Internal_Hbond>
0.0000

> <Gold.Chemscore.DEClash>
0.1850

> <Gold.Chemscore.DEInternal>
1.2188

> <Gold.Chemscore.Rot>
1.8091

> <Gold.Chemscore.Internal.Correction>
   9.000000E+99

> <Gold.Chemscore.Hbonds>
donor molecule, donor type, donor heavy atom, donor atom, acceptor molecule, acceptor atom, score
      L1  H     6    31       P1  8028  1.00
      P1  H  7989  7998       L1    14  0.43
      P1  H  7997  8008       L1    15  0.33

> <Gold.Chemscore.Hbond.Weighted>
-8.4896

> <Gold.Chemscore.Metal.Weighted>
-0.0000

> <Gold.Chemscore.Lipo.Weighted>
-6.6044

> <Gold.Chemscore.Internal_Hbond.Weighted>
0.0000

> <Gold.Chemscore.DEClash.Weighted>
0.1850

> <Gold.Chemscore.DEInternal.Weighted>
1.2188

> <Gold.Chemscore.Rot.Weighted>
4.6314

> <Gold.Chemscore.Internal.Correction.Weighted>
   9.000000E+99

> <Gold.Protein.RotatedTorsions>
[ 6907 6896 6895 6894 ] final  -87.11 input  -60.11 | X-H torsion
[ 7974 7965 7964 7962 ] final  -81.07 input  175.53 | X-H torsion
[ 8008 7997 7996 7995 ] final  -52.26 input   59.86 | X-H torsion
[ 10167 10162 10161 10158 ] final -172.70 input  -65.29 | X-H torsion
[ 10718 10713 10712 10709 ] final  -93.98 input   66.30 | X-H torsion
[ 10763 10752 10751 10750 ] final  130.89 input  -60.55 | X-H torsion
[ 11005 11000 10999 10996 ] final  -17.91 input  -57.11 | X-H torsion

> <Gold.Protein.ActiveResidues>
 VAL166  LYS551  ARG553  GLY616  TRP617  ASP618  TYR619  PRO620  LYS621  CYS622 
 ASP623  PHE694  ASN695  SER759  ASP760  ASP761  ALA762  ILE779  LEU786  VAL792 
 PHE793  MET794  SER795  GLU796  ALA797  LYS798  CYS799  TRP800  GLU811  SER814 

> <Gold.Protein.RotatedAtoms>
  150.6866  134.2947  159.4681 H   0  0  0  0  0  0  0  0  0  0  0  0  # atno 6907 bound_to 6896
  152.0849  134.9444  160.0582 H   0  0  0  0  0  0  0  0  0  0  0  0  # atno 6908 bound_to 6896
  152.0782  133.4105  159.4526 H   0  0  0  0  0  0  0  0  0  0  0  0  # atno 6909 bound_to 6896
  145.5516  140.9496  143.1496 H   0  0  0  0  0  0  0  0  0  0  0  0  # atno 7974 bound_to 7965
  154.4102  140.1228  156.4962 H   0  0  0  0  0  0  0  0  0  0  0  0  # atno 8008 bound_to 7997
  155.6940  140.3495  155.4886 H   0  0  0  0  0  0  0  0  0  0  0  0  # atno 8009 bound_to 7997
  155.9443  140.1093  157.1019 H   0  0  0  0  0  0  0  0  0  0  0  0  # atno 8010 bound_to 7997
  139.5730  144.1598  152.1410 H   0  0  0  0  0  0  0  0  0  0  0  0  # atno 10167 bound_to 10162
  156.0020  130.5049  150.5858 H   0  0  0  0  0  0  0  0  0  0  0  0  # atno 10718 bound_to 10713
  153.7654  135.3190  155.3344 H   0  0  0  0  0  0  0  0  0  0  0  0  # atno 10763 bound_to 10752
  154.8215  135.4600  154.0796 H   0  0  0  0  0  0  0  0  0  0  0  0  # atno 10764 bound_to 10752
  153.2040  135.6926  153.8280 H   0  0  0  0  0  0  0  0  0  0  0  0  # atno 10765 bound_to 10752
  140.8215  133.8064  155.9665 H   0  0  0  0  0  0  0  0  0  0  0  0  # atno 11005 bound_to 11000
  144.7527  139.7154  143.7267 LP  0  0  0  0  0  0  0  0  0  0  0  0  # atno 17320 bound_to 7965
  146.1913  139.5155  142.9803 LP  0  0  0  0  0  0  0  0  0  0  0  0  # atno 17321 bound_to 7965
  140.1135  144.5436  150.6909 LP  0  0  0  0  0  0  0  0  0  0  0  0  # atno 17342 bound_to 10162
  140.7013  143.2437  151.4855 LP  0  0  0  0  0  0  0  0  0  0  0  0  # atno 17343 bound_to 10162
  157.3731  131.0769  151.1541 LP  0  0  0  0  0  0  0  0  0  0  0  0  # atno 17370 bound_to 10713
  157.2288  130.6515  149.5841 LP  0  0  0  0  0  0  0  0  0  0  0  0  # atno 17371 bound_to 10713
  140.9093  134.2280  157.4995 LP  0  0  0  0  0  0  0  0  0  0  0  0  # atno 17394 bound_to 11000
  139.8708  134.9743  156.4840 LP  0  0  0  0  0  0  0  0  0  0  0  0  # atno 17395 bound_to 11000

$$$$
