#       Name:                AV-unprocessed.smi:136
#       Creating user name   scv26
#       Creation time:       Thu Mar 26 18:31:42 2020


#       File generated by GOLD software.
#

@<TRIPOS>MOLECULE
AV-unprocessed.smi:136
    65    69     1
SMALL
NO_CHARGES


@<TRIPOS>ATOM
      1 ****        -1.6120   0.8935   0.3244 O.2            1 S1                 0.0000
      2 ****        -0.7973  -0.0309   0.2917 C.2            1 S1                 0.0000
      3 ****         0.7005   0.2743   0.0770 C.3            1 S1                 0.0000
      4 ****         1.0124   1.7208   0.0941 N.am           1 S1                 0.0000
      5 ****         1.2794   2.3414   1.3399 C.2            1 S1                 0.0000
      6 ****         1.2723   1.6962   2.3893 O.2            1 S1                 0.0000
      7 ****         1.5472   3.7741   1.2854 C.2            1 S1                 0.0000
      8 ****         1.8124   4.4448   2.4194 F              1 S1                 0.0000
      9 ****         1.5309   4.4405   0.1127 C.2            1 S1                 0.0000
     10 ****         1.2647   3.8221  -1.0960 N.am           1 S1                 0.0000
     11 ****         1.2427   4.5861  -2.4026 C.3            1 S1                 0.0000
     12 ****         2.5226   4.3081  -3.2121 C.3            1 S1                 0.0000
     13 ****         2.9963   5.7015  -3.5729 C.3            1 S1                 0.0000
     14 ****         2.4900   6.5198  -2.3946 C.3            1 S1                 0.0000
     15 ****         1.2055   5.9622  -2.1493 O.3            1 S1                 0.0000
     16 ****         0.9918   2.4373  -1.1259 C.2            1 S1                 0.0000
     17 ****         0.7386   1.8710  -2.1917 O.2            1 S1                 0.0000
     18 ****        -1.1765  -1.3208   0.4311 N.am           1 S1                 0.0000
     19 ****        -0.3271  -2.3687   0.2817 N.2            1 S1                 0.0000
     20 ****        -0.9796  -3.4689   0.3636 C.2            1 S1                 0.0000
     21 ****        -0.3732  -4.8147   0.2593 C.ar           1 S1                 0.0000
     22 ****         1.0298  -4.9376   0.1391 C.ar           1 S1                 0.0000
     23 ****         1.6076  -6.2191   0.0471 C.ar           1 S1                 0.0000
     24 ****         0.7914  -7.3678   0.0732 C.ar           1 S1                 0.0000
     25 ****         1.5054  -8.9345  -0.0378 Cl             1 S1                 0.0000
     26 ****        -0.6073  -7.2392   0.1905 C.ar           1 S1                 0.0000
     27 ****        -1.1966  -5.9632   0.2841 C.ar           1 S1                 0.0000
     28 ****        -2.4422  -3.2862   0.5920 C.3            1 S1                 0.0000
     29 ****        -2.5555  -1.7623   0.6739 C.3            1 S1                 0.0000
     30 ****        -3.1049  -1.2848   1.9863 C.2            1 S1                 0.0000
     31 ****        -4.2965  -0.7258   2.3568 C.2            1 S1                 0.0000
     32 ****        -4.2148  -0.4984   3.7584 C.2            1 S1                 0.0000
     33 ****        -2.9811  -0.9420   4.1410 C.2            1 S1                 0.0000
     34 ****        -2.2934  -1.4295   3.0736 O.3            1 S1                 0.0000
     35 ****         1.2816  -0.2461   0.8403 H              1 S1                 0.0000
     36 ****         1.0182  -0.1848  -0.8603 H              1 S1                 0.0000
     37 ****         1.7337   5.4999   0.1419 H              1 S1                 0.0000
     38 ****         0.3209   4.2906  -2.9069 H              1 S1                 0.0000
     39 ****         3.2627   3.8057  -2.5869 H              1 S1                 0.0000
     40 ****         2.3101   3.6848  -4.0811 H              1 S1                 0.0000
     41 ****         4.0767   5.7655  -3.7047 H              1 S1                 0.0000
     42 ****         2.5167   6.0354  -4.4939 H              1 S1                 0.0000
     43 ****         3.1328   6.3834  -1.5240 H              1 S1                 0.0000
     44 ****         2.4292   7.5856  -2.6149 H              1 S1                 0.0000
     45 ****         1.6727  -4.0694   0.1190 H              1 S1                 0.0000
     46 ****         2.6793  -6.3195  -0.0418 H              1 S1                 0.0000
     47 ****        -1.2312  -8.1208   0.2101 H              1 S1                 0.0000
     48 ****        -2.2703  -5.8923   0.3735 H              1 S1                 0.0000
     49 ****        -3.0259  -3.6869  -0.2375 H              1 S1                 0.0000
     50 ****        -2.7601  -3.7757   1.5138 H              1 S1                 0.0000
     51 ****        -3.1874  -1.4002  -0.1391 H              1 S1                 0.0000
     52 ****        -5.1231  -0.5039   1.6983 H              1 S1                 0.0000
     53 ****        -4.9637  -0.0655   4.4051 H              1 S1                 0.0000
     54 ****        -2.4578  -0.9845   5.0847 H              1 S1                 0.0000
     55 ****        -1.3018   1.8375   0.2121 LP             1 S1                 0.0000
     56 ****        -2.5831   0.6994   0.4633 LP             1 S1                 0.0000
     57 ****         1.0756   0.7159   2.3722 LP             1 S1                 0.0000
     58 ****         1.4633   2.1528   3.2583 LP             1 S1                 0.0000
     59 ****         0.9496   6.1195  -1.1954 LP             1 S1                 0.0000
     60 ****         0.5333   6.3945  -2.7504 LP             1 S1                 0.0000
     61 ****         0.5437   0.8902  -2.2028 LP             1 S1                 0.0000
     62 ****         0.7283   2.3925  -3.0448 LP             1 S1                 0.0000
     63 ****         0.6586  -2.2938   0.1306 LP             1 S1                 0.0000
     64 ****        -1.4471  -0.9128   2.9435 LP             1 S1                 0.0000
     65 ****        -2.0758  -2.3952   3.2155 LP             1 S1                 0.0000
@<TRIPOS>BOND
    1    1    2 2     
    2    2    3 1     
    3    2   18 am    
    4    3    4 1     
    5    3   35 1     
    6    3   36 1     
    7    4   16 am    
    8    4    5 am    
    9    5    6 2     
   10    5    7 1     
   11    7    8 1     
   12    7    9 2     
   13    9   10 1     
   14    9   37 1     
   15   10   11 1     
   16   10   16 am    
   17   11   15 1     
   18   11   12 1     
   19   11   38 1     
   20   12   13 1     
   21   12   39 1     
   22   12   40 1     
   23   13   14 1     
   24   13   41 1     
   25   13   42 1     
   26   14   15 1     
   27   14   43 1     
   28   14   44 1     
   29   16   17 2     
   30   18   29 1     
   31   18   19 1     
   32   19   20 2     
   33   20   21 1     
   34   20   28 1     
   35   21   27 ar    
   36   21   22 ar    
   37   22   23 ar    
   38   22   45 1     
   39   23   24 ar    
   40   23   46 1     
   41   24   25 1     
   42   24   26 ar    
   43   26   27 ar    
   44   26   47 1     
   45   27   48 1     
   46   28   29 1     
   47   28   49 1     
   48   28   50 1     
   49   29   30 1     
   50   29   51 1     
   51   30   34 1     
   52   30   31 2     
   53   31   32 1     
   54   31   52 1     
   55   32   33 2     
   56   32   53 1     
   57   33   34 1     
   58   33   54 1     
   59    1   55 1     
   60    1   56 1     
   61    6   57 1     
   62    6   58 1     
   63   15   59 1     
   64   15   60 1     
   65   17   61 1     
   66   17   62 1     
   67   19   63 1     
   68   34   64 1     
   69   34   65 1     
@<TRIPOS>SUBSTRUCTURE
      1 S1             1
@<TRIPOS>SET
LONE_PAIRS      STATIC     ATOMS    <user>   **** ""
11 55 56 57 58 59 60 61 62 63 64 65
ATOM$BLUE        STATIC     ATOMS    COLORGROUP SYSTEM
11 55 56 57 58 59 60 61 62 63 64 65
