AV-unprocessed.smi:1776|AV-procd|sdf|7175|dock9
  -GOLD-   22720 8413D 1   1.00000     0.00000
 Structure written by MMmdl.
 30 31  0  0  0  0  0  0  0  0  2 V2000
  154.9316  141.6829  163.5193 O   0  0  0  0  0  0  0  0  0  0  0  0
  155.2765  140.5704  163.1213 C   0  0  0  0  0  0  0  0  0  0  0  0
  154.9612  140.0411  161.9219 N   0  0  0  0  0  0  0  0  0  0  0  0
  154.1993  140.5686  160.8637 C   0  0  0  0  0  0  0  0  0  0  0  0
  153.5582  141.7708  160.8769 C   0  0  0  0  0  0  0  0  0  0  0  0
  152.7786  142.2527  159.7435 C   0  0  0  0  0  0  0  0  0  0  0  0
  152.1304  143.6250  159.6890 C   0  0  0  0  0  0  0  0  0  0  0  0
  152.1968  144.2351  160.8727 F   0  0  0  0  0  0  0  0  0  0  0  0
  152.7562  144.3870  158.7932 F   0  0  0  0  0  0  0  0  0  0  0  0
  150.8486  143.5341  159.3341 F   0  0  0  0  0  0  0  0  0  0  0  0
  152.7889  141.3657  158.6848 C   0  0  0  0  0  0  0  0  0  0  0  0
  153.3757  140.1522  158.5977 N   0  5  0  0  0  0  0  0  0  0  0  0
  154.0995  139.7100  159.6644 C   0  0  0  0  0  0  0  0  0  0  0  0
  154.6658  138.6163  159.6479 O   0  0  0  0  0  0  0  0  0  0  0  0
  156.1247  139.6638  164.0262 C   0  0  2  0  0  0  0  0  0  0  0  0
  155.4990  139.4359  165.4224 C   0  0  0  0  0  0  0  0  0  0  0  0
  156.3681  138.6230  166.2009 O   0  0  0  0  0  0  0  0  0  0  0  0
  157.6404  139.2340  166.3639 C   0  0  0  0  0  0  0  0  0  0  0  0
  158.2709  139.4500  164.9789 C   0  0  0  0  0  0  0  0  0  0  0  0
  157.4059  140.2646  164.1997 O   0  0  0  0  0  0  0  0  0  0  0  0
  155.3417  139.1243  161.7348 H   0  0  0  0  0  0  0  0  0  0  0  0
  153.5941  142.4147  161.7388 H   0  0  0  0  0  0  0  0  0  0  0  0
  152.2472  141.6805  157.7676 H   0  0  0  0  0  0  0  0  0  0  0  0
  156.2419  138.7062  163.5157 H   0  0  0  0  0  0  0  0  0  0  0  0
  155.3165  140.3822  165.9350 H   0  0  0  0  0  0  0  0  0  0  0  0
  154.5390  138.9258  165.3363 H   0  0  0  0  0  0  0  0  0  0  0  0
  157.5405  140.1801  166.8981 H   0  0  0  0  0  0  0  0  0  0  0  0
  158.2720  138.5862  166.9717 H   0  0  0  0  0  0  0  0  0  0  0  0
  159.2365  139.9465  165.0746 H   0  0  0  0  0  0  0  0  0  0  0  0
  158.4463  138.4973  164.4768 H   0  0  0  0  0  0  0  0  0  0  0  0
  1  2  2  0  0  0  0
  2  3  1  0  0  0  0
  2 15  1  0  0  0  0
  3  4  1  0  0  0  0
  3 21  1  0  0  0  0
  4 13  1  0  0  0  0
  4  5  2  0  0  0  0
  5  6  1  0  0  0  0
  5 22  1  0  0  0  0
  6  7  1  0  0  0  0
  6 11  2  0  0  0  0
  7  8  1  0  0  0  0
  7  9  1  0  0  0  0
  7 10  1  0  0  0  0
 11 12  1  0  0  0  0
 11 23  1  0  0  0  0
 12 13  1  0  0  0  0
 13 14  2  0  0  0  0
 15 20  1  0  0  0  0
 15 16  1  0  0  0  0
 15 24  1  0  0  0  0
 16 17  1  0  0  0  0
 16 25  1  0  0  0  0
 16 26  1  0  0  0  0
 17 18  1  0  0  0  0
 18 19  1  0  0  0  0
 18 27  1  0  0  0  0
 18 28  1  0  0  0  0
 19 20  1  0  0  0  0
 19 29  1  0  0  0  0
 19 30  1  0  0  0  0
M  CHG  1  12  -1
M  END
> <s_m_source_file>
AV-unprocessed.smi

> <i_m_source_file_index>
1776

> <i_lp_mmshare_version>
43012

> <i_f3d_flags>
0

> <s_epik_input>
TzFbQ0gyXVtDSDJdT1tDSDJdW0NASF0xQyg9TylbTkhdYzJbY0hdYyhDKEYpKEYpRilbY0hdW25IXWMyPU8=

> <s_epik_cmdline>
J2VwaWtfcHl0aG9uJywgJy1waCcsICc3LjAnLCAnLXRuJywgJzgnLCAnLW1hJywgJzIwMCcsICctbWV0YWxfYmluZGluZycsICctaW1hZScsICc8aW5maWxlLm1hZT4nLCAnLW9tYWUnLCAnPG91dGZpbGUubWFlPic=

> <r_epik_Ionization_Penalty>
2.46925

> <r_epik_Ionization_Penalty_Charging>
0.0509887

> <r_epik_Ionization_Penalty_Neutral>
2.41826

> <r_epik_State_Penalty>
2.57741

> <r_epik_Charging_Adjusted_Penalty>
2.6284

> <i_epik_Tot_Q>
-1

> <i_epik_Tot_abs_Q>
1

> <r_epik_Metal_State_Penalty>
0.510263

> <b_epik_Metal_Only>
0

> <s_lp_Force_Field>
OPLS_2005

> <r_lp_Energy>
25.1464

> <b_lp_Chiralities_Consistent>
1

> <s_lp_Variant>
AV-unprocessed.smi:1776-3

> <Gold.Version>
5.8.1

> <Gold.Id.Protein>
6NUR|6NUR_protein|mol2

> <Gold.PLP.Fitness>
41.2978

> <Gold.PLP.PLP>
-35.7678

> <Gold.PLP.part.hbond>
-2.0120

> <Gold.PLP.part.metal>
0.0000

> <Gold.PLP.part.buried>
-3.2736

> <Gold.PLP.part.nonpolar>
-28.7237

> <Gold.PLP.part.repulsive>
0.0696

> <Gold.PLP.ligand.clash>
0.0000

> <Gold.PLP.ligand.torsion>
0.2360

> <Gold.PLP.Chemscore.Hbond>
1.9840

> <Gold.PLP.Chemscore.CHOScore>
0.0000

> <Gold.PLP.Chemscore.Metal>
0.0000

> <Gold.Chemscore.Hbonds>
donor molecule, donor type, donor heavy atom, donor atom, acceptor molecule, acceptor atom, score
      P1  H  7997  8009       L1    12  1.95

> <Gold.PLP.Chemscore.Internal.Correction>
0.0501

> <Gold.Rescore>
     Score         DG    S(hbond)    S(metal)    S(lipo)     H(rot)  DE(clash)    DE(int)     intcor
     10.34     -12.45       0.63        0.00      63.35       1.00       0.92       1.19       ----

> <Gold.Chemscore.Fitness>
10.3448

> <Gold.Chemscore.DG>
-12.4514

> <Gold.Chemscore.ZeroCoef>
-5.4800

> <Gold.Chemscore.Hbond>
0.6345

> <Gold.Chemscore.Metal>
0.0000

> <Gold.Chemscore.Lipo>
63.3505

> <Gold.Chemscore.Internal_Hbond>
0.0000

> <Gold.Chemscore.DEClash>
0.9170

> <Gold.Chemscore.DEInternal>
1.1896

> <Gold.Chemscore.Rot>
1.0000

> <Gold.Chemscore.Internal.Correction>
   9.000000E+99

> <Gold.Chemscore.Hbonds>
donor molecule, donor type, donor heavy atom, donor atom, acceptor molecule, acceptor atom, score
      P1  H  7997  8009       L1    12  0.30

> <Gold.Chemscore.Hbond.Weighted>
-2.1193

> <Gold.Chemscore.Metal.Weighted>
-0.0000

> <Gold.Chemscore.Lipo.Weighted>
-7.4120

> <Gold.Chemscore.Internal_Hbond.Weighted>
0.0000

> <Gold.Chemscore.DEClash.Weighted>
0.9170

> <Gold.Chemscore.DEInternal.Weighted>
1.1896

> <Gold.Chemscore.Rot.Weighted>
2.5600

> <Gold.Chemscore.Internal.Correction.Weighted>
   9.000000E+99

> <Gold.Protein.RotatedTorsions>
[ 6907 6896 6895 6894 ] final -170.35 input  -60.11 | X-H torsion
[ 7974 7965 7964 7962 ] final  -62.87 input  175.53 | X-H torsion
[ 8008 7997 7996 7995 ] final  147.44 input   59.86 | X-H torsion
[ 10167 10162 10161 10158 ] final  100.93 input  -65.29 | X-H torsion
[ 10718 10713 10712 10709 ] final  -44.51 input   66.30 | X-H torsion
[ 10763 10752 10751 10750 ] final   29.50 input  -60.55 | X-H torsion
[ 11005 11000 10999 10996 ] final   45.32 input  -57.11 | X-H torsion

> <Gold.Protein.ActiveResidues>
 VAL166  LYS551  ARG553  GLY616  TRP617  ASP618  TYR619  PRO620  LYS621  CYS622 
 ASP623  PHE694  ASN695  SER759  ASP760  ASP761  ALA762  ILE779  LEU786  VAL792 
 PHE793  MET794  SER795  GLU796  ALA797  LYS798  CYS799  TRP800  GLU811  SER814 

> <Gold.Protein.RotatedAtoms>
  151.5063  133.3494  159.2877 H   0  0  0  0  0  0  0  0  0  0  0  0  # atno 6907 bound_to 6896
  150.8741  134.8122  159.7187 H   0  0  0  0  0  0  0  0  0  0  0  0  # atno 6908 bound_to 6896
  152.4718  134.4951  159.9759 H   0  0  0  0  0  0  0  0  0  0  0  0  # atno 6909 bound_to 6896
  145.7860  140.8736  143.0305 H   0  0  0  0  0  0  0  0  0  0  0  0  # atno 7974 bound_to 7965
  156.2824  140.2155  156.5538 H   0  0  0  0  0  0  0  0  0  0  0  0  # atno 8008 bound_to 7997
  154.7269  140.0499  157.0713 H   0  0  0  0  0  0  0  0  0  0  0  0  # atno 8009 bound_to 7997
  155.0405  140.3145  155.4729 H   0  0  0  0  0  0  0  0  0  0  0  0  # atno 8010 bound_to 7997
  139.7483  144.6991  151.0471 H   0  0  0  0  0  0  0  0  0  0  0  0  # atno 10167 bound_to 10162
  156.2378  130.4177  149.8796 H   0  0  0  0  0  0  0  0  0  0  0  0  # atno 10718 bound_to 10713
  153.0427  135.6487  154.0900 H   0  0  0  0  0  0  0  0  0  0  0  0  # atno 10763 bound_to 10752
  154.0604  135.2888  155.3327 H   0  0  0  0  0  0  0  0  0  0  0  0  # atno 10764 bound_to 10752
  154.6661  135.5373  153.8144 H   0  0  0  0  0  0  0  0  0  0  0  0  # atno 10765 bound_to 10752
  140.1470  134.4510  155.8408 H   0  0  0  0  0  0  0  0  0  0  0  0  # atno 11005 bound_to 11000
  144.6789  140.0056  143.7484 LP  0  0  0  0  0  0  0  0  0  0  0  0  # atno 17320 bound_to 7965
  146.0025  139.3103  143.0919 LP  0  0  0  0  0  0  0  0  0  0  0  0  # atno 17321 bound_to 7965
  140.7795  143.4840  150.9980 LP  0  0  0  0  0  0  0  0  0  0  0  0  # atno 17342 bound_to 10162
  139.8528  143.7416  152.3177 LP  0  0  0  0  0  0  0  0  0  0  0  0  # atno 17343 bound_to 10162
  156.6388  130.8696  151.3510 LP  0  0  0  0  0  0  0  0  0  0  0  0  # atno 17370 bound_to 10713
  157.7162  130.9500  150.1265 LP  0  0  0  0  0  0  0  0  0  0  0  0  # atno 17371 bound_to 10713
  141.2194  133.6856  156.7352 LP  0  0  0  0  0  0  0  0  0  0  0  0  # atno 17394 bound_to 11000
  140.2651  134.8436  157.3795 LP  0  0  0  0  0  0  0  0  0  0  0  0  # atno 17395 bound_to 11000

$$$$
