#       Name:                AV-unprocessed.smi:1361
#       Creating user name   scv26
#       Creation time:       Fri Mar 27 05:14:54 2020


#       File generated by GOLD software.
#

@<TRIPOS>MOLECULE
AV-unprocessed.smi:1361
    51    52     1
SMALL
NO_CHARGES


@<TRIPOS>ATOM
      1 ****        -6.8711  -1.7715   0.6900 C.3            1 S1                 0.0000
      2 ****        -5.3612  -1.8617   0.7354 C.2            1 S1                 0.0000
      3 ****        -4.7412  -0.6641   1.0511 N.pl3          1 S1                 0.0000
      4 ****        -3.3597  -0.6508   1.1288 C.2            1 S1                 0.0000
      5 ****        -2.7622   0.6975   1.4926 C.3            1 S1                 0.0000
      6 ****        -2.6323  -1.7726   0.8944 C.2            1 S1                 0.0000
      7 ****        -1.1079  -1.8022   0.9799 C.3            1 S1                 0.0000
      8 ****        -0.3722  -1.2784  -0.2544 C.2            1 S1                 0.0000
      9 ****        -0.5660  -1.7986  -1.3527 O.2            1 S1                 0.0000
     10 ****         0.4661  -0.2488  -0.0585 N.am           1 S1                 0.0000
     11 ****         1.2740   0.4027  -1.0870 C.3            1 S1                 0.0000
     12 ****         2.5725  -0.4036  -1.3140 C.3            1 S1                 0.0000
     13 ****         3.6269   0.3035  -2.1857 C.3            1 S1                 0.0000
     14 ****         4.9237   0.6786  -1.4445 C.3            1 S1                 0.0000
     15 ****         4.7767   1.3086  -0.0435 C.3            1 S1                 0.0000
     16 ****         3.8506   2.5333   0.0612 C.3            1 S1                 0.0000
     17 ****         2.3875   2.2246   0.4469 C.3            1 S1                 0.0000
     18 ****         1.4522   1.8980  -0.7329 C.3            1 S1                 0.0000
     19 ****        -3.3517  -3.0202   0.5436 C.2            1 S1                 0.0000
     20 ****        -2.7495  -4.0648   0.2994 O.2            1 S1                 0.0000
     21 ****        -4.7545  -2.9831   0.4912 N.2            1 S1                 0.0000
     22 ****        -5.2442   0.1922   1.2346 H              1 S1                 0.0000
     23 ****        -7.3176  -2.7611   0.5846 H              1 S1                 0.0000
     24 ****        -7.1881  -1.1619  -0.1565 H              1 S1                 0.0000
     25 ****        -7.2552  -1.3213   1.6060 H              1 S1                 0.0000
     26 ****        -2.1871   0.6253   2.4158 H              1 S1                 0.0000
     27 ****        -3.5353   1.4527   1.6399 H              1 S1                 0.0000
     28 ****        -2.1016   1.0480   0.6995 H              1 S1                 0.0000
     29 ****        -0.7517  -2.8125   1.1831 H              1 S1                 0.0000
     30 ****        -0.8008  -1.2258   1.8533 H              1 S1                 0.0000
     31 ****         0.5564   0.1113   0.8804 H              1 S1                 0.0000
     32 ****         0.7099   0.3846  -2.0216 H              1 S1                 0.0000
     33 ****         3.0004  -0.7084  -0.3597 H              1 S1                 0.0000
     34 ****         2.3043  -1.3432  -1.7989 H              1 S1                 0.0000
     35 ****         3.8941  -0.3547  -3.0132 H              1 S1                 0.0000
     36 ****         3.2095   1.1853  -2.6687 H              1 S1                 0.0000
     37 ****         5.5356  -0.2185  -1.3426 H              1 S1                 0.0000
     38 ****         5.4993   1.3523  -2.0802 H              1 S1                 0.0000
     39 ****         4.4874   0.5586   0.6926 H              1 S1                 0.0000
     40 ****         5.7756   1.6194   0.2650 H              1 S1                 0.0000
     41 ****         4.2547   3.1646   0.8537 H              1 S1                 0.0000
     42 ****         3.9040   3.1424  -0.8418 H              1 S1                 0.0000
     43 ****         2.3355   1.4557   1.2184 H              1 S1                 0.0000
     44 ****         1.9935   3.1258   0.9184 H              1 S1                 0.0000
     45 ****         1.7570   2.4674  -1.6107 H              1 S1                 0.0000
     46 ****         0.4635   2.2936  -0.4948 H              1 S1                 0.0000
     47 ****        -1.2044  -2.5635  -1.4379 LP             1 S1                 0.0000
     48 ****        -0.0851  -1.4563  -2.1599 LP             1 S1                 0.0000
     49 ****        -1.7504  -4.0859   0.3351 LP             1 S1                 0.0000
     50 ****        -3.2591  -4.8927   0.0653 LP             1 S1                 0.0000
     51 ****        -5.2771  -3.8063   0.2696 LP             1 S1                 0.0000
@<TRIPOS>BOND
    1    1   23 1     
    2    1   24 1     
    3    1   25 1     
    4    1    2 1     
    5    2    3 1     
    6    2   21 2     
    7    3    4 1     
    8    3   22 1     
    9    4    6 2     
   10    4    5 1     
   11    5   26 1     
   12    5   27 1     
   13    5   28 1     
   14    6   19 1     
   15    6    7 1     
   16    7    8 1     
   17    7   29 1     
   18    7   30 1     
   19    8    9 2     
   20    8   10 am    
   21   10   11 1     
   22   10   31 1     
   23   11   18 1     
   24   11   12 1     
   25   11   32 1     
   26   12   13 1     
   27   12   33 1     
   28   12   34 1     
   29   13   14 1     
   30   13   35 1     
   31   13   36 1     
   32   14   15 1     
   33   14   37 1     
   34   14   38 1     
   35   15   16 1     
   36   15   39 1     
   37   15   40 1     
   38   16   17 1     
   39   16   41 1     
   40   16   42 1     
   41   17   18 1     
   42   17   43 1     
   43   17   44 1     
   44   18   45 1     
   45   18   46 1     
   46   19   20 2     
   47   19   21 1     
   48    9   47 1     
   49    9   48 1     
   50   20   49 1     
   51   20   50 1     
   52   21   51 1     
@<TRIPOS>SUBSTRUCTURE
      1 S1             1
@<TRIPOS>SET
LONE_PAIRS      STATIC     ATOMS    <user>   **** ""
5 47 48 49 50 51
DONOR_HYDROGENS      STATIC     ATOMS    <user>   **** ""
2 22 31
ATOM$BLUE        STATIC     ATOMS    COLORGROUP SYSTEM
5 47 48 49 50 51
ATOM$RED        STATIC     ATOMS    COLORGROUP SYSTEM
2 22 31
