AV-unprocessed.smi:3147|AV-procd|sdf|11988|dock7
  -GOLD-   2272017393D 1   1.00000     0.00000
 Structure written by MMmdl.
 37 38  0  0  0  0  0  0  0  0  2 V2000
  146.4310  137.9408  152.8318 C   0  0  0  0  0  0  0  0  0  0  0  0
  147.0361  139.2242  153.2935 C   0  0  0  0  0  0  0  0  0  0  0  0
  146.3396  140.4035  153.2597 N   0  3  0  0  0  0  0  0  0  0  0  0
  147.0882  141.4046  153.7241 C   0  0  0  0  0  0  0  0  0  0  0  0
  148.2714  140.8787  154.0585 N   0  0  0  0  0  0  0  0  0  0  0  0
  149.3516  141.7023  154.6238 C   0  0  0  0  0  0  0  0  0  0  0  0
  149.6396  141.3759  156.0942 C   0  0  0  0  0  0  0  0  0  0  0  0
  149.7919  140.2118  156.4677 O   0  0  0  0  0  0  0  0  0  0  0  0
  149.7103  142.4272  156.9238 N   0  0  0  0  0  0  0  0  0  0  0  0
  149.9567  142.3470  158.3592 C   0  0  0  0  0  0  0  0  0  0  0  0
  151.2136  143.1352  158.7650 C   0  0  1  0  0  0  0  0  0  0  0  0
  151.2142  144.5830  158.2810 C   0  0  0  0  0  0  0  0  0  0  0  0
  152.1866  145.2219  159.2459 C   0  0  0  0  0  0  0  0  0  0  0  0
  151.8670  144.4967  160.5512 C   0  0  0  0  0  0  0  0  0  0  0  0
  151.3122  143.2355  160.1829 O   0  0  0  0  0  0  0  0  0  0  0  0
  148.2777  139.5242  153.8075 C   0  0  0  0  0  0  0  0  0  0  0  0
  149.4614  138.6543  154.0851 C   0  0  0  0  0  0  0  0  0  0  0  0
  147.1337  137.1162  152.9492 H   0  0  0  0  0  0  0  0  0  0  0  0
  146.1551  138.0117  151.7795 H   0  0  0  0  0  0  0  0  0  0  0  0
  145.5363  137.7165  153.4131 H   0  0  0  0  0  0  0  0  0  0  0  0
  146.7931  142.4347  153.8154 H   0  0  0  0  0  0  0  0  0  0  0  0
  150.2521  141.5513  154.0277 H   0  0  0  0  0  0  0  0  0  0  0  0
  149.0711  142.7522  154.5239 H   0  0  0  0  0  0  0  0  0  0  0  0
  149.5725  143.3503  156.5379 H   0  0  0  0  0  0  0  0  0  0  0  0
  149.0865  142.7169  158.9040 H   0  0  0  0  0  0  0  0  0  0  0  0
  150.0680  141.2968  158.6309 H   0  0  0  0  0  0  0  0  0  0  0  0
  152.1137  142.6404  158.3968 H   0  0  0  0  0  0  0  0  0  0  0  0
  151.5174  144.6831  157.2384 H   0  0  0  0  0  0  0  0  0  0  0  0
  150.2255  145.0296  158.3957 H   0  0  0  0  0  0  0  0  0  0  0  0
  153.2110  145.0076  158.9385 H   0  0  0  0  0  0  0  0  0  0  0  0
  152.0718  146.3037  159.3193 H   0  0  0  0  0  0  0  0  0  0  0  0
  152.7510  144.3732  161.1777 H   0  0  0  0  0  0  0  0  0  0  0  0
  151.1213  145.0485  161.1243 H   0  0  0  0  0  0  0  0  0  0  0  0
  149.2001  137.6016  153.9838 H   0  0  0  0  0  0  0  0  0  0  0  0
  149.8242  138.8179  155.1001 H   0  0  0  0  0  0  0  0  0  0  0  0
  150.2661  138.8796  153.3852 H   0  0  0  0  0  0  0  0  0  0  0  0
  145.3871  140.5045  152.9322 H   0  0  0  0  0  0  0  0  0  0  0  0
  1  2  1  0  0  0  0
  1 18  1  0  0  0  0
  1 19  1  0  0  0  0
  1 20  1  0  0  0  0
  2 16  2  0  0  0  0
  2  3  1  0  0  0  0
  3  4  2  0  0  0  0
  3 37  1  0  0  0  0
  4  5  1  0  0  0  0
  4 21  1  0  0  0  0
  5  6  1  0  0  0  0
  5 16  1  0  0  0  0
  6  7  1  0  0  0  0
  6 22  1  0  0  0  0
  6 23  1  0  0  0  0
  7  8  2  0  0  0  0
  7  9  1  0  0  0  0
  9 10  1  0  0  0  0
  9 24  1  0  0  0  0
 10 11  1  0  0  0  0
 10 25  1  0  0  0  0
 10 26  1  0  0  0  0
 11 15  1  0  0  0  0
 11 12  1  0  0  0  0
 11 27  1  0  0  0  0
 12 13  1  0  0  0  0
 12 28  1  0  0  0  0
 12 29  1  0  0  0  0
 13 14  1  0  0  0  0
 13 30  1  0  0  0  0
 13 31  1  0  0  0  0
 14 15  1  0  0  0  0
 14 32  1  0  0  0  0
 14 33  1  0  0  0  0
 16 17  1  0  0  0  0
 17 34  1  0  0  0  0
 17 35  1  0  0  0  0
 17 36  1  0  0  0  0
M  CHG  1   3   1
M  END
> <s_m_source_file>
AV-unprocessed.smi

> <i_m_source_file_index>
3147

> <i_lp_mmshare_version>
43012

> <i_f3d_flags>
0

> <s_epik_input>
W0NIM11jMW5bY0hdbihjMVtDSDNdKVtDSDJdQyg9TylbTkhdW0NIMl1bQ0BASF0yW0NIMl1bQ0gyXVtDSDJdTzI=

> <s_epik_cmdline>
J2VwaWtfcHl0aG9uJywgJy1waCcsICc3LjAnLCAnLXRuJywgJzgnLCAnLW1hJywgJzIwMCcsICctbWV0YWxfYmluZGluZycsICctaW1hZScsICc8aW5maWxlLm1hZT4nLCAnLW9tYWUnLCAnPG91dGZpbGUubWFlPic=

> <r_lp_tautomer_probability>
1

> <r_epik_Ionization_Penalty>
0.131257

> <r_epik_Ionization_Penalty_Charging>
0

> <r_epik_Ionization_Penalty_Neutral>
0.131257

> <r_epik_State_Penalty>
0.12065

> <r_epik_Charging_Adjusted_Penalty>
0.12065

> <i_epik_Tot_Q>
1

> <i_epik_Tot_abs_Q>
1

> <r_epik_Metal_State_Penalty>
0.448684

> <b_epik_Metal_Only>
0

> <s_lp_Force_Field>
OPLS_2005

> <r_lp_Energy>
19.5729

> <b_lp_Chiralities_Consistent>
1

> <s_lp_Variant>
AV-unprocessed.smi:3147-2

> <Gold.Version>
5.8.1

> <Gold.Id.Protein>
6NUR|6NUR_protein|mol2

> <Gold.PLP.Fitness>
44.3646

> <Gold.PLP.PLP>
-35.7845

> <Gold.PLP.part.hbond>
-2.6090

> <Gold.PLP.part.metal>
0.0000

> <Gold.PLP.part.buried>
-2.5279

> <Gold.PLP.part.nonpolar>
-30.9084

> <Gold.PLP.part.repulsive>
0.0828

> <Gold.PLP.ligand.clash>
0.0000

> <Gold.PLP.ligand.torsion>
0.2154

> <Gold.PLP.Chemscore.Hbond>
3.0000

> <Gold.PLP.Chemscore.CHOScore>
0.0000

> <Gold.PLP.Chemscore.Metal>
0.0000

> <Gold.Chemscore.Hbonds>
donor molecule, donor type, donor heavy atom, donor atom, acceptor molecule, acceptor atom, score
      L1  H     3    37       P1 10175  2.00
      L1  H     9    24       P1  8028  1.00

> <Gold.PLP.Chemscore.Internal.Correction>
0.0109

> <Gold.Rescore>
     Score         DG    S(hbond)    S(metal)    S(lipo)     H(rot)  DE(clash)    DE(int)     intcor
     17.31     -17.73       1.98        0.00      86.70       1.76       0.10       0.32       ----

> <Gold.Chemscore.Fitness>
17.3109

> <Gold.Chemscore.DG>
-17.7321

> <Gold.Chemscore.ZeroCoef>
-5.4800

> <Gold.Chemscore.Hbond>
1.9784

> <Gold.Chemscore.Metal>
0.0000

> <Gold.Chemscore.Lipo>
86.7018

> <Gold.Chemscore.Internal_Hbond>
0.0000

> <Gold.Chemscore.DEClash>
0.0982

> <Gold.Chemscore.DEInternal>
0.3231

> <Gold.Chemscore.Rot>
1.7577

> <Gold.Chemscore.Internal.Correction>
   9.000000E+99

> <Gold.Chemscore.Hbonds>
donor molecule, donor type, donor heavy atom, donor atom, acceptor molecule, acceptor atom, score
      L1  H     3    37       P1 10175  0.85
      L1  H     9    24       P1  8028  1.00

> <Gold.Chemscore.Hbond.Weighted>
-6.6078

> <Gold.Chemscore.Metal.Weighted>
-0.0000

> <Gold.Chemscore.Lipo.Weighted>
-10.1441

> <Gold.Chemscore.Internal_Hbond.Weighted>
0.0000

> <Gold.Chemscore.DEClash.Weighted>
0.0982

> <Gold.Chemscore.DEInternal.Weighted>
0.3231

> <Gold.Chemscore.Rot.Weighted>
4.4998

> <Gold.Chemscore.Internal.Correction.Weighted>
   9.000000E+99

> <Gold.Protein.RotatedTorsions>
[ 6907 6896 6895 6894 ] final  145.07 input  -60.11 | X-H torsion
[ 7974 7965 7964 7962 ] final   30.89 input  175.53 | X-H torsion
[ 8008 7997 7996 7995 ] final -159.52 input   59.86 | X-H torsion
[ 10167 10162 10161 10158 ] final  -62.99 input  -65.29 | X-H torsion
[ 10718 10713 10712 10709 ] final   79.84 input   66.30 | X-H torsion
[ 10763 10752 10751 10750 ] final   -0.82 input  -60.55 | X-H torsion
[ 11005 11000 10999 10996 ] final   59.38 input  -57.11 | X-H torsion

> <Gold.Protein.ActiveResidues>
 VAL166  LYS551  ARG553  GLY616  TRP617  ASP618  TYR619  PRO620  LYS621  CYS622 
 ASP623  PHE694  ASN695  SER759  ASP760  ASP761  ALA762  ILE779  LEU786  VAL792 
 PHE793  MET794  SER795  GLU796  ALA797  LYS798  CYS799  TRP800  GLU811  SER814 

> <Gold.Protein.RotatedAtoms>
  152.1855  133.4737  159.4980 H   0  0  0  0  0  0  0  0  0  0  0  0  # atno 6907 bound_to 6896
  150.6942  134.1779  159.4246 H   0  0  0  0  0  0  0  0  0  0  0  0  # atno 6908 bound_to 6896
  151.9691  135.0085  160.0602 H   0  0  0  0  0  0  0  0  0  0  0  0  # atno 6909 bound_to 6896
  146.1584  139.6729  142.9050 H   0  0  0  0  0  0  0  0  0  0  0  0  # atno 7974 bound_to 7965
  155.7638  140.0843  157.2142 H   0  0  0  0  0  0  0  0  0  0  0  0  # atno 8008 bound_to 7997
  154.4001  140.1538  156.2920 H   0  0  0  0  0  0  0  0  0  0  0  0  # atno 8009 bound_to 7997
  155.8814  140.3420  155.5893 H   0  0  0  0  0  0  0  0  0  0  0  0  # atno 8010 bound_to 7997
  140.5901  143.2340  151.6157 H   0  0  0  0  0  0  0  0  0  0  0  0  # atno 10167 bound_to 10162
  157.6789  130.9932  150.1992 H   0  0  0  0  0  0  0  0  0  0  0  0  # atno 10718 bound_to 10713
  153.3368  135.6978  153.6900 H   0  0  0  0  0  0  0  0  0  0  0  0  # atno 10763 bound_to 10752
  153.5681  135.3521  155.2827 H   0  0  0  0  0  0  0  0  0  0  0  0  # atno 10764 bound_to 10752
  154.8629  135.4265  154.2571 H   0  0  0  0  0  0  0  0  0  0  0  0  # atno 10765 bound_to 10752
  140.0308  134.6015  155.9510 H   0  0  0  0  0  0  0  0  0  0  0  0  # atno 11005 bound_to 11000
  145.4650  141.0434  143.2730 LP  0  0  0  0  0  0  0  0  0  0  0  0  # atno 17320 bound_to 7965
  144.7994  139.6170  143.7078 LP  0  0  0  0  0  0  0  0  0  0  0  0  # atno 17321 bound_to 7965
  139.5222  144.3169  152.0944 LP  0  0  0  0  0  0  0  0  0  0  0  0  # atno 17342 bound_to 10162
  140.2332  144.4346  150.6291 LP  0  0  0  0  0  0  0  0  0  0  0  0  # atno 17343 bound_to 10162
  156.2686  130.3719  149.8055 LP  0  0  0  0  0  0  0  0  0  0  0  0  # atno 17370 bound_to 10713
  156.5779  130.8453  151.3375 LP  0  0  0  0  0  0  0  0  0  0  0  0  # atno 17371 bound_to 10713
  141.1830  133.6550  156.5097 LP  0  0  0  0  0  0  0  0  0  0  0  0  # atno 17394 bound_to 11000
  140.4229  134.7171  157.4900 LP  0  0  0  0  0  0  0  0  0  0  0  0  # atno 17395 bound_to 11000

$$$$
