AV-unprocessed.smi:409|AV-procd|sdf|2506|dock7
  -GOLD-   2262022453D 1   1.00000     0.00000
 Structure written by MMmdl.
 34 35  0  0  0  0  0  0  0  0  2 V2000
  152.5594  139.9254  155.7763 O   0  0  0  0  0  0  0  0  0  0  0  0
  151.3843  140.2660  155.9198 C   0  0  0  0  0  0  0  0  0  0  0  0
  150.2780  139.6430  155.0578 C   0  0  0  0  0  0  0  0  0  0  0  0
  150.2454  138.1741  155.1428 N   0  0  0  0  0  0  0  0  0  0  0  0
  149.0951  137.5752  155.6859 C   0  0  0  0  0  0  0  0  0  0  0  0
  148.9789  136.2388  155.8050 C   0  0  0  0  0  0  0  0  0  0  0  0
  150.0866  135.4065  155.3523 C   0  0  0  0  0  0  0  0  0  0  0  0
  149.9958  134.1842  155.4483 O   0  0  0  0  0  0  0  0  0  0  0  0
  151.1837  136.0353  154.8373 N   0  5  0  0  0  0  0  0  0  0  0  0
  151.2891  137.3959  154.7252 C   0  0  0  0  0  0  0  0  0  0  0  0
  152.2897  137.9431  154.2601 O   0  0  0  0  0  0  0  0  0  0  0  0
  150.9841  141.1605  156.8361 N   0  0  0  0  0  0  0  0  0  0  0  0
  151.8603  141.8710  157.7623 C   0  0  0  0  0  0  0  0  0  0  0  0
  151.7029  141.3182  159.1941 C   0  0  0  0  0  0  0  0  0  0  0  0
  152.5609  142.1051  160.1982 C   0  0  0  0  0  0  0  0  0  0  0  0
  152.2419  143.6075  160.1487 C   0  0  0  0  0  0  0  0  0  0  0  0
  152.4033  144.1619  158.7245 C   0  0  0  0  0  0  0  0  0  0  0  0
  151.5430  143.3778  157.7202 C   0  0  0  0  0  0  0  0  0  0  0  0
  149.3236  140.0641  155.3762 H   0  0  0  0  0  0  0  0  0  0  0  0
  150.3957  139.9553  154.0183 H   0  0  0  0  0  0  0  0  0  0  0  0
  148.3244  138.2623  156.0025 H   0  0  0  0  0  0  0  0  0  0  0  0
  148.0898  135.7943  156.2274 H   0  0  0  0  0  0  0  0  0  0  0  0
  149.9989  141.3764  156.8841 H   0  0  0  0  0  0  0  0  0  0  0  0
  152.8958  141.7359  157.4437 H   0  0  0  0  0  0  0  0  0  0  0  0
  150.6558  141.3682  159.4965 H   0  0  0  0  0  0  0  0  0  0  0  0
  151.9823  140.2646  159.2247 H   0  0  0  0  0  0  0  0  0  0  0  0
  152.3974  141.7229  161.2062 H   0  0  0  0  0  0  0  0  0  0  0  0
  153.6172  141.9484  159.9757 H   0  0  0  0  0  0  0  0  0  0  0  0
  151.2208  143.7757  160.4932 H   0  0  0  0  0  0  0  0  0  0  0  0
  152.8935  144.1492  160.8348 H   0  0  0  0  0  0  0  0  0  0  0  0
  152.1307  145.2173  158.7024 H   0  0  0  0  0  0  0  0  0  0  0  0
  153.4514  144.1068  158.4276 H   0  0  0  0  0  0  0  0  0  0  0  0
  151.7077  143.7667  156.7146 H   0  0  0  0  0  0  0  0  0  0  0  0
  150.4880  143.5408  157.9454 H   0  0  0  0  0  0  0  0  0  0  0  0
  1  2  2  0  0  0  0
  2  3  1  0  0  0  0
  2 12  1  0  0  0  0
  3  4  1  0  0  0  0
  3 19  1  0  0  0  0
  3 20  1  0  0  0  0
  4 10  1  0  0  0  0
  4  5  1  0  0  0  0
  5  6  2  0  0  0  0
  5 21  1  0  0  0  0
  6  7  1  0  0  0  0
  6 22  1  0  0  0  0
  7  8  2  0  0  0  0
  7  9  1  0  0  0  0
  9 10  1  0  0  0  0
 10 11  2  0  0  0  0
 12 13  1  0  0  0  0
 12 23  1  0  0  0  0
 13 18  1  0  0  0  0
 13 14  1  0  0  0  0
 13 24  1  0  0  0  0
 14 15  1  0  0  0  0
 14 25  1  0  0  0  0
 14 26  1  0  0  0  0
 15 16  1  0  0  0  0
 15 27  1  0  0  0  0
 15 28  1  0  0  0  0
 16 17  1  0  0  0  0
 16 29  1  0  0  0  0
 16 30  1  0  0  0  0
 17 18  1  0  0  0  0
 17 31  1  0  0  0  0
 17 32  1  0  0  0  0
 18 33  1  0  0  0  0
 18 34  1  0  0  0  0
M  CHG  1   9  -1
M  END
> <s_m_source_file>
AV-unprocessed.smi

> <i_m_source_file_index>
409

> <i_lp_mmshare_version>
43012

> <i_f3d_flags>
0

> <s_epik_input>
W0NIMl0xW0NIMl1bQ0gyXVtDSDJdW0NIMl1bQ0hdMVtOSF1DKD1PKVtDSDJdbjJbY0hdW2NIXWMoPU8pW25IXWMyPU8=

> <s_epik_cmdline>
J2VwaWtfcHl0aG9uJywgJy1waCcsICc3LjAnLCAnLXRuJywgJzgnLCAnLW1hJywgJzIwMCcsICctbWV0YWxfYmluZGluZycsICctaW1hZScsICc8aW5maWxlLm1hZT4nLCAnLW9tYWUnLCAnPG91dGZpbGUubWFlPic=

> <r_lp_tautomer_probability>
0.999537

> <r_epik_Ionization_Penalty>
3.11464

> <r_epik_Ionization_Penalty_Charging>
2.89611e-08

> <r_epik_Ionization_Penalty_Neutral>
3.11464

> <r_epik_State_Penalty>
3.11372

> <r_epik_Charging_Adjusted_Penalty>
3.11373

> <i_epik_Tot_Q>
-1

> <i_epik_Tot_abs_Q>
1

> <r_epik_Metal_State_Penalty>
0.463005

> <b_epik_Metal_Only>
1

> <s_lp_Force_Field>
OPLS_2005

> <r_lp_Energy>
17.6148

> <b_lp_Chiralities_Consistent>
1

> <s_lp_Variant>
AV-unprocessed.smi:409-2

> <Gold.Version>
5.8.1

> <Gold.Id.Protein>
6NUR|6NUR_protein|mol2

> <Gold.PLP.Fitness>
42.4889

> <Gold.PLP.PLP>
-33.7872

> <Gold.PLP.part.hbond>
-2.7297

> <Gold.PLP.part.metal>
0.0000

> <Gold.PLP.part.buried>
-4.4335

> <Gold.PLP.part.nonpolar>
-26.9058

> <Gold.PLP.part.repulsive>
0.4349

> <Gold.PLP.ligand.clash>
0.0000

> <Gold.PLP.ligand.torsion>
0.1525

> <Gold.PLP.Chemscore.Hbond>
3.0000

> <Gold.PLP.Chemscore.CHOScore>
0.0000

> <Gold.PLP.Chemscore.Metal>
0.0000

> <Gold.Chemscore.Hbonds>
donor molecule, donor type, donor heavy atom, donor atom, acceptor molecule, acceptor atom, score
      P1  H  7997  8008       L1     1  1.00
      P1  H 10752 10764       L1     9  2.00

> <Gold.PLP.Chemscore.Internal.Correction>
0.0067

> <Gold.Rescore>
     Score         DG    S(hbond)    S(metal)    S(lipo)     H(rot)  DE(clash)    DE(int)     intcor
     11.71     -15.64       1.80        0.00      72.04       1.67       0.40       3.52       ----

> <Gold.Chemscore.Fitness>
11.7147

> <Gold.Chemscore.DG>
-15.6356

> <Gold.Chemscore.ZeroCoef>
-5.4800

> <Gold.Chemscore.Hbond>
1.7964

> <Gold.Chemscore.Metal>
0.0000

> <Gold.Chemscore.Lipo>
72.0370

> <Gold.Chemscore.Internal_Hbond>
0.0000

> <Gold.Chemscore.DEClash>
0.3995

> <Gold.Chemscore.DEInternal>
3.5214

> <Gold.Chemscore.Rot>
1.6690

> <Gold.Chemscore.Internal.Correction>
   9.000000E+99

> <Gold.Chemscore.Hbonds>
donor molecule, donor type, donor heavy atom, donor atom, acceptor molecule, acceptor atom, score
      P1  H  7997  8008       L1     1  1.00
      P1  H 10752 10764       L1     9  0.26

> <Gold.Chemscore.Hbond.Weighted>
-5.9998

> <Gold.Chemscore.Metal.Weighted>
-0.0000

> <Gold.Chemscore.Lipo.Weighted>
-8.4283

> <Gold.Chemscore.Internal_Hbond.Weighted>
0.0000

> <Gold.Chemscore.DEClash.Weighted>
0.3995

> <Gold.Chemscore.DEInternal.Weighted>
3.5214

> <Gold.Chemscore.Rot.Weighted>
4.2726

> <Gold.Chemscore.Internal.Correction.Weighted>
   9.000000E+99

> <Gold.Protein.RotatedTorsions>
[ 6907 6896 6895 6894 ] final  -47.97 input  -60.11 | X-H torsion
[ 7974 7965 7964 7962 ] final  -54.40 input  175.53 | X-H torsion
[ 8008 7997 7996 7995 ] final  -35.42 input   59.86 | X-H torsion
[ 10167 10162 10161 10158 ] final  179.33 input  -65.29 | X-H torsion
[ 10718 10713 10712 10709 ] final  151.57 input   66.30 | X-H torsion
[ 10763 10752 10751 10750 ] final  -55.31 input  -60.55 | X-H torsion
[ 11005 11000 10999 10996 ] final -175.35 input  -57.11 | X-H torsion

> <Gold.Protein.ActiveResidues>
 VAL166  LYS551  ARG553  GLY616  TRP617  ASP618  TYR619  PRO620  LYS621  CYS622 
 ASP623  PHE694  ASN695  SER759  ASP760  ASP761  ALA762  ILE779  LEU786  VAL792 
 PHE793  MET794  SER795  GLU796  ALA797  LYS798  CYS799  TRP800  GLU811  SER814 

> <Gold.Protein.RotatedAtoms>
  150.8953  134.8360  159.7321 H   0  0  0  0  0  0  0  0  0  0  0  0  # atno 6907 bound_to 6896
  152.4861  134.4586  159.9607 H   0  0  0  0  0  0  0  0  0  0  0  0  # atno 6908 bound_to 6896
  151.4643  133.3546  159.2849 H   0  0  0  0  0  0  0  0  0  0  0  0  # atno 6909 bound_to 6896
  145.8859  140.8108  142.9816 H   0  0  0  0  0  0  0  0  0  0  0  0  # atno 7974 bound_to 7965
  154.4096  140.1658  156.2208 H   0  0  0  0  0  0  0  0  0  0  0  0  # atno 8008 bound_to 7997
  155.9365  140.3411  155.6269 H   0  0  0  0  0  0  0  0  0  0  0  0  # atno 8009 bound_to 7997
  155.7042  140.0749  157.2388 H   0  0  0  0  0  0  0  0  0  0  0  0  # atno 8010 bound_to 7997
  139.5332  144.2574  152.0735 H   0  0  0  0  0  0  0  0  0  0  0  0  # atno 10167 bound_to 10162
  157.2690  131.0813  151.1613 H   0  0  0  0  0  0  0  0  0  0  0  0  # atno 10718 bound_to 10713
  154.1887  135.6431  153.5054 H   0  0  0  0  0  0  0  0  0  0  0  0  # atno 10763 bound_to 10752
  153.0040  135.5423  154.6438 H   0  0  0  0  0  0  0  0  0  0  0  0  # atno 10764 bound_to 10752
  154.5821  135.2926  155.0695 H   0  0  0  0  0  0  0  0  0  0  0  0  # atno 10765 bound_to 10752
  140.4643  134.6225  157.4855 H   0  0  0  0  0  0  0  0  0  0  0  0  # atno 11005 bound_to 11000
  144.6728  140.1456  143.7434 LP  0  0  0  0  0  0  0  0  0  0  0  0  # atno 17320 bound_to 7965
  145.8967  139.2406  143.1518 LP  0  0  0  0  0  0  0  0  0  0  0  0  # atno 17321 bound_to 7965
  140.2040  144.4629  150.6417 LP  0  0  0  0  0  0  0  0  0  0  0  0  # atno 17342 bound_to 10162
  140.6523  143.2228  151.6050 LP  0  0  0  0  0  0  0  0  0  0  0  0  # atno 17343 bound_to 10162
  157.3092  130.6881  149.6206 LP  0  0  0  0  0  0  0  0  0  0  0  0  # atno 17370 bound_to 10713
  155.9663  130.4368  150.5151 LP  0  0  0  0  0  0  0  0  0  0  0  0  # atno 17371 bound_to 10713
  139.9925  134.6962  155.9664 LP  0  0  0  0  0  0  0  0  0  0  0  0  # atno 17394 bound_to 11000
  141.1607  133.6539  156.4309 LP  0  0  0  0  0  0  0  0  0  0  0  0  # atno 17395 bound_to 11000

$$$$
