#       Name:                AV-unprocessed.smi:707
#       Creating user name   scv26
#       Creation time:       Fri Mar 27 00:44:06 2020


#       File generated by GOLD software.
#

@<TRIPOS>MOLECULE
AV-unprocessed.smi:707
    50    51     1
SMALL
NO_CHARGES


@<TRIPOS>ATOM
      1 ****        -5.4225   1.0881  -3.3446 C.3            1 S1                 0.0000
      2 ****        -5.8769   1.2827  -1.9344 C.2            1 S1                 0.0000
      3 ****        -7.1609   1.4001  -1.5764 N.2            1 S1                 0.0000
      4 ****        -7.1502   1.5626  -0.2048 N.2            1 S1                 0.0000
      5 ****        -5.8601   1.5274   0.1270 C.2            1 S1                 0.0000
      6 ****        -5.0144   1.3565  -0.9004 N.pl3          1 S1                 0.0000
      7 ****        -3.5660   1.2714  -0.8751 C.3            1 S1                 0.0000
      8 ****        -3.0897  -0.1830  -0.7620 C.3            1 S1                 0.0000
      9 ****        -1.6355  -0.2468  -0.7536 N.am           1 S1                 0.0000
     10 ****        -0.9270  -1.3829  -0.8253 C.2            1 S1                 0.0000
     11 ****        -1.4427  -2.4970  -0.9107 O.2            1 S1                 0.0000
     12 ****         0.5940  -1.2430  -0.8159 C.3            1 S1                 0.0000
     13 ****         0.9748  -0.4147   0.2748 O.3            1 S1                 0.0000
     14 ****         2.3751  -0.1915   0.3840 C.3            1 S1                 0.0000
     15 ****         2.5724   1.0786   1.2289 C.3            1 S1                 0.0000
     16 ****         4.0625   1.3662   1.4662 C.3            1 S1                 0.0000
     17 ****         4.7614   0.1649   2.1217 C.3            1 S1                 0.0000
     18 ****         4.5751  -1.1196   1.2913 C.3            1 S1                 0.0000
     19 ****         5.2666  -2.3203   1.9531 C.3            1 S1                 0.0000
     20 ****         3.0780  -1.3952   1.0476 C.3            1 S1                 0.0000
     21 ****        -6.2788   0.9502  -4.0054 H              1 S1                 0.0000
     22 ****        -4.7851   0.2073  -3.4198 H              1 S1                 0.0000
     23 ****        -4.8615   1.9597  -3.6817 H              1 S1                 0.0000
     24 ****        -5.5230   1.6281   1.1482 H              1 S1                 0.0000
     25 ****        -3.1697   1.7386  -1.7773 H              1 S1                 0.0000
     26 ****        -3.2004   1.8570  -0.0304 H              1 S1                 0.0000
     27 ****        -3.4728  -0.6355   0.1540 H              1 S1                 0.0000
     28 ****        -3.4756  -0.7702  -1.5969 H              1 S1                 0.0000
     29 ****        -1.1325   0.6258  -0.6836 H              1 S1                 0.0000
     30 ****         1.0461  -2.2318  -0.7372 H              1 S1                 0.0000
     31 ****         0.9148  -0.8027  -1.7611 H              1 S1                 0.0000
     32 ****         2.7997  -0.0140  -0.6060 H              1 S1                 0.0000
     33 ****         2.1057   1.9309   0.7342 H              1 S1                 0.0000
     34 ****         2.0673   0.9641   2.1892 H              1 S1                 0.0000
     35 ****         4.5462   1.5986   0.5167 H              1 S1                 0.0000
     36 ****         4.1752   2.2496   2.0952 H              1 S1                 0.0000
     37 ****         5.8235   0.3817   2.2415 H              1 S1                 0.0000
     38 ****         4.3616   0.0169   3.1259 H              1 S1                 0.0000
     39 ****         5.0483  -0.9630   0.3207 H              1 S1                 0.0000
     40 ****         4.8424  -2.5307   2.9354 H              1 S1                 0.0000
     41 ****         6.3334  -2.1366   2.0834 H              1 S1                 0.0000
     42 ****         5.1598  -3.2190   1.3449 H              1 S1                 0.0000
     43 ****         2.5880  -1.6245   1.9949 H              1 S1                 0.0000
     44 ****         2.9752  -2.2840   0.4255 H              1 S1                 0.0000
     45 ****        -7.9607   1.3753  -2.1763 LP             1 S1                 0.0000
     46 ****        -7.9353   1.6803   0.4033 LP             1 S1                 0.0000
     47 ****        -2.4385  -2.5870  -0.9295 LP             1 S1                 0.0000
     48 ****        -0.8660  -3.3124  -0.9613 LP             1 S1                 0.0000
     49 ****         0.6604  -0.8469   1.1200 LP             1 S1                 0.0000
     50 ****         0.5246   0.4716   0.1661 LP             1 S1                 0.0000
@<TRIPOS>BOND
    1    1    2 1     
    2    1   21 1     
    3    1   22 1     
    4    1   23 1     
    5    2    6 1     
    6    2    3 2     
    7    3    4 1     
    8    4    5 2     
    9    5    6 1     
   10    5   24 1     
   11    6    7 1     
   12    7    8 1     
   13    7   25 1     
   14    7   26 1     
   15    8    9 1     
   16    8   27 1     
   17    8   28 1     
   18    9   10 am    
   19    9   29 1     
   20   10   11 2     
   21   10   12 1     
   22   12   13 1     
   23   12   30 1     
   24   12   31 1     
   25   13   14 1     
   26   14   20 1     
   27   14   15 1     
   28   14   32 1     
   29   15   16 1     
   30   15   33 1     
   31   15   34 1     
   32   16   17 1     
   33   16   35 1     
   34   16   36 1     
   35   17   18 1     
   36   17   37 1     
   37   17   38 1     
   38   18   19 1     
   39   18   20 1     
   40   18   39 1     
   41   19   40 1     
   42   19   41 1     
   43   19   42 1     
   44   20   43 1     
   45   20   44 1     
   46    3   45 1     
   47    4   46 1     
   48   11   47 1     
   49   11   48 1     
   50   13   49 1     
   51   13   50 1     
@<TRIPOS>SUBSTRUCTURE
      1 S1             1
@<TRIPOS>SET
LONE_PAIRS      STATIC     ATOMS    <user>   **** ""
6 45 46 47 48 49 50
DONOR_HYDROGENS      STATIC     ATOMS    <user>   **** ""
1 29
ATOM$BLUE        STATIC     ATOMS    COLORGROUP SYSTEM
6 45 46 47 48 49 50
ATOM$RED        STATIC     ATOMS    COLORGROUP SYSTEM
1 29
