AV-unprocessed.smi:1615|AV-procd|sdf|6481|dock4
  -GOLD-   22720 7143D 1   1.00000     0.00000
 Structure written by MMmdl.
 32 33  0  0  0  0  0  0  0  0  1 V2000
  152.4245  140.0634  155.9136 O   0  0  0  0  0  0  0  0  0  0  0  0
  151.2996  140.5621  155.9136 C   0  0  0  0  0  0  0  0  0  0  0  0
  150.1917  139.9437  155.0602 C   0  0  0  0  0  0  0  0  0  0  0  0
  148.9910  140.7599  155.0942 N   0  0  0  0  0  0  0  0  0  0  0  0
  148.3672  141.4064  154.0436 C   0  0  0  0  0  0  0  0  0  0  0  0
  147.2935  142.0379  154.5925 C   0  0  0  0  0  0  0  0  0  0  0  0
  146.0149  143.1104  153.6794 Br  0  0  0  0  0  0  0  0  0  0  0  0
  147.3175  141.7393  155.9784 C   0  0  0  0  0  0  0  0  0  0  0  0
  148.3496  140.9629  156.2742 N   0  0  0  0  0  0  0  0  0  0  0  0
  150.9612  141.6418  156.6361 N   0  0  0  0  0  0  0  0  0  0  0  0
  151.8366  142.3730  157.5475 C   0  0  0  0  0  0  0  0  0  0  0  0
  151.5427  141.9441  158.9976 C   0  0  0  0  0  0  0  0  0  0  0  0
  152.3743  142.7546  160.0047 C   0  0  0  0  0  0  0  0  0  0  0  0
  152.1554  144.2644  159.8208 C   0  0  0  0  0  0  0  0  0  0  0  0
  152.4615  144.6953  158.3778 C   0  0  0  0  0  0  0  0  0  0  0  0
  151.6301  143.8892  157.3664 C   0  0  0  0  0  0  0  0  0  0  0  0
  150.5231  139.8446  154.0255 H   0  0  0  0  0  0  0  0  0  0  0  0
  149.9596  138.9399  155.4198 H   0  0  0  0  0  0  0  0  0  0  0  0
  148.7329  141.3628  153.0283 H   0  0  0  0  0  0  0  0  0  0  0  0
  146.6398  142.0505  156.7595 H   0  0  0  0  0  0  0  0  0  0  0  0
  150.0120  141.9775  156.5606 H   0  0  0  0  0  0  0  0  0  0  0  0
  152.8828  142.1462  157.3342 H   0  0  0  0  0  0  0  0  0  0  0  0
  150.4824  142.0786  159.2160 H   0  0  0  0  0  0  0  0  0  0  0  0
  151.7506  140.8803  159.1213 H   0  0  0  0  0  0  0  0  0  0  0  0
  152.1141  142.4622  161.0223 H   0  0  0  0  0  0  0  0  0  0  0  0
  153.4321  142.5209  159.8767 H   0  0  0  0  0  0  0  0  0  0  0  0
  151.1237  144.5179  160.0680 H   0  0  0  0  0  0  0  0  0  0  0  0
  152.7855  144.8194  160.5165 H   0  0  0  0  0  0  0  0  0  0  0  0
  152.2626  145.7605  158.2574 H   0  0  0  0  0  0  0  0  0  0  0  0
  153.5234  144.5539  158.1723 H   0  0  0  0  0  0  0  0  0  0  0  0
  151.8998  144.1840  156.3514 H   0  0  0  0  0  0  0  0  0  0  0  0
  150.5748  144.1366  157.4902 H   0  0  0  0  0  0  0  0  0  0  0  0
  1  2  2  0  0  0  0
  2  3  1  0  0  0  0
  2 10  1  0  0  0  0
  3  4  1  0  0  0  0
  3 17  1  0  0  0  0
  3 18  1  0  0  0  0
  4  9  1  0  0  0  0
  4  5  1  0  0  0  0
  5  6  2  0  0  0  0
  5 19  1  0  0  0  0
  6  7  1  0  0  0  0
  6  8  1  0  0  0  0
  8  9  2  0  0  0  0
  8 20  1  0  0  0  0
 10 11  1  0  0  0  0
 10 21  1  0  0  0  0
 11 16  1  0  0  0  0
 11 12  1  0  0  0  0
 11 22  1  0  0  0  0
 12 13  1  0  0  0  0
 12 23  1  0  0  0  0
 12 24  1  0  0  0  0
 13 14  1  0  0  0  0
 13 25  1  0  0  0  0
 13 26  1  0  0  0  0
 14 15  1  0  0  0  0
 14 27  1  0  0  0  0
 14 28  1  0  0  0  0
 15 16  1  0  0  0  0
 15 29  1  0  0  0  0
 15 30  1  0  0  0  0
 16 31  1  0  0  0  0
 16 32  1  0  0  0  0
M  END
> <s_m_source_file>
AV-unprocessed.smi

> <i_m_source_file_index>
1615

> <i_lp_mmshare_version>
43012

> <i_f3d_flags>
0

> <s_epik_input>
bjFbY0hdYyhCcilbY0hdbjFbQ0gyXUMoPU8pW05IXVtDSF0yW0NIMl1bQ0gyXVtDSDJdW0NIMl1bQ0gyXTI=

> <s_epik_cmdline>
J2VwaWtfcHl0aG9uJywgJy1waCcsICc3LjAnLCAnLXRuJywgJzgnLCAnLW1hJywgJzIwMCcsICctbWV0YWxfYmluZGluZycsICctaW1hZScsICc8aW5maWxlLm1hZT4nLCAnLW9tYWUnLCAnPG91dGZpbGUubWFlPic=

> <r_lp_tautomer_probability>
1

> <r_epik_Ionization_Penalty>
2.45271e-07

> <r_epik_Ionization_Penalty_Charging>
0

> <r_epik_Ionization_Penalty_Neutral>
2.45271e-07

> <r_epik_State_Penalty>
-0

> <r_epik_Charging_Adjusted_Penalty>
0

> <i_epik_Tot_Q>
0

> <i_epik_Tot_abs_Q>
0

> <r_epik_Metal_State_Penalty>
-0

> <b_epik_Metal_Only>
0

> <s_lp_Force_Field>
OPLS_2005

> <r_lp_Energy>
11.9835

> <b_lp_Chiralities_Consistent>
1

> <s_lp_Variant>
AV-unprocessed.smi:1615-1

> <Gold.Version>
5.8.1

> <Gold.Id.Protein>
6NUR|6NUR_protein|mol2

> <Gold.PLP.Fitness>
43.8388

> <Gold.PLP.PLP>
-38.4297

> <Gold.PLP.part.hbond>
-1.0000

> <Gold.PLP.part.metal>
0.0000

> <Gold.PLP.part.buried>
-2.9880

> <Gold.PLP.part.nonpolar>
-33.8072

> <Gold.PLP.part.repulsive>
0.1404

> <Gold.PLP.ligand.clash>
0.0000

> <Gold.PLP.ligand.torsion>
0.2990

> <Gold.PLP.Chemscore.Hbond>
1.0000

> <Gold.PLP.Chemscore.CHOScore>
1.0000

> <Gold.PLP.Chemscore.Metal>
0.0000

> <Gold.Chemscore.Hbonds>
donor molecule, donor type, donor heavy atom, donor atom, acceptor molecule, acceptor atom, score
      P1  H  7997  8009       L1     1  1.00
      L1  C     5    19       P1  7957  1.00

> <Gold.PLP.Chemscore.Internal.Correction>
0.0071

> <Gold.Rescore>
     Score         DG    S(hbond)    S(metal)    S(lipo)     H(rot)  DE(clash)    DE(int)     intcor
     15.61     -16.78       0.99        0.00      98.74       1.40       0.85       0.32       ----

> <Gold.Chemscore.Fitness>
15.6126

> <Gold.Chemscore.DG>
-16.7797

> <Gold.Chemscore.ZeroCoef>
-5.4800

> <Gold.Chemscore.Hbond>
0.9944

> <Gold.Chemscore.Metal>
0.0000

> <Gold.Chemscore.Lipo>
98.7427

> <Gold.Chemscore.Internal_Hbond>
0.0000

> <Gold.Chemscore.DEClash>
0.8477

> <Gold.Chemscore.DEInternal>
0.3194

> <Gold.Chemscore.Rot>
1.3963

> <Gold.Chemscore.Internal.Correction>
   9.000000E+99

> <Gold.Chemscore.Hbonds>
donor molecule, donor type, donor heavy atom, donor atom, acceptor molecule, acceptor atom, score
      P1  H  7997  8009       L1     1  0.99

> <Gold.Chemscore.Hbond.Weighted>
-3.3214

> <Gold.Chemscore.Metal.Weighted>
-0.0000

> <Gold.Chemscore.Lipo.Weighted>
-11.5529

> <Gold.Chemscore.Internal_Hbond.Weighted>
0.0000

> <Gold.Chemscore.DEClash.Weighted>
0.8477

> <Gold.Chemscore.DEInternal.Weighted>
0.3194

> <Gold.Chemscore.Rot.Weighted>
3.5746

> <Gold.Chemscore.Internal.Correction.Weighted>
   9.000000E+99

> <Gold.Protein.RotatedTorsions>
[ 6907 6896 6895 6894 ] final  119.79 input  -60.11 | X-H torsion
[ 7974 7965 7964 7962 ] final -177.04 input  175.53 | X-H torsion
[ 8008 7997 7996 7995 ] final -154.22 input   59.86 | X-H torsion
[ 10167 10162 10161 10158 ] final -115.32 input  -65.29 | X-H torsion
[ 10718 10713 10712 10709 ] final -157.02 input   66.30 | X-H torsion
[ 10763 10752 10751 10750 ] final  -49.81 input  -60.55 | X-H torsion
[ 11005 11000 10999 10996 ] final  -77.18 input  -57.11 | X-H torsion

> <Gold.Protein.ActiveResidues>
 VAL166  LYS551  ARG553  GLY616  TRP617  ASP618  TYR619  PRO620  LYS621  CYS622 
 ASP623  PHE694  ASN695  SER759  ASP760  ASP761  ALA762  ILE779  LEU786  VAL792 
 PHE793  MET794  SER795  GLU796  ALA797  LYS798  CYS799  TRP800  GLU811  SER814 

> <Gold.Protein.RotatedAtoms>
  152.4446  133.7512  159.6694 H   0  0  0  0  0  0  0  0  0  0  0  0  # atno 6907 bound_to 6896
  150.8343  133.8029  159.3092 H   0  0  0  0  0  0  0  0  0  0  0  0  # atno 6908 bound_to 6896
  151.5673  135.1066  160.0038 H   0  0  0  0  0  0  0  0  0  0  0  0  # atno 6909 bound_to 6896
  144.7127  140.1079  143.6413 H   0  0  0  0  0  0  0  0  0  0  0  0  # atno 7974 bound_to 7965
  155.6830  140.0746  157.2477 H   0  0  0  0  0  0  0  0  0  0  0  0  # atno 8008 bound_to 7997
  154.4102  140.1678  156.2055 H   0  0  0  0  0  0  0  0  0  0  0  0  # atno 8009 bound_to 7997
  155.9518  140.3376  155.6417 H   0  0  0  0  0  0  0  0  0  0  0  0  # atno 8010 bound_to 7997
  140.0914  143.4697  152.1868 H   0  0  0  0  0  0  0  0  0  0  0  0  # atno 10167 bound_to 10162
  156.5346  130.8536  151.2728 H   0  0  0  0  0  0  0  0  0  0  0  0  # atno 10718 bound_to 10713
  154.1001  135.6564  153.4867 H   0  0  0  0  0  0  0  0  0  0  0  0  # atno 10763 bound_to 10752
  153.0291  135.5223  154.7295 H   0  0  0  0  0  0  0  0  0  0  0  0  # atno 10764 bound_to 10752
  154.6444  135.2992  155.0033 H   0  0  0  0  0  0  0  0  0  0  0  0  # atno 10765 bound_to 10752
  141.1659  133.7012  156.7781 H   0  0  0  0  0  0  0  0  0  0  0  0  # atno 11005 bound_to 11000
  145.9480  139.2714  143.1229 LP  0  0  0  0  0  0  0  0  0  0  0  0  # atno 17320 bound_to 7965
  145.9353  140.9019  143.0335 LP  0  0  0  0  0  0  0  0  0  0  0  0  # atno 17321 bound_to 7965
  139.5723  144.7469  151.3858 LP  0  0  0  0  0  0  0  0  0  0  0  0  # atno 17342 bound_to 10162
  140.7027  143.7592  150.7429 LP  0  0  0  0  0  0  0  0  0  0  0  0  # atno 17343 bound_to 10162
  157.7416  130.9873  150.2456 LP  0  0  0  0  0  0  0  0  0  0  0  0  # atno 17370 bound_to 10713
  156.3028  130.3761  149.7734 LP  0  0  0  0  0  0  0  0  0  0  0  0  # atno 17371 bound_to 10713
  140.2415  134.8610  157.3578 LP  0  0  0  0  0  0  0  0  0  0  0  0  # atno 17394 bound_to 11000
  140.1791  134.4512  155.7783 LP  0  0  0  0  0  0  0  0  0  0  0  0  # atno 17395 bound_to 11000

$$$$
