AV-unprocessed.smi:155|AV-procd|sdf|1276|dock7
  -GOLD-   2262018543D 1   1.00000     0.00000
 Structure written by MMmdl.
 63 66  0  0  0  0  0  0  0  0  2 V2000
  144.0049  132.6746  149.8649 C   0  0  0  0  0  0  0  0  0  0  0  0
  145.0905  133.6696  150.0267 N   0  3  0  0  0  0  0  0  0  0  0  0
  146.3488  133.0295  150.4698 C   0  0  0  0  0  0  0  0  0  0  0  0
  144.7093  134.8158  150.8894 C   0  0  0  0  0  0  0  0  0  0  0  0
  145.8271  135.8762  150.9779 C   0  0  0  0  0  0  0  0  0  0  0  0
  145.5308  136.9060  151.9747 N   0  0  0  0  0  0  0  0  0  0  0  0
  145.4386  136.3633  153.3386 C   0  0  0  0  0  0  0  0  0  0  0  0
  146.7819  136.2571  154.0904 C   0  0  0  0  0  0  0  0  0  0  0  0
  147.1266  137.5400  154.8710 C   0  0  0  0  0  0  0  0  0  0  0  0
  147.4188  138.6815  154.0026 N   0  0  0  0  0  0  0  0  0  0  0  0
  148.1452  139.7065  154.5163 C   0  0  0  0  0  0  0  0  0  0  0  0
  148.2300  140.8799  153.8341 N   0  0  0  0  0  0  0  0  0  0  0  0
  148.9452  141.8965  154.3251 C   0  0  0  0  0  0  0  0  0  0  0  0
  149.6402  141.9557  155.4625 N   0  0  0  0  0  0  0  0  0  0  0  0
  149.5522  140.7848  156.1558 C   0  0  0  0  0  0  0  0  0  0  0  0
  148.8330  139.6216  155.7603 C   0  0  0  0  0  0  0  0  0  0  0  0
  148.9625  138.6333  156.7297 N   0  0  0  0  0  0  0  0  0  0  0  0
  149.7198  139.1784  157.6419 C   0  0  0  0  0  0  0  0  0  0  0  0
  150.1123  140.4713  157.3815 N   0  0  0  0  0  0  0  0  0  0  0  0
  150.9361  141.3125  158.2304 C   0  0  0  0  0  0  0  0  0  0  0  0
  151.0783  142.7518  157.6922 C   0  0  1  0  0  0  0  0  0  0  0  0
  149.8765  143.4258  158.0063 O   0  0  0  0  0  0  0  0  0  0  0  0
  152.2698  143.5471  158.2885 C   0  0  2  0  0  0  0  0  0  0  0  0
  153.1368  142.7494  159.2665 C   0  0  0  0  0  0  0  0  0  0  0  0
  152.3827  142.8490  160.5801 C   0  0  0  0  0  0  0  0  0  0  0  0
  151.5573  144.1285  160.4298 C   0  0  0  0  0  0  0  0  0  0  0  0
  151.8278  144.6141  159.1192 O   0  0  0  0  0  0  0  0  0  0  0  0
  146.4501  139.0304  152.9645 C   0  0  0  0  0  0  0  0  0  0  0  0
  146.4925  138.0024  151.8221 C   0  0  0  0  0  0  0  0  0  0  0  0
  143.7507  132.2150  150.8210 H   0  0  0  0  0  0  0  0  0  0  0  0
  144.3113  131.8829  149.1805 H   0  0  0  0  0  0  0  0  0  0  0  0
  143.1017  133.1253  149.4554 H   0  0  0  0  0  0  0  0  0  0  0  0
  146.2433  132.6116  151.4719 H   0  0  0  0  0  0  0  0  0  0  0  0
  147.1672  133.7501  150.4828 H   0  0  0  0  0  0  0  0  0  0  0  0
  146.6322  132.2240  149.7914 H   0  0  0  0  0  0  0  0  0  0  0  0
  143.7837  135.2533  150.5109 H   0  0  0  0  0  0  0  0  0  0  0  0
  144.4900  134.4515  151.8933 H   0  0  0  0  0  0  0  0  0  0  0  0
  146.7939  135.4105  151.1739 H   0  0  0  0  0  0  0  0  0  0  0  0
  145.9182  136.3701  150.0107 H   0  0  0  0  0  0  0  0  0  0  0  0
  144.7598  136.9942  153.9132 H   0  0  0  0  0  0  0  0  0  0  0  0
  144.9562  135.3877  153.3213 H   0  0  0  0  0  0  0  0  0  0  0  0
  146.6932  135.4505  154.8186 H   0  0  0  0  0  0  0  0  0  0  0  0
  147.5970  135.9633  153.4281 H   0  0  0  0  0  0  0  0  0  0  0  0
  146.3102  137.8004  155.5460 H   0  0  0  0  0  0  0  0  0  0  0  0
  147.9973  137.3353  155.4959 H   0  0  0  0  0  0  0  0  0  0  0  0
  148.9623  142.7906  153.7196 H   0  0  0  0  0  0  0  0  0  0  0  0
  150.0057  138.6535  158.5418 H   0  0  0  0  0  0  0  0  0  0  0  0
  150.4817  141.3257  159.2222 H   0  0  0  0  0  0  0  0  0  0  0  0
  151.9165  140.8486  158.3450 H   0  0  0  0  0  0  0  0  0  0  0  0
  151.1551  142.7204  156.6048 H   0  0  0  0  0  0  0  0  0  0  0  0
  149.4408  143.6525  157.1990 H   0  0  0  0  0  0  0  0  0  0  0  0
  152.8782  143.9505  157.4781 H   0  0  0  0  0  0  0  0  0  0  0  0
  153.3219  141.7199  158.9589 H   0  0  0  0  0  0  0  0  0  0  0  0
  154.1057  143.2399  159.3692 H   0  0  0  0  0  0  0  0  0  0  0  0
  151.7227  141.9902  160.7072 H   0  0  0  0  0  0  0  0  0  0  0  0
  153.0566  142.8846  161.4365 H   0  0  0  0  0  0  0  0  0  0  0  0
  150.4922  143.9184  160.5330 H   0  0  0  0  0  0  0  0  0  0  0  0
  151.8266  144.8822  161.1700 H   0  0  0  0  0  0  0  0  0  0  0  0
  145.4502  139.1133  153.3921 H   0  0  0  0  0  0  0  0  0  0  0  0
  146.6679  140.0157  152.5532 H   0  0  0  0  0  0  0  0  0  0  0  0
  147.5083  137.6200  151.7054 H   0  0  0  0  0  0  0  0  0  0  0  0
  146.2539  138.5107  150.8871 H   0  0  0  0  0  0  0  0  0  0  0  0
  145.2801  134.0506  149.1105 H   0  0  0  0  0  0  0  0  0  0  0  0
  1  2  1  0  0  0  0
  1 30  1  0  0  0  0
  1 31  1  0  0  0  0
  1 32  1  0  0  0  0
  2  3  1  0  0  0  0
  2  4  1  0  0  0  0
  2 63  1  0  0  0  0
  3 33  1  0  0  0  0
  3 34  1  0  0  0  0
  3 35  1  0  0  0  0
  4  5  1  0  0  0  0
  4 36  1  0  0  0  0
  4 37  1  0  0  0  0
  5  6  1  0  0  0  0
  5 38  1  0  0  0  0
  5 39  1  0  0  0  0
  6 29  1  0  0  0  0
  6  7  1  0  0  0  0
  7  8  1  0  0  0  0
  7 40  1  0  0  0  0
  7 41  1  0  0  0  0
  8  9  1  0  0  0  0
  8 42  1  0  0  0  0
  8 43  1  0  0  0  0
  9 10  1  0  0  0  0
  9 44  1  0  0  0  0
  9 45  1  0  0  0  0
 10 11  1  0  0  0  0
 10 28  1  0  0  0  0
 11 16  1  0  0  0  0
 11 12  2  0  0  0  0
 12 13  1  0  0  0  0
 13 14  2  0  0  0  0
 13 46  1  0  0  0  0
 14 15  1  0  0  0  0
 15 19  1  0  0  0  0
 15 16  2  0  0  0  0
 16 17  1  0  0  0  0
 17 18  2  0  0  0  0
 18 19  1  0  0  0  0
 18 47  1  0  0  0  0
 19 20  1  0  0  0  0
 20 21  1  0  0  0  0
 20 48  1  0  0  0  0
 20 49  1  0  0  0  0
 21 22  1  0  0  0  0
 21 23  1  0  0  0  0
 21 50  1  0  0  0  0
 22 51  1  0  0  0  0
 23 27  1  0  0  0  0
 23 24  1  0  0  0  0
 23 52  1  0  0  0  0
 24 25  1  0  0  0  0
 24 53  1  0  0  0  0
 24 54  1  0  0  0  0
 25 26  1  0  0  0  0
 25 55  1  0  0  0  0
 25 56  1  0  0  0  0
 26 27  1  0  0  0  0
 26 57  1  0  0  0  0
 26 58  1  0  0  0  0
 28 29  1  0  0  0  0
 28 59  1  0  0  0  0
 28 60  1  0  0  0  0
 29 61  1  0  0  0  0
 29 62  1  0  0  0  0
M  CHG  1   2   1
M  END
> <s_m_source_file>
AV-unprocessed.smi

> <i_m_source_file_index>
155

> <i_lp_mmshare_version>
43012

> <i_f3d_flags>
0

> <s_epik_input>
W0NIM11OKFtDSDNdKVtDSDJdW0NIMl1OMVtDSDJdW0NIMl1bQ0gyXU4oW0NIMl1bQ0gyXTEpYyhuW2NIXW4yKWMoYzIzKW5bY0hdbjNbQ0gyXVtDQEhdKFtPSF0pW0NAQEhdNFtDSDJdW0NIMl1bQ0gyXU80

> <s_epik_cmdline>
J2VwaWtfcHl0aG9uJywgJy1waCcsICc3LjAnLCAnLXRuJywgJzgnLCAnLW1hJywgJzIwMCcsICctbWV0YWxfYmluZGluZycsICctaW1hZScsICc8aW5maWxlLm1hZT4nLCAnLW9tYWUnLCAnPG91dGZpbGUubWFlPic=

> <r_lp_tautomer_probability>
1

> <r_epik_Ionization_Penalty>
0.0599493

> <r_epik_Ionization_Penalty_Charging>
0.00816363

> <r_epik_Ionization_Penalty_Neutral>
0.0517857

> <r_epik_State_Penalty>
0.460607

> <r_epik_Charging_Adjusted_Penalty>
0.468771

> <i_epik_Tot_Q>
1

> <i_epik_Tot_abs_Q>
1

> <r_epik_Metal_State_Penalty>
0.45965

> <b_epik_Metal_Only>
0

> <s_lp_Force_Field>
OPLS_2005

> <r_lp_Energy>
58.8836

> <b_lp_Chiralities_Consistent>
1

> <s_lp_Variant>
AV-unprocessed.smi:155-10

> <Gold.Version>
5.8.1

> <Gold.Id.Protein>
6NUR|6NUR_protein|mol2

> <Gold.PLP.Fitness>
47.4353

> <Gold.PLP.PLP>
-43.9442

> <Gold.PLP.part.hbond>
-2.2109

> <Gold.PLP.part.metal>
0.0000

> <Gold.PLP.part.buried>
-2.8594

> <Gold.PLP.part.nonpolar>
-41.5194

> <Gold.PLP.part.repulsive>
2.3358

> <Gold.PLP.ligand.clash>
0.0000

> <Gold.PLP.ligand.torsion>
1.8053

> <Gold.PLP.Chemscore.Hbond>
2.0000

> <Gold.PLP.Chemscore.CHOScore>
0.2388

> <Gold.PLP.Chemscore.Metal>
0.0000

> <Gold.Chemscore.Hbonds>
donor molecule, donor type, donor heavy atom, donor atom, acceptor molecule, acceptor atom, score
      L1  H     2    63       P1  7921  1.00
      L1  H    22    51       P1  8028  1.00
      L1  C    13    46       P1  8028  0.25

> <Gold.PLP.Chemscore.Internal.Correction>
0.3853

> <Gold.Rescore>
     Score         DG    S(hbond)    S(metal)    S(lipo)     H(rot)  DE(clash)    DE(int)     intcor
     11.35     -18.13       1.87        0.00     114.06       2.71       1.71       5.07       ----

> <Gold.Chemscore.Fitness>
11.3536

> <Gold.Chemscore.DG>
-18.1332

> <Gold.Chemscore.ZeroCoef>
-5.4800

> <Gold.Chemscore.Hbond>
1.8684

> <Gold.Chemscore.Metal>
0.0000

> <Gold.Chemscore.Lipo>
114.0624

> <Gold.Chemscore.Internal_Hbond>
0.0000

> <Gold.Chemscore.DEClash>
1.7134

> <Gold.Chemscore.DEInternal>
5.0662

> <Gold.Chemscore.Rot>
2.7080

> <Gold.Chemscore.Internal.Correction>
   9.000000E+99

> <Gold.Chemscore.Hbonds>
donor molecule, donor type, donor heavy atom, donor atom, acceptor molecule, acceptor atom, score
      L1  H     2    63       P1  7921  0.93
      L1  H    22    51       P1  8028  0.73

> <Gold.Chemscore.Hbond.Weighted>
-6.2405

> <Gold.Chemscore.Metal.Weighted>
-0.0000

> <Gold.Chemscore.Lipo.Weighted>
-13.3453

> <Gold.Chemscore.Internal_Hbond.Weighted>
0.0000

> <Gold.Chemscore.DEClash.Weighted>
1.7134

> <Gold.Chemscore.DEInternal.Weighted>
5.0662

> <Gold.Chemscore.Rot.Weighted>
6.9326

> <Gold.Chemscore.Internal.Correction.Weighted>
   9.000000E+99

> <Gold.Protein.RotatedTorsions>
[ 6907 6896 6895 6894 ] final -171.11 input  -60.11 | X-H torsion
[ 7974 7965 7964 7962 ] final  139.97 input  175.53 | X-H torsion
[ 8008 7997 7996 7995 ] final  102.96 input   59.86 | X-H torsion
[ 10167 10162 10161 10158 ] final  -33.52 input  -65.29 | X-H torsion
[ 10718 10713 10712 10709 ] final   35.45 input   66.30 | X-H torsion
[ 10763 10752 10751 10750 ] final   78.48 input  -60.55 | X-H torsion
[ 11005 11000 10999 10996 ] final  152.01 input  -57.11 | X-H torsion

> <Gold.Protein.ActiveResidues>
 VAL166  LYS551  ARG553  GLY616  TRP617  ASP618  TYR619  PRO620  LYS621  CYS622 
 ASP623  PHE694  ASN695  SER759  ASP760  ASP761  ALA762  ILE779  LEU786  VAL792 
 PHE793  MET794  SER795  GLU796  ALA797  LYS798  CYS799  TRP800  GLU811  SER814 

> <Gold.Protein.RotatedAtoms>
  151.5185  133.3471  159.2896 H   0  0  0  0  0  0  0  0  0  0  0  0  # atno 6907 bound_to 6896
  150.8667  134.8034  159.7135 H   0  0  0  0  0  0  0  0  0  0  0  0  # atno 6908 bound_to 6896
  152.4669  134.5063  159.9792 H   0  0  0  0  0  0  0  0  0  0  0  0  # atno 6909 bound_to 6896
  144.9229  139.5144  143.5654 H   0  0  0  0  0  0  0  0  0  0  0  0  # atno 7974 bound_to 7965
  156.1440  140.3173  155.8541 H   0  0  0  0  0  0  0  0  0  0  0  0  # atno 8008 bound_to 7997
  155.4099  140.0505  157.3049 H   0  0  0  0  0  0  0  0  0  0  0  0  # atno 8009 bound_to 7997
  154.5000  140.2126  155.9378 H   0  0  0  0  0  0  0  0  0  0  0  0  # atno 8010 bound_to 7997
  140.7203  143.3614  151.1955 H   0  0  0  0  0  0  0  0  0  0  0  0  # atno 10167 bound_to 10162
  157.3228  130.7457  149.6796 H   0  0  0  0  0  0  0  0  0  0  0  0  # atno 10718 bound_to 10713
  153.0877  135.4875  154.8630 H   0  0  0  0  0  0  0  0  0  0  0  0  # atno 10763 bound_to 10752
  154.7231  135.3044  154.9017 H   0  0  0  0  0  0  0  0  0  0  0  0  # atno 10764 bound_to 10752
  153.9675  135.6805  153.4799 H   0  0  0  0  0  0  0  0  0  0  0  0  # atno 10765 bound_to 10752
  140.1270  134.8827  157.2151 H   0  0  0  0  0  0  0  0  0  0  0  0  # atno 11005 bound_to 11000
  146.3213  139.8122  142.8943 LP  0  0  0  0  0  0  0  0  0  0  0  0  # atno 17320 bound_to 7965
  145.3266  141.0257  143.3470 LP  0  0  0  0  0  0  0  0  0  0  0  0  # atno 17321 bound_to 7965
  139.7167  143.9289  152.2969 LP  0  0  0  0  0  0  0  0  0  0  0  0  # atno 17342 bound_to 10162
  139.9032  144.6900  150.8643 LP  0  0  0  0  0  0  0  0  0  0  0  0  # atno 17343 bound_to 10162
  155.9687  130.4218  150.4486 LP  0  0  0  0  0  0  0  0  0  0  0  0  # atno 17370 bound_to 10713
  157.2505  131.0545  151.2382 LP  0  0  0  0  0  0  0  0  0  0  0  0  # atno 17371 bound_to 10713
  140.2892  134.3260  155.7320 LP  0  0  0  0  0  0  0  0  0  0  0  0  # atno 17394 bound_to 11000
  141.2163  133.7524  156.9477 LP  0  0  0  0  0  0  0  0  0  0  0  0  # atno 17395 bound_to 11000

$$$$
