AV-unprocessed.smi:37|AV-procd|sdf|319|dock6
  -GOLD-   2262016143D 1   1.00000     0.00000
 Structure written by MMmdl.
 43 44  0  0  0  0  0  0  0  0  2 V2000
  147.5504  141.0071  154.3881 C   0  0  0  0  0  0  0  0  0  0  0  0
  149.0655  141.2513  154.3735 C   0  0  0  0  0  0  0  0  0  0  0  0
  149.8605  139.9524  154.4862 C   0  0  0  0  0  0  0  0  0  0  0  0
  151.0758  139.9251  154.2900 O   0  0  0  0  0  0  0  0  0  0  0  0
  149.0906  138.8997  154.8036 O   0  0  0  0  0  0  0  0  0  0  0  0
  149.5709  137.5855  154.5752 C   0  0  0  0  0  0  0  0  0  0  0  0
  148.9322  136.6288  155.5872 C   0  0  2  0  0  0  0  0  0  0  0  0
  149.4184  136.9056  156.9018 O   0  0  0  0  0  0  0  0  0  0  0  0
  149.9273  135.7410  157.4792 C   0  0  1  0  0  0  0  0  0  0  0  0
  149.6233  135.7163  158.9592 N   0  0  0  0  0  0  0  0  0  0  0  0
  149.3398  134.5309  159.6178 C   0  0  0  0  0  0  0  0  0  0  0  0
  149.0705  134.5144  160.9393 C   0  0  0  0  0  0  0  0  0  0  0  0
  148.8038  133.3487  161.5533 F   0  0  0  0  0  0  0  0  0  0  0  0
  149.0738  135.7662  161.6945 C   0  0  0  0  0  0  0  0  0  0  0  0
  148.8245  135.7453  162.8987 O   0  0  0  0  0  0  0  0  0  0  0  0
  149.3574  136.9177  161.0191 N   0  5  0  0  0  0  0  0  0  0  0  0
  149.6327  136.9392  159.6822 C   0  0  0  0  0  0  0  0  0  0  0  0
  149.8929  137.9714  159.0633 O   0  0  0  0  0  0  0  0  0  0  0  0
  149.2954  134.5724  156.7206 C   0  0  1  0  0  0  0  0  0  0  0  0
  147.4282  134.2027  157.3394 Br  0  0  0  0  0  0  0  0  0  0  0  0
  149.2813  135.1600  155.3206 C   0  0  1  0  0  0  0  0  0  0  0  0
  148.3298  134.5376  154.4669 O   0  0  0  0  0  0  0  0  0  0  0  0
  148.6440  133.4045  153.8138 C   0  0  0  0  0  0  0  0  0  0  0  0
  149.7564  132.8786  153.7737 O   0  0  0  0  0  0  0  0  0  0  0  0
  147.4440  132.7830  153.1031 C   0  0  0  0  0  0  0  0  0  0  0  0
  146.9193  133.6695  151.9655 C   0  0  0  0  0  0  0  0  0  0  0  0
  147.0095  141.9523  154.3380 H   0  0  0  0  0  0  0  0  0  0  0  0
  147.2396  140.4969  155.3006 H   0  0  0  0  0  0  0  0  0  0  0  0
  147.2337  140.4010  153.5385 H   0  0  0  0  0  0  0  0  0  0  0  0
  149.3528  141.7616  153.4539 H   0  0  0  0  0  0  0  0  0  0  0  0
  149.3425  141.9070  155.1994 H   0  0  0  0  0  0  0  0  0  0  0  0
  149.3020  137.2857  153.5613 H   0  0  0  0  0  0  0  0  0  0  0  0
  150.6587  137.5501  154.6520 H   0  0  0  0  0  0  0  0  0  0  0  0
  147.8478  136.7510  155.5984 H   0  0  0  0  0  0  0  0  0  0  0  0
  151.0153  135.7688  157.3932 H   0  0  0  0  0  0  0  0  0  0  0  0
  149.3397  133.5950  159.0794 H   0  0  0  0  0  0  0  0  0  0  0  0
  149.8863  133.6608  156.8138 H   0  0  0  0  0  0  0  0  0  0  0  0
  150.2862  135.1096  154.8971 H   0  0  0  0  0  0  0  0  0  0  0  0
  147.7337  131.8084  152.7091 H   0  0  0  0  0  0  0  0  0  0  0  0
  146.6549  132.6065  153.8345 H   0  0  0  0  0  0  0  0  0  0  0  0
  146.0892  133.1838  151.4528 H   0  0  0  0  0  0  0  0  0  0  0  0
  147.6955  133.8659  151.2251 H   0  0  0  0  0  0  0  0  0  0  0  0
  146.5590  134.6286  152.3390 H   0  0  0  0  0  0  0  0  0  0  0  0
  1  2  1  0  0  0  0
  1 27  1  0  0  0  0
  1 28  1  0  0  0  0
  1 29  1  0  0  0  0
  2  3  1  0  0  0  0
  2 30  1  0  0  0  0
  2 31  1  0  0  0  0
  3  4  2  0  0  0  0
  3  5  1  0  0  0  0
  5  6  1  0  0  0  0
  6  7  1  0  0  0  0
  6 32  1  0  0  0  0
  6 33  1  0  0  0  0
  7 21  1  0  0  0  0
  7  8  1  0  0  0  0
  7 34  1  0  0  0  0
  8  9  1  0  0  0  0
  9 10  1  0  0  0  0
  9 19  1  0  0  0  0
  9 35  1  0  0  0  0
 10 17  1  0  0  0  0
 10 11  1  0  0  0  0
 11 12  2  0  0  0  0
 11 36  1  0  0  0  0
 12 13  1  0  0  0  0
 12 14  1  0  0  0  0
 14 15  2  0  0  0  0
 14 16  1  0  0  0  0
 16 17  1  0  0  0  0
 17 18  2  0  0  0  0
 19 20  1  0  0  0  0
 19 21  1  0  0  0  0
 19 37  1  0  0  0  0
 21 22  1  0  0  0  0
 21 38  1  0  0  0  0
 22 23  1  0  0  0  0
 23 24  2  0  0  0  0
 23 25  1  0  0  0  0
 25 26  1  0  0  0  0
 25 39  1  0  0  0  0
 25 40  1  0  0  0  0
 26 41  1  0  0  0  0
 26 42  1  0  0  0  0
 26 43  1  0  0  0  0
M  CHG  1  16  -1
M  END
> <s_m_source_file>
AV-unprocessed.smi

> <i_m_source_file_index>
37

> <i_lp_mmshare_version>
43012

> <i_f3d_flags>
0

> <s_epik_input>
W0NIM11bQ0gyXUMoPU8pT1tDSDJdW0NAQEhdMU9bQ0BASF0objJbY0hdYyhGKWMoPU8pW25IXWMyPU8pW0NAQEhdKEJyKVtDQEhdMU9DKD1PKVtDSDJdW0NIM10=

> <s_epik_cmdline>
J2VwaWtfcHl0aG9uJywgJy1waCcsICc3LjAnLCAnLXRuJywgJzgnLCAnLW1hJywgJzIwMCcsICctbWV0YWxfYmluZGluZycsICctaW1hZScsICc8aW5maWxlLm1hZT4nLCAnLW9tYWUnLCAnPG91dGZpbGUubWFlPic=

> <r_epik_Ionization_Penalty>
1.08158

> <r_epik_Ionization_Penalty_Charging>
9.05154e-09

> <r_epik_Ionization_Penalty_Neutral>
1.08158

> <r_epik_State_Penalty>
1.13706

> <r_epik_Charging_Adjusted_Penalty>
1.13706

> <i_epik_Tot_Q>
-1

> <i_epik_Tot_abs_Q>
1

> <r_epik_Metal_State_Penalty>
0.00343535

> <b_epik_Metal_Only>
0

> <s_epik_Chemistry_Notes>
This compound has an ester and may undergo hydrolysis at high or low pH. This compound contains an acetal/aminal-like group ( X-CH(R)-Y where X, Y are N, S, or O) that may be acid/base labile, releasing an aldehyde.

> <s_lp_Force_Field>
OPLS_2005

> <r_lp_Energy>
34.8687

> <b_lp_Chiralities_Consistent>
1

> <s_lp_Variant>
AV-unprocessed.smi:37-17

> <Gold.Version>
5.8.1

> <Gold.Id.Protein>
6NUR|6NUR_protein|mol2

> <Gold.PLP.Fitness>
42.2979

> <Gold.PLP.PLP>
-33.6151

> <Gold.PLP.part.hbond>
-4.4667

> <Gold.PLP.part.metal>
0.0000

> <Gold.PLP.part.buried>
-3.1149

> <Gold.PLP.part.nonpolar>
-27.0754

> <Gold.PLP.part.repulsive>
0.4723

> <Gold.PLP.ligand.clash>
1.9963

> <Gold.PLP.ligand.torsion>
1.5628

> <Gold.PLP.Chemscore.Hbond>
4.4880

> <Gold.PLP.Chemscore.CHOScore>
0.0000

> <Gold.PLP.Chemscore.Metal>
0.0000

> <Gold.Chemscore.Hbonds>
donor molecule, donor type, donor heavy atom, donor atom, acceptor molecule, acceptor atom, score
      P1  H  6931  6943       L1    16  1.54
      P1  H  7989  7998       L1     4  0.55

> <Gold.PLP.Chemscore.Internal.Correction>
0.3407

> <Gold.Rescore>
     Score         DG    S(hbond)    S(metal)    S(lipo)     H(rot)  DE(clash)    DE(int)     intcor
      4.13      -8.19       1.87        0.00      41.17       3.27       0.05       4.01       ----

> <Gold.Chemscore.Fitness>
4.1306

> <Gold.Chemscore.DG>
-8.1934

> <Gold.Chemscore.ZeroCoef>
-5.4800

> <Gold.Chemscore.Hbond>
1.8742

> <Gold.Chemscore.Metal>
0.0000

> <Gold.Chemscore.Lipo>
41.1697

> <Gold.Chemscore.Internal_Hbond>
0.0000

> <Gold.Chemscore.DEClash>
0.0516

> <Gold.Chemscore.DEInternal>
4.0112

> <Gold.Chemscore.Rot>
3.2669

> <Gold.Chemscore.Internal.Correction>
   9.000000E+99

> <Gold.Chemscore.Hbonds>
donor molecule, donor type, donor heavy atom, donor atom, acceptor molecule, acceptor atom, score
      P1  H  6931  6943       L1    16  0.64
      P1  H  7989  7998       L1     4  0.52

> <Gold.Chemscore.Hbond.Weighted>
-6.2599

> <Gold.Chemscore.Metal.Weighted>
-0.0000

> <Gold.Chemscore.Lipo.Weighted>
-4.8169

> <Gold.Chemscore.Internal_Hbond.Weighted>
0.0000

> <Gold.Chemscore.DEClash.Weighted>
0.0516

> <Gold.Chemscore.DEInternal.Weighted>
4.0112

> <Gold.Chemscore.Rot.Weighted>
8.3634

> <Gold.Chemscore.Internal.Correction.Weighted>
   9.000000E+99

> <Gold.Protein.RotatedTorsions>
[ 6907 6896 6895 6894 ] final  -82.61 input  -60.11 | X-H torsion
[ 7974 7965 7964 7962 ] final  -97.04 input  175.53 | X-H torsion
[ 8008 7997 7996 7995 ] final  170.13 input   59.86 | X-H torsion
[ 10167 10162 10161 10158 ] final -143.47 input  -65.29 | X-H torsion
[ 10718 10713 10712 10709 ] final   46.39 input   66.30 | X-H torsion
[ 10763 10752 10751 10750 ] final  -36.82 input  -60.55 | X-H torsion
[ 11005 11000 10999 10996 ] final  167.28 input  -57.11 | X-H torsion

> <Gold.Protein.ActiveResidues>
 VAL166  LYS551  ARG553  GLY616  TRP617  ASP618  TYR619  PRO620  LYS621  CYS622 
 ASP623  PHE694  ASN695  SER759  ASP760  ASP761  ALA762  ILE779  LEU786  VAL792 
 PHE793  MET794  SER795  GLU796  ALA797  LYS798  CYS799  TRP800  GLU811  SER814 

> <Gold.Protein.RotatedAtoms>
  150.6895  134.3638  159.4961 H   0  0  0  0  0  0  0  0  0  0  0  0  # atno 6907 bound_to 6896
  152.1463  134.9020  160.0560 H   0  0  0  0  0  0  0  0  0  0  0  0  # atno 6908 bound_to 6896
  152.0135  133.3836  159.4266 H   0  0  0  0  0  0  0  0  0  0  0  0  # atno 6909 bound_to 6896
  145.3390  140.9456  143.2619 H   0  0  0  0  0  0  0  0  0  0  0  0  # atno 7974 bound_to 7965
  156.1394  140.1546  156.8944 H   0  0  0  0  0  0  0  0  0  0  0  0  # atno 8008 bound_to 7997
  154.4974  140.0834  156.7765 H   0  0  0  0  0  0  0  0  0  0  0  0  # atno 8009 bound_to 7997
  155.4108  140.3418  155.4266 H   0  0  0  0  0  0  0  0  0  0  0  0  # atno 8010 bound_to 7997
  139.7990  143.7860  152.2656 H   0  0  0  0  0  0  0  0  0  0  0  0  # atno 10167 bound_to 10162
  157.4476  130.8119  149.7756 H   0  0  0  0  0  0  0  0  0  0  0  0  # atno 10718 bound_to 10713
  153.8861  135.6817  153.4763 H   0  0  0  0  0  0  0  0  0  0  0  0  # atno 10763 bound_to 10752
  153.1207  135.4741  154.9188 H   0  0  0  0  0  0  0  0  0  0  0  0  # atno 10764 bound_to 10752
  154.7645  135.3220  154.8265 H   0  0  0  0  0  0  0  0  0  0  0  0  # atno 10765 bound_to 10752
  140.2751  134.7795  157.3710 H   0  0  0  0  0  0  0  0  0  0  0  0  # atno 11005 bound_to 11000
  144.8805  139.4910  143.6725 LP  0  0  0  0  0  0  0  0  0  0  0  0  # atno 17320 bound_to 7965
  146.3015  139.7442  142.9088 LP  0  0  0  0  0  0  0  0  0  0  0  0  # atno 17321 bound_to 7965
  139.7974  144.7387  150.9871 LP  0  0  0  0  0  0  0  0  0  0  0  0  # atno 17342 bound_to 10162
  140.7820  143.4379  151.0595 LP  0  0  0  0  0  0  0  0  0  0  0  0  # atno 17343 bound_to 10162
  155.9974  130.3900  150.2742 LP  0  0  0  0  0  0  0  0  0  0  0  0  # atno 17370 bound_to 10713
  157.0911  131.0170  151.3121 LP  0  0  0  0  0  0  0  0  0  0  0  0  # atno 17371 bound_to 10713
  140.1336  134.5063  155.8086 LP  0  0  0  0  0  0  0  0  0  0  0  0  # atno 17394 bound_to 11000
  141.2171  133.6799  156.7083 LP  0  0  0  0  0  0  0  0  0  0  0  0  # atno 17395 bound_to 11000

$$$$
