AV-unprocessed.smi:2845|AV-procd|sdf|10947|dock5
  -GOLD-   2272015393D 1   1.00000     0.00000
 Structure written by MMmdl.
 43 45  0  0  0  0  0  0  0  0  2 V2000
  152.1949  145.0032  160.5090 C   0  0  0  0  0  0  0  0  0  0  0  0
  151.9422  143.8073  159.6067 C   0  0  0  0  0  0  0  0  0  0  0  0
  151.2621  144.0159  158.3854 C   0  0  0  0  0  0  0  0  0  0  0  0
  151.0472  142.9031  157.5810 C   0  0  0  0  0  0  0  0  0  0  0  0
  150.4206  142.7778  156.3389 N   0  3  0  0  0  0  0  0  0  0  0  0
  150.4553  141.4754  155.9420 C   0  0  0  0  0  0  0  0  0  0  0  0
  151.0942  140.7683  156.9130 N   0  0  0  0  0  0  0  0  0  0  0  0
  151.4055  139.3352  156.9845 C   0  0  0  0  0  0  0  0  0  0  0  0
  150.1846  138.4807  157.3868 C   0  0  2  0  0  0  0  0  0  0  0  0
  149.0585  139.3216  157.5522 O   0  0  0  0  0  0  0  0  0  0  0  0
  150.4104  137.6441  158.6649 C   0  0  0  0  0  0  0  0  0  0  0  0
  149.2265  136.9343  159.1198 N   0  0  0  0  0  0  0  0  0  0  0  0
  148.5301  135.9501  158.5426 C   0  0  0  0  0  0  0  0  0  0  0  0
  147.4903  135.5357  159.2538 N   0  0  0  0  0  0  0  0  0  0  0  0
  147.6190  136.3717  160.3251 C   0  0  0  0  0  0  0  0  0  0  0  0
  146.4547  136.3221  161.7233 S   0  0  1  0  0  0  0  0  0  0  0  0
  147.6658  135.6306  162.9459 C   0  0  0  0  0  0  0  0  0  0  0  0
  146.2041  137.7796  162.1159 O   0  0  0  0  0  0  0  0  0  0  0  0
  148.6336  137.2329  160.3005 N   0  0  0  0  0  0  0  0  0  0  0  0
  151.4819  141.6167  157.9546 C   0  0  0  0  0  0  0  0  0  0  0  0
  152.1532  141.3928  159.1540 C   0  0  0  0  0  0  0  0  0  0  0  0
  152.3819  142.5122  159.9860 C   0  0  0  0  0  0  0  0  0  0  0  0
  153.1117  142.2999  161.3017 C   0  0  0  0  0  0  0  0  0  0  0  0
  151.7911  145.9202  160.0788 H   0  0  0  0  0  0  0  0  0  0  0  0
  153.2645  145.1496  160.6607 H   0  0  0  0  0  0  0  0  0  0  0  0
  151.7237  144.8563  161.4812 H   0  0  0  0  0  0  0  0  0  0  0  0
  150.9244  144.9987  158.0906 H   0  0  0  0  0  0  0  0  0  0  0  0
  150.0539  141.0756  155.0219 H   0  0  0  0  0  0  0  0  0  0  0  0
  151.8055  139.0183  156.0207 H   0  0  0  0  0  0  0  0  0  0  0  0
  152.2132  139.2192  157.7083 H   0  0  0  0  0  0  0  0  0  0  0  0
  149.9496  137.7929  156.5740 H   0  0  0  0  0  0  0  0  0  0  0  0
  149.2487  140.1605  157.1605 H   0  0  0  0  0  0  0  0  0  0  0  0
  151.2135  136.9219  158.5101 H   0  0  0  0  0  0  0  0  0  0  0  0
  150.7399  138.2974  159.4737 H   0  0  0  0  0  0  0  0  0  0  0  0
  148.7924  135.5255  157.5846 H   0  0  0  0  0  0  0  0  0  0  0  0
  148.4193  135.0189  162.4491 H   0  0  0  0  0  0  0  0  0  0  0  0
  147.1462  135.0091  163.6748 H   0  0  0  0  0  0  0  0  0  0  0  0
  148.1693  136.4388  163.4763 H   0  0  0  0  0  0  0  0  0  0  0  0
  152.4879  140.4071  159.4411 H   0  0  0  0  0  0  0  0  0  0  0  0
  153.3795  141.2526  161.4455 H   0  0  0  0  0  0  0  0  0  0  0  0
  152.4841  142.6011  162.1407 H   0  0  0  0  0  0  0  0  0  0  0  0
  154.0312  142.8851  161.3287 H   0  0  0  0  0  0  0  0  0  0  0  0
  150.0012  143.5237  155.7984 H   0  0  0  0  0  0  0  0  0  0  0  0
  1  2  1  0  0  0  0
  1 24  1  0  0  0  0
  1 25  1  0  0  0  0
  1 26  1  0  0  0  0
  2 22  1  0  0  0  0
  2  3  2  0  0  0  0
  3  4  1  0  0  0  0
  3 27  1  0  0  0  0
  4 20  2  0  0  0  0
  4  5  1  0  0  0  0
  5  6  2  0  0  0  0
  5 43  1  0  0  0  0
  6  7  1  0  0  0  0
  6 28  1  0  0  0  0
  7  8  1  0  0  0  0
  7 20  1  0  0  0  0
  8  9  1  0  0  0  0
  8 29  1  0  0  0  0
  8 30  1  0  0  0  0
  9 10  1  0  0  0  0
  9 11  1  0  0  0  0
  9 31  1  0  0  0  0
 10 32  1  0  0  0  0
 11 12  1  0  0  0  0
 11 33  1  0  0  0  0
 11 34  1  0  0  0  0
 12 19  1  0  0  0  0
 12 13  1  0  0  0  0
 13 14  2  0  0  0  0
 13 35  1  0  0  0  0
 14 15  1  0  0  0  0
 15 16  1  0  0  0  0
 15 19  2  0  0  0  0
 16 17  1  0  0  0  0
 16 18  2  0  0  0  0
 17 36  1  0  0  0  0
 17 37  1  0  0  0  0
 17 38  1  0  0  0  0
 20 21  1  0  0  0  0
 21 22  2  0  0  0  0
 21 39  1  0  0  0  0
 22 23  1  0  0  0  0
 23 40  1  0  0  0  0
 23 41  1  0  0  0  0
 23 42  1  0  0  0  0
M  CHG  1   5   1
M  END
> <s_m_source_file>
AV-unprocessed.smi

> <i_m_source_file_index>
2845

> <i_lp_mmshare_version>
43012

> <i_f3d_flags>
0

> <s_epik_input>
W0NIM11jKFtjSF0xKWMoW0NIM10pW2NIXWMoYzEyKW4oW2NIXW4yKVtDSDJdW0NASF0oW09IXSlbQ0gyXW4zW2NIXW5jKG4zKVtTQF0oPU8pW0NIM10=

> <s_epik_cmdline>
J2VwaWtfcHl0aG9uJywgJy1waCcsICc3LjAnLCAnLXRuJywgJzgnLCAnLW1hJywgJzIwMCcsICctbWV0YWxfYmluZGluZycsICctaW1hZScsICc8aW5maWxlLm1hZT4nLCAnLW9tYWUnLCAnPG91dGZpbGUubWFlPic=

> <r_lp_tautomer_probability>
1

> <r_epik_Ionization_Penalty>
1.12076

> <r_epik_Ionization_Penalty_Charging>
1.12075

> <r_epik_Ionization_Penalty_Neutral>
1.54566e-06

> <r_epik_State_Penalty>
1.17957

> <r_epik_Charging_Adjusted_Penalty>
2.30033

> <i_epik_Tot_Q>
1

> <i_epik_Tot_abs_Q>
1

> <r_epik_Metal_State_Penalty>
1.26402

> <b_epik_Metal_Only>
0

> <s_lp_Force_Field>
OPLS_2005

> <r_lp_Energy>
15.2254

> <b_lp_Chiralities_Consistent>
1

> <s_lp_Variant>
AV-unprocessed.smi:2845-5

> <Gold.Version>
5.8.1

> <Gold.Id.Protein>
6NUR|6NUR_protein|mol2

> <Gold.PLP.Fitness>
55.5440

> <Gold.PLP.PLP>
-48.7149

> <Gold.PLP.part.hbond>
-3.9399

> <Gold.PLP.part.metal>
0.0000

> <Gold.PLP.part.buried>
-7.6310

> <Gold.PLP.part.nonpolar>
-38.0092

> <Gold.PLP.part.repulsive>
0.0963

> <Gold.PLP.ligand.clash>
0.0000

> <Gold.PLP.ligand.torsion>
2.0107

> <Gold.PLP.Chemscore.Hbond>
3.2800

> <Gold.PLP.Chemscore.CHOScore>
0.0000

> <Gold.PLP.Chemscore.Metal>
0.0000

> <Gold.Chemscore.Hbonds>
donor molecule, donor type, donor heavy atom, donor atom, acceptor molecule, acceptor atom, score
      L1  H     5    43       P1  8028  2.00
      P1  H  6931  6943       L1    19  0.62
      P1  H  6934  6947       L1    18  0.67

> <Gold.PLP.Chemscore.Internal.Correction>
1.0105

> <Gold.Rescore>
     Score         DG    S(hbond)    S(metal)    S(lipo)     H(rot)  DE(clash)    DE(int)     intcor
     14.19     -16.27       2.19        0.00      90.37       2.77       0.03       2.05       ----

> <Gold.Chemscore.Fitness>
14.1867

> <Gold.Chemscore.DG>
-16.2696

> <Gold.Chemscore.ZeroCoef>
-5.4800

> <Gold.Chemscore.Hbond>
2.1864

> <Gold.Chemscore.Metal>
0.0000

> <Gold.Chemscore.Lipo>
90.3691

> <Gold.Chemscore.Internal_Hbond>
0.0000

> <Gold.Chemscore.DEClash>
0.0310

> <Gold.Chemscore.DEInternal>
2.0520

> <Gold.Chemscore.Rot>
2.7681

> <Gold.Chemscore.Internal.Correction>
   9.000000E+99

> <Gold.Chemscore.Hbonds>
donor molecule, donor type, donor heavy atom, donor atom, acceptor molecule, acceptor atom, score
      L1  H     5    43       P1  8028  0.94
      P1  H  6931  6943       L1    19  0.60
      P1  H  6934  6947       L1    18  0.56

> <Gold.Chemscore.Hbond.Weighted>
-7.3027

> <Gold.Chemscore.Metal.Weighted>
-0.0000

> <Gold.Chemscore.Lipo.Weighted>
-10.5732

> <Gold.Chemscore.Internal_Hbond.Weighted>
0.0000

> <Gold.Chemscore.DEClash.Weighted>
0.0310

> <Gold.Chemscore.DEInternal.Weighted>
2.0520

> <Gold.Chemscore.Rot.Weighted>
7.0863

> <Gold.Chemscore.Internal.Correction.Weighted>
   9.000000E+99

> <Gold.Protein.RotatedTorsions>
[ 6907 6896 6895 6894 ] final -106.86 input  -60.11 | X-H torsion
[ 7974 7965 7964 7962 ] final   -4.86 input  175.53 | X-H torsion
[ 8008 7997 7996 7995 ] final   73.30 input   59.86 | X-H torsion
[ 10167 10162 10161 10158 ] final -170.70 input  -65.29 | X-H torsion
[ 10718 10713 10712 10709 ] final  112.42 input   66.30 | X-H torsion
[ 10763 10752 10751 10750 ] final -159.27 input  -60.55 | X-H torsion
[ 11005 11000 10999 10996 ] final  -92.87 input  -57.11 | X-H torsion

> <Gold.Protein.ActiveResidues>
 VAL166  LYS551  ARG553  GLY616  TRP617  ASP618  TYR619  PRO620  LYS621  CYS622 
 ASP623  PHE694  ASN695  SER759  ASP760  ASP761  ALA762  ILE779  LEU786  VAL792 
 PHE793  MET794  SER795  GLU796  ALA797  LYS798  CYS799  TRP800  GLU811  SER814 

> <Gold.Protein.RotatedAtoms>
  150.7412  133.9912  159.3607 H   0  0  0  0  0  0  0  0  0  0  0  0  # atno 6907 bound_to 6896
  151.7860  135.0746  160.0390 H   0  0  0  0  0  0  0  0  0  0  0  0  # atno 6908 bound_to 6896
  152.3241  133.5849  159.5800 H   0  0  0  0  0  0  0  0  0  0  0  0  # atno 6909 bound_to 6896
  146.2364  140.1934  142.8333 H   0  0  0  0  0  0  0  0  0  0  0  0  # atno 7974 bound_to 7965
  155.7816  140.3482  155.5300 H   0  0  0  0  0  0  0  0  0  0  0  0  # atno 8008 bound_to 7997
  155.8723  140.0988  157.1562 H   0  0  0  0  0  0  0  0  0  0  0  0  # atno 8009 bound_to 7997
  154.4018  140.1338  156.4081 H   0  0  0  0  0  0  0  0  0  0  0  0  # atno 8010 bound_to 7997
  139.5846  144.1347  152.1559 H   0  0  0  0  0  0  0  0  0  0  0  0  # atno 10167 bound_to 10162
  157.6394  131.0967  150.6892 H   0  0  0  0  0  0  0  0  0  0  0  0  # atno 10718 bound_to 10713
  154.7488  135.3087  154.8595 H   0  0  0  0  0  0  0  0  0  0  0  0  # atno 10763 bound_to 10752
  153.9388  135.6777  153.4748 H   0  0  0  0  0  0  0  0  0  0  0  0  # atno 10764 bound_to 10752
  153.1084  135.4878  154.8920 H   0  0  0  0  0  0  0  0  0  0  0  0  # atno 10765 bound_to 10752
  141.1511  133.7850  157.0080 H   0  0  0  0  0  0  0  0  0  0  0  0  # atno 11005 bound_to 11000
  144.9840  140.8485  143.5380 LP  0  0  0  0  0  0  0  0  0  0  0  0  # atno 17320 bound_to 7965
  145.1931  139.2291  143.5232 LP  0  0  0  0  0  0  0  0  0  0  0  0  # atno 17321 bound_to 7965
  140.0908  144.5622  150.7056 LP  0  0  0  0  0  0  0  0  0  0  0  0  # atno 17342 bound_to 10162
  140.7119  143.2512  151.4553 LP  0  0  0  0  0  0  0  0  0  0  0  0  # atno 17343 bound_to 10162
  156.7218  130.4683  149.5521 LP  0  0  0  0  0  0  0  0  0  0  0  0  # atno 17370 bound_to 10713
  156.1660  130.6406  151.0779 LP  0  0  0  0  0  0  0  0  0  0  0  0  # atno 17371 bound_to 10713
  140.0896  134.9600  157.1755 LP  0  0  0  0  0  0  0  0  0  0  0  0  # atno 17394 bound_to 11000
  140.3464  134.2647  155.7204 LP  0  0  0  0  0  0  0  0  0  0  0  0  # atno 17395 bound_to 11000

$$$$
