AV-unprocessed.smi:2924|AV-procd|sdf|11221|dock1
  -GOLD-   2272016113D 1   1.00000     0.00000
 Structure written by MMmdl.
 29 31  0  0  0  0  0  0  0  0  1 V2000
  147.6347  142.1361  154.4197 N   0  0  0  0  0  0  0  0  0  0  0  0
  148.5326  141.4801  154.7390 C   0  0  0  0  0  0  0  0  0  0  0  0
  149.6641  140.6537  155.1417 C   0  0  0  0  0  0  0  0  0  0  0  0
  149.7790  139.3500  154.6148 C   0  0  0  0  0  0  0  0  0  0  0  0
  150.8698  138.5488  154.9978 C   0  0  0  0  0  0  0  0  0  0  0  0
  151.8069  139.0865  155.8985 C   0  0  0  0  0  0  0  0  0  0  0  0
  151.7092  140.3310  156.4099 N   0  0  0  0  0  0  0  0  0  0  0  0
  150.6621  141.1107  156.0442 C   0  0  0  0  0  0  0  0  0  0  0  0
  150.5870  142.4031  156.5957 N   0  0  0  0  0  0  0  0  0  0  0  0
  151.5792  142.8843  157.5517 C   0  0  1  0  0  0  0  0  0  0  0  0
  151.4831  144.3937  157.8106 C   0  0  0  0  0  0  0  0  0  0  0  0
  151.3049  144.4438  159.3329 C   0  0  2  0  0  0  0  0  0  0  0  0
  152.5738  144.0141  160.0819 C   0  0  0  0  0  0  0  0  0  0  0  0
  152.5779  142.5038  159.8478 C   0  0  0  0  0  0  0  0  0  0  0  0
  151.3390  142.3176  158.9612 C   0  0  1  0  0  0  0  0  0  0  0  0
  150.4872  143.3030  159.5232 O   0  0  0  0  0  0  0  0  0  0  0  0
  149.0427  138.9639  153.9244 H   0  0  0  0  0  0  0  0  0  0  0  0
  150.9853  137.5472  154.6110 H   0  0  0  0  0  0  0  0  0  0  0  0
  152.6575  138.5025  156.2172 H   0  0  0  0  0  0  0  0  0  0  0  0
  149.9647  143.0800  156.1776 H   0  0  0  0  0  0  0  0  0  0  0  0
  152.5748  142.6003  157.2082 H   0  0  0  0  0  0  0  0  0  0  0  0
  152.3693  144.9338  157.4764 H   0  0  0  0  0  0  0  0  0  0  0  0
  150.6149  144.8330  157.3169 H   0  0  0  0  0  0  0  0  0  0  0  0
  150.8693  145.3748  159.6960 H   0  0  0  0  0  0  0  0  0  0  0  0
  153.4671  144.5058  159.6959 H   0  0  0  0  0  0  0  0  0  0  0  0
  152.4931  144.2356  161.1467 H   0  0  0  0  0  0  0  0  0  0  0  0
  153.4920  142.1507  159.3696 H   0  0  0  0  0  0  0  0  0  0  0  0
  152.4593  141.9713  160.7921 H   0  0  0  0  0  0  0  0  0  0  0  0
  150.9382  141.3034  158.9809 H   0  0  0  0  0  0  0  0  0  0  0  0
  1  2  3  0  0  0  0
  2  3  1  0  0  0  0
  3  8  1  0  0  0  0
  3  4  2  0  0  0  0
  4  5  1  0  0  0  0
  4 17  1  0  0  0  0
  5  6  2  0  0  0  0
  5 18  1  0  0  0  0
  6  7  1  0  0  0  0
  6 19  1  0  0  0  0
  7  8  2  0  0  0  0
  8  9  1  0  0  0  0
  9 10  1  0  0  0  0
  9 20  1  0  0  0  0
 10 15  1  0  0  0  0
 10 11  1  0  0  0  0
 10 21  1  0  0  0  0
 11 12  1  0  0  0  0
 11 22  1  0  0  0  0
 11 23  1  0  0  0  0
 12 16  1  0  0  0  0
 12 13  1  0  0  0  0
 12 24  1  0  0  0  0
 13 14  1  0  0  0  0
 13 25  1  0  0  0  0
 13 26  1  0  0  0  0
 14 15  1  0  0  0  0
 14 27  1  0  0  0  0
 14 28  1  0  0  0  0
 15 16  1  0  0  0  0
 15 29  1  0  0  0  0
M  END
> <s_m_source_file>
AV-unprocessed.smi

> <i_m_source_file_index>
2924

> <i_lp_mmshare_version>
43012

> <i_f3d_flags>
0

> <s_epik_input>
TiNDYzFbY0hdW2NIXVtjSF1uYzFbTkhdW0NASF0oW0NIMl1bQ0BASF0yMylbQ0BASF0oTzMpW0NIMl1bQ0gyXTI=

> <s_epik_cmdline>
J2VwaWtfcHl0aG9uJywgJy1waCcsICc3LjAnLCAnLXRuJywgJzgnLCAnLW1hJywgJzIwMCcsICctbWV0YWxfYmluZGluZycsICctaW1hZScsICc8aW5maWxlLm1hZT4nLCAnLW9tYWUnLCAnPG91dGZpbGUubWFlPic=

> <r_lp_tautomer_probability>
1

> <r_epik_Ionization_Penalty>
2.11559e-05

> <r_epik_Ionization_Penalty_Charging>
0

> <r_epik_Ionization_Penalty_Neutral>
2.11559e-05

> <r_epik_State_Penalty>
-0

> <r_epik_Charging_Adjusted_Penalty>
0

> <i_epik_Tot_Q>
0

> <i_epik_Tot_abs_Q>
0

> <r_epik_Metal_State_Penalty>
-0

> <b_epik_Metal_Only>
0

> <s_lp_Force_Field>
OPLS_2005

> <r_lp_Energy>
42.1946

> <b_lp_Chiralities_Consistent>
1

> <s_lp_Variant>
AV-unprocessed.smi:2924-4

> <Gold.Version>
5.8.1

> <Gold.Id.Protein>
6NUR|6NUR_protein|mol2

> <Gold.PLP.Fitness>
41.6383

> <Gold.PLP.PLP>
-38.9834

> <Gold.PLP.part.hbond>
-1.9819

> <Gold.PLP.part.metal>
0.0000

> <Gold.PLP.part.buried>
-4.1754

> <Gold.PLP.part.nonpolar>
-33.1456

> <Gold.PLP.part.repulsive>
0.3556

> <Gold.PLP.ligand.clash>
0.0000

> <Gold.PLP.ligand.torsion>
0.1825

> <Gold.PLP.Chemscore.Hbond>
1.0000

> <Gold.PLP.Chemscore.CHOScore>
0.0000

> <Gold.PLP.Chemscore.Metal>
0.0000

> <Gold.Chemscore.Hbonds>
donor molecule, donor type, donor heavy atom, donor atom, acceptor molecule, acceptor atom, score
      L1  H     9    20       P1  8028  1.00

> <Gold.PLP.Chemscore.Internal.Correction>
0.0199

> <Gold.Rescore>
     Score         DG    S(hbond)    S(metal)    S(lipo)     H(rot)  DE(clash)    DE(int)     intcor
     17.29     -17.47       0.99        0.00      96.24       1.00       0.07       0.10       ----

> <Gold.Chemscore.Fitness>
17.2937

> <Gold.Chemscore.DG>
-17.4706

> <Gold.Chemscore.ZeroCoef>
-5.4800

> <Gold.Chemscore.Hbond>
0.9850

> <Gold.Chemscore.Metal>
0.0000

> <Gold.Chemscore.Lipo>
96.2440

> <Gold.Chemscore.Internal_Hbond>
0.0000

> <Gold.Chemscore.DEClash>
0.0728

> <Gold.Chemscore.DEInternal>
0.1041

> <Gold.Chemscore.Rot>
1.0000

> <Gold.Chemscore.Internal.Correction>
   9.000000E+99

> <Gold.Chemscore.Hbonds>
donor molecule, donor type, donor heavy atom, donor atom, acceptor molecule, acceptor atom, score
      L1  H     9    20       P1  8028  0.93

> <Gold.Chemscore.Hbond.Weighted>
-3.2901

> <Gold.Chemscore.Metal.Weighted>
-0.0000

> <Gold.Chemscore.Lipo.Weighted>
-11.2605

> <Gold.Chemscore.Internal_Hbond.Weighted>
0.0000

> <Gold.Chemscore.DEClash.Weighted>
0.0728

> <Gold.Chemscore.DEInternal.Weighted>
0.1041

> <Gold.Chemscore.Rot.Weighted>
2.5600

> <Gold.Chemscore.Internal.Correction.Weighted>
   9.000000E+99

> <Gold.Protein.RotatedTorsions>
[ 6907 6896 6895 6894 ] final -110.94 input  -60.11 | X-H torsion
[ 7974 7965 7964 7962 ] final  170.00 input  175.53 | X-H torsion
[ 8008 7997 7996 7995 ] final -160.32 input   59.86 | X-H torsion
[ 10167 10162 10161 10158 ] final  -26.79 input  -65.29 | X-H torsion
[ 10718 10713 10712 10709 ] final   92.84 input   66.30 | X-H torsion
[ 10763 10752 10751 10750 ] final   12.59 input  -60.55 | X-H torsion
[ 11005 11000 10999 10996 ] final  143.08 input  -57.11 | X-H torsion

> <Gold.Protein.ActiveResidues>
 VAL166  LYS551  ARG553  GLY616  TRP617  ASP618  TYR619  PRO620  LYS621  CYS622 
 ASP623  PHE694  ASN695  SER759  ASP760  ASP761  ALA762  ILE779  LEU786  VAL792 
 PHE793  MET794  SER795  GLU796  ALA797  LYS798  CYS799  TRP800  GLU811  SER814 

> <Gold.Protein.RotatedAtoms>
  150.7657  133.9308  159.3426 H   0  0  0  0  0  0  0  0  0  0  0  0  # atno 6907 bound_to 6896
  151.7207  135.0893  160.0293 H   0  0  0  0  0  0  0  0  0  0  0  0  # atno 6908 bound_to 6896
  152.3652  133.6309  159.6080 H   0  0  0  0  0  0  0  0  0  0  0  0  # atno 6909 bound_to 6896
  144.7337  139.9137  143.6416 H   0  0  0  0  0  0  0  0  0  0  0  0  # atno 7974 bound_to 7965
  155.7757  140.0858  157.2085 H   0  0  0  0  0  0  0  0  0  0  0  0  # atno 8008 bound_to 7997
  154.3993  140.1517  156.3051 H   0  0  0  0  0  0  0  0  0  0  0  0  # atno 8009 bound_to 7997
  155.8703  140.3426  155.5819 H   0  0  0  0  0  0  0  0  0  0  0  0  # atno 8010 bound_to 7997
  140.7281  143.4148  151.1047 H   0  0  0  0  0  0  0  0  0  0  0  0  # atno 10167 bound_to 10162
  157.6957  131.0457  150.3943 H   0  0  0  0  0  0  0  0  0  0  0  0  # atno 10718 bound_to 10713
  153.1807  135.6827  153.8482 H   0  0  0  0  0  0  0  0  0  0  0  0  # atno 10763 bound_to 10752
  153.7815  135.3182  155.3367 H   0  0  0  0  0  0  0  0  0  0  0  0  # atno 10764 bound_to 10752
  154.8057  135.4749  154.0482 H   0  0  0  0  0  0  0  0  0  0  0  0  # atno 10765 bound_to 10752
  140.0526  134.9247  157.1044 H   0  0  0  0  0  0  0  0  0  0  0  0  # atno 11005 bound_to 11000
  146.0981  139.3975  143.0364 LP  0  0  0  0  0  0  0  0  0  0  0  0  # atno 17320 bound_to 7965
  145.7617  140.9933  143.1196 LP  0  0  0  0  0  0  0  0  0  0  0  0  # atno 17321 bound_to 7965
  139.7786  143.8389  152.3133 LP  0  0  0  0  0  0  0  0  0  0  0  0  # atno 17342 bound_to 10162
  139.8332  144.7244  150.9424 LP  0  0  0  0  0  0  0  0  0  0  0  0  # atno 17343 bound_to 10162
  156.4343  130.3978  149.6739 LP  0  0  0  0  0  0  0  0  0  0  0  0  # atno 17370 bound_to 10713
  156.3945  130.7644  151.2647 LP  0  0  0  0  0  0  0  0  0  0  0  0  # atno 17371 bound_to 10713
  140.3893  134.2202  155.7167 LP  0  0  0  0  0  0  0  0  0  0  0  0  # atno 17394 bound_to 11000
  141.1937  133.8144  157.0786 LP  0  0  0  0  0  0  0  0  0  0  0  0  # atno 17395 bound_to 11000

$$$$
