AV-unprocessed.smi:686|AV-procd|sdf|3338|dock3
  -GOLD-   22720 0313D 1   1.00000     0.00000
 Structure written by MMmdl.
 41 42  0  0  0  0  0  0  0  0  2 V2000
  150.7289  131.6490  155.8338 C   0  0  0  0  0  0  0  0  0  0  0  0
  150.0623  132.0036  154.4938 C   0  0  1  0  0  0  0  0  0  0  0  0
  148.9329  131.0695  154.0664 C   0  0  0  0  0  0  0  0  0  0  0  0
  148.2203  131.7901  152.9873 N   0  3  1  0  0  0  0  0  0  0  0  0
  146.8055  131.3773  152.7643 C   0  0  0  0  0  0  0  0  0  0  0  0
  146.6742  129.8518  152.5898 C   0  0  0  0  0  0  0  0  0  0  0  0
  146.2088  132.0854  151.5325 C   0  0  0  0  0  0  0  0  0  0  0  0
  148.4239  133.2434  153.2248 C   0  0  0  0  0  0  0  0  0  0  0  0
  149.4125  133.3886  154.3968 C   0  0  1  0  0  0  0  0  0  0  0  0
  148.6959  133.7219  155.6336 N   0  0  0  0  0  0  0  0  0  0  0  0
  149.5788  134.3234  156.9885 S   0  0  0  0  0  0  0  0  0  0  0  0
  149.2461  133.4647  158.1350 O   0  0  0  0  0  0  0  0  0  0  0  0
  150.9797  134.4846  156.5696 O   0  0  0  0  0  0  0  0  0  0  0  0
  148.8144  135.9820  157.2466 C   0  0  0  0  0  0  0  0  0  0  0  0
  148.3789  136.1281  158.6778 C   0  0  0  0  0  0  0  0  0  0  0  0
  147.5358  135.2711  159.4376 C   0  0  0  0  0  0  0  0  0  0  0  0
  147.4853  135.8758  160.6606 C   0  0  0  0  0  0  0  0  0  0  0  0
  148.2311  137.0094  160.6612 O   0  0  0  0  0  0  0  0  0  0  0  0
  148.7954  137.1642  159.3901 N   0  0  0  0  0  0  0  0  0  0  0  0
  150.0069  131.6039  156.6495 H   0  0  0  0  0  0  0  0  0  0  0  0
  151.4879  132.3855  156.0989 H   0  0  0  0  0  0  0  0  0  0  0  0
  151.2174  130.6760  155.7769 H   0  0  0  0  0  0  0  0  0  0  0  0
  150.8343  131.9560  153.7236 H   0  0  0  0  0  0  0  0  0  0  0  0
  149.3055  130.1025  153.7269 H   0  0  0  0  0  0  0  0  0  0  0  0
  148.2565  130.8984  154.9059 H   0  0  0  0  0  0  0  0  0  0  0  0
  146.2262  131.6665  153.6428 H   0  0  0  0  0  0  0  0  0  0  0  0
  145.6422  129.5720  152.3766 H   0  0  0  0  0  0  0  0  0  0  0  0
  146.9661  129.3082  153.4884 H   0  0  0  0  0  0  0  0  0  0  0  0
  147.2901  129.4923  151.7647 H   0  0  0  0  0  0  0  0  0  0  0  0
  145.1799  131.7681  151.3606 H   0  0  0  0  0  0  0  0  0  0  0  0
  146.7781  131.8566  150.6309 H   0  0  0  0  0  0  0  0  0  0  0  0
  146.1892  133.1689  151.6457 H   0  0  0  0  0  0  0  0  0  0  0  0
  148.8389  133.6822  152.3170 H   0  0  0  0  0  0  0  0  0  0  0  0
  147.4847  133.7580  153.4292 H   0  0  0  0  0  0  0  0  0  0  0  0
  150.1606  134.1582  154.2020 H   0  0  0  0  0  0  0  0  0  0  0  0
  147.8599  134.2791  155.4567 H   0  0  0  0  0  0  0  0  0  0  0  0
  149.5308  136.7508  156.9561 H   0  0  0  0  0  0  0  0  0  0  0  0
  147.9567  136.0615  156.5785 H   0  0  0  0  0  0  0  0  0  0  0  0
  147.0470  134.3569  159.1349 H   0  0  0  0  0  0  0  0  0  0  0  0
  146.9875  135.6344  161.5882 H   0  0  0  0  0  0  0  0  0  0  0  0
  148.7244  131.5769  152.1383 H   0  0  0  0  0  0  0  0  0  0  0  0
  1  2  1  0  0  0  0
  1 20  1  0  0  0  0
  1 21  1  0  0  0  0
  1 22  1  0  0  0  0
  2  9  1  0  0  0  0
  2  3  1  0  0  0  0
  2 23  1  0  0  0  0
  3  4  1  0  0  0  0
  3 24  1  0  0  0  0
  3 25  1  0  0  0  0
  4  5  1  0  0  0  0
  4  8  1  0  0  0  0
  4 41  1  0  0  0  0
  5  6  1  0  0  0  0
  5  7  1  0  0  0  0
  5 26  1  0  0  0  0
  6 27  1  0  0  0  0
  6 28  1  0  0  0  0
  6 29  1  0  0  0  0
  7 30  1  0  0  0  0
  7 31  1  0  0  0  0
  7 32  1  0  0  0  0
  8  9  1  0  0  0  0
  8 33  1  0  0  0  0
  8 34  1  0  0  0  0
  9 10  1  0  0  0  0
  9 35  1  0  0  0  0
 10 11  1  0  0  0  0
 10 36  1  0  0  0  0
 11 12  2  0  0  0  0
 11 13  2  0  0  0  0
 11 14  1  0  0  0  0
 14 15  1  0  0  0  0
 14 37  1  0  0  0  0
 14 38  1  0  0  0  0
 15 19  2  0  0  0  0
 15 16  1  0  0  0  0
 16 17  2  0  0  0  0
 16 39  1  0  0  0  0
 17 18  1  0  0  0  0
 17 40  1  0  0  0  0
 18 19  1  0  0  0  0
M  CHG  1   4   1
M  END
> <s_m_source_file>
AV-unprocessed.smi

> <i_m_source_file_index>
686

> <i_lp_mmshare_version>
43012

> <i_f3d_flags>
0

> <s_epik_input>
W0NIM11bQ0BASF0xW0NIMl1OKFtDSF0oW0NIM10pW0NIM10pW0NIMl1bQ0BIXTFbTkhdUyg9TykoPU8pW0NIMl1jMltjSF1bY0hdb24y

> <s_epik_cmdline>
J2VwaWtfcHl0aG9uJywgJy1waCcsICc3LjAnLCAnLXRuJywgJzgnLCAnLW1hJywgJzIwMCcsICctbWV0YWxfYmluZGluZycsICctaW1hZScsICc8aW5maWxlLm1hZT4nLCAnLW9tYWUnLCAnPG91dGZpbGUubWFlPic=

> <r_epik_Ionization_Penalty>
0.00200818

> <r_epik_Ionization_Penalty_Charging>
0.000701289

> <r_epik_Ionization_Penalty_Neutral>
0.00130689

> <r_epik_State_Penalty>
0.00131314

> <r_epik_Charging_Adjusted_Penalty>
0.00201443

> <i_epik_Tot_Q>
1

> <i_epik_Tot_abs_Q>
1

> <r_epik_Metal_State_Penalty>
0.310831

> <b_epik_Metal_Only>
0

> <s_lp_Force_Field>
OPLS_2005

> <r_lp_Energy>
21.3818

> <b_lp_Chiralities_Consistent>
1

> <s_lp_Variant>
AV-unprocessed.smi:686-2

> <Gold.Version>
5.8.1

> <Gold.Id.Protein>
6NUR|6NUR_protein|mol2

> <Gold.PLP.Fitness>
37.3646

> <Gold.PLP.PLP>
-27.5652

> <Gold.PLP.part.hbond>
-4.0046

> <Gold.PLP.part.metal>
0.0000

> <Gold.PLP.part.buried>
-3.3585

> <Gold.PLP.part.nonpolar>
-18.8137

> <Gold.PLP.part.repulsive>
0.0000

> <Gold.PLP.ligand.clash>
0.0000

> <Gold.PLP.ligand.torsion>
0.3683

> <Gold.PLP.Chemscore.Hbond>
3.4539

> <Gold.PLP.Chemscore.CHOScore>
0.0000

> <Gold.PLP.Chemscore.Metal>
0.0000

> <Gold.Chemscore.Hbonds>
donor molecule, donor type, donor heavy atom, donor atom, acceptor molecule, acceptor atom, score
      L1  H     4    41       P1 10747  1.00
      P1  H  6896  6908       L1    12  1.00
      P1  H  6931  6943       L1    18  0.90
      P1  H  6934  6947       L1    18  0.27

> <Gold.PLP.Chemscore.Internal.Correction>
0.1744

> <Gold.Rescore>
     Score         DG    S(hbond)    S(metal)    S(lipo)     H(rot)  DE(clash)    DE(int)     intcor
     15.41     -17.09       2.76        0.00      62.28       1.91       0.03       1.65       ----

> <Gold.Chemscore.Fitness>
15.4076

> <Gold.Chemscore.DG>
-17.0861

> <Gold.Chemscore.ZeroCoef>
-5.4800

> <Gold.Chemscore.Hbond>
2.7582

> <Gold.Chemscore.Metal>
0.0000

> <Gold.Chemscore.Lipo>
62.2837

> <Gold.Chemscore.Internal_Hbond>
0.0000

> <Gold.Chemscore.DEClash>
0.0310

> <Gold.Chemscore.DEInternal>
1.6475

> <Gold.Chemscore.Rot>
1.9115

> <Gold.Chemscore.Internal.Correction>
   9.000000E+99

> <Gold.Chemscore.Hbonds>
donor molecule, donor type, donor heavy atom, donor atom, acceptor molecule, acceptor atom, score
      L1  H     4    41       P1 10747  0.91
      P1  H  6896  6908       L1    12  0.25
      P1  H  6931  6943       L1    18  0.65
      P1  H  6934  6947       L1    18  0.08

> <Gold.Chemscore.Hbond.Weighted>
-9.2124

> <Gold.Chemscore.Metal.Weighted>
-0.0000

> <Gold.Chemscore.Lipo.Weighted>
-7.2872

> <Gold.Chemscore.Internal_Hbond.Weighted>
0.0000

> <Gold.Chemscore.DEClash.Weighted>
0.0310

> <Gold.Chemscore.DEInternal.Weighted>
1.6475

> <Gold.Chemscore.Rot.Weighted>
4.8935

> <Gold.Chemscore.Internal.Correction.Weighted>
   9.000000E+99

> <Gold.Protein.RotatedTorsions>
[ 6907 6896 6895 6894 ] final  117.57 input  -60.11 | X-H torsion
[ 7974 7965 7964 7962 ] final   12.90 input  175.53 | X-H torsion
[ 8008 7997 7996 7995 ] final   27.70 input   59.86 | X-H torsion
[ 10167 10162 10161 10158 ] final  131.52 input  -65.29 | X-H torsion
[ 10718 10713 10712 10709 ] final  -43.40 input   66.30 | X-H torsion
[ 10763 10752 10751 10750 ] final   77.15 input  -60.55 | X-H torsion
[ 11005 11000 10999 10996 ] final  151.69 input  -57.11 | X-H torsion

> <Gold.Protein.ActiveResidues>
 VAL166  LYS551  ARG553  GLY616  TRP617  ASP618  TYR619  PRO620  LYS621  CYS622 
 ASP623  PHE694  ASN695  SER759  ASP760  ASP761  ALA762  ILE779  LEU786  VAL792 
 PHE793  MET794  SER795  GLU796  ALA797  LYS798  CYS799  TRP800  GLU811  SER814 

> <Gold.Protein.RotatedAtoms>
  152.4603  133.7808  159.6849 H   0  0  0  0  0  0  0  0  0  0  0  0  # atno 6907 bound_to 6896
  150.8544  133.7727  159.3020 H   0  0  0  0  0  0  0  0  0  0  0  0  # atno 6908 bound_to 6896
  151.5312  135.1071  159.9955 H   0  0  0  0  0  0  0  0  0  0  0  0  # atno 6909 bound_to 6896
  146.2341  139.9268  142.8502 H   0  0  0  0  0  0  0  0  0  0  0  0  # atno 7974 bound_to 7965
  155.0471  140.3176  155.4704 H   0  0  0  0  0  0  0  0  0  0  0  0  # atno 8008 bound_to 7997
  156.2842  140.2152  156.5540 H   0  0  0  0  0  0  0  0  0  0  0  0  # atno 8009 bound_to 7997
  154.7241  140.0487  157.0654 H   0  0  0  0  0  0  0  0  0  0  0  0  # atno 8010 bound_to 7997
  139.5380  144.6702  151.4719 H   0  0  0  0  0  0  0  0  0  0  0  0  # atno 10167 bound_to 10162
  156.2494  130.4186  149.8667 H   0  0  0  0  0  0  0  0  0  0  0  0  # atno 10718 bound_to 10713
  153.0777  135.4925  154.8439 H   0  0  0  0  0  0  0  0  0  0  0  0  # atno 10763 bound_to 10752
  154.7110  135.3020  154.9199 H   0  0  0  0  0  0  0  0  0  0  0  0  # atno 10764 bound_to 10752
  153.9893  135.6780  153.4806 H   0  0  0  0  0  0  0  0  0  0  0  0  # atno 10765 bound_to 10752
  140.1241  134.8845  157.2113 H   0  0  0  0  0  0  0  0  0  0  0  0  # atno 11005 bound_to 11000
  145.2083  140.9884  143.4116 LP  0  0  0  0  0  0  0  0  0  0  0  0  # atno 17320 bound_to 7965
  144.9714  139.3876  143.6307 LP  0  0  0  0  0  0  0  0  0  0  0  0  # atno 17321 bound_to 7965
  140.6597  143.8525  150.6874 LP  0  0  0  0  0  0  0  0  0  0  0  0  # atno 17342 bound_to 10162
  140.1916  143.4032  152.1859 LP  0  0  0  0  0  0  0  0  0  0  0  0  # atno 17343 bound_to 10162
  156.6221  130.8631  151.3477 LP  0  0  0  0  0  0  0  0  0  0  0  0  # atno 17370 bound_to 10713
  157.7208  130.9556  150.1432 LP  0  0  0  0  0  0  0  0  0  0  0  0  # atno 17371 bound_to 10713
  140.2927  134.3222  155.7311 LP  0  0  0  0  0  0  0  0  0  0  0  0  # atno 17394 bound_to 11000
  141.2157  133.7544  156.9526 LP  0  0  0  0  0  0  0  0  0  0  0  0  # atno 17395 bound_to 11000

$$$$
