AV-unprocessed.smi:1580|AV-procd|sdf|6358|dock8
  -GOLD-   22720 6583D 1   1.00000     0.00000
 Structure written by MMmdl.
 37 38  0  0  0  0  0  0  0  0  1 V2000
  152.1573  138.9335  159.2458 C   0  0  0  0  0  0  0  0  0  0  0  0
  153.1577  137.5539  158.5544 S   0  0  0  0  0  0  0  0  0  0  0  0
  154.3840  138.1295  157.9802 O   0  0  0  0  0  0  0  0  0  0  0  0
  153.2588  136.4996  159.5755 O   0  0  0  0  0  0  0  0  0  0  0  0
  152.1488  136.9302  157.2149 C   0  0  0  0  0  0  0  0  0  0  0  0
  151.7841  137.7730  156.1462 C   0  0  0  0  0  0  0  0  0  0  0  0
  150.9479  137.2487  155.1423 C   0  0  0  0  0  0  0  0  0  0  0  0
  150.5060  135.9062  155.2490 C   0  0  0  0  0  0  0  0  0  0  0  0
  149.6506  135.2574  154.3157 N   0  0  0  0  0  0  0  0  0  0  0  0
  149.0371  134.0648  154.4100 C   0  0  0  0  0  0  0  0  0  0  0  0
  149.0918  133.3052  155.3764 O   0  0  0  0  0  0  0  0  0  0  0  0
  148.3303  133.7969  153.3033 N   0  0  0  0  0  0  0  0  0  0  0  0
  147.5510  132.5838  153.0828 C   0  0  0  0  0  0  0  0  0  0  0  0
  146.8588  132.5898  151.7095 C   0  0  2  0  0  0  0  0  0  0  0  0
  145.7352  133.6187  151.5963 C   0  0  0  0  0  0  0  0  0  0  0  0
  144.8745  133.0128  150.5120 C   0  0  0  0  0  0  0  0  0  0  0  0
  144.9598  131.5265  150.8453 C   0  0  0  0  0  0  0  0  0  0  0  0
  146.2341  131.3331  151.4547 O   0  0  0  0  0  0  0  0  0  0  0  0
  150.9196  135.1659  156.3778 C   0  0  0  0  0  0  0  0  0  0  0  0
  151.7184  135.6580  157.3479 N   0  0  0  0  0  0  0  0  0  0  0  0
  152.6910  139.3857  160.0812 H   0  0  0  0  0  0  0  0  0  0  0  0
  151.1983  138.5490  159.5927 H   0  0  0  0  0  0  0  0  0  0  0  0
  151.9899  139.6831  158.4730 H   0  0  0  0  0  0  0  0  0  0  0  0
  152.1289  138.7949  156.0933 H   0  0  0  0  0  0  0  0  0  0  0  0
  150.6580  137.8928  154.3279 H   0  0  0  0  0  0  0  0  0  0  0  0
  149.4594  135.7819  153.4745 H   0  0  0  0  0  0  0  0  0  0  0  0
  148.3300  134.4785  152.5589 H   0  0  0  0  0  0  0  0  0  0  0  0
  148.2200  131.7263  153.1609 H   0  0  0  0  0  0  0  0  0  0  0  0
  146.8118  132.4731  153.8779 H   0  0  0  0  0  0  0  0  0  0  0  0
  147.5822  132.7728  150.9131 H   0  0  0  0  0  0  0  0  0  0  0  0
  145.1712  133.6797  152.5282 H   0  0  0  0  0  0  0  0  0  0  0  0
  146.0966  134.6173  151.3489 H   0  0  0  0  0  0  0  0  0  0  0  0
  143.8524  133.3927  150.5105 H   0  0  0  0  0  0  0  0  0  0  0  0
  145.3148  133.2055  149.5329 H   0  0  0  0  0  0  0  0  0  0  0  0
  144.1882  131.2536  151.5663 H   0  0  0  0  0  0  0  0  0  0  0  0
  144.8379  130.8954  149.9646 H   0  0  0  0  0  0  0  0  0  0  0  0
  150.5969  134.1435  156.5099 H   0  0  0  0  0  0  0  0  0  0  0  0
  1  2  1  0  0  0  0
  1 21  1  0  0  0  0
  1 22  1  0  0  0  0
  1 23  1  0  0  0  0
  2  3  2  0  0  0  0
  2  4  2  0  0  0  0
  2  5  1  0  0  0  0
  5 20  1  0  0  0  0
  5  6  2  0  0  0  0
  6  7  1  0  0  0  0
  6 24  1  0  0  0  0
  7  8  2  0  0  0  0
  7 25  1  0  0  0  0
  8  9  1  0  0  0  0
  8 19  1  0  0  0  0
  9 10  1  0  0  0  0
  9 26  1  0  0  0  0
 10 11  2  0  0  0  0
 10 12  1  0  0  0  0
 12 13  1  0  0  0  0
 12 27  1  0  0  0  0
 13 14  1  0  0  0  0
 13 28  1  0  0  0  0
 13 29  1  0  0  0  0
 14 18  1  0  0  0  0
 14 15  1  0  0  0  0
 14 30  1  0  0  0  0
 15 16  1  0  0  0  0
 15 31  1  0  0  0  0
 15 32  1  0  0  0  0
 16 17  1  0  0  0  0
 16 33  1  0  0  0  0
 16 34  1  0  0  0  0
 17 18  1  0  0  0  0
 17 35  1  0  0  0  0
 17 36  1  0  0  0  0
 19 20  2  0  0  0  0
 19 37  1  0  0  0  0
M  END
> <s_m_source_file>
AV-unprocessed.smi

> <i_m_source_file_index>
1580

> <i_lp_mmshare_version>
43012

> <i_f3d_flags>
0

> <s_epik_input>
W0NIM11TKD1PKSg9TyljMVtjSF1bY0hdYyhbY0hdbjEpW05IXUMoPU8pW05IXVtDSDJdW0NAQEhdMltDSDJdW0NIMl1bQ0gyXU8y

> <s_epik_cmdline>
J2VwaWtfcHl0aG9uJywgJy1waCcsICc3LjAnLCAnLXRuJywgJzgnLCAnLW1hJywgJzIwMCcsICctbWV0YWxfYmluZGluZycsICctaW1hZScsICc8aW5maWxlLm1hZT4nLCAnLW9tYWUnLCAnPG91dGZpbGUubWFlPic=

> <r_lp_tautomer_probability>
1

> <r_epik_Ionization_Penalty>
3.28405e-05

> <r_epik_Ionization_Penalty_Charging>
0

> <r_epik_Ionization_Penalty_Neutral>
3.28405e-05

> <r_epik_State_Penalty>
-0

> <r_epik_Charging_Adjusted_Penalty>
0

> <i_epik_Tot_Q>
0

> <i_epik_Tot_abs_Q>
0

> <r_epik_Metal_State_Penalty>
-0

> <b_epik_Metal_Only>
0

> <s_lp_Force_Field>
OPLS_2005

> <r_lp_Energy>
18.5173

> <b_lp_Chiralities_Consistent>
1

> <s_lp_Variant>
AV-unprocessed.smi:1580-1

> <Gold.Version>
5.8.1

> <Gold.Id.Protein>
6NUR|6NUR_protein|mol2

> <Gold.PLP.Fitness>
40.2450

> <Gold.PLP.PLP>
-28.8969

> <Gold.PLP.part.hbond>
-5.2625

> <Gold.PLP.part.metal>
0.0000

> <Gold.PLP.part.buried>
-4.3711

> <Gold.PLP.part.nonpolar>
-19.0351

> <Gold.PLP.part.repulsive>
0.1884

> <Gold.PLP.ligand.clash>
0.0000

> <Gold.PLP.ligand.torsion>
1.1109

> <Gold.PLP.Chemscore.Hbond>
3.8480

> <Gold.PLP.Chemscore.CHOScore>
0.0000

> <Gold.PLP.Chemscore.Metal>
0.0000

> <Gold.Chemscore.Hbonds>
donor molecule, donor type, donor heavy atom, donor atom, acceptor molecule, acceptor atom, score
      L1  H     9    26       P1  7948  1.00
      L1  H    12    27       P1  7948  0.89
      P1  H  6896  6907       L1     4  1.00
      P1  H  7997  8008       L1     3  0.77

> <Gold.PLP.Chemscore.Internal.Correction>
2.0259

> <Gold.Rescore>
     Score         DG    S(hbond)    S(metal)    S(lipo)     H(rot)  DE(clash)    DE(int)     intcor
     17.40     -20.01       3.39        0.00      55.30       1.27       0.05       2.56       ----

> <Gold.Chemscore.Fitness>
17.3992

> <Gold.Chemscore.DG>
-20.0066

> <Gold.Chemscore.ZeroCoef>
-5.4800

> <Gold.Chemscore.Hbond>
3.3876

> <Gold.Chemscore.Metal>
0.0000

> <Gold.Chemscore.Lipo>
55.2973

> <Gold.Chemscore.Internal_Hbond>
0.0000

> <Gold.Chemscore.DEClash>
0.0524

> <Gold.Chemscore.DEInternal>
2.5550

> <Gold.Chemscore.Rot>
1.2725

> <Gold.Chemscore.Internal.Correction>
   9.000000E+99

> <Gold.Chemscore.Hbonds>
donor molecule, donor type, donor heavy atom, donor atom, acceptor molecule, acceptor atom, score
      L1  H     9    26       P1  7948  0.30
      L1  H    12    27       P1  7948  0.17
      P1  H  6896  6907       L1     4  0.98
      P1  H  7997  8008       L1     3  0.73

> <Gold.Chemscore.Hbond.Weighted>
-11.3144

> <Gold.Chemscore.Metal.Weighted>
-0.0000

> <Gold.Chemscore.Lipo.Weighted>
-6.4698

> <Gold.Chemscore.Internal_Hbond.Weighted>
0.0000

> <Gold.Chemscore.DEClash.Weighted>
0.0524

> <Gold.Chemscore.DEInternal.Weighted>
2.5550

> <Gold.Chemscore.Rot.Weighted>
3.2576

> <Gold.Chemscore.Internal.Correction.Weighted>
   9.000000E+99

> <Gold.Protein.RotatedTorsions>
[ 6907 6896 6895 6894 ] final   29.01 input  -60.11 | X-H torsion
[ 7974 7965 7964 7962 ] final  -71.49 input  175.53 | X-H torsion
[ 8008 7997 7996 7995 ] final -113.44 input   59.86 | X-H torsion
[ 10167 10162 10161 10158 ] final   62.33 input  -65.29 | X-H torsion
[ 10718 10713 10712 10709 ] final -150.61 input   66.30 | X-H torsion
[ 10763 10752 10751 10750 ] final  120.65 input  -60.55 | X-H torsion
[ 11005 11000 10999 10996 ] final  -93.28 input  -57.11 | X-H torsion

> <Gold.Protein.ActiveResidues>
 VAL166  LYS551  ARG553  GLY616  TRP617  ASP618  TYR619  PRO620  LYS621  CYS622 
 ASP623  PHE694  ASN695  SER759  ASP760  ASP761  ALA762  ILE779  LEU786  VAL792 
 PHE793  MET794  SER795  GLU796  ALA797  LYS798  CYS799  TRP800  GLU811  SER814 

> <Gold.Protein.RotatedAtoms>
  152.0252  134.9799  160.0571 H   0  0  0  0  0  0  0  0  0  0  0  0  # atno 6907 bound_to 6896
  152.1298  133.4396  159.4723 H   0  0  0  0  0  0  0  0  0  0  0  0  # atno 6908 bound_to 6896
  150.6855  134.2353  159.4494 H   0  0  0  0  0  0  0  0  0  0  0  0  # atno 6909 bound_to 6896
  145.6773  140.9200  143.0851 H   0  0  0  0  0  0  0  0  0  0  0  0  # atno 7974 bound_to 7965
  155.0207  140.0393  157.2436 H   0  0  0  0  0  0  0  0  0  0  0  0  # atno 8008 bound_to 7997
  154.7380  140.2743  155.6374 H   0  0  0  0  0  0  0  0  0  0  0  0  # atno 8009 bound_to 7997
  156.2857  140.2671  156.2099 H   0  0  0  0  0  0  0  0  0  0  0  0  # atno 8010 bound_to 7997
  140.1451  144.4516  150.6790 H   0  0  0  0  0  0  0  0  0  0  0  0  # atno 10167 bound_to 10162
  156.4484  130.8156  151.2386 H   0  0  0  0  0  0  0  0  0  0  0  0  # atno 10718 bound_to 10713
  153.6019  135.3446  155.2948 H   0  0  0  0  0  0  0  0  0  0  0  0  # atno 10763 bound_to 10752
  154.8634  135.4229  154.2404 H   0  0  0  0  0  0  0  0  0  0  0  0  # atno 10764 bound_to 10752
  153.3234  135.7039  153.7082 H   0  0  0  0  0  0  0  0  0  0  0  0  # atno 10765 bound_to 10752
  141.1501  133.7877  157.0138 H   0  0  0  0  0  0  0  0  0  0  0  0  # atno 11005 bound_to 11000
  144.7037  139.8651  143.7436 LP  0  0  0  0  0  0  0  0  0  0  0  0  # atno 17320 bound_to 7965
  146.0994  139.3988  143.0356 LP  0  0  0  0  0  0  0  0  0  0  0  0  # atno 17321 bound_to 7965
  140.6737  143.2296  151.5562 LP  0  0  0  0  0  0  0  0  0  0  0  0  # atno 17342 bound_to 10162
  139.5453  144.2538  152.1430 LP  0  0  0  0  0  0  0  0  0  0  0  0  # atno 17343 bound_to 10162
  157.7504  131.0146  150.3470 LP  0  0  0  0  0  0  0  0  0  0  0  0  # atno 17370 bound_to 10713
  156.3843  130.3886  149.7078 LP  0  0  0  0  0  0  0  0  0  0  0  0  # atno 17371 bound_to 10713
  140.0860  134.9620  157.1701 LP  0  0  0  0  0  0  0  0  0  0  0  0  # atno 17394 bound_to 11000
  140.3510  134.2598  155.7198 LP  0  0  0  0  0  0  0  0  0  0  0  0  # atno 17395 bound_to 11000

$$$$
