#       Name:                AV-unprocessed.smi:1401
#       Creating user name   scv26
#       Creation time:       Fri Mar 27 05:32:13 2020


#       File generated by GOLD software.
#

@<TRIPOS>MOLECULE
AV-unprocessed.smi:1401
    54    56     1
SMALL
NO_CHARGES


@<TRIPOS>ATOM
      1 ****        -3.1602   4.0227   2.6134 C.3            1 S1                 0.0000
      2 ****        -2.6336   2.6276   2.4101 C.2            1 S1                 0.0000
      3 ****        -1.3488   2.4858   2.4152 N.2            1 S1                 0.0000
      4 ****        -0.7615   1.2492   2.2316 N.am           1 S1                 0.0000
      5 ****         0.7078   1.2753   2.2164 C.3            1 S1                 0.0000
      6 ****         1.2655   1.2001   0.7896 C.2            1 S1                 0.0000
      7 ****         0.8463   1.9657  -0.0788 O.2            1 S1                 0.0000
      8 ****         2.2046   0.2670   0.5670 N.am           1 S1                 0.0000
      9 ****         2.8302  -0.0293  -0.7205 C.3            1 S1                 0.0000
     10 ****         4.3523  -0.0885  -0.5113 C.3            1 S1                 0.0000
     11 ****         2.2691  -1.3511  -1.3081 C.3            1 S1                 0.0000
     12 ****         2.7777  -1.6474  -2.7407 C.3            1 S1                 0.0000
     13 ****         1.4822  -1.8635  -3.5430 C.3            1 S1                 0.0000
     14 ****         0.8235  -3.1860  -3.1115 C.3            1 S1                 0.0000
     15 ****         0.2830  -2.8501  -1.7097 C.3            1 S1                 0.0000
     16 ****         0.7306  -1.3892  -1.5130 C.3            1 S1                 0.0000
     17 ****         0.5582  -0.8263  -2.9190 C.3            1 S1                 0.0000
     18 ****        -1.4467   0.0819   2.0566 C.2            1 S1                 0.0000
     19 ****        -0.8813  -1.0038   1.9147 O.2            1 S1                 0.0000
     20 ****        -2.9010   0.2507   2.0487 C.2            1 S1                 0.0000
     21 ****        -3.6553  -0.9452   1.8535 C.1            1 S1                 0.0000
     22 ****        -4.2834  -1.9045   1.6940 N.1            1 S1                 0.0000
     23 ****        -3.4895   1.4620   2.2118 C.2            1 S1                 0.0000
     24 ****        -4.9949   1.6897   2.2095 C.3            1 S1                 0.0000
     25 ****        -3.8446   4.0594   3.4611 H              1 S1                 0.0000
     26 ****        -3.6973   4.3650   1.7286 H              1 S1                 0.0000
     27 ****        -2.3577   4.7361   2.8077 H              1 S1                 0.0000
     28 ****         1.0786   2.1926   2.6770 H              1 S1                 0.0000
     29 ****         1.1042   0.4602   2.8253 H              1 S1                 0.0000
     30 ****         2.4822  -0.3123   1.3461 H              1 S1                 0.0000
     31 ****         2.6285   0.7818  -1.4220 H              1 S1                 0.0000
     32 ****         4.8820  -0.2531  -1.4495 H              1 S1                 0.0000
     33 ****         4.6283  -0.8942   0.1698 H              1 S1                 0.0000
     34 ****         4.7262   0.8453  -0.0900 H              1 S1                 0.0000
     35 ****         2.5588  -2.1637  -0.6396 H              1 S1                 0.0000
     36 ****         3.3265  -0.8008  -3.1548 H              1 S1                 0.0000
     37 ****         3.4373  -2.5153  -2.7750 H              1 S1                 0.0000
     38 ****         1.6157  -1.7719  -4.6212 H              1 S1                 0.0000
     39 ****         0.0067  -3.4526  -3.7835 H              1 S1                 0.0000
     40 ****         1.5315  -4.0154  -3.0981 H              1 S1                 0.0000
     41 ****        -0.8051  -2.9253  -1.6920 H              1 S1                 0.0000
     42 ****         0.6740  -3.5154  -0.9391 H              1 S1                 0.0000
     43 ****         0.1486  -0.8813  -0.7461 H              1 S1                 0.0000
     44 ****         0.9176   0.1984  -3.0253 H              1 S1                 0.0000
     45 ****        -0.4683  -0.8844  -3.2855 H              1 S1                 0.0000
     46 ****        -5.5481   0.7854   1.9585 H              1 S1                 0.0000
     47 ****        -5.2695   2.4501   1.4778 H              1 S1                 0.0000
     48 ****        -5.3311   2.0204   3.1925 H              1 S1                 0.0000
     49 ****        -0.7681   3.2878   2.5550 LP             1 S1                 0.0000
     50 ****         0.1410   2.6381   0.1456 LP             1 S1                 0.0000
     51 ****         1.2112   1.9151  -1.0085 LP             1 S1                 0.0000
     52 ****         0.1175  -1.0526   1.9252 LP             1 S1                 0.0000
     53 ****        -1.4212  -1.8361   1.7891 LP             1 S1                 0.0000
     54 ****        -4.8259  -2.7332   1.5562 LP             1 S1                 0.0000
@<TRIPOS>BOND
    1    1    2 1     
    2    1   25 1     
    3    1   26 1     
    4    1   27 1     
    5    2   23 1     
    6    2    3 2     
    7    3    4 1     
    8    4    5 1     
    9    4   18 am    
   10    5    6 1     
   11    5   28 1     
   12    5   29 1     
   13    6    7 2     
   14    6    8 am    
   15    8    9 1     
   16    8   30 1     
   17    9   10 1     
   18    9   11 1     
   19    9   31 1     
   20   10   32 1     
   21   10   33 1     
   22   10   34 1     
   23   11   16 1     
   24   11   12 1     
   25   11   35 1     
   26   12   13 1     
   27   12   36 1     
   28   12   37 1     
   29   13   17 1     
   30   13   14 1     
   31   13   38 1     
   32   14   15 1     
   33   14   39 1     
   34   14   40 1     
   35   15   16 1     
   36   15   41 1     
   37   15   42 1     
   38   16   17 1     
   39   16   43 1     
   40   17   44 1     
   41   17   45 1     
   42   18   19 2     
   43   18   20 1     
   44   20   21 1     
   45   20   23 2     
   46   21   22 3     
   47   23   24 1     
   48   24   46 1     
   49   24   47 1     
   50   24   48 1     
   51    3   49 1     
   52    7   50 1     
   53    7   51 1     
   54   19   52 1     
   55   19   53 1     
   56   22   54 1     
@<TRIPOS>SUBSTRUCTURE
      1 S1             1
@<TRIPOS>SET
LONE_PAIRS      STATIC     ATOMS    <user>   **** ""
6 49 50 51 52 53 54
DONOR_HYDROGENS      STATIC     ATOMS    <user>   **** ""
1 30
ATOM$BLUE        STATIC     ATOMS    COLORGROUP SYSTEM
6 49 50 51 52 53 54
ATOM$RED        STATIC     ATOMS    COLORGROUP SYSTEM
1 30
