#       Name:                AV-unprocessed.smi:610
#       Creating user name   scv26
#       Creation time:       Thu Mar 26 23:57:51 2020


#       File generated by GOLD software.
#

@<TRIPOS>MOLECULE
AV-unprocessed.smi:610
    41    42     1
SMALL
NO_CHARGES


@<TRIPOS>ATOM
      1 ****        -1.8473  -1.7037   1.9050 C.3            1 S1                 0.0000
      2 ****        -1.8205  -0.6128   0.8243 C.3            1 S1                 0.0000
      3 ****        -2.6285  -1.0244  -0.4214 C.3            1 S1                 0.0000
      4 ****        -2.6616   0.0273  -1.4216 N.pl3          1 S1                 0.0000
      5 ****        -3.4513   1.1694  -1.4114 C.2            1 S1                 0.0000
      6 ****        -3.1297   1.8796  -2.5460 C.2            1 S1                 0.0000
      7 ****        -2.1507   1.1970  -3.2647 N.2            1 S1                 0.0000
      8 ****        -1.9300   0.1069  -2.5418 C.2            1 S1                 0.0000
      9 ****        -0.4406  -0.3223   0.4424 N.am           1 S1                 0.0000
     10 ****         0.3647   0.5818   1.0231 C.2            1 S1                 0.0000
     11 ****         0.0185   1.2393   2.0052 O.2            1 S1                 0.0000
     12 ****         1.7638   0.8188   0.4069 C.3            1 S1                 0.0000
     13 ****         1.8285   2.2373   0.0080 N.4            1 S1                 1.0000
     14 ****         2.8720   0.4717   1.4158 C.3            1 S1                 0.0000
     15 ****         3.0895  -1.0416   1.2740 C.3            1 S1                 0.0000
     16 ****         2.6257  -1.4099  -0.1446 C.3            1 S1                 0.0000
     17 ****         2.1195  -0.1056  -0.7769 C.3            1 S1                 0.0000
     18 ****        -2.8705  -1.9346   2.2028 H              1 S1                 0.0000
     19 ****        -1.3103  -1.3866   2.7997 H              1 S1                 0.0000
     20 ****        -1.3877  -2.6265   1.5497 H              1 S1                 0.0000
     21 ****        -2.2790   0.2873   1.2384 H              1 S1                 0.0000
     22 ****        -2.2106  -1.9261  -0.8720 H              1 S1                 0.0000
     23 ****        -3.6566  -1.2599  -0.1440 H              1 S1                 0.0000
     24 ****        -4.1538   1.3780  -0.6178 H              1 S1                 0.0000
     25 ****        -3.5233   2.8222  -2.8969 H              1 S1                 0.0000
     26 ****        -1.2100  -0.6458  -2.8282 H              1 S1                 0.0000
     27 ****        -0.0800  -0.8286  -0.3535 H              1 S1                 0.0000
     28 ****         2.7443   2.4453  -0.3633 H              1 S1                 0.0000
     29 ****         1.6510   2.8167   0.8164 H              1 S1                 0.0000
     30 ****         3.7940   0.9907   1.1487 H              1 S1                 0.0000
     31 ****         2.6363   0.7543   2.4430 H              1 S1                 0.0000
     32 ****         4.1312  -1.3131   1.4478 H              1 S1                 0.0000
     33 ****         2.4872  -1.5781   2.0084 H              1 S1                 0.0000
     34 ****         3.4306  -1.8498  -0.7346 H              1 S1                 0.0000
     35 ****         1.8224  -2.1460  -0.0924 H              1 S1                 0.0000
     36 ****         1.3027  -0.2696  -1.4814 H              1 S1                 0.0000
     37 ****         2.9326   0.3393  -1.3532 H              1 S1                 0.0000
     38 ****         1.1270   2.4214  -0.6949 H              1 S1                 0.0000
     39 ****        -1.7161   1.4659  -4.1242 LP             1 S1                 0.0000
     40 ****        -0.8916   1.1091   2.3986 LP             1 S1                 0.0000
     41 ****         0.6475   1.9035   2.4093 LP             1 S1                 0.0000
@<TRIPOS>BOND
    1    1    2 1     
    2    1   18 1     
    3    1   19 1     
    4    1   20 1     
    5    2    3 1     
    6    2    9 1     
    7    2   21 1     
    8    3    4 1     
    9    3   22 1     
   10    3   23 1     
   11    4    8 1     
   12    4    5 1     
   13    5    6 2     
   14    5   24 1     
   15    6    7 1     
   16    6   25 1     
   17    7    8 2     
   18    8   26 1     
   19    9   10 am    
   20    9   27 1     
   21   10   11 2     
   22   10   12 1     
   23   12   17 1     
   24   12   13 1     
   25   12   14 1     
   26   13   28 1     
   27   13   29 1     
   28   13   38 1     
   29   14   15 1     
   30   14   30 1     
   31   14   31 1     
   32   15   16 1     
   33   15   32 1     
   34   15   33 1     
   35   16   17 1     
   36   16   34 1     
   37   16   35 1     
   38   17   36 1     
   39   17   37 1     
   40    7   39 1     
   41   11   40 1     
   42   11   41 1     
@<TRIPOS>SUBSTRUCTURE
      1 S1             1
@<TRIPOS>SET
LONE_PAIRS      STATIC     ATOMS    <user>   **** ""
3 39 40 41
DONOR_HYDROGENS      STATIC     ATOMS    <user>   **** ""
4 27 28 29 38
ATOM$BLUE        STATIC     ATOMS    COLORGROUP SYSTEM
3 39 40 41
ATOM$RED        STATIC     ATOMS    COLORGROUP SYSTEM
4 27 28 29 38
