AV-unprocessed.smi:2881|AV-procd|sdf|11058|dock8
  -GOLD-   2272015533D 1   1.00000     0.00000
 Structure written by MMmdl.
 40 42  0  0  0  0  0  0  0  0  1 V2000
  143.9004  134.7520  151.2945 C   0  0  0  0  0  0  0  0  0  0  0  0
  144.7638  135.9678  151.2965 C   0  0  0  0  0  0  0  0  0  0  0  0
  145.0928  136.8369  152.2980 C   0  0  0  0  0  0  0  0  0  0  0  0
  145.9597  137.7834  151.6750 C   0  0  0  0  0  0  0  0  0  0  0  0
  146.6552  138.9598  152.3098 C   0  0  0  0  0  0  0  0  0  0  0  0
  147.2726  138.5459  153.6471 C   0  0  0  0  0  0  0  0  0  0  0  0
  146.5529  138.1539  154.5651 O   0  0  0  0  0  0  0  0  0  0  0  0
  148.6065  138.6605  153.7472 N   0  0  0  0  0  0  0  0  0  0  0  0
  149.3947  138.4442  154.9590 C   0  0  1  0  0  0  0  0  0  0  0  0
  150.6499  137.6074  154.6309 C   0  0  2  0  0  0  0  0  0  0  0  0
  151.2648  137.0849  155.9420 C   0  0  0  0  0  0  0  0  0  0  0  0
  151.8689  138.3608  156.5591 C   0  0  0  0  0  0  0  0  0  0  0  0
  151.5172  139.4446  155.5207 C   0  0  1  0  0  0  0  0  0  0  0  0
  151.6601  138.6705  154.2165 C   0  0  0  0  0  0  0  0  0  0  0  0
  149.9982  139.7414  155.5812 C   0  0  1  0  0  0  0  0  0  0  0  0
  149.6077  141.0733  154.8976 C   0  0  0  0  0  0  0  0  0  0  0  0
  149.7688  140.9777  153.4981 O   0  0  0  0  0  0  0  0  0  0  0  0
  146.1443  137.5259  150.3874 N   0  0  0  0  0  0  0  0  0  0  0  0
  145.4133  136.4173  150.1698 N   0  0  0  0  0  0  0  0  0  0  0  0
  145.3659  135.9846  149.2583 H   0  0  0  0  0  0  0  0  0  0  0  0
  144.3119  133.9877  151.9538 H   0  0  0  0  0  0  0  0  0  0  0  0
  143.8184  134.3254  150.2943 H   0  0  0  0  0  0  0  0  0  0  0  0
  142.8953  134.9922  151.6415 H   0  0  0  0  0  0  0  0  0  0  0  0
  144.7708  136.7982  153.3282 H   0  0  0  0  0  0  0  0  0  0  0  0
  147.4323  139.3513  151.6517 H   0  0  0  0  0  0  0  0  0  0  0  0
  145.9508  139.7745  152.4802 H   0  0  0  0  0  0  0  0  0  0  0  0
  149.1110  138.9830  152.9340 H   0  0  0  0  0  0  0  0  0  0  0  0
  148.7828  137.9169  155.6935 H   0  0  0  0  0  0  0  0  0  0  0  0
  150.4797  136.8208  153.8945 H   0  0  0  0  0  0  0  0  0  0  0  0
  150.5257  136.6156  156.5920 H   0  0  0  0  0  0  0  0  0  0  0  0
  152.0455  136.3509  155.7394 H   0  0  0  0  0  0  0  0  0  0  0  0
  151.4612  138.5809  157.5462 H   0  0  0  0  0  0  0  0  0  0  0  0
  152.9501  138.2595  156.6616 H   0  0  0  0  0  0  0  0  0  0  0  0
  152.1494  140.3295  155.5979 H   0  0  0  0  0  0  0  0  0  0  0  0
  152.6641  138.2737  154.0566 H   0  0  0  0  0  0  0  0  0  0  0  0
  151.3587  139.2383  153.3350 H   0  0  0  0  0  0  0  0  0  0  0  0
  149.6821  139.8097  156.6235 H   0  0  0  0  0  0  0  0  0  0  0  0
  148.5777  141.3536  155.1190 H   0  0  0  0  0  0  0  0  0  0  0  0
  150.2471  141.8849  155.2456 H   0  0  0  0  0  0  0  0  0  0  0  0
  149.3732  140.1708  153.2054 H   0  0  0  0  0  0  0  0  0  0  0  0
  1  2  1  0  0  0  0
  1 21  1  0  0  0  0
  1 22  1  0  0  0  0
  1 23  1  0  0  0  0
  2 19  1  0  0  0  0
  2  3  2  0  0  0  0
  3  4  1  0  0  0  0
  3 24  1  0  0  0  0
  4  5  1  0  0  0  0
  4 18  2  0  0  0  0
  5  6  1  0  0  0  0
  5 25  1  0  0  0  0
  5 26  1  0  0  0  0
  6  7  2  0  0  0  0
  6  8  1  0  0  0  0
  8  9  1  0  0  0  0
  8 27  1  0  0  0  0
  9 15  1  0  0  0  0
  9 10  1  0  0  0  0
  9 28  1  0  0  0  0
 10 14  1  0  0  0  0
 10 11  1  0  0  0  0
 10 29  1  0  0  0  0
 11 12  1  0  0  0  0
 11 30  1  0  0  0  0
 11 31  1  0  0  0  0
 12 13  1  0  0  0  0
 12 32  1  0  0  0  0
 12 33  1  0  0  0  0
 13 14  1  0  0  0  0
 13 15  1  0  0  0  0
 13 34  1  0  0  0  0
 14 35  1  0  0  0  0
 14 36  1  0  0  0  0
 15 16  1  0  0  0  0
 15 37  1  0  0  0  0
 16 17  1  0  0  0  0
 16 38  1  0  0  0  0
 16 39  1  0  0  0  0
 17 40  1  0  0  0  0
 18 19  1  0  0  0  0
 19 20  1  0  0  0  0
M  END
> <s_m_source_file>
AV-unprocessed.smi

> <i_m_source_file_index>
2881

> <i_lp_mmshare_version>
43012

> <i_f3d_flags>
0

> <s_epik_input>
W0NIM11jMVtjSF1jKG5bbkhdMSlbQ0gyXUMoPU8pW05IXVtDQEhdKFtDQEBIXTIzKVtDQEhdKFtDSDJdW09IXSlbQ0BASF0oW0NIMl0zKVtDSDJdW0NIMl0y

> <s_epik_cmdline>
J2VwaWtfcHl0aG9uJywgJy1waCcsICc3LjAnLCAnLXRuJywgJzgnLCAnLW1hJywgJzIwMCcsICctbWV0YWxfYmluZGluZycsICctaW1hZScsICc8aW5maWxlLm1hZT4nLCAnLW9tYWUnLCAnPG91dGZpbGUubWFlPic=

> <r_lp_tautomer_probability>
0.5

> <r_epik_Ionization_Penalty>
9.4349e-05

> <r_epik_Ionization_Penalty_Charging>
0

> <r_epik_Ionization_Penalty_Neutral>
9.4349e-05

> <r_epik_State_Penalty>
0.41068

> <r_epik_Charging_Adjusted_Penalty>
0.41068

> <i_epik_Tot_Q>
0

> <i_epik_Tot_abs_Q>
0

> <r_epik_Metal_State_Penalty>
0.4107

> <b_epik_Metal_Only>
0

> <s_lp_Force_Field>
OPLS_2005

> <r_lp_Energy>
47.5678

> <b_lp_Chiralities_Consistent>
1

> <s_lp_Variant>
AV-unprocessed.smi:2881-4

> <Gold.Version>
5.8.1

> <Gold.Id.Protein>
6NUR|6NUR_protein|mol2

> <Gold.PLP.Fitness>
43.1497

> <Gold.PLP.PLP>
-31.7278

> <Gold.PLP.part.hbond>
-7.3169

> <Gold.PLP.part.metal>
0.0000

> <Gold.PLP.part.buried>
0.6703

> <Gold.PLP.part.nonpolar>
-27.7151

> <Gold.PLP.part.repulsive>
3.0993

> <Gold.PLP.ligand.clash>
0.0000

> <Gold.PLP.ligand.torsion>
0.3988

> <Gold.PLP.Chemscore.Hbond>
4.0664

> <Gold.PLP.Chemscore.CHOScore>
0.0000

> <Gold.PLP.Chemscore.Metal>
0.0000

> <Gold.Chemscore.Hbonds>
donor molecule, donor type, donor heavy atom, donor atom, acceptor molecule, acceptor atom, score
      L1  H     8    27       P1  7957  0.78
      L1  H    17    40       P1  7957  0.15
      L1  H    19    20       P1  7921  0.76
      P1  H  7954  7966       L1    18  0.68
      P1  H  7989  7998       L1    17  0.24
      P1  H  8011  8017       L1    17  1.00

> <Gold.PLP.Chemscore.Internal.Correction>
0.0202

> <Gold.Rescore>
     Score         DG    S(hbond)    S(metal)    S(lipo)     H(rot)  DE(clash)    DE(int)     intcor
     16.02     -21.46       3.59        0.00      83.92       2.28       2.54       2.90       ----

> <Gold.Chemscore.Fitness>
16.0224

> <Gold.Chemscore.DG>
-21.4623

> <Gold.Chemscore.ZeroCoef>
-5.4800

> <Gold.Chemscore.Hbond>
3.5895

> <Gold.Chemscore.Metal>
0.0000

> <Gold.Chemscore.Lipo>
83.9185

> <Gold.Chemscore.Internal_Hbond>
0.0000

> <Gold.Chemscore.DEClash>
2.5365

> <Gold.Chemscore.DEInternal>
2.9034

> <Gold.Chemscore.Rot>
2.2755

> <Gold.Chemscore.Internal.Correction>
   9.000000E+99

> <Gold.Chemscore.Hbonds>
donor molecule, donor type, donor heavy atom, donor atom, acceptor molecule, acceptor atom, score
      L1  H     8    27       P1  7957  0.78
      L1  H    17    40       P1  7957  0.15
      L1  H    19    20       P1  7921  0.73
      P1  H  7954  7966       L1    18  0.50
      P1  H  7989  7998       L1    17  0.04
      P1  H  8011  8017       L1    17  0.92

> <Gold.Chemscore.Hbond.Weighted>
-11.9890

> <Gold.Chemscore.Metal.Weighted>
-0.0000

> <Gold.Chemscore.Lipo.Weighted>
-9.8185

> <Gold.Chemscore.Internal_Hbond.Weighted>
0.0000

> <Gold.Chemscore.DEClash.Weighted>
2.5365

> <Gold.Chemscore.DEInternal.Weighted>
2.9034

> <Gold.Chemscore.Rot.Weighted>
5.8252

> <Gold.Chemscore.Internal.Correction.Weighted>
   9.000000E+99

> <Gold.Protein.RotatedTorsions>
[ 6907 6896 6895 6894 ] final  -96.58 input  -60.11 | X-H torsion
[ 7974 7965 7964 7962 ] final -137.79 input  175.53 | X-H torsion
[ 8008 7997 7996 7995 ] final  -48.10 input   59.86 | X-H torsion
[ 10167 10162 10161 10158 ] final -169.45 input  -65.29 | X-H torsion
[ 10718 10713 10712 10709 ] final    7.70 input   66.30 | X-H torsion
[ 10763 10752 10751 10750 ] final   21.79 input  -60.55 | X-H torsion
[ 11005 11000 10999 10996 ] final  135.65 input  -57.11 | X-H torsion

> <Gold.Protein.ActiveResidues>
 VAL166  LYS551  ARG553  GLY616  TRP617  ASP618  TYR619  PRO620  LYS621  CYS622 
 ASP623  PHE694  ASN695  SER759  ASP760  ASP761  ALA762  ILE779  LEU786  VAL792 
 PHE793  MET794  SER795  GLU796  ALA797  LYS798  CYS799  TRP800  GLU811  SER814 

> <Gold.Protein.RotatedAtoms>
  150.6992  134.1481  159.4129 H   0  0  0  0  0  0  0  0  0  0  0  0  # atno 6907 bound_to 6896
  151.9465  135.0187  160.0548 H   0  0  0  0  0  0  0  0  0  0  0  0  # atno 6908 bound_to 6896
  152.2049  133.4833  159.5115 H   0  0  0  0  0  0  0  0  0  0  0  0  # atno 6909 bound_to 6896
  144.8812  140.6510  143.5205 H   0  0  0  0  0  0  0  0  0  0  0  0  # atno 7974 bound_to 7965
  154.4024  140.1330  156.4283 H   0  0  0  0  0  0  0  0  0  0  0  0  # atno 8008 bound_to 7997
  155.7576  140.3487  155.5161 H   0  0  0  0  0  0  0  0  0  0  0  0  # atno 8009 bound_to 7997
  155.8890  140.1000  157.1422 H   0  0  0  0  0  0  0  0  0  0  0  0  # atno 8010 bound_to 7997
  139.5922  144.1188  152.1648 H   0  0  0  0  0  0  0  0  0  0  0  0  # atno 10167 bound_to 10162
  156.9408  130.5860  149.5652 H   0  0  0  0  0  0  0  0  0  0  0  0  # atno 10718 bound_to 10713
  153.0967  135.6661  153.9750 H   0  0  0  0  0  0  0  0  0  0  0  0  # atno 10763 bound_to 10752
  153.9332  135.3002  155.3446 H   0  0  0  0  0  0  0  0  0  0  0  0  # atno 10764 bound_to 10752
  154.7386  135.5090  153.9158 H   0  0  0  0  0  0  0  0  0  0  0  0  # atno 10765 bound_to 10752
  139.9993  134.9484  157.0037 H   0  0  0  0  0  0  0  0  0  0  0  0  # atno 11005 bound_to 11000
  145.3951  139.1609  143.4208 LP  0  0  0  0  0  0  0  0  0  0  0  0  # atno 17320 bound_to 7965
  146.2995  140.4043  142.8709 LP  0  0  0  0  0  0  0  0  0  0  0  0  # atno 17321 bound_to 7965
  140.0765  144.5736  150.7153 LP  0  0  0  0  0  0  0  0  0  0  0  0  # atno 17342 bound_to 10162
  140.7183  143.2564  151.4364 LP  0  0  0  0  0  0  0  0  0  0  0  0  # atno 17343 bound_to 10162
  156.0405  130.5488  150.8759 LP  0  0  0  0  0  0  0  0  0  0  0  0  # atno 17370 bound_to 10713
  157.5786  131.0946  150.9307 LP  0  0  0  0  0  0  0  0  0  0  0  0  # atno 17371 bound_to 10713
  140.4757  134.1340  155.7209 LP  0  0  0  0  0  0  0  0  0  0  0  0  # atno 17394 bound_to 11000
  141.1630  133.8757  157.1796 LP  0  0  0  0  0  0  0  0  0  0  0  0  # atno 17395 bound_to 11000

$$$$
