AV-unprocessed.smi:265|AV-procd|sdf|2018|dock7
  -GOLD-   2262021223D 1   1.00000     0.00000
 Structure written by MMmdl.
 52 56  0  0  0  0  0  0  0  0  1 V2000
  149.4946  132.5130  154.5737 C   0  0  0  0  0  0  0  0  0  0  0  0
  150.3549  132.3660  155.8385 C   0  0  1  0  0  0  0  0  0  0  0  0
  151.5976  131.7871  155.4465 O   0  0  0  0  0  0  0  0  0  0  0  0
  152.6248  132.2784  156.2894 C   0  0  0  0  0  0  0  0  0  0  0  0
  152.2367  133.7384  156.4628 C   0  0  0  0  0  0  0  0  0  0  0  0
  150.7176  133.6759  156.5938 C   0  0  2  0  0  0  0  0  0  0  0  0
  150.4062  133.4806  157.9638 O   0  0  0  0  0  0  0  0  0  0  0  0
  149.9987  134.9664  156.1204 C   0  0  0  0  0  0  0  0  0  0  0  0
  150.3859  136.1529  156.8688 N   0  0  0  0  0  0  0  0  0  0  0  0
  149.8990  136.5452  158.0951 C   0  0  0  0  0  0  0  0  0  0  0  0
  150.4036  137.6524  158.5660 N   0  0  0  0  0  0  0  0  0  0  0  0
  151.3005  138.0609  157.5860 C   0  0  0  0  0  0  0  0  0  0  0  0
  152.1835  139.1694  157.4513 C   0  0  0  0  0  0  0  0  0  0  0  0
  152.2771  140.1486  158.3860 N   0  0  0  0  0  0  0  0  0  0  0  0
  153.5906  140.3907  158.9931 C   0  0  0  0  0  0  0  0  0  0  0  0
  153.4701  141.2627  160.2576 C   0  0  0  0  0  0  0  0  0  0  0  0
  152.7025  142.5509  159.9329 C   0  0  2  0  0  0  0  0  0  0  0  0
  152.4754  143.3435  161.0886 O   0  0  0  0  0  0  0  0  0  0  0  0
  151.9019  144.6226  160.7957 C   0  0  0  0  0  0  0  0  0  0  0  0
  150.7083  144.5346  159.8207 C   0  0  0  0  0  0  0  0  0  0  0  0
  149.9683  145.5039  159.6700 O   0  0  0  0  0  0  0  0  0  0  0  0
  150.5392  143.3977  159.1261 N   0  0  0  0  0  0  0  0  0  0  0  0
  151.3197  142.1919  159.3674 C   0  0  1  0  0  0  0  0  0  0  0  0
  151.4783  141.3419  158.0981 C   0  0  0  0  0  0  0  0  0  0  0  0
  152.9486  139.2271  156.3283 N   0  0  0  0  0  0  0  0  0  0  0  0
  152.8480  138.2773  155.3937 C   0  0  0  0  0  0  0  0  0  0  0  0
  152.0629  137.1986  155.3819 N   0  0  0  0  0  0  0  0  0  0  0  0
  151.3030  137.1265  156.5121 C   0  0  0  0  0  0  0  0  0  0  0  0
  153.2784  143.1282  159.2060 H   0  0  0  0  0  0  0  0  0  0  0  0
  150.7717  141.6073  160.1089 H   0  0  0  0  0  0  0  0  0  0  0  0
  148.5172  132.9377  154.8027 H   0  0  0  0  0  0  0  0  0  0  0  0
  149.3253  131.5410  154.1102 H   0  0  0  0  0  0  0  0  0  0  0  0
  149.9787  133.1485  153.8318 H   0  0  0  0  0  0  0  0  0  0  0  0
  149.8590  131.6632  156.5107 H   0  0  0  0  0  0  0  0  0  0  0  0
  152.6078  131.7486  157.2429 H   0  0  0  0  0  0  0  0  0  0  0  0
  153.6098  132.1535  155.8392 H   0  0  0  0  0  0  0  0  0  0  0  0
  152.7354  134.2211  157.3044 H   0  0  0  0  0  0  0  0  0  0  0  0
  152.5127  134.2796  155.5573 H   0  0  0  0  0  0  0  0  0  0  0  0
  149.7509  132.8027  158.0272 H   0  0  0  0  0  0  0  0  0  0  0  0
  150.2053  135.1570  155.0671 H   0  0  0  0  0  0  0  0  0  0  0  0
  148.9175  134.8514  156.2079 H   0  0  0  0  0  0  0  0  0  0  0  0
  149.1568  135.9759  158.6355 H   0  0  0  0  0  0  0  0  0  0  0  0
  154.0633  139.4420  159.2514 H   0  0  0  0  0  0  0  0  0  0  0  0
  154.2358  140.8845  158.2651 H   0  0  0  0  0  0  0  0  0  0  0  0
  152.9501  140.7074  161.0393 H   0  0  0  0  0  0  0  0  0  0  0  0
  154.4604  141.4997  160.6471 H   0  0  0  0  0  0  0  0  0  0  0  0
  151.5842  145.0919  161.7271 H   0  0  0  0  0  0  0  0  0  0  0  0
  152.6647  145.2653  160.3550 H   0  0  0  0  0  0  0  0  0  0  0  0
  149.7818  143.3428  158.4606 H   0  0  0  0  0  0  0  0  0  0  0  0
  151.9770  141.9189  157.3179 H   0  0  0  0  0  0  0  0  0  0  0  0
  150.4935  141.0797  157.7129 H   0  0  0  0  0  0  0  0  0  0  0  0
  153.4865  138.4007  154.5315 H   0  0  0  0  0  0  0  0  0  0  0  0
  1  2  1  0  0  0  0
  1 31  1  0  0  0  0
  1 32  1  0  0  0  0
  1 33  1  0  0  0  0
  2  6  1  0  0  0  0
  2  3  1  0  0  0  0
  2 34  1  0  0  0  0
  3  4  1  0  0  0  0
  4  5  1  0  0  0  0
  4 35  1  0  0  0  0
  4 36  1  0  0  0  0
  5  6  1  0  0  0  0
  5 37  1  0  0  0  0
  5 38  1  0  0  0  0
  6  7  1  0  0  0  0
  6  8  1  0  0  0  0
  7 39  1  0  0  0  0
  8  9  1  0  0  0  0
  8 40  1  0  0  0  0
  8 41  1  0  0  0  0
  9 28  1  0  0  0  0
  9 10  1  0  0  0  0
 10 11  2  0  0  0  0
 10 42  1  0  0  0  0
 11 12  1  0  0  0  0
 12 28  2  0  0  0  0
 12 13  1  0  0  0  0
 13 14  1  0  0  0  0
 13 25  2  0  0  0  0
 14 24  1  0  0  0  0
 14 15  1  0  0  0  0
 15 16  1  0  0  0  0
 15 43  1  0  0  0  0
 15 44  1  0  0  0  0
 16 17  1  0  0  0  0
 16 45  1  0  0  0  0
 16 46  1  0  0  0  0
 17 29  1  0  0  0  0
 17 23  1  0  0  0  0
 17 18  1  0  0  0  0
 18 19  1  0  0  0  0
 19 20  1  0  0  0  0
 19 47  1  0  0  0  0
 19 48  1  0  0  0  0
 20 21  2  0  0  0  0
 20 22  1  0  0  0  0
 22 23  1  0  0  0  0
 22 49  1  0  0  0  0
 23 30  1  0  0  0  0
 23 24  1  0  0  0  0
 24 50  1  0  0  0  0
 24 51  1  0  0  0  0
 25 26  1  0  0  0  0
 26 27  2  0  0  0  0
 26 52  1  0  0  0  0
 27 28  1  0  0  0  0
M  END
> <s_m_source_file>
AV-unprocessed.smi

> <i_m_source_file_index>
265

> <i_lp_mmshare_version>
43012

> <i_f3d_flags>
0

> <s_epik_input>
W0NIMl0xW0NIMl1PW0NAQEhdKFtDSDNdKVtDQEBdMShbT0hdKVtDSDJdbihbY0hdbjIpYyhjMjMpbltjSF1uYzNOKFtDSDJdW0NIMl00KVtDSDJdW0NAQEhdKFtDQEhdNDUpW05IXUMoPU8pW0NIMl1PNQ==

> <s_epik_cmdline>
J2VwaWtfcHl0aG9uJywgJy1waCcsICc3LjAnLCAnLXRuJywgJzgnLCAnLW1hJywgJzIwMCcsICctbWV0YWxfYmluZGluZycsICctaW1hZScsICc8aW5maWxlLm1hZT4nLCAnLW9tYWUnLCAnPG91dGZpbGUubWFlPic=

> <r_lp_tautomer_probability>
1

> <r_epik_Ionization_Penalty>
0.00221504

> <r_epik_Ionization_Penalty_Charging>
0

> <r_epik_Ionization_Penalty_Neutral>
0.00221504

> <r_epik_State_Penalty>
-0

> <r_epik_Charging_Adjusted_Penalty>
0

> <i_epik_Tot_Q>
0

> <i_epik_Tot_abs_Q>
0

> <r_epik_Metal_State_Penalty>
-0

> <b_epik_Metal_Only>
0

> <s_lp_Force_Field>
OPLS_2005

> <r_lp_Energy>
44.0648

> <b_lp_Chiralities_Consistent>
1

> <s_lp_Variant>
AV-unprocessed.smi:265-4

> <Gold.Version>
5.8.1

> <Gold.Id.Protein>
6NUR|6NUR_protein|mol2

> <Gold.PLP.Fitness>
47.5551

> <Gold.PLP.PLP>
-39.6569

> <Gold.PLP.part.hbond>
-5.0000

> <Gold.PLP.part.metal>
0.0000

> <Gold.PLP.part.buried>
-5.5273

> <Gold.PLP.part.nonpolar>
-28.8321

> <Gold.PLP.part.repulsive>
0.4108

> <Gold.PLP.ligand.clash>
0.0000

> <Gold.PLP.ligand.torsion>
0.6317

> <Gold.PLP.Chemscore.Hbond>
2.9120

> <Gold.PLP.Chemscore.CHOScore>
0.0000

> <Gold.PLP.Chemscore.Metal>
0.0000

> <Gold.Chemscore.Hbonds>
donor molecule, donor type, donor heavy atom, donor atom, acceptor molecule, acceptor atom, score
      P1  H  6896  6909       L1     7  0.59
      P1  H  7997  8009       L1    25  1.00
      P1  H 10752 10765       L1    27  0.91

> <Gold.PLP.Chemscore.Internal.Correction>
0.4256

> <Gold.Rescore>
     Score         DG    S(hbond)    S(metal)    S(lipo)     H(rot)  DE(clash)    DE(int)     intcor
     17.68     -18.62       2.58        0.00      87.70       2.25       0.18       0.76       ----

> <Gold.Chemscore.Fitness>
17.6758

> <Gold.Chemscore.DG>
-18.6201

> <Gold.Chemscore.ZeroCoef>
-5.4800

> <Gold.Chemscore.Hbond>
2.5828

> <Gold.Chemscore.Metal>
0.0000

> <Gold.Chemscore.Lipo>
87.7038

> <Gold.Chemscore.Internal_Hbond>
0.0000

> <Gold.Chemscore.DEClash>
0.1797

> <Gold.Chemscore.DEInternal>
0.7646

> <Gold.Chemscore.Rot>
2.2453

> <Gold.Chemscore.Internal.Correction>
   9.000000E+99

> <Gold.Chemscore.Hbonds>
donor molecule, donor type, donor heavy atom, donor atom, acceptor molecule, acceptor atom, score
      P1  H  6896  6909       L1     7  0.34
      P1  H  7997  8009       L1    25  0.88
      P1  H 10752 10765       L1    27  0.72

> <Gold.Chemscore.Hbond.Weighted>
-8.6267

> <Gold.Chemscore.Metal.Weighted>
-0.0000

> <Gold.Chemscore.Lipo.Weighted>
-10.2614

> <Gold.Chemscore.Internal_Hbond.Weighted>
0.0000

> <Gold.Chemscore.DEClash.Weighted>
0.1797

> <Gold.Chemscore.DEInternal.Weighted>
0.7646

> <Gold.Chemscore.Rot.Weighted>
5.7479

> <Gold.Chemscore.Internal.Correction.Weighted>
   9.000000E+99

> <Gold.Protein.RotatedTorsions>
[ 6907 6896 6895 6894 ] final  -10.24 input  -60.11 | X-H torsion
[ 7974 7965 7964 7962 ] final   62.01 input  175.53 | X-H torsion
[ 8008 7997 7996 7995 ] final -171.87 input   59.86 | X-H torsion
[ 10167 10162 10161 10158 ] final -110.01 input  -65.29 | X-H torsion
[ 10718 10713 10712 10709 ] final  -46.38 input   66.30 | X-H torsion
[ 10763 10752 10751 10750 ] final -172.62 input  -60.55 | X-H torsion
[ 11005 11000 10999 10996 ] final  -90.10 input  -57.11 | X-H torsion

> <Gold.Protein.ActiveResidues>
 VAL166  LYS551  ARG553  GLY616  TRP617  ASP618  TYR619  PRO620  LYS621  CYS622 
 ASP623  PHE694  ASN695  SER759  ASP760  ASP761  ALA762  ILE779  LEU786  VAL792 
 PHE793  MET794  SER795  GLU796  ALA797  LYS798  CYS799  TRP800  GLU811  SER814 

> <Gold.Protein.RotatedAtoms>
  151.4051  135.0977  159.9567 H   0  0  0  0  0  0  0  0  0  0  0  0  # atno 6907 bound_to 6896
  152.5038  133.8851  159.7376 H   0  0  0  0  0  0  0  0  0  0  0  0  # atno 6908 bound_to 6896
  150.9333  133.6684  159.2834 H   0  0  0  0  0  0  0  0  0  0  0  0  # atno 6909 bound_to 6896
  145.8782  139.3425  143.0721 H   0  0  0  0  0  0  0  0  0  0  0  0  # atno 7974 bound_to 7965
  155.9372  140.1102  157.1084 H   0  0  0  0  0  0  0  0  0  0  0  0  # atno 8008 bound_to 7997
  154.4082  140.1226  156.4946 H   0  0  0  0  0  0  0  0  0  0  0  0  # atno 8009 bound_to 7997
  155.7006  140.3472  155.4934 H   0  0  0  0  0  0  0  0  0  0  0  0  # atno 8010 bound_to 7997
  140.1491  143.4214  152.1508 H   0  0  0  0  0  0  0  0  0  0  0  0  # atno 10167 bound_to 10162
  156.2189  130.4165  149.9018 H   0  0  0  0  0  0  0  0  0  0  0  0  # atno 10718 bound_to 10713
  154.6172  135.2871  155.0367 H   0  0  0  0  0  0  0  0  0  0  0  0  # atno 10763 bound_to 10752
  154.1575  135.6493  153.4982 H   0  0  0  0  0  0  0  0  0  0  0  0  # atno 10764 bound_to 10752
  153.0220  135.5370  154.6948 H   0  0  0  0  0  0  0  0  0  0  0  0  # atno 10765 bound_to 10752
  141.1572  133.7671  156.9689 H   0  0  0  0  0  0  0  0  0  0  0  0  # atno 11005 bound_to 11000
  145.9055  140.9215  143.0481 LP  0  0  0  0  0  0  0  0  0  0  0  0  # atno 17320 bound_to 7965
  144.6726  140.1090  143.7456 LP  0  0  0  0  0  0  0  0  0  0  0  0  # atno 17321 bound_to 7965
  139.5434  144.7277  151.4659 LP  0  0  0  0  0  0  0  0  0  0  0  0  # atno 17342 bound_to 10162
  140.6713  143.8286  150.7003 LP  0  0  0  0  0  0  0  0  0  0  0  0  # atno 17343 bound_to 10162
  156.6671  130.8805  151.3556 LP  0  0  0  0  0  0  0  0  0  0  0  0  # atno 17370 bound_to 10713
  157.7077  130.9404  150.0986 LP  0  0  0  0  0  0  0  0  0  0  0  0  # atno 17371 bound_to 10713
  140.1142  134.9457  157.2110 LP  0  0  0  0  0  0  0  0  0  0  0  0  # atno 17394 bound_to 11000
  140.3154  134.2976  155.7257 LP  0  0  0  0  0  0  0  0  0  0  0  0  # atno 17395 bound_to 11000

$$$$
