AV-unprocessed.smi:3150|AV-procd|sdf|12008|dock5
  -GOLD-   2272017413D 1   1.00000     0.00000
 Structure written by MMmdl.
 33 34  0  0  0  0  0  0  0  0  1 V2000
  149.7893  139.8936  154.4945 C   0  0  0  0  0  0  0  0  0  0  0  0
  149.6283  141.2973  155.0970 C   0  0  1  0  0  0  0  0  0  0  0  0
  148.2421  141.6263  155.0597 O   0  0  0  0  0  0  0  0  0  0  0  0
  147.6479  141.6119  153.7675 C   0  0  0  0  0  0  0  0  0  0  0  0
  146.2725  142.2369  153.8570 C   0  0  0  0  0  0  0  0  0  0  0  0
  146.0645  143.6810  153.4603 C   0  0  0  0  0  0  0  0  0  0  0  0
  145.9655  143.2782  154.9094 C   0  0  0  0  0  0  0  0  0  0  0  0
  150.1521  141.3527  156.5413 C   0  0  0  0  0  0  0  0  0  0  0  0
  149.7788  140.5111  157.3591 O   0  0  0  0  0  0  0  0  0  0  0  0
  150.9973  142.3639  156.8150 N   0  0  0  0  0  0  0  0  0  0  0  0
  151.6314  142.6822  158.0475 C   0  0  0  0  0  0  0  0  0  0  0  0
  152.1534  141.7431  158.8762 N   0  0  0  0  0  0  0  0  0  0  0  0
  152.7405  142.1286  160.0282 C   0  0  0  0  0  0  0  0  0  0  0  0
  152.8440  143.4732  160.4263 C   0  0  0  0  0  0  0  0  0  0  0  0
  152.3072  144.4577  159.5786 C   0  0  0  0  0  0  0  0  0  0  0  0
  151.6926  144.0612  158.3737 C   0  0  0  0  0  0  0  0  0  0  0  0
  151.1674  145.0142  157.5453 O   0  0  0  0  0  0  0  0  0  0  0  0
  150.8312  139.5720  154.5125 H   0  0  0  0  0  0  0  0  0  0  0  0
  149.4592  139.8795  153.4556 H   0  0  0  0  0  0  0  0  0  0  0  0
  149.1995  139.1531  155.0361 H   0  0  0  0  0  0  0  0  0  0  0  0
  150.1838  142.0005  154.4731 H   0  0  0  0  0  0  0  0  0  0  0  0
  148.2486  142.1603  153.0406 H   0  0  0  0  0  0  0  0  0  0  0  0
  147.5454  140.5863  153.4112 H   0  0  0  0  0  0  0  0  0  0  0  0
  145.4623  141.5564  153.6017 H   0  0  0  0  0  0  0  0  0  0  0  0
  146.9377  144.2570  153.1597 H   0  0  0  0  0  0  0  0  0  0  0  0
  145.1401  143.9323  152.9442 H   0  0  0  0  0  0  0  0  0  0  0  0
  144.9753  143.2585  155.3597 H   0  0  0  0  0  0  0  0  0  0  0  0
  146.7730  143.5821  155.5728 H   0  0  0  0  0  0  0  0  0  0  0  0
  151.2116  142.9867  156.0497 H   0  0  0  0  0  0  0  0  0  0  0  0
  153.1399  141.3412  160.6500 H   0  0  0  0  0  0  0  0  0  0  0  0
  153.3222  143.7413  161.3565 H   0  0  0  0  0  0  0  0  0  0  0  0
  152.3671  145.5014  159.8499 H   0  0  0  0  0  0  0  0  0  0  0  0
  150.4374  144.6992  157.0343 H   0  0  0  0  0  0  0  0  0  0  0  0
  1  2  1  0  0  0  0
  1 18  1  0  0  0  0
  1 19  1  0  0  0  0
  1 20  1  0  0  0  0
  2  3  1  0  0  0  0
  2  8  1  0  0  0  0
  2 21  1  0  0  0  0
  3  4  1  0  0  0  0
  4  5  1  0  0  0  0
  4 22  1  0  0  0  0
  4 23  1  0  0  0  0
  5  7  1  0  0  0  0
  5  6  1  0  0  0  0
  5 24  1  0  0  0  0
  6  7  1  0  0  0  0
  6 25  1  0  0  0  0
  6 26  1  0  0  0  0
  7 27  1  0  0  0  0
  7 28  1  0  0  0  0
  8  9  2  0  0  0  0
  8 10  1  0  0  0  0
 10 11  1  0  0  0  0
 10 29  1  0  0  0  0
 11 16  1  0  0  0  0
 11 12  2  0  0  0  0
 12 13  1  0  0  0  0
 13 14  2  0  0  0  0
 13 30  1  0  0  0  0
 14 15  1  0  0  0  0
 14 31  1  0  0  0  0
 15 16  2  0  0  0  0
 15 32  1  0  0  0  0
 16 17  1  0  0  0  0
 17 33  1  0  0  0  0
M  END
> <s_m_source_file>
AV-unprocessed.smi

> <i_m_source_file_index>
3150

> <i_lp_mmshare_version>
43012

> <i_f3d_flags>
0

> <s_epik_input>
W0NIMl0xW0NIMl1bQ0hdMVtDSDJdT1tDQEBIXShbQ0gzXSlDKD1PKVtOSF1jMm5bY0hdW2NIXVtjSF1jMltPSF0=

> <s_epik_cmdline>
J2VwaWtfcHl0aG9uJywgJy1waCcsICc3LjAnLCAnLXRuJywgJzgnLCAnLW1hJywgJzIwMCcsICctbWV0YWxfYmluZGluZycsICctaW1hZScsICc8aW5maWxlLm1hZT4nLCAnLW9tYWUnLCAnPG91dGZpbGUubWFlPic=

> <r_lp_tautomer_probability>
0.43658

> <r_epik_Ionization_Penalty>
0.0204299

> <r_epik_Ionization_Penalty_Charging>
0

> <r_epik_Ionization_Penalty_Neutral>
0.0204299

> <r_epik_State_Penalty>
0.419322

> <r_epik_Charging_Adjusted_Penalty>
0.419322

> <i_epik_Tot_Q>
0

> <i_epik_Tot_abs_Q>
0

> <r_epik_Metal_State_Penalty>
0.377394

> <b_epik_Metal_Only>
0

> <s_lp_Force_Field>
OPLS_2005

> <r_lp_Energy>
16.197

> <b_lp_Chiralities_Consistent>
1

> <s_lp_Variant>
AV-unprocessed.smi:3150-2

> <Gold.Version>
5.8.1

> <Gold.Id.Protein>
6NUR|6NUR_protein|mol2

> <Gold.PLP.Fitness>
40.5229

> <Gold.PLP.PLP>
-38.9482

> <Gold.PLP.part.hbond>
-1.2866

> <Gold.PLP.part.metal>
0.0000

> <Gold.PLP.part.buried>
-2.5472

> <Gold.PLP.part.nonpolar>
-34.5096

> <Gold.PLP.part.repulsive>
0.1900

> <Gold.PLP.ligand.clash>
0.0000

> <Gold.PLP.ligand.torsion>
1.0002

> <Gold.PLP.Chemscore.Hbond>
1.0000

> <Gold.PLP.Chemscore.CHOScore>
0.0000

> <Gold.PLP.Chemscore.Metal>
0.0000

> <Gold.Chemscore.Hbonds>
donor molecule, donor type, donor heavy atom, donor atom, acceptor molecule, acceptor atom, score
      L1  H    17    33       P1  8028  0.99

> <Gold.PLP.Chemscore.Internal.Correction>
0.5752

> <Gold.Rescore>
     Score         DG    S(hbond)    S(metal)    S(lipo)     H(rot)  DE(clash)    DE(int)     intcor
     10.89     -13.55       0.90        0.00      91.93       2.22       1.75       0.92       ----

> <Gold.Chemscore.Fitness>
10.8857

> <Gold.Chemscore.DG>
-13.5548

> <Gold.Chemscore.ZeroCoef>
-5.4800

> <Gold.Chemscore.Hbond>
0.8983

> <Gold.Chemscore.Metal>
0.0000

> <Gold.Chemscore.Lipo>
91.9293

> <Gold.Chemscore.Internal_Hbond>
0.0000

> <Gold.Chemscore.DEClash>
1.7483

> <Gold.Chemscore.DEInternal>
0.9208

> <Gold.Chemscore.Rot>
2.2192

> <Gold.Chemscore.Internal.Correction>
   9.000000E+99

> <Gold.Chemscore.Hbonds>
donor molecule, donor type, donor heavy atom, donor atom, acceptor molecule, acceptor atom, score
      L1  H    17    33       P1  8028  0.60

> <Gold.Chemscore.Hbond.Weighted>
-3.0003

> <Gold.Chemscore.Metal.Weighted>
-0.0000

> <Gold.Chemscore.Lipo.Weighted>
-10.7557

> <Gold.Chemscore.Internal_Hbond.Weighted>
0.0000

> <Gold.Chemscore.DEClash.Weighted>
1.7483

> <Gold.Chemscore.DEInternal.Weighted>
0.9208

> <Gold.Chemscore.Rot.Weighted>
5.6812

> <Gold.Chemscore.Internal.Correction.Weighted>
   9.000000E+99

> <Gold.Protein.RotatedTorsions>
[ 6907 6896 6895 6894 ] final  -61.17 input  -60.11 | X-H torsion
[ 7974 7965 7964 7962 ] final -159.44 input  175.53 | X-H torsion
[ 8008 7997 7996 7995 ] final  -10.57 input   59.86 | X-H torsion
[ 10167 10162 10161 10158 ] final   56.69 input  -65.29 | X-H torsion
[ 10718 10713 10712 10709 ] final  178.51 input   66.30 | X-H torsion
[ 10763 10752 10751 10750 ] final  -57.04 input  -60.55 | X-H torsion
[ 11005 11000 10999 10996 ] final -102.60 input  -57.11 | X-H torsion

> <Gold.Protein.ActiveResidues>
 VAL166  LYS551  ARG553  GLY616  TRP617  ASP618  TYR619  PRO620  LYS621  CYS622 
 ASP623  PHE694  ASN695  SER759  ASP760  ASP761  ALA762  ILE779  LEU786  VAL792 
 PHE793  MET794  SER795  GLU796  ALA797  LYS798  CYS799  TRP800  GLU811  SER814 

> <Gold.Protein.RotatedAtoms>
  150.7803  134.6740  159.6406 H   0  0  0  0  0  0  0  0  0  0  0  0  # atno 6907 bound_to 6896
  152.3886  134.6474  160.0125 H   0  0  0  0  0  0  0  0  0  0  0  0  # atno 6908 bound_to 6896
  151.6782  133.3276  159.3249 H   0  0  0  0  0  0  0  0  0  0  0  0  # atno 6909 bound_to 6896
  144.7465  140.3684  143.6081 H   0  0  0  0  0  0  0  0  0  0  0  0  # atno 7974 bound_to 7965
  154.5543  140.2325  155.8435 H   0  0  0  0  0  0  0  0  0  0  0  0  # atno 8008 bound_to 7997
  156.1974  140.3061  155.9416 H   0  0  0  0  0  0  0  0  0  0  0  0  # atno 8009 bound_to 7997
  155.3010  140.0431  157.3020 H   0  0  0  0  0  0  0  0  0  0  0  0  # atno 8010 bound_to 7997
  140.2060  144.3938  150.6508 H   0  0  0  0  0  0  0  0  0  0  0  0  # atno 10167 bound_to 10162
  156.8894  130.9842  151.3051 H   0  0  0  0  0  0  0  0  0  0  0  0  # atno 10718 bound_to 10713
  154.2162  135.6386  153.5130 H   0  0  0  0  0  0  0  0  0  0  0  0  # atno 10763 bound_to 10752
  152.9979  135.5486  154.6162 H   0  0  0  0  0  0  0  0  0  0  0  0  # atno 10764 bound_to 10752
  154.5611  135.2909  155.0892 H   0  0  0  0  0  0  0  0  0  0  0  0  # atno 10765 bound_to 10752
  141.1182  133.8572  157.1380 H   0  0  0  0  0  0  0  0  0  0  0  0  # atno 11005 bound_to 11000
  145.7103  139.1683  143.2542 LP  0  0  0  0  0  0  0  0  0  0  0  0  # atno 17320 bound_to 7965
  146.1351  140.7133  142.9393 LP  0  0  0  0  0  0  0  0  0  0  0  0  # atno 17321 bound_to 7965
  140.6357  143.2194  151.6400 LP  0  0  0  0  0  0  0  0  0  0  0  0  # atno 17342 bound_to 10162
  139.5198  144.3242  152.0884 LP  0  0  0  0  0  0  0  0  0  0  0  0  # atno 17343 bound_to 10162
  157.6093  130.8570  149.8925 LP  0  0  0  0  0  0  0  0  0  0  0  0  # atno 17370 bound_to 10713
  156.0636  130.3696  150.0926 LP  0  0  0  0  0  0  0  0  0  0  0  0  # atno 17371 bound_to 10713
  140.0119  134.9984  157.0413 LP  0  0  0  0  0  0  0  0  0  0  0  0  # atno 17394 bound_to 11000
  140.4584  134.1509  155.7188 LP  0  0  0  0  0  0  0  0  0  0  0  0  # atno 17395 bound_to 11000

$$$$
