AV-unprocessed.smi:78|AV-procd|sdf|775|dock2
  -GOLD-   2262017123D 1   1.00000     0.00000
 Structure written by MMmdl.
 56 59  0  0  0  0  0  0  0  0  1 V2000
  149.9705  133.9364  154.2613 C   0  0  0  0  0  0  0  0  0  0  0  0
  150.4744  133.5434  155.6581 C   0  0  0  0  0  0  0  0  0  0  0  0
  151.0827  132.1313  155.6267 C   0  0  0  0  0  0  0  0  0  0  0  0
  149.3404  133.6798  156.7012 C   0  0  0  0  0  0  0  0  0  0  0  0
  148.8019  135.1121  156.9780 C   0  0  2  0  0  0  0  0  0  0  0  0
  149.8072  135.8692  157.8722 C   0  0  0  0  0  0  0  0  0  0  0  0
  150.8918  136.2123  157.4058 O   0  0  0  0  0  0  0  0  0  0  0  0
  149.4826  136.1459  159.1473 N   0  0  0  0  0  0  0  0  0  0  0  0
  148.2173  135.8261  159.8050 C   0  0  0  0  0  0  0  0  0  0  0  0
  147.3554  134.8217  159.0233 C   0  0  0  0  0  0  0  0  0  0  0  0
  147.4648  135.0705  157.5902 N   0  0  0  0  0  0  0  0  0  0  0  0
  146.3634  134.9712  156.8031 C   0  0  0  0  0  0  0  0  0  0  0  0
  145.1558  134.8254  157.4062 N   0  0  0  0  0  0  0  0  0  0  0  0
  144.0408  134.7437  156.6758 C   0  0  0  0  0  0  0  0  0  0  0  0
  143.9076  134.7961  155.3497 N   0  0  0  0  0  0  0  0  0  0  0  0
  145.1150  134.9511  154.7352 C   0  0  0  0  0  0  0  0  0  0  0  0
  146.3826  135.0326  155.3789 C   0  0  0  0  0  0  0  0  0  0  0  0
  147.3822  135.1852  154.4259 N   0  0  0  0  0  0  0  0  0  0  0  0
  146.7456  135.1782  153.2875 C   0  0  0  0  0  0  0  0  0  0  0  0
  145.3744  135.0816  153.3810 N   0  0  0  0  0  0  0  0  0  0  0  0
  144.4224  135.0417  152.3029 C   0  0  0  0  0  0  0  0  0  0  0  0
  143.6550  133.7574  151.9537 C   0  0  0  0  0  0  0  0  0  0  0  0
  144.6169  133.5043  150.7714 C   0  0  0  0  0  0  0  0  0  0  0  0
  145.8323  132.6099  151.0855 C   0  0  0  0  0  0  0  0  0  0  0  0
  146.7865  132.6432  150.0435 O   0  0  0  0  0  0  0  0  0  0  0  0
  144.0013  132.9856  149.4573 C   0  0  0  0  0  0  0  0  0  0  0  0
  143.3135  131.7621  149.6247 O   0  0  0  0  0  0  0  0  0  0  0  0
  144.9147  135.0182  150.8486 C   0  0  0  0  0  0  0  0  0  0  0  0
  149.1707  133.2753  153.9264 H   0  0  0  0  0  0  0  0  0  0  0  0
  150.7733  133.8871  153.5253 H   0  0  0  0  0  0  0  0  0  0  0  0
  149.5851  134.9564  154.2548 H   0  0  0  0  0  0  0  0  0  0  0  0
  151.2680  134.2467  155.9003 H   0  0  0  0  0  0  0  0  0  0  0  0
  150.3252  131.3790  155.4045 H   0  0  0  0  0  0  0  0  0  0  0  0
  151.5458  131.8675  156.5764 H   0  0  0  0  0  0  0  0  0  0  0  0
  151.8577  132.0570  154.8634 H   0  0  0  0  0  0  0  0  0  0  0  0
  148.5066  133.0461  156.3959 H   0  0  0  0  0  0  0  0  0  0  0  0
  149.7010  133.2458  157.6354 H   0  0  0  0  0  0  0  0  0  0  0  0
  148.7739  135.6730  156.0443 H   0  0  0  0  0  0  0  0  0  0  0  0
  150.1670  136.6380  159.7032 H   0  0  0  0  0  0  0  0  0  0  0  0
  148.4096  135.4600  160.8137 H   0  0  0  0  0  0  0  0  0  0  0  0
  147.6688  136.7625  159.9122 H   0  0  0  0  0  0  0  0  0  0  0  0
  147.6864  133.8032  159.2277 H   0  0  0  0  0  0  0  0  0  0  0  0
  146.3252  134.8990  159.3729 H   0  0  0  0  0  0  0  0  0  0  0  0
  143.1241  134.6245  157.2343 H   0  0  0  0  0  0  0  0  0  0  0  0
  147.2720  135.2592  152.3485 H   0  0  0  0  0  0  0  0  0  0  0  0
  143.7407  135.8749  152.4783 H   0  0  0  0  0  0  0  0  0  0  0  0
  143.6580  132.9767  152.7131 H   0  0  0  0  0  0  0  0  0  0  0  0
  142.6319  133.9712  151.6407 H   0  0  0  0  0  0  0  0  0  0  0  0
  146.3163  132.9178  152.0129 H   0  0  0  0  0  0  0  0  0  0  0  0
  145.5366  131.5711  151.2312 H   0  0  0  0  0  0  0  0  0  0  0  0
  147.3133  131.8601  150.0935 H   0  0  0  0  0  0  0  0  0  0  0  0
  143.2975  133.7099  149.0460 H   0  0  0  0  0  0  0  0  0  0  0  0
  144.7695  132.8283  148.6998 H   0  0  0  0  0  0  0  0  0  0  0  0
  142.9104  131.7591  150.4794 H   0  0  0  0  0  0  0  0  0  0  0  0
  144.2866  135.6269  150.1965 H   0  0  0  0  0  0  0  0  0  0  0  0
  145.9659  135.2730  150.7114 H   0  0  0  0  0  0  0  0  0  0  0  0
  1  2  1  0  0  0  0
  1 29  1  0  0  0  0
  1 30  1  0  0  0  0
  1 31  1  0  0  0  0
  2  3  1  0  0  0  0
  2  4  1  0  0  0  0
  2 32  1  0  0  0  0
  3 33  1  0  0  0  0
  3 34  1  0  0  0  0
  3 35  1  0  0  0  0
  4  5  1  0  0  0  0
  4 36  1  0  0  0  0
  4 37  1  0  0  0  0
  5 11  1  0  0  0  0
  5  6  1  0  0  0  0
  5 38  1  0  0  0  0
  6  7  2  0  0  0  0
  6  8  1  0  0  0  0
  8  9  1  0  0  0  0
  8 39  1  0  0  0  0
  9 10  1  0  0  0  0
  9 40  1  0  0  0  0
  9 41  1  0  0  0  0
 10 11  1  0  0  0  0
 10 42  1  0  0  0  0
 10 43  1  0  0  0  0
 11 12  1  0  0  0  0
 12 17  1  0  0  0  0
 12 13  2  0  0  0  0
 13 14  1  0  0  0  0
 14 15  2  0  0  0  0
 14 44  1  0  0  0  0
 15 16  1  0  0  0  0
 16 20  1  0  0  0  0
 16 17  2  0  0  0  0
 17 18  1  0  0  0  0
 18 19  2  0  0  0  0
 19 20  1  0  0  0  0
 19 45  1  0  0  0  0
 20 21  1  0  0  0  0
 21 28  1  0  0  0  0
 21 22  1  0  0  0  0
 21 46  1  0  0  0  0
 22 23  1  0  0  0  0
 22 47  1  0  0  0  0
 22 48  1  0  0  0  0
 23 24  1  0  0  0  0
 23 26  1  0  0  0  0
 23 28  1  0  0  0  0
 24 25  1  0  0  0  0
 24 49  1  0  0  0  0
 24 50  1  0  0  0  0
 25 51  1  0  0  0  0
 26 27  1  0  0  0  0
 26 52  1  0  0  0  0
 26 53  1  0  0  0  0
 27 54  1  0  0  0  0
 28 55  1  0  0  0  0
 28 56  1  0  0  0  0
M  END
> <s_m_source_file>
AV-unprocessed.smi

> <i_m_source_file_index>
78

> <i_lp_mmshare_version>
43012

> <i_f3d_flags>
0

> <s_epik_input>
W0NIM11bQ0hdKFtDSDNdKVtDSDJdW0NAQEhdMUMoPU8pW05IXVtDSDJdW0NIMl1OMWMobltjSF1uMiljKGMyMyluW2NIXW4zW0NIXShbQ0gyXTQpW0NIMl1DNChbQ0gyXVtPSF0pW0NIMl1bT0hd

> <s_epik_cmdline>
J2VwaWtfcHl0aG9uJywgJy1waCcsICc3LjAnLCAnLXRuJywgJzgnLCAnLW1hJywgJzIwMCcsICctbWV0YWxfYmluZGluZycsICctaW1hZScsICc8aW5maWxlLm1hZT4nLCAnLW9tYWUnLCAnPG91dGZpbGUubWFlPic=

> <r_lp_tautomer_probability>
1

> <r_epik_Ionization_Penalty>
0.000550083

> <r_epik_Ionization_Penalty_Charging>
0

> <r_epik_Ionization_Penalty_Neutral>
0.000550083

> <r_epik_State_Penalty>
0.000250415

> <r_epik_Charging_Adjusted_Penalty>
0.000250415

> <i_epik_Tot_Q>
0

> <i_epik_Tot_abs_Q>
0

> <r_epik_Metal_State_Penalty>
-0

> <b_epik_Metal_Only>
0

> <s_lp_Force_Field>
OPLS_2005

> <r_lp_Energy>
48.6174

> <b_lp_Chiralities_Consistent>
1

> <s_lp_Variant>
AV-unprocessed.smi:78-1

> <Gold.Version>
5.8.1

> <Gold.Id.Protein>
6NUR|6NUR_protein|mol2

> <Gold.PLP.Fitness>
42.7547

> <Gold.PLP.PLP>
-31.0009

> <Gold.PLP.part.hbond>
-3.3915

> <Gold.PLP.part.metal>
0.0000

> <Gold.PLP.part.buried>
-5.0119

> <Gold.PLP.part.nonpolar>
-22.5224

> <Gold.PLP.part.repulsive>
0.3781

> <Gold.PLP.ligand.clash>
0.0000

> <Gold.PLP.ligand.torsion>
0.5548

> <Gold.PLP.Chemscore.Hbond>
2.0000

> <Gold.PLP.Chemscore.CHOScore>
2.0000

> <Gold.PLP.Chemscore.Metal>
0.0000

> <Gold.Chemscore.Hbonds>
donor molecule, donor type, donor heavy atom, donor atom, acceptor molecule, acceptor atom, score
      L1  H    25    51       P1 10747  1.00
      P1  H 10785 10796       L1    27  1.00
      L1  C    14    44       P1 11000  0.23
      L1  C    19    45       P1  7948  0.86

> <Gold.PLP.Chemscore.Internal.Correction>
0.8634

> <Gold.Rescore>
     Score         DG    S(hbond)    S(metal)    S(lipo)     H(rot)  DE(clash)    DE(int)     intcor
      9.20     -10.94       1.92        0.00      66.10       3.39       0.06       1.68       ----

> <Gold.Chemscore.Fitness>
9.2043

> <Gold.Chemscore.DG>
-10.9443

> <Gold.Chemscore.ZeroCoef>
-5.4800

> <Gold.Chemscore.Hbond>
1.9156

> <Gold.Chemscore.Metal>
0.0000

> <Gold.Chemscore.Lipo>
66.1048

> <Gold.Chemscore.Internal_Hbond>
0.0000

> <Gold.Chemscore.DEClash>
0.0605

> <Gold.Chemscore.DEInternal>
1.6794

> <Gold.Chemscore.Rot>
3.3859

> <Gold.Chemscore.Internal.Correction>
   9.000000E+99

> <Gold.Chemscore.Hbonds>
donor molecule, donor type, donor heavy atom, donor atom, acceptor molecule, acceptor atom, score
      L1  H    25    51       P1 10747  0.97
      P1  H 10785 10796       L1    27  0.87

> <Gold.Chemscore.Hbond.Weighted>
-6.3980

> <Gold.Chemscore.Metal.Weighted>
-0.0000

> <Gold.Chemscore.Lipo.Weighted>
-7.7343

> <Gold.Chemscore.Internal_Hbond.Weighted>
0.0000

> <Gold.Chemscore.DEClash.Weighted>
0.0605

> <Gold.Chemscore.DEInternal.Weighted>
1.6794

> <Gold.Chemscore.Rot.Weighted>
8.6679

> <Gold.Chemscore.Internal.Correction.Weighted>
   9.000000E+99

> <Gold.Protein.RotatedTorsions>
[ 6907 6896 6895 6894 ] final  -14.67 input  -60.11 | X-H torsion
[ 7974 7965 7964 7962 ] final  -40.75 input  175.53 | X-H torsion
[ 8008 7997 7996 7995 ] final   67.37 input   59.86 | X-H torsion
[ 10167 10162 10161 10158 ] final  128.95 input  -65.29 | X-H torsion
[ 10718 10713 10712 10709 ] final  -12.51 input   66.30 | X-H torsion
[ 10763 10752 10751 10750 ] final  -95.74 input  -60.55 | X-H torsion
[ 11005 11000 10999 10996 ] final   79.59 input  -57.11 | X-H torsion

> <Gold.Protein.ActiveResidues>
 VAL166  LYS551  ARG553  GLY616  TRP617  ASP618  TYR619  PRO620  LYS621  CYS622 
 ASP623  PHE694  ASN695  SER759  ASP760  ASP761  ALA762  ILE779  LEU786  VAL792 
 PHE793  MET794  SER795  GLU796  ALA797  LYS798  CYS799  TRP800  GLU811  SER814 

> <Gold.Protein.RotatedAtoms>
  151.3358  135.0852  159.9353 H   0  0  0  0  0  0  0  0  0  0  0  0  # atno 6907 bound_to 6896
  152.5223  133.9497  159.7676 H   0  0  0  0  0  0  0  0  0  0  0  0  # atno 6908 bound_to 6896
  150.9844  133.6159  159.2747 H   0  0  0  0  0  0  0  0  0  0  0  0  # atno 6909 bound_to 6896
  146.0275  140.6773  142.9148 H   0  0  0  0  0  0  0  0  0  0  0  0  # atno 7974 bound_to 7965
  155.6918  140.3496  155.4897 H   0  0  0  0  0  0  0  0  0  0  0  0  # atno 8008 bound_to 7997
  155.9517  140.1120  157.0993 H   0  0  0  0  0  0  0  0  0  0  0  0  # atno 8009 bound_to 7997
  154.4123  140.1193  156.5048 H   0  0  0  0  0  0  0  0  0  0  0  0  # atno 8010 bound_to 7997
  139.5502  144.6807  151.4348 H   0  0  0  0  0  0  0  0  0  0  0  0  # atno 10167 bound_to 10162
  156.6436  130.4935  149.6086 H   0  0  0  0  0  0  0  0  0  0  0  0  # atno 10718 bound_to 10713
  154.7176  135.5109  153.8762 H   0  0  0  0  0  0  0  0  0  0  0  0  # atno 10763 bound_to 10752
  153.0834  135.6638  154.0007 H   0  0  0  0  0  0  0  0  0  0  0  0  # atno 10764 bound_to 10752
  153.9837  135.3026  155.3397 H   0  0  0  0  0  0  0  0  0  0  0  0  # atno 10765 bound_to 10752
  139.9167  134.7854  156.1798 H   0  0  0  0  0  0  0  0  0  0  0  0  # atno 11005 bound_to 11000
  144.7016  140.3677  143.7151 LP  0  0  0  0  0  0  0  0  0  0  0  0  # atno 17320 bound_to 7965
  145.7094  139.1681  143.2547 LP  0  0  0  0  0  0  0  0  0  0  0  0  # atno 17321 bound_to 7965
  140.6762  143.8184  150.7061 LP  0  0  0  0  0  0  0  0  0  0  0  0  # atno 17342 bound_to 10162
  140.1624  143.4264  152.2058 LP  0  0  0  0  0  0  0  0  0  0  0  0  # atno 17343 bound_to 10162
  156.2139  130.6696  151.1298 LP  0  0  0  0  0  0  0  0  0  0  0  0  # atno 17370 bound_to 10713
  157.7163  131.0708  150.6313 LP  0  0  0  0  0  0  0  0  0  0  0  0  # atno 17371 bound_to 10713
  141.0649  133.6824  156.2025 LP  0  0  0  0  0  0  0  0  0  0  0  0  # atno 17394 bound_to 11000
  140.6601  134.4976  157.5583 LP  0  0  0  0  0  0  0  0  0  0  0  0  # atno 17395 bound_to 11000

$$$$
