AV-unprocessed.smi:3027|AV-procd|sdf|11516|dock4
  -GOLD-   2272016453D 1   1.00000     0.00000
 Structure written by MMmdl.
 37 38  0  0  0  0  0  0  0  0  2 V2000
  146.8834  138.0967  153.7389 C   0  0  0  0  0  0  0  0  0  0  0  0
  148.0457  138.9864  154.0733 C   0  0  0  0  0  0  0  0  0  0  0  0
  149.4341  138.7014  153.9358 C   0  0  0  0  0  0  0  0  0  0  0  0
  150.2052  139.7063  154.3182 N   0  0  0  0  0  0  0  0  0  0  0  0
  149.3394  140.6631  154.7148 N   0  0  0  0  0  0  0  0  0  0  0  0
  149.8421  141.9372  155.1944 C   0  0  0  0  0  0  0  0  0  0  0  0
  150.5206  141.8294  156.5759 C   0  0  1  0  0  0  0  0  0  0  0  0
  151.5728  140.7126  156.5796 C   0  0  0  0  0  0  0  0  0  0  0  0
  151.1621  143.1092  156.9583 N   0  3  0  0  0  0  0  0  0  0  0  0
  151.2300  143.3783  158.4116 C   0  0  0  0  0  0  0  0  0  0  0  0
  151.5204  144.8476  158.7125 C   0  0  0  0  0  0  0  0  0  0  0  0
  152.0358  144.8435  160.1547 C   0  0  0  0  0  0  0  0  0  0  0  0
  152.6457  143.4511  160.3855 C   0  0  0  0  0  0  0  0  0  0  0  0
  152.3799  142.6450  159.1076 C   0  0  0  0  0  0  0  0  0  0  0  0
  148.0297  140.2548  154.5801 C   0  0  0  0  0  0  0  0  0  0  0  0
  147.2094  137.1152  153.3943 H   0  0  0  0  0  0  0  0  0  0  0  0
  146.2638  138.5244  152.9506 H   0  0  0  0  0  0  0  0  0  0  0  0
  146.2392  137.9353  154.6036 H   0  0  0  0  0  0  0  0  0  0  0  0
  149.9016  137.7993  153.5692 H   0  0  0  0  0  0  0  0  0  0  0  0
  150.5544  142.3109  154.4574 H   0  0  0  0  0  0  0  0  0  0  0  0
  149.0220  142.6568  155.2223 H   0  0  0  0  0  0  0  0  0  0  0  0
  149.7668  141.5634  157.3186 H   0  0  0  0  0  0  0  0  0  0  0  0
  151.1246  139.7498  156.3322 H   0  0  0  0  0  0  0  0  0  0  0  0
  152.0369  140.6143  157.5616 H   0  0  0  0  0  0  0  0  0  0  0  0
  152.3636  140.9073  155.8543 H   0  0  0  0  0  0  0  0  0  0  0  0
  152.1059  143.1178  156.5991 H   0  0  0  0  0  0  0  0  0  0  0  0
  150.2871  143.1084  158.8884 H   0  0  0  0  0  0  0  0  0  0  0  0
  152.3031  145.2197  158.0494 H   0  0  0  0  0  0  0  0  0  0  0  0
  150.6442  145.4838  158.5832 H   0  0  0  0  0  0  0  0  0  0  0  0
  152.7567  145.6432  160.3274 H   0  0  0  0  0  0  0  0  0  0  0  0
  151.2055  144.9982  160.8451 H   0  0  0  0  0  0  0  0  0  0  0  0
  153.7138  143.5079  160.5978 H   0  0  0  0  0  0  0  0  0  0  0  0
  152.1689  142.9749  161.2432 H   0  0  0  0  0  0  0  0  0  0  0  0
  152.1474  141.6009  159.3186 H   0  0  0  0  0  0  0  0  0  0  0  0
  153.2710  142.6638  158.4780 H   0  0  0  0  0  0  0  0  0  0  0  0
  147.2027  140.8958  154.8488 H   0  0  0  0  0  0  0  0  0  0  0  0
  150.6455  143.8564  156.5161 H   0  0  0  0  0  0  0  0  0  0  0  0
  1  2  1  0  0  0  0
  1 16  1  0  0  0  0
  1 17  1  0  0  0  0
  1 18  1  0  0  0  0
  2 15  2  0  0  0  0
  2  3  1  0  0  0  0
  3  4  2  0  0  0  0
  3 19  1  0  0  0  0
  4  5  1  0  0  0  0
  5  6  1  0  0  0  0
  5 15  1  0  0  0  0
  6  7  1  0  0  0  0
  6 20  1  0  0  0  0
  6 21  1  0  0  0  0
  7  8  1  0  0  0  0
  7  9  1  0  0  0  0
  7 22  1  0  0  0  0
  8 23  1  0  0  0  0
  8 24  1  0  0  0  0
  8 25  1  0  0  0  0
  9 10  1  0  0  0  0
  9 26  1  0  0  0  0
  9 37  1  0  0  0  0
 10 14  1  0  0  0  0
 10 11  1  0  0  0  0
 10 27  1  0  0  0  0
 11 12  1  0  0  0  0
 11 28  1  0  0  0  0
 11 29  1  0  0  0  0
 12 13  1  0  0  0  0
 12 30  1  0  0  0  0
 12 31  1  0  0  0  0
 13 14  1  0  0  0  0
 13 32  1  0  0  0  0
 13 33  1  0  0  0  0
 14 34  1  0  0  0  0
 14 35  1  0  0  0  0
 15 36  1  0  0  0  0
M  CHG  1   9   1
M  END
> <s_m_source_file>
AV-unprocessed.smi

> <i_m_source_file_index>
3027

> <i_lp_mmshare_version>
43012

> <i_f3d_flags>
0

> <s_epik_input>
W0NIM11jMVtjSF1ubihbY0hdMSlbQ0gyXVtDQEhdKFtDSDNdKVtOSF1bQ0hdMltDSDJdW0NIMl1bQ0gyXVtDSDJdMg==

> <s_epik_cmdline>
J2VwaWtfcHl0aG9uJywgJy1waCcsICc3LjAnLCAnLXRuJywgJzgnLCAnLW1hJywgJzIwMCcsICctbWV0YWxfYmluZGluZycsICctaW1hZScsICc8aW5maWxlLm1hZT4nLCAnLW9tYWUnLCAnPG91dGZpbGUubWFlPic=

> <r_lp_tautomer_probability>
1

> <r_epik_Ionization_Penalty>
0.00150056

> <r_epik_Ionization_Penalty_Charging>
0.00149132

> <r_epik_Ionization_Penalty_Neutral>
9.24096e-06

> <r_epik_State_Penalty>
0.00099871

> <r_epik_Charging_Adjusted_Penalty>
0.00249003

> <i_epik_Tot_Q>
1

> <i_epik_Tot_abs_Q>
1

> <r_epik_Metal_State_Penalty>
-0

> <b_epik_Metal_Only>
0

> <s_lp_Force_Field>
OPLS_2005

> <r_lp_Energy>
25.7776

> <b_lp_Chiralities_Consistent>
1

> <s_lp_Variant>
AV-unprocessed.smi:3027-2

> <Gold.Version>
5.8.1

> <Gold.Id.Protein>
6NUR|6NUR_protein|mol2

> <Gold.PLP.Fitness>
43.0331

> <Gold.PLP.PLP>
-32.5937

> <Gold.PLP.part.hbond>
-2.0000

> <Gold.PLP.part.metal>
0.0000

> <Gold.PLP.part.buried>
-2.0611

> <Gold.PLP.part.nonpolar>
-29.6794

> <Gold.PLP.part.repulsive>
0.1511

> <Gold.PLP.ligand.clash>
0.0000

> <Gold.PLP.ligand.torsion>
0.6382

> <Gold.PLP.Chemscore.Hbond>
3.0000

> <Gold.PLP.Chemscore.CHOScore>
0.8965

> <Gold.PLP.Chemscore.Metal>
0.0000

> <Gold.Chemscore.Hbonds>
donor molecule, donor type, donor heavy atom, donor atom, acceptor molecule, acceptor atom, score
      L1  H     9    37       P1  8028  1.56
      P1  H  7989  7998       L1     4  0.95
      L1  C     3    19       P1  7948  0.94

> <Gold.PLP.Chemscore.Internal.Correction>
0.0264

> <Gold.Rescore>
     Score         DG    S(hbond)    S(metal)    S(lipo)     H(rot)  DE(clash)    DE(int)     intcor
     17.74     -19.41       1.84        0.00      97.17       1.40       0.30       1.38       ----

> <Gold.Chemscore.Fitness>
17.7352

> <Gold.Chemscore.DG>
-19.4148

> <Gold.Chemscore.ZeroCoef>
-5.4800

> <Gold.Chemscore.Hbond>
1.8405

> <Gold.Chemscore.Metal>
0.0000

> <Gold.Chemscore.Lipo>
97.1746

> <Gold.Chemscore.Internal_Hbond>
0.0000

> <Gold.Chemscore.DEClash>
0.3015

> <Gold.Chemscore.DEInternal>
1.3781

> <Gold.Chemscore.Rot>
1.3991

> <Gold.Chemscore.Internal.Correction>
   9.000000E+99

> <Gold.Chemscore.Hbonds>
donor molecule, donor type, donor heavy atom, donor atom, acceptor molecule, acceptor atom, score
      L1  H     9    37       P1  8028  0.75
      P1  H  7989  7998       L1     4  0.20

> <Gold.Chemscore.Hbond.Weighted>
-6.1471

> <Gold.Chemscore.Metal.Weighted>
-0.0000

> <Gold.Chemscore.Lipo.Weighted>
-11.3694

> <Gold.Chemscore.Internal_Hbond.Weighted>
0.0000

> <Gold.Chemscore.DEClash.Weighted>
0.3015

> <Gold.Chemscore.DEInternal.Weighted>
1.3781

> <Gold.Chemscore.Rot.Weighted>
3.5818

> <Gold.Chemscore.Internal.Correction.Weighted>
   9.000000E+99

> <Gold.Protein.RotatedTorsions>
[ 6907 6896 6895 6894 ] final  -11.43 input  -60.11 | X-H torsion
[ 7974 7965 7964 7962 ] final  -71.39 input  175.53 | X-H torsion
[ 8008 7997 7996 7995 ] final  -10.57 input   59.86 | X-H torsion
[ 10167 10162 10161 10158 ] final   31.46 input  -65.29 | X-H torsion
[ 10718 10713 10712 10709 ] final -148.53 input   66.30 | X-H torsion
[ 10763 10752 10751 10750 ] final    8.52 input  -60.55 | X-H torsion
[ 11005 11000 10999 10996 ] final  176.40 input  -57.11 | X-H torsion

> <Gold.Protein.ActiveResidues>
 VAL166  LYS551  ARG553  GLY616  TRP617  ASP618  TYR619  PRO620  LYS621  CYS622 
 ASP623  PHE694  ASN695  SER759  ASP760  ASP761  ALA762  ILE779  LEU786  VAL792 
 PHE793  MET794  SER795  GLU796  ALA797  LYS798  CYS799  TRP800  GLU811  SER814 

> <Gold.Protein.RotatedAtoms>
  151.3864  135.0948  159.9512 H   0  0  0  0  0  0  0  0  0  0  0  0  # atno 6907 bound_to 6896
  152.5093  133.9022  159.7457 H   0  0  0  0  0  0  0  0  0  0  0  0  # atno 6908 bound_to 6896
  150.9466  133.6540  159.2809 H   0  0  0  0  0  0  0  0  0  0  0  0  # atno 6909 bound_to 6896
  145.6786  140.9196  143.0844 H   0  0  0  0  0  0  0  0  0  0  0  0  # atno 7974 bound_to 7965
  154.5542  140.2325  155.8436 H   0  0  0  0  0  0  0  0  0  0  0  0  # atno 8008 bound_to 7997
  156.1974  140.3061  155.9415 H   0  0  0  0  0  0  0  0  0  0  0  0  # atno 8009 bound_to 7997
  155.3011  140.0431  157.3020 H   0  0  0  0  0  0  0  0  0  0  0  0  # atno 8010 bound_to 7997
  140.4586  144.0940  150.6207 H   0  0  0  0  0  0  0  0  0  0  0  0  # atno 10167 bound_to 10162
  156.4215  130.8031  151.2254 H   0  0  0  0  0  0  0  0  0  0  0  0  # atno 10718 bound_to 10713
  153.2241  135.6885  153.7965 H   0  0  0  0  0  0  0  0  0  0  0  0  # atno 10763 bound_to 10752
  153.7153  135.3276  155.3256 H   0  0  0  0  0  0  0  0  0  0  0  0  # atno 10764 bound_to 10752
  154.8284  135.4600  154.1101 H   0  0  0  0  0  0  0  0  0  0  0  0  # atno 10765 bound_to 10752
  140.3727  134.7015  157.4402 H   0  0  0  0  0  0  0  0  0  0  0  0  # atno 11005 bound_to 11000
  144.7033  139.8667  143.7437 LP  0  0  0  0  0  0  0  0  0  0  0  0  # atno 17320 bound_to 7965
  146.0983  139.3977  143.0362 LP  0  0  0  0  0  0  0  0  0  0  0  0  # atno 17321 bound_to 7965
  140.4121  143.2652  151.9820 LP  0  0  0  0  0  0  0  0  0  0  0  0  # atno 17342 bound_to 10162
  139.4804  144.5906  151.7778 LP  0  0  0  0  0  0  0  0  0  0  0  0  # atno 17343 bound_to 10162
  157.7508  131.0226  150.3801 LP  0  0  0  0  0  0  0  0  0  0  0  0  # atno 17370 bound_to 10713
  156.4119  130.3936  149.6885 LP  0  0  0  0  0  0  0  0  0  0  0  0  # atno 17371 bound_to 10713
  140.0539  134.6091  155.8829 LP  0  0  0  0  0  0  0  0  0  0  0  0  # atno 17394 bound_to 11000
  141.1949  133.6585  156.5618 LP  0  0  0  0  0  0  0  0  0  0  0  0  # atno 17395 bound_to 11000

$$$$
