#       Name:                AV-unprocessed.smi:59
#       Creating user name   scv26
#       Creation time:       Thu Mar 26 16:48:41 2020


#       File generated by GOLD software.
#

@<TRIPOS>MOLECULE
AV-unprocessed.smi:59
    38    39     1
SMALL
NO_CHARGES


@<TRIPOS>ATOM
      1 ****        -1.4624   1.6257  -1.8595 C.3            1 S1                 0.0000
      2 ****        -1.4715   0.8481  -0.6248 N.am           1 S1                 0.0000
      3 ****        -2.0050   1.2277   0.5450 C.2            1 S1                 0.0000
      4 ****        -2.5553   2.3030   0.7835 O.2            1 S1                 0.0000
      5 ****        -1.8219   0.1332   1.5824 C.3            1 S1                 0.0000
      6 ****        -2.9705  -0.0286   2.3934 O.3            1 S1                 0.0000
      7 ****        -1.5250  -1.0982   0.7039 C.3            1 S1                 0.0000
      8 ****        -0.7131  -2.2056   1.4067 C.2            1 S1                 0.0000
      9 ****        -0.3668  -2.0340   2.5967 O.co2          1 S1                 0.0000
     10 ****        -0.4615  -3.2264   0.7293 O.co2          1 S1                -1.0000
     11 ****        -0.9221  -0.5070  -0.5999 C.3            1 S1                 0.0000
     12 ****         0.5940  -0.5007  -0.6564 C.2            1 S1                 0.0000
     13 ****         1.4408  -1.4522  -1.2950 C.2            1 S1                 0.0000
     14 ****         2.7269  -1.1686  -1.1681 N.2            1 S1                 0.0000
     15 ****         2.7489  -0.0343  -0.4399 N.pl3          1 S1                 0.0000
     16 ****         4.0189   0.5684  -0.0974 C.3            1 S1                 0.0000
     17 ****         1.4793   0.3924  -0.1177 C.2            1 S1                 0.0000
     18 ****        -0.9707   0.4081   2.2069 H              1 S1                 0.0000
     19 ****        -2.4851  -1.5466   0.4392 H              1 S1                 0.0000
     20 ****        -1.3266  -1.0549  -1.4525 H              1 S1                 0.0000
     21 ****        -1.8305   2.6418  -1.7117 H              1 S1                 0.0000
     22 ****        -2.0904   1.1450  -2.6096 H              1 S1                 0.0000
     23 ****        -0.4497   1.6938  -2.2572 H              1 S1                 0.0000
     24 ****        -3.0807   0.7544   2.9105 H              1 S1                 0.0000
     25 ****         1.1568  -2.3376  -1.8443 H              1 S1                 0.0000
     26 ****         3.8565   1.5001   0.4452 H              1 S1                 0.0000
     27 ****         4.5845   0.7806  -1.0051 H              1 S1                 0.0000
     28 ****         4.5922  -0.1132   0.5318 H              1 S1                 0.0000
     29 ****         1.3095   1.2858   0.4650 H              1 S1                 0.0000
     30 ****        -2.6362   2.9935   0.0647 LP             1 S1                 0.0000
     31 ****        -2.9213   2.4858   1.6960 LP             1 S1                 0.0000
     32 ****        -2.8508  -0.8178   2.9958 LP             1 S1                 0.0000
     33 ****        -3.7750  -0.1689   1.8163 LP             1 S1                 0.0000
     34 ****         0.1508  -2.7440   3.0742 LP             1 S1                 0.0000
     35 ****        -0.6076  -1.1868   3.0703 LP             1 S1                 0.0000
     36 ****         0.0525  -3.9819   1.1355 LP             1 S1                 0.0000
     37 ****        -0.7743  -3.2871  -0.2186 LP             1 S1                 0.0000
     38 ****         3.5062  -1.6799  -1.5304 LP             1 S1                 0.0000
@<TRIPOS>BOND
    1    1    2 1     
    2    1   21 1     
    3    1   22 1     
    4    1   23 1     
    5    2   11 1     
    6    2    3 am    
    7    3    4 2     
    8    3    5 1     
    9    5   18 1     
   10    5    6 1     
   11    5    7 1     
   12    6   24 1     
   13    7   19 1     
   14    7    8 1     
   15    7   11 1     
   16    8    9 ar    
   17    8   10 ar    
   18   11   20 1     
   19   11   12 1     
   20   12   17 2     
   21   12   13 1     
   22   13   14 2     
   23   13   25 1     
   24   14   15 1     
   25   15   16 1     
   26   15   17 1     
   27   16   26 1     
   28   16   27 1     
   29   16   28 1     
   30   17   29 1     
   31    4   30 1     
   32    4   31 1     
   33    6   32 1     
   34    6   33 1     
   35    9   34 1     
   36    9   35 1     
   37   10   36 1     
   38   10   37 1     
   39   14   38 1     
@<TRIPOS>SUBSTRUCTURE
      1 S1             1
@<TRIPOS>SET
LONE_PAIRS      STATIC     ATOMS    <user>   **** ""
9 30 31 32 33 34 35 36 37 38
DONOR_HYDROGENS      STATIC     ATOMS    <user>   **** ""
1 24
ATOM$BLUE        STATIC     ATOMS    COLORGROUP SYSTEM
9 30 31 32 33 34 35 36 37 38
ATOM$RED        STATIC     ATOMS    COLORGROUP SYSTEM
1 24
