AV-unprocessed.smi:2555|AV-procd|sdf|10022|dock3
  -GOLD-   2272014 63D 1   1.00000     0.00000
 Structure written by MMmdl.
 40 41  0  0  0  0  0  0  0  0  1 V2000
  145.5593  143.4462  154.5412 C   0  0  0  0  0  0  0  0  0  0  0  0
  145.8492  142.0205  154.9139 C   0  0  0  0  0  0  0  0  0  0  0  0
  144.9484  141.3236  155.5860 N   0  0  0  0  0  0  0  0  0  0  0  0
  145.5082  140.0564  155.7758 O   0  0  0  0  0  0  0  0  0  0  0  0
  146.7395  140.0409  155.2048 C   0  0  0  0  0  0  0  0  0  0  0  0
  147.5082  138.7668  155.3024 C   0  0  0  0  0  0  0  0  0  0  0  0
  147.0183  141.2546  154.6391 C   0  0  0  0  0  0  0  0  0  0  0  0
  148.2604  141.6859  153.9037 C   0  0  0  0  0  0  0  0  0  0  0  0
  149.4976  141.2252  154.6742 C   0  0  0  0  0  0  0  0  0  0  0  0
  150.1026  140.2148  154.3158 O   0  0  0  0  0  0  0  0  0  0  0  0
  149.8597  141.9725  155.7289 N   0  0  0  0  0  0  0  0  0  0  0  0
  150.9840  141.6965  156.6186 C   0  0  0  0  0  0  0  0  0  0  0  0
  151.0174  142.6346  157.8440 C   0  0  0  0  0  0  0  0  0  0  0  0
  151.3871  144.0910  157.4795 C   0  0  0  0  0  0  0  0  0  0  0  0
  151.4524  144.9959  158.7209 C   0  0  0  0  0  0  0  0  0  0  0  0
  152.4224  144.4364  159.7715 C   0  0  0  0  0  0  0  0  0  0  0  0
  152.0493  142.9963  160.1517 C   0  0  0  0  0  0  0  0  0  0  0  0
  151.9921  142.0921  158.9100 C   0  0  0  0  0  0  0  0  0  0  0  0
  146.3077  144.1179  154.9616 H   0  0  0  0  0  0  0  0  0  0  0  0
  144.5836  143.7700  154.9053 H   0  0  0  0  0  0  0  0  0  0  0  0
  145.5683  143.5743  153.4587 H   0  0  0  0  0  0  0  0  0  0  0  0
  148.5701  138.9652  155.4492 H   0  0  0  0  0  0  0  0  0  0  0  0
  147.3969  138.1793  154.3910 H   0  0  0  0  0  0  0  0  0  0  0  0
  147.1609  138.1624  156.1407 H   0  0  0  0  0  0  0  0  0  0  0  0
  148.2958  141.2582  152.9012 H   0  0  0  0  0  0  0  0  0  0  0  0
  148.2897  142.7680  153.7701 H   0  0  0  0  0  0  0  0  0  0  0  0
  149.3026  142.7871  155.9427 H   0  0  0  0  0  0  0  0  0  0  0  0
  150.8814  140.6639  156.9534 H   0  0  0  0  0  0  0  0  0  0  0  0
  151.9312  141.7432  156.0783 H   0  0  0  0  0  0  0  0  0  0  0  0
  150.0186  142.6435  158.2833 H   0  0  0  0  0  0  0  0  0  0  0  0
  152.3492  144.1079  156.9657 H   0  0  0  0  0  0  0  0  0  0  0  0
  150.6593  144.5064  156.7828 H   0  0  0  0  0  0  0  0  0  0  0  0
  151.7592  146.0010  158.4308 H   0  0  0  0  0  0  0  0  0  0  0  0
  150.4568  145.0903  159.1564 H   0  0  0  0  0  0  0  0  0  0  0  0
  153.4401  144.4602  159.3796 H   0  0  0  0  0  0  0  0  0  0  0  0
  152.4169  145.0700  160.6589 H   0  0  0  0  0  0  0  0  0  0  0  0
  152.7734  142.6016  160.8650 H   0  0  0  0  0  0  0  0  0  0  0  0
  151.0821  142.9885  160.6558 H   0  0  0  0  0  0  0  0  0  0  0  0
  151.6950  141.0863  159.2090 H   0  0  0  0  0  0  0  0  0  0  0  0
  152.9916  142.0022  158.4825 H   0  0  0  0  0  0  0  0  0  0  0  0
  1  2  1  0  0  0  0
  1 19  1  0  0  0  0
  1 20  1  0  0  0  0
  1 21  1  0  0  0  0
  2  7  1  0  0  0  0
  2  3  2  0  0  0  0
  3  4  1  0  0  0  0
  4  5  1  0  0  0  0
  5  6  1  0  0  0  0
  5  7  2  0  0  0  0
  6 22  1  0  0  0  0
  6 23  1  0  0  0  0
  6 24  1  0  0  0  0
  7  8  1  0  0  0  0
  8  9  1  0  0  0  0
  8 25  1  0  0  0  0
  8 26  1  0  0  0  0
  9 10  2  0  0  0  0
  9 11  1  0  0  0  0
 11 12  1  0  0  0  0
 11 27  1  0  0  0  0
 12 13  1  0  0  0  0
 12 28  1  0  0  0  0
 12 29  1  0  0  0  0
 13 18  1  0  0  0  0
 13 14  1  0  0  0  0
 13 30  1  0  0  0  0
 14 15  1  0  0  0  0
 14 31  1  0  0  0  0
 14 32  1  0  0  0  0
 15 16  1  0  0  0  0
 15 33  1  0  0  0  0
 15 34  1  0  0  0  0
 16 17  1  0  0  0  0
 16 35  1  0  0  0  0
 16 36  1  0  0  0  0
 17 18  1  0  0  0  0
 17 37  1  0  0  0  0
 17 38  1  0  0  0  0
 18 39  1  0  0  0  0
 18 40  1  0  0  0  0
M  END
> <s_m_source_file>
AV-unprocessed.smi

> <i_m_source_file_index>
2555

> <i_lp_mmshare_version>
43012

> <i_f3d_flags>
0

> <s_epik_input>
W0NIM11jMW5vYyhbQ0gzXSljMVtDSDJdQyg9TylbTkhdW0NIMl1bQ0hdMltDSDJdW0NIMl1bQ0gyXVtDSDJdW0NIMl0y

> <s_epik_cmdline>
J2VwaWtfcHl0aG9uJywgJy1waCcsICc3LjAnLCAnLXRuJywgJzgnLCAnLW1hJywgJzIwMCcsICctbWV0YWxfYmluZGluZycsICctaW1hZScsICc8aW5maWxlLm1hZT4nLCAnLW9tYWUnLCAnPG91dGZpbGUubWFlPic=

> <r_lp_tautomer_probability>
1

> <r_epik_Ionization_Penalty>
1.94914e-08

> <r_epik_Ionization_Penalty_Charging>
0

> <r_epik_Ionization_Penalty_Neutral>
1.94914e-08

> <r_epik_State_Penalty>
-0

> <r_epik_Charging_Adjusted_Penalty>
0

> <i_epik_Tot_Q>
0

> <i_epik_Tot_abs_Q>
0

> <r_epik_Metal_State_Penalty>
-0

> <b_epik_Metal_Only>
0

> <s_lp_Force_Field>
OPLS_2005

> <r_lp_Energy>
4.99285

> <b_lp_Chiralities_Consistent>
1

> <s_lp_Variant>
AV-unprocessed.smi:2555-1

> <Gold.Version>
5.8.1

> <Gold.Id.Protein>
6NUR|6NUR_protein|mol2

> <Gold.PLP.Fitness>
42.5206

> <Gold.PLP.PLP>
-37.6490

> <Gold.PLP.part.hbond>
-2.0000

> <Gold.PLP.part.metal>
0.0000

> <Gold.PLP.part.buried>
-3.2974

> <Gold.PLP.part.nonpolar>
-32.0055

> <Gold.PLP.part.repulsive>
0.4263

> <Gold.PLP.ligand.clash>
0.0000

> <Gold.PLP.ligand.torsion>
0.5657

> <Gold.PLP.Chemscore.Hbond>
1.9920

> <Gold.PLP.Chemscore.CHOScore>
0.0000

> <Gold.PLP.Chemscore.Metal>
0.0000

> <Gold.Chemscore.Hbonds>
donor molecule, donor type, donor heavy atom, donor atom, acceptor molecule, acceptor atom, score
      L1  H    11    27       P1  8028  1.00
      P1  H  7989  7998       L1    10  0.98

> <Gold.PLP.Chemscore.Internal.Correction>
0.0271

> <Gold.Rescore>
     Score         DG    S(hbond)    S(metal)    S(lipo)     H(rot)  DE(clash)    DE(int)     intcor
     18.42     -19.06       1.59        0.00     102.02       1.43       0.15       0.49       ----

> <Gold.Chemscore.Fitness>
18.4231

> <Gold.Chemscore.DG>
-19.0612

> <Gold.Chemscore.ZeroCoef>
-5.4800

> <Gold.Chemscore.Hbond>
1.5909

> <Gold.Chemscore.Metal>
0.0000

> <Gold.Chemscore.Lipo>
102.0161

> <Gold.Chemscore.Internal_Hbond>
0.0000

> <Gold.Chemscore.DEClash>
0.1491

> <Gold.Chemscore.DEInternal>
0.4890

> <Gold.Chemscore.Rot>
1.4329

> <Gold.Chemscore.Internal.Correction>
   9.000000E+99

> <Gold.Chemscore.Hbonds>
donor molecule, donor type, donor heavy atom, donor atom, acceptor molecule, acceptor atom, score
      L1  H    11    27       P1  8028  0.91
      P1  H  7989  7998       L1    10  0.42

> <Gold.Chemscore.Hbond.Weighted>
-5.3137

> <Gold.Chemscore.Metal.Weighted>
-0.0000

> <Gold.Chemscore.Lipo.Weighted>
-11.9359

> <Gold.Chemscore.Internal_Hbond.Weighted>
0.0000

> <Gold.Chemscore.DEClash.Weighted>
0.1491

> <Gold.Chemscore.DEInternal.Weighted>
0.4890

> <Gold.Chemscore.Rot.Weighted>
3.6683

> <Gold.Chemscore.Internal.Correction.Weighted>
   9.000000E+99

> <Gold.Protein.RotatedTorsions>
[ 6907 6896 6895 6894 ] final  128.87 input  -60.11 | X-H torsion
[ 7974 7965 7964 7962 ] final    1.78 input  175.53 | X-H torsion
[ 8008 7997 7996 7995 ] final -153.89 input   59.86 | X-H torsion
[ 10167 10162 10161 10158 ] final -117.73 input  -65.29 | X-H torsion
[ 10718 10713 10712 10709 ] final    8.54 input   66.30 | X-H torsion
[ 10763 10752 10751 10750 ] final  -34.13 input  -60.55 | X-H torsion
[ 11005 11000 10999 10996 ] final  108.35 input  -57.11 | X-H torsion

> <Gold.Protein.ActiveResidues>
 VAL166  LYS551  ARG553  GLY616  TRP617  ASP618  TYR619  PRO620  LYS621  CYS622 
 ASP623  PHE694  ASN695  SER759  ASP760  ASP761  ALA762  ILE779  LEU786  VAL792 
 PHE793  MET794  SER795  GLU796  ALA797  LYS798  CYS799  TRP800  GLU811  SER814 

> <Gold.Protein.RotatedAtoms>
  152.3678  133.6380  159.6063 H   0  0  0  0  0  0  0  0  0  0  0  0  # atno 6907 bound_to 6896
  150.7647  133.9319  159.3438 H   0  0  0  0  0  0  0  0  0  0  0  0  # atno 6908 bound_to 6896
  151.7147  135.0907  160.0325 H   0  0  0  0  0  0  0  0  0  0  0  0  # atno 6909 bound_to 6896
  146.2441  140.0935  142.8351 H   0  0  0  0  0  0  0  0  0  0  0  0  # atno 7974 bound_to 7965
  155.6778  140.0741  157.2496 H   0  0  0  0  0  0  0  0  0  0  0  0  # atno 8008 bound_to 7997
  154.4111  140.1687  156.2001 H   0  0  0  0  0  0  0  0  0  0  0  0  # atno 8009 bound_to 7997
  155.9561  140.3373  155.6452 H   0  0  0  0  0  0  0  0  0  0  0  0  # atno 8010 bound_to 7997
  140.0652  143.4930  152.2010 H   0  0  0  0  0  0  0  0  0  0  0  0  # atno 10167 bound_to 10162
  156.9531  130.5904  149.5658 H   0  0  0  0  0  0  0  0  0  0  0  0  # atno 10718 bound_to 10713
  153.8417  135.6857  153.4802 H   0  0  0  0  0  0  0  0  0  0  0  0  # atno 10763 bound_to 10752
  153.1450  135.4641  154.9550 H   0  0  0  0  0  0  0  0  0  0  0  0  # atno 10764 bound_to 10752
  154.7842  135.3279  154.7870 H   0  0  0  0  0  0  0  0  0  0  0  0  # atno 10765 bound_to 10752
  139.8843  134.9428  156.5959 H   0  0  0  0  0  0  0  0  0  0  0  0  # atno 11005 bound_to 11000
  145.0630  140.9101  143.4927 LP  0  0  0  0  0  0  0  0  0  0  0  0  # atno 17320 bound_to 7965
  145.1054  139.2794  143.5665 LP  0  0  0  0  0  0  0  0  0  0  0  0  # atno 17321 bound_to 7965
  139.5869  144.7535  151.3497 LP  0  0  0  0  0  0  0  0  0  0  0  0  # atno 17342 bound_to 10162
  140.7152  143.7284  150.7642 LP  0  0  0  0  0  0  0  0  0  0  0  0  # atno 17343 bound_to 10162
  156.0354  130.5442  150.8640 LP  0  0  0  0  0  0  0  0  0  0  0  0  # atno 17370 bound_to 10713
  157.5708  131.0946  150.9420 LP  0  0  0  0  0  0  0  0  0  0  0  0  # atno 17371 bound_to 10713
  140.7920  133.8574  155.8654 LP  0  0  0  0  0  0  0  0  0  0  0  0  # atno 17394 bound_to 11000
  140.9669  134.1583  157.4609 LP  0  0  0  0  0  0  0  0  0  0  0  0  # atno 17395 bound_to 11000

$$$$
