AV-unprocessed.smi:1603|AV-procd|sdf|6445|dock4
  -GOLD-   22720 7 93D 1   1.00000     0.00000
 Structure written by MMmdl.
 44 46  0  0  0  0  0  0  0  0  1 V2000
  152.3964  137.0247  159.8115 O   0  0  0  0  0  0  0  0  0  0  0  0
  152.6750  138.2241  159.8278 C   0  0  0  0  0  0  0  0  0  0  0  0
  153.6520  138.8137  160.7561 C   0  0  0  0  0  0  0  0  0  0  0  0
  154.3697  137.8799  161.7271 C   0  0  0  0  0  0  0  0  0  0  0  0
  155.3191  138.5168  162.4144 F   0  0  0  0  0  0  0  0  0  0  0  0
  153.5070  137.3643  162.6034 F   0  0  0  0  0  0  0  0  0  0  0  0
  154.9483  136.8736  161.0700 F   0  0  0  0  0  0  0  0  0  0  0  0
  153.9004  140.1456  160.7262 C   0  0  0  0  0  0  0  0  0  0  0  0
  153.2023  140.9986  159.7863 C   0  0  0  0  0  0  0  0  0  0  0  0
  153.4124  142.4839  159.7114 C   0  0  0  0  0  0  0  0  0  0  0  0
  152.3279  143.4720  160.0760 C   0  0  0  0  0  0  0  0  0  0  0  0
  152.7627  143.3229  158.6360 C   0  0  0  0  0  0  0  0  0  0  0  0
  152.3539  140.4773  158.9657 N   0  0  0  0  0  0  0  0  0  0  0  0
  152.0989  139.1195  158.9715 N   0  0  0  0  0  0  0  0  0  0  0  0
  151.1182  138.7021  157.9590 C   0  0  0  0  0  0  0  0  0  0  0  0
  151.6872  138.7672  156.5240 C   0  0  2  0  0  0  0  0  0  0  0  0
  153.0943  138.6772  156.6289 O   0  0  0  0  0  0  0  0  0  0  0  0
  151.3241  140.0655  155.7675 C   0  0  0  0  0  0  0  0  0  0  0  0
  149.9165  140.1926  155.3917 N   0  0  0  0  0  0  0  0  0  0  0  0
  149.6246  141.5366  154.9047 C   0  0  0  0  0  0  0  0  0  0  0  0
  148.1476  141.6948  154.5045 C   0  0  0  0  0  0  0  0  0  0  0  0
  147.8147  140.7206  153.5211 O   0  0  0  0  0  0  0  0  0  0  0  0
  148.0420  139.3884  153.9697 C   0  0  0  0  0  0  0  0  0  0  0  0
  149.5171  139.2220  154.3753 C   0  0  0  0  0  0  0  0  0  0  0  0
  154.6179  140.5954  161.3961 H   0  0  0  0  0  0  0  0  0  0  0  0
  154.4305  142.7437  159.9959 H   0  0  0  0  0  0  0  0  0  0  0  0
  151.3445  143.0871  160.3398 H   0  0  0  0  0  0  0  0  0  0  0  0
  152.6294  144.3764  160.6006 H   0  0  0  0  0  0  0  0  0  0  0  0
  153.3538  144.1270  158.2024 H   0  0  0  0  0  0  0  0  0  0  0  0
  152.0707  142.8329  157.9534 H   0  0  0  0  0  0  0  0  0  0  0  0
  150.7130  137.7086  158.1576 H   0  0  0  0  0  0  0  0  0  0  0  0
  150.2611  139.3741  158.0370 H   0  0  0  0  0  0  0  0  0  0  0  0
  151.3396  137.8974  155.9645 H   0  0  0  0  0  0  0  0  0  0  0  0
  153.4048  138.0653  155.9793 H   0  0  0  0  0  0  0  0  0  0  0  0
  151.5602  140.9091  156.4138 H   0  0  0  0  0  0  0  0  0  0  0  0
  151.9662  140.1918  154.8941 H   0  0  0  0  0  0  0  0  0  0  0  0
  149.8686  142.2708  155.6733 H   0  0  0  0  0  0  0  0  0  0  0  0
  150.2562  141.7638  154.0445 H   0  0  0  0  0  0  0  0  0  0  0  0
  147.4974  141.5831  155.3736 H   0  0  0  0  0  0  0  0  0  0  0  0
  147.9696  142.6893  154.0957 H   0  0  0  0  0  0  0  0  0  0  0  0
  147.3831  139.1637  154.8100 H   0  0  0  0  0  0  0  0  0  0  0  0
  147.7883  138.6937  153.1689 H   0  0  0  0  0  0  0  0  0  0  0  0
  150.1494  139.3292  153.4927 H   0  0  0  0  0  0  0  0  0  0  0  0
  149.6650  138.2074  154.7444 H   0  0  0  0  0  0  0  0  0  0  0  0
  1  2  2  0  0  0  0
  2 14  1  0  0  0  0
  2  3  1  0  0  0  0
  3  4  1  0  0  0  0
  3  8  2  0  0  0  0
  4  5  1  0  0  0  0
  4  6  1  0  0  0  0
  4  7  1  0  0  0  0
  8  9  1  0  0  0  0
  8 25  1  0  0  0  0
  9 10  1  0  0  0  0
  9 13  2  0  0  0  0
 10 12  1  0  0  0  0
 10 11  1  0  0  0  0
 10 26  1  0  0  0  0
 11 12  1  0  0  0  0
 11 27  1  0  0  0  0
 11 28  1  0  0  0  0
 12 29  1  0  0  0  0
 12 30  1  0  0  0  0
 13 14  1  0  0  0  0
 14 15  1  0  0  0  0
 15 16  1  0  0  0  0
 15 31  1  0  0  0  0
 15 32  1  0  0  0  0
 16 17  1  0  0  0  0
 16 18  1  0  0  0  0
 16 33  1  0  0  0  0
 17 34  1  0  0  0  0
 18 19  1  0  0  0  0
 18 35  1  0  0  0  0
 18 36  1  0  0  0  0
 19 24  1  0  0  0  0
 19 20  1  0  0  0  0
 20 21  1  0  0  0  0
 20 37  1  0  0  0  0
 20 38  1  0  0  0  0
 21 22  1  0  0  0  0
 21 39  1  0  0  0  0
 21 40  1  0  0  0  0
 22 23  1  0  0  0  0
 23 24  1  0  0  0  0
 23 41  1  0  0  0  0
 23 42  1  0  0  0  0
 24 43  1  0  0  0  0
 24 44  1  0  0  0  0
M  END
> <s_m_source_file>
AV-unprocessed.smi

> <i_m_source_file_index>
1603

> <i_lp_mmshare_version>
43012

> <i_f3d_flags>
0

> <s_epik_input>
Tz1jMWMoQyhGKShGKUYpW2NIXWMoW0NIXTJbQ0gyXVtDSDJdMilubjFbQ0gyXVtDQEhdKFtPSF0pW0NIMl1OM1tDSDJdW0NIMl1PW0NIMl1bQ0gyXTM=

> <s_epik_cmdline>
J2VwaWtfcHl0aG9uJywgJy1waCcsICc3LjAnLCAnLXRuJywgJzgnLCAnLW1hJywgJzIwMCcsICctbWV0YWxfYmluZGluZycsICctaW1hZScsICc8aW5maWxlLm1hZT4nLCAnLW9tYWUnLCAnPG91dGZpbGUubWFlPic=

> <r_lp_tautomer_probability>
1

> <r_epik_Ionization_Penalty>
0.450313

> <r_epik_Ionization_Penalty_Charging>
7.22079e-10

> <r_epik_Ionization_Penalty_Neutral>
0.450313

> <r_epik_State_Penalty>
0.45306

> <r_epik_Charging_Adjusted_Penalty>
0.45306

> <i_epik_Tot_Q>
0

> <i_epik_Tot_abs_Q>
0

> <r_epik_Metal_State_Penalty>
0.45306

> <b_epik_Metal_Only>
0

> <s_lp_Force_Field>
OPLS_2005

> <r_lp_Energy>
49.46

> <b_lp_Chiralities_Consistent>
1

> <s_lp_Variant>
AV-unprocessed.smi:1603-3

> <Gold.Version>
5.8.1

> <Gold.Id.Protein>
6NUR|6NUR_protein|mol2

> <Gold.PLP.Fitness>
50.0323

> <Gold.PLP.PLP>
-45.4031

> <Gold.PLP.part.hbond>
-2.0000

> <Gold.PLP.part.metal>
0.0000

> <Gold.PLP.part.buried>
-5.0562

> <Gold.PLP.part.nonpolar>
-39.5609

> <Gold.PLP.part.repulsive>
0.7095

> <Gold.PLP.ligand.clash>
0.3083

> <Gold.PLP.ligand.torsion>
0.8988

> <Gold.PLP.Chemscore.Hbond>
1.9913

> <Gold.PLP.Chemscore.CHOScore>
0.0000

> <Gold.PLP.Chemscore.Metal>
0.0000

> <Gold.Chemscore.Hbonds>
donor molecule, donor type, donor heavy atom, donor atom, acceptor molecule, acceptor atom, score
      P1  H  6896  6909       L1     1  1.00
      P1  H  7997  8008       L1    17  1.00

> <Gold.PLP.Chemscore.Internal.Correction>
0.7613

> <Gold.Rescore>
     Score         DG    S(hbond)    S(metal)    S(lipo)     H(rot)  DE(clash)    DE(int)     intcor
     14.45     -17.81       1.86        0.00     105.51       2.43       0.03       3.33       ----

> <Gold.Chemscore.Fitness>
14.4488

> <Gold.Chemscore.DG>
-17.8146

> <Gold.Chemscore.ZeroCoef>
-5.4800

> <Gold.Chemscore.Hbond>
1.8572

> <Gold.Chemscore.Metal>
0.0000

> <Gold.Chemscore.Lipo>
105.5141

> <Gold.Chemscore.Internal_Hbond>
0.0000

> <Gold.Chemscore.DEClash>
0.0310

> <Gold.Chemscore.DEInternal>
3.3349

> <Gold.Chemscore.Rot>
2.4272

> <Gold.Chemscore.Internal.Correction>
   9.000000E+99

> <Gold.Chemscore.Hbonds>
donor molecule, donor type, donor heavy atom, donor atom, acceptor molecule, acceptor atom, score
      P1  H  6896  6909       L1     1  0.96
      P1  H  7997  8008       L1    17  0.44

> <Gold.Chemscore.Hbond.Weighted>
-6.2030

> <Gold.Chemscore.Metal.Weighted>
-0.0000

> <Gold.Chemscore.Lipo.Weighted>
-12.3451

> <Gold.Chemscore.Internal_Hbond.Weighted>
0.0000

> <Gold.Chemscore.DEClash.Weighted>
0.0310

> <Gold.Chemscore.DEInternal.Weighted>
3.3349

> <Gold.Chemscore.Rot.Weighted>
6.2135

> <Gold.Chemscore.Internal.Correction.Weighted>
   9.000000E+99

> <Gold.Protein.RotatedTorsions>
[ 6907 6896 6895 6894 ] final  144.28 input  -60.11 | X-H torsion
[ 7974 7965 7964 7962 ] final  163.81 input  175.53 | X-H torsion
[ 8008 7997 7996 7995 ] final  -61.22 input   59.86 | X-H torsion
[ 10167 10162 10161 10158 ] final  168.21 input  -65.29 | X-H torsion
[ 10718 10713 10712 10709 ] final   45.95 input   66.30 | X-H torsion
[ 10763 10752 10751 10750 ] final -146.15 input  -60.55 | X-H torsion
[ 11005 11000 10999 10996 ] final -118.47 input  -57.11 | X-H torsion

> <Gold.Protein.ActiveResidues>
 VAL166  LYS551  ARG553  GLY616  TRP617  ASP618  TYR619  PRO620  LYS621  CYS622 
 ASP623  PHE694  ASN695  SER759  ASP760  ASP761  ALA762  ILE779  LEU786  VAL792 
 PHE793  MET794  SER795  GLU796  ALA797  LYS798  CYS799  TRP800  GLU811  SER814 

> <Gold.Protein.RotatedAtoms>
  152.1957  133.4804  159.5031 H   0  0  0  0  0  0  0  0  0  0  0  0  # atno 6907 bound_to 6896
  150.6959  134.1655  159.4201 H   0  0  0  0  0  0  0  0  0  0  0  0  # atno 6908 bound_to 6896
  151.9571  135.0141  160.0596 H   0  0  0  0  0  0  0  0  0  0  0  0  # atno 6909 bound_to 6896
  144.7573  139.8236  143.6345 H   0  0  0  0  0  0  0  0  0  0  0  0  # atno 7974 bound_to 7965
  154.4437  140.1022  156.6397 H   0  0  0  0  0  0  0  0  0  0  0  0  # atno 8008 bound_to 7997
  155.5515  140.3485  155.4451 H   0  0  0  0  0  0  0  0  0  0  0  0  # atno 8009 bound_to 7997
  156.0526  140.1307  157.0022 H   0  0  0  0  0  0  0  0  0  0  0  0  # atno 8010 bound_to 7997
  139.4963  144.3839  151.9592 H   0  0  0  0  0  0  0  0  0  0  0  0  # atno 10167 bound_to 10162
  157.4429  130.8092  149.7712 H   0  0  0  0  0  0  0  0  0  0  0  0  # atno 10718 bound_to 10713
  154.8350  135.3394  154.6616 H   0  0  0  0  0  0  0  0  0  0  0  0  # atno 10763 bound_to 10752
  153.7232  135.6957  153.5012 H   0  0  0  0  0  0  0  0  0  0  0  0  # atno 10764 bound_to 10752
  153.2366  135.4398  155.0605 H   0  0  0  0  0  0  0  0  0  0  0  0  # atno 10765 bound_to 10752
  141.0284  134.0019  157.3180 H   0  0  0  0  0  0  0  0  0  0  0  0  # atno 11005 bound_to 11000
  146.1597  139.4707  142.9996 LP  0  0  0  0  0  0  0  0  0  0  0  0  # atno 17320 bound_to 7965
  145.6737  141.0210  143.1644 LP  0  0  0  0  0  0  0  0  0  0  0  0  # atno 17321 bound_to 7965
  140.3275  144.3355  150.5995 LP  0  0  0  0  0  0  0  0  0  0  0  0  # atno 17342 bound_to 10162
  140.5672  143.2185  151.7663 LP  0  0  0  0  0  0  0  0  0  0  0  0  # atno 17343 bound_to 10162
  155.9956  130.3911  150.2813 LP  0  0  0  0  0  0  0  0  0  0  0  0  # atno 17370 bound_to 10713
  157.0979  131.0187  151.3097 LP  0  0  0  0  0  0  0  0  0  0  0  0  # atno 17371 bound_to 10713
  139.9191  135.0199  156.7996 LP  0  0  0  0  0  0  0  0  0  0  0  0  # atno 17394 bound_to 11000
  140.6451  133.9783  155.7727 LP  0  0  0  0  0  0  0  0  0  0  0  0  # atno 17395 bound_to 11000

$$$$
