AV-unprocessed.smi:2608|AV-procd|sdf|10204|dock6
  -GOLD-   2272014213D 1   1.00000     0.00000
 Structure written by MMmdl.
 40 41  0  0  0  0  0  0  0  0  1 V2000
  152.9509  143.4380  159.7094 C   0  0  0  0  0  0  0  0  0  0  0  0
  152.1019  144.3713  158.8330 C   0  0  0  0  0  0  0  0  0  0  0  0
  151.9189  145.7345  159.5247 C   0  0  0  0  0  0  0  0  0  0  0  0
  150.7645  143.6927  158.4564 C   0  0  0  0  0  0  0  0  0  0  0  0
  150.9319  142.3044  157.8304 C   0  0  0  0  0  0  0  0  0  0  0  0
  151.5662  141.4371  158.4302 O   0  0  0  0  0  0  0  0  0  0  0  0
  150.3549  142.1370  156.6270 N   0  0  0  0  0  0  0  0  0  0  0  0
  150.3201  140.9702  155.8120 C   0  0  0  0  0  0  0  0  0  0  0  0
  151.3969  140.0543  155.7305 C   0  0  0  0  0  0  0  0  0  0  0  0
  151.2849  138.9390  154.8801 C   0  0  0  0  0  0  0  0  0  0  0  0
  150.1039  138.7831  154.1324 C   0  0  0  0  0  0  0  0  0  0  0  0
  149.0757  139.6542  154.1861 N   0  0  0  0  0  0  0  0  0  0  0  0
  149.1794  140.7292  155.0043 C   0  0  0  0  0  0  0  0  0  0  0  0
  148.0929  141.6195  155.0398 N   0  0  0  0  0  0  0  0  0  0  0  0
  147.2404  141.5595  153.8597 C   0  0  0  0  0  0  0  0  0  0  0  0
  146.1773  142.6692  153.9266 C   0  0  0  0  0  0  0  0  0  0  0  0
  145.4369  142.5484  155.1381 O   0  0  0  0  0  0  0  0  0  0  0  0
  146.2671  142.6786  156.2893 C   0  0  0  0  0  0  0  0  0  0  0  0
  147.3353  141.5716  156.2839 C   0  0  0  0  0  0  0  0  0  0  0  0
  152.4527  143.2207  160.6547 H   0  0  0  0  0  0  0  0  0  0  0  0
  153.9191  143.8846  159.9378 H   0  0  0  0  0  0  0  0  0  0  0  0
  153.1399  142.4889  159.2070 H   0  0  0  0  0  0  0  0  0  0  0  0
  152.6637  144.5424  157.9134 H   0  0  0  0  0  0  0  0  0  0  0  0
  151.3121  145.6426  160.4259 H   0  0  0  0  0  0  0  0  0  0  0  0
  151.4373  146.4601  158.8699 H   0  0  0  0  0  0  0  0  0  0  0  0
  152.8806  146.1584  159.8150 H   0  0  0  0  0  0  0  0  0  0  0  0
  150.1367  143.5997  159.3442 H   0  0  0  0  0  0  0  0  0  0  0  0
  150.2075  144.3243  157.7630 H   0  0  0  0  0  0  0  0  0  0  0  0
  149.7954  142.9096  156.2955 H   0  0  0  0  0  0  0  0  0  0  0  0
  152.3090  140.1941  156.2897 H   0  0  0  0  0  0  0  0  0  0  0  0
  152.0887  138.2227  154.7992 H   0  0  0  0  0  0  0  0  0  0  0  0
  149.9838  137.9404  153.4679 H   0  0  0  0  0  0  0  0  0  0  0  0
  147.8456  141.6725  152.9595 H   0  0  0  0  0  0  0  0  0  0  0  0
  146.7544  140.5844  153.8037 H   0  0  0  0  0  0  0  0  0  0  0  0
  146.6404  143.6558  153.8682 H   0  0  0  0  0  0  0  0  0  0  0  0
  145.4934  142.5874  153.0816 H   0  0  0  0  0  0  0  0  0  0  0  0
  146.7305  143.6663  156.3061 H   0  0  0  0  0  0  0  0  0  0  0  0
  145.6493  142.6012  157.1841 H   0  0  0  0  0  0  0  0  0  0  0  0
  146.8575  140.5964  156.3879 H   0  0  0  0  0  0  0  0  0  0  0  0
  148.0089  141.6949  157.1330 H   0  0  0  0  0  0  0  0  0  0  0  0
  1  2  1  0  0  0  0
  1 20  1  0  0  0  0
  1 21  1  0  0  0  0
  1 22  1  0  0  0  0
  2  3  1  0  0  0  0
  2  4  1  0  0  0  0
  2 23  1  0  0  0  0
  3 24  1  0  0  0  0
  3 25  1  0  0  0  0
  3 26  1  0  0  0  0
  4  5  1  0  0  0  0
  4 27  1  0  0  0  0
  4 28  1  0  0  0  0
  5  6  2  0  0  0  0
  5  7  1  0  0  0  0
  7  8  1  0  0  0  0
  7 29  1  0  0  0  0
  8 13  1  0  0  0  0
  8  9  2  0  0  0  0
  9 10  1  0  0  0  0
  9 30  1  0  0  0  0
 10 11  2  0  0  0  0
 10 31  1  0  0  0  0
 11 12  1  0  0  0  0
 11 32  1  0  0  0  0
 12 13  2  0  0  0  0
 13 14  1  0  0  0  0
 14 19  1  0  0  0  0
 14 15  1  0  0  0  0
 15 16  1  0  0  0  0
 15 33  1  0  0  0  0
 15 34  1  0  0  0  0
 16 17  1  0  0  0  0
 16 35  1  0  0  0  0
 16 36  1  0  0  0  0
 17 18  1  0  0  0  0
 18 19  1  0  0  0  0
 18 37  1  0  0  0  0
 18 38  1  0  0  0  0
 19 39  1  0  0  0  0
 19 40  1  0  0  0  0
M  END
> <s_m_source_file>
AV-unprocessed.smi

> <i_m_source_file_index>
2608

> <i_lp_mmshare_version>
43012

> <i_f3d_flags>
0

> <s_epik_input>
W0NIM11bQ0hdKFtDSDNdKVtDSDJdQyg9TylbTkhdYzFbY0hdW2NIXVtjSF1uYzFOMltDSDJdW0NIMl1PW0NIMl1bQ0gyXTI=

> <s_epik_cmdline>
J2VwaWtfcHl0aG9uJywgJy1waCcsICc3LjAnLCAnLXRuJywgJzgnLCAnLW1hJywgJzIwMCcsICctbWV0YWxfYmluZGluZycsICctaW1hZScsICc8aW5maWxlLm1hZT4nLCAnLW9tYWUnLCAnPG91dGZpbGUubWFlPic=

> <r_lp_tautomer_probability>
1

> <r_epik_Ionization_Penalty>
0.0006373

> <r_epik_Ionization_Penalty_Charging>
0

> <r_epik_Ionization_Penalty_Neutral>
0.0006373

> <r_epik_State_Penalty>
0.000394234

> <r_epik_Charging_Adjusted_Penalty>
0.000394234

> <i_epik_Tot_Q>
0

> <i_epik_Tot_abs_Q>
0

> <r_epik_Metal_State_Penalty>
-0

> <b_epik_Metal_Only>
0

> <s_lp_Force_Field>
OPLS_2005

> <r_lp_Energy>
24.3939

> <b_lp_Chiralities_Consistent>
1

> <s_lp_Variant>
AV-unprocessed.smi:2608-1

> <Gold.Version>
5.8.1

> <Gold.Id.Protein>
6NUR|6NUR_protein|mol2

> <Gold.PLP.Fitness>
46.1629

> <Gold.PLP.PLP>
-42.0617

> <Gold.PLP.part.hbond>
-0.7106

> <Gold.PLP.part.metal>
0.0000

> <Gold.PLP.part.buried>
-4.9882

> <Gold.PLP.part.nonpolar>
-37.1134

> <Gold.PLP.part.repulsive>
1.3481

> <Gold.PLP.ligand.clash>
0.0344

> <Gold.PLP.ligand.torsion>
0.6938

> <Gold.PLP.Chemscore.Hbond>
0.7963

> <Gold.PLP.Chemscore.CHOScore>
0.9994

> <Gold.PLP.Chemscore.Metal>
0.0000

> <Gold.Chemscore.Hbonds>
donor molecule, donor type, donor heavy atom, donor atom, acceptor molecule, acceptor atom, score
      L1  H     7    29       P1  8028  0.76
      L1  C    11    32       P1  7948  1.00

> <Gold.PLP.Chemscore.Internal.Correction>
0.1363

> <Gold.Rescore>
     Score         DG    S(hbond)    S(metal)    S(lipo)     H(rot)  DE(clash)    DE(int)     intcor
     13.12     -16.31       0.84        0.00      97.34       1.31       0.21       2.98       ----

> <Gold.Chemscore.Fitness>
13.1181

> <Gold.Chemscore.DG>
-16.3126

> <Gold.Chemscore.ZeroCoef>
-5.4800

> <Gold.Chemscore.Hbond>
0.8393

> <Gold.Chemscore.Metal>
0.0000

> <Gold.Chemscore.Lipo>
97.3388

> <Gold.Chemscore.Internal_Hbond>
0.0000

> <Gold.Chemscore.DEClash>
0.2130

> <Gold.Chemscore.DEInternal>
2.9814

> <Gold.Chemscore.Rot>
1.3122

> <Gold.Chemscore.Internal.Correction>
   9.000000E+99

> <Gold.Chemscore.Hbonds>
donor molecule, donor type, donor heavy atom, donor atom, acceptor molecule, acceptor atom, score
      L1  H     7    29       P1  8028  0.77

> <Gold.Chemscore.Hbond.Weighted>
-2.8031

> <Gold.Chemscore.Metal.Weighted>
-0.0000

> <Gold.Chemscore.Lipo.Weighted>
-11.3886

> <Gold.Chemscore.Internal_Hbond.Weighted>
0.0000

> <Gold.Chemscore.DEClash.Weighted>
0.2130

> <Gold.Chemscore.DEInternal.Weighted>
2.9814

> <Gold.Chemscore.Rot.Weighted>
3.3592

> <Gold.Chemscore.Internal.Correction.Weighted>
   9.000000E+99

> <Gold.Protein.RotatedTorsions>
[ 6907 6896 6895 6894 ] final   47.22 input  -60.11 | X-H torsion
[ 7974 7965 7964 7962 ] final  -40.02 input  175.53 | X-H torsion
[ 8008 7997 7996 7995 ] final  -85.45 input   59.86 | X-H torsion
[ 10167 10162 10161 10158 ] final  -29.94 input  -65.29 | X-H torsion
[ 10718 10713 10712 10709 ] final  -33.12 input   66.30 | X-H torsion
[ 10763 10752 10751 10750 ] final    7.29 input  -60.55 | X-H torsion
[ 11005 11000 10999 10996 ] final  -96.77 input  -57.11 | X-H torsion

> <Gold.Protein.ActiveResidues>
 VAL166  LYS551  ARG553  GLY616  TRP617  ASP618  TYR619  PRO620  LYS621  CYS622 
 ASP623  PHE694  ASN695  SER759  ASP760  ASP761  ALA762  ILE779  LEU786  VAL792 
 PHE793  MET794  SER795  GLU796  ALA797  LYS798  CYS799  TRP800  GLU811  SER814 

> <Gold.Protein.RotatedAtoms>
  152.2655  134.7989  160.0423 H   0  0  0  0  0  0  0  0  0  0  0  0  # atno 6907 bound_to 6896
  151.8620  133.3454  159.3715 H   0  0  0  0  0  0  0  0  0  0  0  0  # atno 6908 bound_to 6896
  150.7132  134.5125  159.5658 H   0  0  0  0  0  0  0  0  0  0  0  0  # atno 6909 bound_to 6896
  146.0343  140.6692  142.9118 H   0  0  0  0  0  0  0  0  0  0  0  0  # atno 7974 bound_to 7965
  154.6409  140.0591  156.9844 H   0  0  0  0  0  0  0  0  0  0  0  0  # atno 8008 bound_to 7997
  155.1518  140.3275  155.4411 H   0  0  0  0  0  0  0  0  0  0  0  0  # atno 8009 bound_to 7997
  156.2530  140.1946  156.6629 H   0  0  0  0  0  0  0  0  0  0  0  0  # atno 8010 bound_to 7997
  140.7255  143.3888  151.1466 H   0  0  0  0  0  0  0  0  0  0  0  0  # atno 10167 bound_to 10162
  156.3666  130.4332  149.7580 H   0  0  0  0  0  0  0  0  0  0  0  0  # atno 10718 bound_to 10713
  153.2380  135.6900  153.7815 H   0  0  0  0  0  0  0  0  0  0  0  0  # atno 10763 bound_to 10752
  153.6955  135.3306  155.3213 H   0  0  0  0  0  0  0  0  0  0  0  0  # atno 10764 bound_to 10752
  154.8343  135.4555  154.1291 H   0  0  0  0  0  0  0  0  0  0  0  0  # atno 10765 bound_to 10752
  141.1401  133.8121  157.0615 H   0  0  0  0  0  0  0  0  0  0  0  0  # atno 11005 bound_to 11000
  144.7044  140.3792  143.7130 LP  0  0  0  0  0  0  0  0  0  0  0  0  # atno 17320 bound_to 7965
  145.6990  139.1656  143.2603 LP  0  0  0  0  0  0  0  0  0  0  0  0  # atno 17321 bound_to 7965
  139.7490  143.8808  152.3071 LP  0  0  0  0  0  0  0  0  0  0  0  0  # atno 17342 bound_to 10162
  139.8655  144.7095  150.9049 LP  0  0  0  0  0  0  0  0  0  0  0  0  # atno 17343 bound_to 10162
  156.4723  130.8002  151.3020 LP  0  0  0  0  0  0  0  0  0  0  0  0  # atno 17370 bound_to 10713
  157.7479  131.0032  150.3028 LP  0  0  0  0  0  0  0  0  0  0  0  0  # atno 17371 bound_to 10713
  140.0568  134.9776  157.1234 LP  0  0  0  0  0  0  0  0  0  0  0  0  # atno 17394 bound_to 11000
  140.3907  134.2187  155.7166 LP  0  0  0  0  0  0  0  0  0  0  0  0  # atno 17395 bound_to 11000

$$$$
