AV-unprocessed.smi:2304|AV-procd|sdf|9244|dock9
  -GOLD-   2272012463D 1   1.00000     0.00000
 Structure written by MMmdl.
 37 38  0  0  0  0  0  0  0  0  1 V2000
  143.7169  146.1343  157.2846 C   0  0  0  0  0  0  0  0  0  0  0  0
  144.6183  145.4702  158.1523 O   0  0  0  0  0  0  0  0  0  0  0  0
  144.7408  146.1148  159.4100 C   0  0  0  0  0  0  0  0  0  0  0  0
  145.7064  145.3382  160.3223 C   0  0  2  0  0  0  0  0  0  0  0  0
  146.9864  145.2045  159.6325 N   0  0  0  0  0  0  0  0  0  0  0  0
  148.1156  144.7213  160.1706 C   0  0  0  0  0  0  0  0  0  0  0  0
  148.2036  144.3369  161.3372 O   0  0  0  0  0  0  0  0  0  0  0  0
  149.1164  144.7157  159.2725 N   0  0  0  0  0  0  0  0  0  0  0  0
  150.4559  144.2791  159.4531 C   0  0  0  0  0  0  0  0  0  0  0  0
  151.3131  144.5039  158.3523 C   0  0  0  0  0  0  0  0  0  0  0  0
  152.6621  144.1073  158.4324 C   0  0  0  0  0  0  0  0  0  0  0  0
  153.1210  143.4956  159.6126 C   0  0  0  0  0  0  0  0  0  0  0  0
  152.2021  143.3080  160.6635 C   0  0  0  0  0  0  0  0  0  0  0  0
  152.6260  142.6546  161.9621 C   0  0  0  0  0  0  0  0  0  0  0  0
  150.9084  143.6875  160.5868 N   0  0  0  0  0  0  0  0  0  0  0  0
  145.1203  144.0055  160.7654 C   0  0  0  0  0  0  0  0  0  0  0  0
  144.4024  143.8570  162.0869 C   0  0  0  0  0  0  0  0  0  0  0  0
  145.7488  143.2029  161.8807 C   0  0  0  0  0  0  0  0  0  0  0  0
  143.6619  145.5992  156.3366 H   0  0  0  0  0  0  0  0  0  0  0  0
  144.0466  147.1534  157.0774 H   0  0  0  0  0  0  0  0  0  0  0  0
  142.7132  146.1698  157.7102 H   0  0  0  0  0  0  0  0  0  0  0  0
  145.1093  147.1312  159.2597 H   0  0  0  0  0  0  0  0  0  0  0  0
  143.7607  146.1912  159.8841 H   0  0  0  0  0  0  0  0  0  0  0  0
  145.8551  145.9460  161.2172 H   0  0  0  0  0  0  0  0  0  0  0  0
  147.0099  145.4973  158.6668 H   0  0  0  0  0  0  0  0  0  0  0  0
  148.8938  145.0624  158.3513 H   0  0  0  0  0  0  0  0  0  0  0  0
  150.9448  144.9757  157.4527 H   0  0  0  0  0  0  0  0  0  0  0  0
  153.3326  144.2702  157.6016 H   0  0  0  0  0  0  0  0  0  0  0  0
  154.1498  143.1800  159.7054 H   0  0  0  0  0  0  0  0  0  0  0  0
  153.7031  142.4863  161.9875 H   0  0  0  0  0  0  0  0  0  0  0  0
  152.1273  141.6924  162.0814 H   0  0  0  0  0  0  0  0  0  0  0  0
  152.3616  143.2868  162.8103 H   0  0  0  0  0  0  0  0  0  0  0  0
  144.7073  143.4238  159.9434 H   0  0  0  0  0  0  0  0  0  0  0  0
  144.3625  144.7232  162.7445 H   0  0  0  0  0  0  0  0  0  0  0  0
  143.5267  143.2117  162.1118 H   0  0  0  0  0  0  0  0  0  0  0  0
  145.7725  142.1210  161.7675 H   0  0  0  0  0  0  0  0  0  0  0  0
  146.5978  143.6354  162.4063 H   0  0  0  0  0  0  0  0  0  0  0  0
  1  2  1  0  0  0  0
  1 19  1  0  0  0  0
  1 20  1  0  0  0  0
  1 21  1  0  0  0  0
  2  3  1  0  0  0  0
  3  4  1  0  0  0  0
  3 22  1  0  0  0  0
  3 23  1  0  0  0  0
  4  5  1  0  0  0  0
  4 16  1  0  0  0  0
  4 24  1  0  0  0  0
  5  6  1  0  0  0  0
  5 25  1  0  0  0  0
  6  7  2  0  0  0  0
  6  8  1  0  0  0  0
  8  9  1  0  0  0  0
  8 26  1  0  0  0  0
  9 15  1  0  0  0  0
  9 10  2  0  0  0  0
 10 11  1  0  0  0  0
 10 27  1  0  0  0  0
 11 12  2  0  0  0  0
 11 28  1  0  0  0  0
 12 13  1  0  0  0  0
 12 29  1  0  0  0  0
 13 14  1  0  0  0  0
 13 15  2  0  0  0  0
 14 30  1  0  0  0  0
 14 31  1  0  0  0  0
 14 32  1  0  0  0  0
 16 18  1  0  0  0  0
 16 17  1  0  0  0  0
 16 33  1  0  0  0  0
 17 18  1  0  0  0  0
 17 34  1  0  0  0  0
 17 35  1  0  0  0  0
 18 36  1  0  0  0  0
 18 37  1  0  0  0  0
M  END
> <s_m_source_file>
AV-unprocessed.smi

> <i_m_source_file_index>
2304

> <i_lp_mmshare_version>
43012

> <i_f3d_flags>
0

> <s_epik_input>
W0NIM11PW0NIMl1bQ0BASF0oW0NIXTFbQ0gyXVtDSDJdMSlbTkhdQyg9TylbTkhdYzJbY0hdW2NIXVtjSF1jKG4yKVtDSDNd

> <s_epik_cmdline>
J2VwaWtfcHl0aG9uJywgJy1waCcsICc3LjAnLCAnLXRuJywgJzgnLCAnLW1hJywgJzIwMCcsICctbWV0YWxfYmluZGluZycsICctaW1hZScsICc8aW5maWxlLm1hZT4nLCAnLW9tYWUnLCAnPG91dGZpbGUubWFlPic=

> <r_lp_tautomer_probability>
1

> <r_epik_Ionization_Penalty>
8.58396e-05

> <r_epik_Ionization_Penalty_Charging>
0

> <r_epik_Ionization_Penalty_Neutral>
8.58396e-05

> <r_epik_State_Penalty>
-0

> <r_epik_Charging_Adjusted_Penalty>
0

> <i_epik_Tot_Q>
0

> <i_epik_Tot_abs_Q>
0

> <r_epik_Metal_State_Penalty>
-0

> <b_epik_Metal_Only>
0

> <s_lp_Force_Field>
OPLS_2005

> <r_lp_Energy>
16.2574

> <b_lp_Chiralities_Consistent>
1

> <s_lp_Variant>
AV-unprocessed.smi:2304-1

> <Gold.Version>
5.8.1

> <Gold.Id.Protein>
6NUR|6NUR_protein|mol2

> <Gold.PLP.Fitness>
52.4404

> <Gold.PLP.PLP>
-43.7220

> <Gold.PLP.part.hbond>
-4.0000

> <Gold.PLP.part.metal>
0.0000

> <Gold.PLP.part.buried>
-7.4422

> <Gold.PLP.part.nonpolar>
-33.8657

> <Gold.PLP.part.repulsive>
0.6632

> <Gold.PLP.ligand.clash>
0.0000

> <Gold.PLP.ligand.torsion>
0.6401

> <Gold.PLP.Chemscore.Hbond>
2.9760

> <Gold.PLP.Chemscore.CHOScore>
0.0000

> <Gold.PLP.Chemscore.Metal>
0.0000

> <Gold.Chemscore.Hbonds>
donor molecule, donor type, donor heavy atom, donor atom, acceptor molecule, acceptor atom, score
      L1  H     5    25       P1  8029  1.00
      L1  H     8    26       P1  8029  1.00
      P1  H  6933  6944       L1     7  0.99

> <Gold.PLP.Chemscore.Internal.Correction>
1.0706

> <Gold.Rescore>
     Score         DG    S(hbond)    S(metal)    S(lipo)     H(rot)  DE(clash)    DE(int)     intcor
     20.32     -22.24       2.87        0.00      96.61       1.61       0.00       1.91       ----

> <Gold.Chemscore.Fitness>
20.3239

> <Gold.Chemscore.DG>
-22.2389

> <Gold.Chemscore.ZeroCoef>
-5.4800

> <Gold.Chemscore.Hbond>
2.8706

> <Gold.Chemscore.Metal>
0.0000

> <Gold.Chemscore.Lipo>
96.6097

> <Gold.Chemscore.Internal_Hbond>
0.0000

> <Gold.Chemscore.DEClash>
0.0029

> <Gold.Chemscore.DEInternal>
1.9120

> <Gold.Chemscore.Rot>
1.6142

> <Gold.Chemscore.Internal.Correction>
   9.000000E+99

> <Gold.Chemscore.Hbonds>
donor molecule, donor type, donor heavy atom, donor atom, acceptor molecule, acceptor atom, score
      L1  H     5    25       P1  8029  0.96
      L1  H     8    26       P1  8029  0.82
      P1  H  6933  6944       L1     7  0.75

> <Gold.Chemscore.Hbond.Weighted>
-9.5879

> <Gold.Chemscore.Metal.Weighted>
-0.0000

> <Gold.Chemscore.Lipo.Weighted>
-11.3033

> <Gold.Chemscore.Internal_Hbond.Weighted>
0.0000

> <Gold.Chemscore.DEClash.Weighted>
0.0029

> <Gold.Chemscore.DEInternal.Weighted>
1.9120

> <Gold.Chemscore.Rot.Weighted>
4.1323

> <Gold.Chemscore.Internal.Correction.Weighted>
   9.000000E+99

> <Gold.Protein.RotatedTorsions>
[ 6907 6896 6895 6894 ] final    1.57 input  -60.11 | X-H torsion
[ 7974 7965 7964 7962 ] final  166.86 input  175.53 | X-H torsion
[ 8008 7997 7996 7995 ] final   51.23 input   59.86 | X-H torsion
[ 10167 10162 10161 10158 ] final   12.15 input  -65.29 | X-H torsion
[ 10718 10713 10712 10709 ] final  155.11 input   66.30 | X-H torsion
[ 10763 10752 10751 10750 ] final -160.21 input  -60.55 | X-H torsion
[ 11005 11000 10999 10996 ] final   65.88 input  -57.11 | X-H torsion

> <Gold.Protein.ActiveResidues>
 VAL166  LYS551  ARG553  GLY616  TRP617  ASP618  TYR619  PRO620  LYS621  CYS622 
 ASP623  PHE694  ASN695  SER759  ASP760  ASP761  ALA762  ILE779  LEU786  VAL792 
 PHE793  MET794  SER795  GLU796  ALA797  LYS798  CYS799  TRP800  GLU811  SER814 

> <Gold.Protein.RotatedAtoms>
  151.5947  135.1051  160.0046 H   0  0  0  0  0  0  0  0  0  0  0  0  # atno 6907 bound_to 6896
  152.4288  133.7238  159.6559 H   0  0  0  0  0  0  0  0  0  0  0  0  # atno 6908 bound_to 6896
  150.8179  133.8233  159.3174 H   0  0  0  0  0  0  0  0  0  0  0  0  # atno 6909 bound_to 6896
  144.7446  139.8677  143.6386 H   0  0  0  0  0  0  0  0  0  0  0  0  # atno 7974 bound_to 7965
  155.4319  140.3451  155.4281 H   0  0  0  0  0  0  0  0  0  0  0  0  # atno 8008 bound_to 7997
  156.1331  140.1520  156.9066 H   0  0  0  0  0  0  0  0  0  0  0  0  # atno 8009 bound_to 7997
  154.4910  140.0841  156.7575 H   0  0  0  0  0  0  0  0  0  0  0  0  # atno 8010 bound_to 7997
  140.6087  143.8454  150.7041 H   0  0  0  0  0  0  0  0  0  0  0  0  # atno 10167 bound_to 10162
  157.2227  131.0722  151.1902 H   0  0  0  0  0  0  0  0  0  0  0  0  # atno 10718 bound_to 10713
  154.7410  135.3068  154.8728 H   0  0  0  0  0  0  0  0  0  0  0  0  # atno 10763 bound_to 10752
  153.9543  135.6760  153.4748 H   0  0  0  0  0  0  0  0  0  0  0  0  # atno 10764 bound_to 10752
  153.1009  135.4912  154.8789 H   0  0  0  0  0  0  0  0  0  0  0  0  # atno 10765 bound_to 10752
  139.9867  134.6657  156.0164 H   0  0  0  0  0  0  0  0  0  0  0  0  # atno 11005 bound_to 11000
  146.1302  139.4336  143.0173 LP  0  0  0  0  0  0  0  0  0  0  0  0  # atno 17320 bound_to 7965
  145.7174  141.0086  143.1421 LP  0  0  0  0  0  0  0  0  0  0  0  0  # atno 17321 bound_to 7965
  140.2017  143.3953  152.1786 LP  0  0  0  0  0  0  0  0  0  0  0  0  # atno 17342 bound_to 10162
  139.5344  144.7194  151.4944 LP  0  0  0  0  0  0  0  0  0  0  0  0  # atno 17343 bound_to 10162
  157.3559  130.7106  149.6470 LP  0  0  0  0  0  0  0  0  0  0  0  0  # atno 17370 bound_to 10713
  155.9681  130.4239  150.4585 LP  0  0  0  0  0  0  0  0  0  0  0  0  # atno 17371 bound_to 10713
  141.1530  133.6546  156.4074 LP  0  0  0  0  0  0  0  0  0  0  0  0  # atno 17394 bound_to 11000
  140.4989  134.6505  157.5240 LP  0  0  0  0  0  0  0  0  0  0  0  0  # atno 17395 bound_to 11000

$$$$
