AV-unprocessed.smi:627|AV-procd|sdf|3113|dock6
  -GOLD-   22720 0 33D 1   1.00000     0.00000
 Structure written by MMmdl.
 40 42  0  0  0  0  0  0  0  0  1 V2000
  140.7349  145.1225  162.6159 C   0  0  0  0  0  0  0  0  0  0  0  0
  140.8242  143.7761  161.3666 S   0  0  0  0  0  0  0  0  0  0  0  0
  140.5518  142.5039  162.0539 O   0  0  0  0  0  0  0  0  0  0  0  0
  140.0049  144.1655  160.2084 O   0  0  0  0  0  0  0  0  0  0  0  0
  142.5386  143.7836  160.8550 C   0  0  0  0  0  0  0  0  0  0  0  0
  143.4601  142.8871  161.4329 C   0  0  0  0  0  0  0  0  0  0  0  0
  144.8033  142.9572  161.0174 C   0  0  0  0  0  0  0  0  0  0  0  0
  145.1700  143.9201  160.0454 C   0  0  0  0  0  0  0  0  0  0  0  0
  146.4931  144.0958  159.5586 N   0  0  0  0  0  0  0  0  0  0  0  0
  147.5560  143.2908  159.7282 C   0  0  0  0  0  0  0  0  0  0  0  0
  147.5521  142.2332  160.3576 O   0  0  0  0  0  0  0  0  0  0  0  0
  148.6360  143.7776  159.1001 N   0  0  0  0  0  0  0  0  0  0  0  0
  149.9502  143.1445  159.0539 C   0  0  0  0  0  0  0  0  0  0  0  0
  151.0255  144.1221  158.6171 C   0  0  0  0  0  0  0  0  0  0  0  0
  152.4578  143.9718  159.0725 C   0  0  0  0  0  0  0  0  0  0  0  0
  151.6151  145.1171  159.5875 C   0  0  0  0  0  0  0  0  0  0  0  0
  149.9688  141.9099  158.1677 C   0  0  0  0  0  0  0  0  0  0  0  0
  151.1973  141.5238  157.3782 C   0  0  0  0  0  0  0  0  0  0  0  0
  149.9642  142.0242  156.6612 C   0  0  0  0  0  0  0  0  0  0  0  0
  144.1659  144.7862  159.5616 C   0  0  0  0  0  0  0  0  0  0  0  0
  142.8754  144.7283  159.9515 N   0  0  0  0  0  0  0  0  0  0  0  0
  139.7161  145.1983  162.9950 H   0  0  0  0  0  0  0  0  0  0  0  0
  141.0208  146.0673  162.1540 H   0  0  0  0  0  0  0  0  0  0  0  0
  141.4139  144.9005  163.4385 H   0  0  0  0  0  0  0  0  0  0  0  0
  143.1533  142.1651  162.1750 H   0  0  0  0  0  0  0  0  0  0  0  0
  145.5232  142.2865  161.4603 H   0  0  0  0  0  0  0  0  0  0  0  0
  146.6288  144.8880  158.9476 H   0  0  0  0  0  0  0  0  0  0  0  0
  148.5406  144.6533  158.6072 H   0  0  0  0  0  0  0  0  0  0  0  0
  150.2103  142.8248  160.0653 H   0  0  0  0  0  0  0  0  0  0  0  0
  150.8937  144.4825  157.5983 H   0  0  0  0  0  0  0  0  0  0  0  0
  152.6915  143.1719  159.7722 H   0  0  0  0  0  0  0  0  0  0  0  0
  153.2400  144.2051  158.3530 H   0  0  0  0  0  0  0  0  0  0  0  0
  151.8361  146.1139  159.2118 H   0  0  0  0  0  0  0  0  0  0  0  0
  151.2840  145.0714  160.6232 H   0  0  0  0  0  0  0  0  0  0  0  0
  149.3923  141.0804  158.5733 H   0  0  0  0  0  0  0  0  0  0  0  0
  152.0579  142.1887  157.4155 H   0  0  0  0  0  0  0  0  0  0  0  0
  151.4304  140.4639  157.3008 H   0  0  0  0  0  0  0  0  0  0  0  0
  149.3761  141.2978  156.1041 H   0  0  0  0  0  0  0  0  0  0  0  0
  150.0143  143.0187  156.2225 H   0  0  0  0  0  0  0  0  0  0  0  0
  144.4035  145.5482  158.8337 H   0  0  0  0  0  0  0  0  0  0  0  0
  1  2  1  0  0  0  0
  1 22  1  0  0  0  0
  1 23  1  0  0  0  0
  1 24  1  0  0  0  0
  2  3  2  0  0  0  0
  2  4  2  0  0  0  0
  2  5  1  0  0  0  0
  5 21  1  0  0  0  0
  5  6  2  0  0  0  0
  6  7  1  0  0  0  0
  6 25  1  0  0  0  0
  7  8  2  0  0  0  0
  7 26  1  0  0  0  0
  8  9  1  0  0  0  0
  8 20  1  0  0  0  0
  9 10  1  0  0  0  0
  9 27  1  0  0  0  0
 10 11  2  0  0  0  0
 10 12  1  0  0  0  0
 12 13  1  0  0  0  0
 12 28  1  0  0  0  0
 13 14  1  0  0  0  0
 13 17  1  0  0  0  0
 13 29  1  0  0  0  0
 14 16  1  0  0  0  0
 14 15  1  0  0  0  0
 14 30  1  0  0  0  0
 15 16  1  0  0  0  0
 15 31  1  0  0  0  0
 15 32  1  0  0  0  0
 16 33  1  0  0  0  0
 16 34  1  0  0  0  0
 17 19  1  0  0  0  0
 17 18  1  0  0  0  0
 17 35  1  0  0  0  0
 18 19  1  0  0  0  0
 18 36  1  0  0  0  0
 18 37  1  0  0  0  0
 19 38  1  0  0  0  0
 19 39  1  0  0  0  0
 20 21  2  0  0  0  0
 20 40  1  0  0  0  0
M  END
> <s_m_source_file>
AV-unprocessed.smi

> <i_m_source_file_index>
627

> <i_lp_mmshare_version>
43012

> <i_f3d_flags>
0

> <s_epik_input>
W0NIM11TKD1PKSg9TyljMVtjSF1bY0hdYyhbY0hdbjEpW05IXUMoPU8pW05IXVtDSF0oW0NIXTJbQ0gyXVtDSDJdMilbQ0hdM1tDSDJdW0NIMl0z

> <s_epik_cmdline>
J2VwaWtfcHl0aG9uJywgJy1waCcsICc3LjAnLCAnLXRuJywgJzgnLCAnLW1hJywgJzIwMCcsICctbWV0YWxfYmluZGluZycsICctaW1hZScsICc8aW5maWxlLm1hZT4nLCAnLW9tYWUnLCAnPG91dGZpbGUubWFlPic=

> <r_lp_tautomer_probability>
1

> <r_epik_Ionization_Penalty>
4.12334e-05

> <r_epik_Ionization_Penalty_Charging>
0

> <r_epik_Ionization_Penalty_Neutral>
4.12334e-05

> <r_epik_State_Penalty>
-0

> <r_epik_Charging_Adjusted_Penalty>
0

> <i_epik_Tot_Q>
0

> <i_epik_Tot_abs_Q>
0

> <r_epik_Metal_State_Penalty>
-0

> <b_epik_Metal_Only>
0

> <s_lp_Force_Field>
OPLS_2005

> <r_lp_Energy>
25.9195

> <b_lp_Chiralities_Consistent>
1

> <s_lp_Variant>
AV-unprocessed.smi:627-1

> <Gold.Version>
5.8.1

> <Gold.Id.Protein>
6NUR|6NUR_protein|mol2

> <Gold.PLP.Fitness>
39.4602

> <Gold.PLP.PLP>
-29.5775

> <Gold.PLP.part.hbond>
-5.8786

> <Gold.PLP.part.metal>
0.0000

> <Gold.PLP.part.buried>
-1.9722

> <Gold.PLP.part.nonpolar>
-23.2216

> <Gold.PLP.part.repulsive>
0.1456

> <Gold.PLP.ligand.clash>
0.0000

> <Gold.PLP.ligand.torsion>
2.3046

> <Gold.PLP.Chemscore.Hbond>
3.4472

> <Gold.PLP.Chemscore.CHOScore>
0.0000

> <Gold.PLP.Chemscore.Metal>
0.0000

> <Gold.Chemscore.Hbonds>
donor molecule, donor type, donor heavy atom, donor atom, acceptor molecule, acceptor atom, score
      L1  H     9    27       P1  8029  0.26
      L1  H    12    28       P1  8029  1.00
      P1  H  6933  6944       L1    11  0.36
      P1  H  6934  6946       L1    11  0.45

> <Gold.PLP.Chemscore.Internal.Correction>
4.1504

> <Gold.Rescore>
     Score         DG    S(hbond)    S(metal)    S(lipo)     H(rot)  DE(clash)    DE(int)     intcor
     17.45     -21.22       3.08        0.00      77.05       1.40       0.12       3.65       ----

> <Gold.Chemscore.Fitness>
17.4531

> <Gold.Chemscore.DG>
-21.2247

> <Gold.Chemscore.ZeroCoef>
-5.4800

> <Gold.Chemscore.Hbond>
3.0847

> <Gold.Chemscore.Metal>
0.0000

> <Gold.Chemscore.Lipo>
77.0533

> <Gold.Chemscore.Internal_Hbond>
0.0000

> <Gold.Chemscore.DEClash>
0.1239

> <Gold.Chemscore.DEInternal>
3.6478

> <Gold.Chemscore.Rot>
1.3958

> <Gold.Chemscore.Internal.Correction>
   9.000000E+99

> <Gold.Chemscore.Hbonds>
donor molecule, donor type, donor heavy atom, donor atom, acceptor molecule, acceptor atom, score
      L1  H     9    27       P1  8029  0.25
      L1  H    12    28       P1  8029  0.88
      P1  H  6933  6944       L1    11  0.26
      P1  H  6934  6946       L1    11  0.43

> <Gold.Chemscore.Hbond.Weighted>
-10.3028

> <Gold.Chemscore.Metal.Weighted>
-0.0000

> <Gold.Chemscore.Lipo.Weighted>
-9.0152

> <Gold.Chemscore.Internal_Hbond.Weighted>
0.0000

> <Gold.Chemscore.DEClash.Weighted>
0.1239

> <Gold.Chemscore.DEInternal.Weighted>
3.6478

> <Gold.Chemscore.Rot.Weighted>
3.5733

> <Gold.Chemscore.Internal.Correction.Weighted>
   9.000000E+99

> <Gold.Protein.RotatedTorsions>
[ 6907 6896 6895 6894 ] final  157.41 input  -60.11 | X-H torsion
[ 7974 7965 7964 7962 ] final -142.69 input  175.53 | X-H torsion
[ 8008 7997 7996 7995 ] final  -14.85 input   59.86 | X-H torsion
[ 10167 10162 10161 10158 ] final  152.87 input  -65.29 | X-H torsion
[ 10718 10713 10712 10709 ] final -172.94 input   66.30 | X-H torsion
[ 10763 10752 10751 10750 ] final  178.39 input  -60.55 | X-H torsion
[ 11005 11000 10999 10996 ] final -174.84 input  -57.11 | X-H torsion

> <Gold.Protein.ActiveResidues>
 VAL166  LYS551  ARG553  GLY616  TRP617  ASP618  TYR619  PRO620  LYS621  CYS622 
 ASP623  PHE694  ASN695  SER759  ASP760  ASP761  ALA762  ILE779  LEU786  VAL792 
 PHE793  MET794  SER795  GLU796  ALA797  LYS798  CYS799  TRP800  GLU811  SER814 

> <Gold.Protein.RotatedAtoms>
  152.0155  133.3878  159.4236 H   0  0  0  0  0  0  0  0  0  0  0  0  # atno 6907 bound_to 6896
  150.6895  134.3684  159.4990 H   0  0  0  0  0  0  0  0  0  0  0  0  # atno 6908 bound_to 6896
  152.1450  134.9032  160.0602 H   0  0  0  0  0  0  0  0  0  0  0  0  # atno 6909 bound_to 6896
  144.8425  140.5927  143.5443 H   0  0  0  0  0  0  0  0  0  0  0  0  # atno 7974 bound_to 7965
  154.5177  140.2212  155.9035 H   0  0  0  0  0  0  0  0  0  0  0  0  # atno 8008 bound_to 7997
  156.1626  140.3139  155.8799 H   0  0  0  0  0  0  0  0  0  0  0  0  # atno 8009 bound_to 7997
  155.3721  140.0467  157.3036 H   0  0  0  0  0  0  0  0  0  0  0  0  # atno 8010 bound_to 7997
  139.4830  144.5321  151.7705 H   0  0  0  0  0  0  0  0  0  0  0  0  # atno 10167 bound_to 10162
  156.7630  130.9420  151.3118 H   0  0  0  0  0  0  0  0  0  0  0  0  # atno 10718 bound_to 10713
  154.5070  135.2786  155.1374 H   0  0  0  0  0  0  0  0  0  0  0  0  # atno 10763 bound_to 10752
  154.2984  135.6253  153.5418 H   0  0  0  0  0  0  0  0  0  0  0  0  # atno 10764 bound_to 10752
  152.9912  135.5691  154.5527 H   0  0  0  0  0  0  0  0  0  0  0  0  # atno 10765 bound_to 10752
  140.4700  134.6174  157.4878 H   0  0  0  0  0  0  0  0  0  0  0  0  # atno 11005 bound_to 11000
  145.4665  139.1507  143.3838 LP  0  0  0  0  0  0  0  0  0  0  0  0  # atno 17320 bound_to 7965
  146.2715  140.4797  142.8812 LP  0  0  0  0  0  0  0  0  0  0  0  0  # atno 17321 bound_to 7965
  140.4849  144.1396  150.5939 LP  0  0  0  0  0  0  0  0  0  0  0  0  # atno 17342 bound_to 10162
  140.4236  143.2600  151.9684 LP  0  0  0  0  0  0  0  0  0  0  0  0  # atno 17343 bound_to 10162
  157.6726  130.9065  150.0075 LP  0  0  0  0  0  0  0  0  0  0  0  0  # atno 17370 bound_to 10713
  156.1327  130.3643  149.9706 LP  0  0  0  0  0  0  0  0  0  0  0  0  # atno 17371 bound_to 10713
  139.9891  134.7014  155.9721 LP  0  0  0  0  0  0  0  0  0  0  0  0  # atno 17394 bound_to 11000
  141.1581  133.6541  156.4229 LP  0  0  0  0  0  0  0  0  0  0  0  0  # atno 17395 bound_to 11000

$$$$
