#       Name:                AV-unprocessed.smi:1395
#       Creating user name   scv26
#       Creation time:       Fri Mar 27 05:29:42 2020


#       File generated by GOLD software.
#

@<TRIPOS>MOLECULE
AV-unprocessed.smi:1395
    48    49     1
SMALL
NO_CHARGES


@<TRIPOS>ATOM
      1 ****        -4.0484   0.1706  -1.6102 C.3            1 S1                 0.0000
      2 ****        -3.8478   1.6404  -1.2787 C.ar           1 S1                 0.0000
      3 ****        -4.9694   2.4953  -1.2261 C.ar           1 S1                 0.0000
      4 ****        -4.7821   3.8543  -0.9205 C.ar           1 S1                 0.0000
      5 ****        -3.4726   4.3036  -0.6792 C.ar           1 S1                 0.0000
      6 ****        -2.3953   3.4936  -0.7270 N.ar           1 S1                 0.0000
      7 ****        -2.5585   2.1795  -1.0221 C.ar           1 S1                 0.0000
      8 ****        -1.4685   1.2659  -1.0827 N.am           1 S1                 0.0000
      9 ****        -0.1574   1.5167  -0.9197 C.2            1 S1                 0.0000
     10 ****         0.3414   2.6290  -0.7475 O.2            1 S1                 0.0000
     11 ****         0.5612   0.3855  -0.9709 N.am           1 S1                 0.0000
     12 ****         2.0140   0.2951  -0.8232 C.3            1 S1                 0.0000
     13 ****         2.5175  -1.0720  -1.3173 C.3            1 S1                 0.0000
     14 ****         2.1011  -2.2157  -0.3733 C.3            1 S1                 0.0000
     15 ****         2.5495  -1.9629   1.0202 N.4            1 S1                 1.0000
     16 ****         2.2551  -3.1083   1.9175 C.3            1 S1                 0.0000
     17 ****         3.2091  -3.1054   3.1164 C.2            1 S1                 0.0000
     18 ****         2.5744  -2.8626   4.2794 N.pl3          1 S1                -1.0000
     19 ****         4.4098  -3.2967   2.9357 O.2            1 S1                 0.0000
     20 ****         2.0346  -0.6667   1.5394 C.3            1 S1                 0.0000
     21 ****         2.4618   0.5034   0.6372 C.3            1 S1                 0.0000
     22 ****        -5.1035  -0.0630  -1.7559 H              1 S1                 0.0000
     23 ****        -3.6748  -0.4582  -0.8017 H              1 S1                 0.0000
     24 ****        -3.5176  -0.0889  -2.5267 H              1 S1                 0.0000
     25 ****        -5.9633   2.1175  -1.4168 H              1 S1                 0.0000
     26 ****        -5.6198   4.5342  -0.8726 H              1 S1                 0.0000
     27 ****        -3.2837   5.3397  -0.4405 H              1 S1                 0.0000
     28 ****        -1.7229   0.3039  -1.2502 H              1 S1                 0.0000
     29 ****         0.0662  -0.4806  -1.1248 H              1 S1                 0.0000
     30 ****         2.4625   1.0709  -1.4464 H              1 S1                 0.0000
     31 ****         2.1535  -1.2677  -2.3267 H              1 S1                 0.0000
     32 ****         3.6058  -1.0482  -1.3879 H              1 S1                 0.0000
     33 ****         1.0180  -2.3465  -0.3881 H              1 S1                 0.0000
     34 ****         2.5355  -3.1488  -0.7339 H              1 S1                 0.0000
     35 ****         1.2038  -3.1011   2.2137 H              1 S1                 0.0000
     36 ****         2.4196  -4.0473   1.3872 H              1 S1                 0.0000
     37 ****         1.5583  -2.7140   4.2708 H              1 S1                 0.0000
     38 ****         0.9471  -0.7084   1.6161 H              1 S1                 0.0000
     39 ****         2.4110  -0.4868   2.5465 H              1 S1                 0.0000
     40 ****         3.5482   0.5963   0.6679 H              1 S1                 0.0000
     41 ****         2.0719   1.4415   1.0337 H              1 S1                 0.0000
     42 ****         3.5564  -1.8879   0.9890 H              1 S1                 0.0000
     43 ****        -1.4823   3.8592  -0.5461 LP             1 S1                 0.0000
     44 ****        -0.2428   3.4402  -0.7201 LP             1 S1                 0.0000
     45 ****         1.3307   2.7214  -0.6350 LP             1 S1                 0.0000
     46 ****         3.0850  -2.8275   5.1385 LP             1 S1                 0.0000
     47 ****         4.7576  -3.4527   2.0112 LP             1 S1                 0.0000
     48 ****         5.0387  -3.2963   3.7132 LP             1 S1                 0.0000
@<TRIPOS>BOND
    1    1    2 1     
    2    1   22 1     
    3    1   23 1     
    4    1   24 1     
    5    2    7 ar    
    6    2    3 ar    
    7    3    4 ar    
    8    3   25 1     
    9    4    5 ar    
   10    4   26 1     
   11    5    6 ar    
   12    5   27 1     
   13    6    7 ar    
   14    7    8 1     
   15    8    9 am    
   16    8   28 1     
   17    9   10 2     
   18    9   11 am    
   19   11   12 1     
   20   11   29 1     
   21   12   21 1     
   22   12   13 1     
   23   12   30 1     
   24   13   14 1     
   25   13   31 1     
   26   13   32 1     
   27   14   15 1     
   28   14   33 1     
   29   14   34 1     
   30   15   16 1     
   31   15   20 1     
   32   15   42 1     
   33   16   17 1     
   34   16   35 1     
   35   16   36 1     
   36   17   18 1     
   37   17   19 2     
   38   18   37 1     
   39   20   21 1     
   40   20   38 1     
   41   20   39 1     
   42   21   40 1     
   43   21   41 1     
   44    6   43 1     
   45   10   44 1     
   46   10   45 1     
   47   18   46 1     
   48   19   47 1     
   49   19   48 1     
@<TRIPOS>SUBSTRUCTURE
      1 S1             1
@<TRIPOS>SET
LONE_PAIRS      STATIC     ATOMS    <user>   **** ""
6 43 44 45 46 47 48
DONOR_HYDROGENS      STATIC     ATOMS    <user>   **** ""
4 28 29 42 37
ATOM$BLUE        STATIC     ATOMS    COLORGROUP SYSTEM
6 43 44 45 46 47 48
ATOM$RED        STATIC     ATOMS    COLORGROUP SYSTEM
4 28 29 42 37
