AV-unprocessed.smi:98|AV-procd|sdf|864|dock7
  -GOLD-   2262017313D 1   1.00000     0.00000
 Structure written by MMmdl.
 56 59  0  0  0  0  0  0  0  0  1 V2000
  152.4421  136.8198  157.2236 O   0  0  0  0  0  0  0  0  0  0  0  0
  152.1138  137.2329  156.1105 C   0  0  0  0  0  0  0  0  0  0  0  0
  152.5990  138.6052  155.6177 C   0  0  0  0  0  0  0  0  0  0  0  0
  151.6848  139.7109  155.9790 N   0  0  0  0  0  0  0  0  0  0  0  0
  150.6237  140.0214  155.0926 C   0  0  0  0  0  0  0  0  0  0  0  0
  150.4550  139.3855  154.0509 O   0  0  0  0  0  0  0  0  0  0  0  0
  149.7654  141.1275  155.5004 C   0  0  0  0  0  0  0  0  0  0  0  0
  148.7526  141.5127  154.7055 F   0  0  0  0  0  0  0  0  0  0  0  0
  149.9753  141.7759  156.6642 C   0  0  0  0  0  0  0  0  0  0  0  0
  150.9879  141.4368  157.5395 N   0  0  0  0  0  0  0  0  0  0  0  0
  151.1663  142.2383  158.8081 C   0  0  1  0  0  0  0  0  0  0  0  0
  152.5555  142.8920  158.9337 C   0  0  0  0  0  0  0  0  0  0  0  0
  152.2246  144.3697  159.0648 C   0  0  0  0  0  0  0  0  0  0  0  0
  150.7739  144.3533  159.5345 C   0  0  0  0  0  0  0  0  0  0  0  0
  150.2142  143.2566  158.8294 O   0  0  0  0  0  0  0  0  0  0  0  0
  151.8894  140.4021  157.1977 C   0  0  0  0  0  0  0  0  0  0  0  0
  152.8274  140.1067  157.9400 O   0  0  0  0  0  0  0  0  0  0  0  0
  151.3291  136.5568  155.2519 N   0  0  0  0  0  0  0  0  0  0  0  0
  150.7461  135.2736  155.4242 C   0  0  0  0  0  0  0  0  0  0  0  0
  149.7417  134.8856  154.5121 C   0  0  0  0  0  0  0  0  0  0  0  0
  149.1376  133.6174  154.6116 C   0  0  0  0  0  0  0  0  0  0  0  0
  149.5513  132.7263  155.6210 C   0  0  0  0  0  0  0  0  0  0  0  0
  148.7931  131.1094  155.7493 S   0  0  0  0  0  0  0  0  0  0  0  0
  148.2094  130.9698  157.0929 O   0  0  0  0  0  0  0  0  0  0  0  0
  147.9607  130.8899  154.5559 O   0  0  0  0  0  0  0  0  0  0  0  0
  150.1599  130.0473  155.6491 N   0  0  0  0  0  0  0  0  0  0  0  0
  150.1036  128.7601  156.3623 C   0  0  0  0  0  0  0  0  0  0  0  0
  151.4988  128.1232  156.4620 C   0  0  0  0  0  0  0  0  0  0  0  0
  152.0857  128.0281  155.1728 O   0  0  0  0  0  0  0  0  0  0  0  0
  152.2832  129.3107  154.5975 C   0  0  0  0  0  0  0  0  0  0  0  0
  150.9319  130.0155  154.3956 C   0  0  0  0  0  0  0  0  0  0  0  0
  150.5667  133.0934  156.5253 C   0  0  0  0  0  0  0  0  0  0  0  0
  151.1654  134.3643  156.4259 C   0  0  0  0  0  0  0  0  0  0  0  0
  153.6021  138.7705  156.0135 H   0  0  0  0  0  0  0  0  0  0  0  0
  152.7477  138.5716  154.5368 H   0  0  0  0  0  0  0  0  0  0  0  0
  149.3135  142.5915  156.9175 H   0  0  0  0  0  0  0  0  0  0  0  0
  150.9699  141.5489  159.6306 H   0  0  0  0  0  0  0  0  0  0  0  0
  153.0366  142.5149  159.8367 H   0  0  0  0  0  0  0  0  0  0  0  0
  153.2010  142.6738  158.0823 H   0  0  0  0  0  0  0  0  0  0  0  0
  152.8870  144.8947  159.7533 H   0  0  0  0  0  0  0  0  0  0  0  0
  152.2943  144.8585  158.0926 H   0  0  0  0  0  0  0  0  0  0  0  0
  150.7136  144.1669  160.6080 H   0  0  0  0  0  0  0  0  0  0  0  0
  150.2488  145.2832  159.3149 H   0  0  0  0  0  0  0  0  0  0  0  0
  151.0521  137.0544  154.4180 H   0  0  0  0  0  0  0  0  0  0  0  0
  149.4237  135.5651  153.7346 H   0  0  0  0  0  0  0  0  0  0  0  0
  148.3619  133.3367  153.9146 H   0  0  0  0  0  0  0  0  0  0  0  0
  149.6923  128.9055  157.3613 H   0  0  0  0  0  0  0  0  0  0  0  0
  149.4273  128.0907  155.8300 H   0  0  0  0  0  0  0  0  0  0  0  0
  152.1424  128.7021  157.1265 H   0  0  0  0  0  0  0  0  0  0  0  0
  151.4222  127.1234  156.8893 H   0  0  0  0  0  0  0  0  0  0  0  0
  152.9408  129.9084  155.2307 H   0  0  0  0  0  0  0  0  0  0  0  0
  152.7898  129.1936  153.6394 H   0  0  0  0  0  0  0  0  0  0  0  0
  150.3483  129.4943  153.6359 H   0  0  0  0  0  0  0  0  0  0  0  0
  151.0970  131.0303  154.0336 H   0  0  0  0  0  0  0  0  0  0  0  0
  150.8899  132.4059  157.2930 H   0  0  0  0  0  0  0  0  0  0  0  0
  151.9552  134.6184  157.1166 H   0  0  0  0  0  0  0  0  0  0  0  0
  1  2  2  0  0  0  0
  2  3  1  0  0  0  0
  2 18  1  0  0  0  0
  3  4  1  0  0  0  0
  3 34  1  0  0  0  0
  3 35  1  0  0  0  0
  4 16  1  0  0  0  0
  4  5  1  0  0  0  0
  5  6  2  0  0  0  0
  5  7  1  0  0  0  0
  7  8  1  0  0  0  0
  7  9  2  0  0  0  0
  9 10  1  0  0  0  0
  9 36  1  0  0  0  0
 10 11  1  0  0  0  0
 10 16  1  0  0  0  0
 11 15  1  0  0  0  0
 11 12  1  0  0  0  0
 11 37  1  0  0  0  0
 12 13  1  0  0  0  0
 12 38  1  0  0  0  0
 12 39  1  0  0  0  0
 13 14  1  0  0  0  0
 13 40  1  0  0  0  0
 13 41  1  0  0  0  0
 14 15  1  0  0  0  0
 14 42  1  0  0  0  0
 14 43  1  0  0  0  0
 16 17  2  0  0  0  0
 18 19  1  0  0  0  0
 18 44  1  0  0  0  0
 19 33  1  0  0  0  0
 19 20  2  0  0  0  0
 20 21  1  0  0  0  0
 20 45  1  0  0  0  0
 21 22  2  0  0  0  0
 21 46  1  0  0  0  0
 22 23  1  0  0  0  0
 22 32  1  0  0  0  0
 23 24  2  0  0  0  0
 23 25  2  0  0  0  0
 23 26  1  0  0  0  0
 26 31  1  0  0  0  0
 26 27  1  0  0  0  0
 27 28  1  0  0  0  0
 27 47  1  0  0  0  0
 27 48  1  0  0  0  0
 28 29  1  0  0  0  0
 28 49  1  0  0  0  0
 28 50  1  0  0  0  0
 29 30  1  0  0  0  0
 30 31  1  0  0  0  0
 30 51  1  0  0  0  0
 30 52  1  0  0  0  0
 31 53  1  0  0  0  0
 31 54  1  0  0  0  0
 32 33  2  0  0  0  0
 32 55  1  0  0  0  0
 33 56  1  0  0  0  0
M  END
> <s_m_source_file>
AV-unprocessed.smi

> <i_m_source_file_index>
98

> <i_lp_mmshare_version>
43012

> <i_f3d_flags>
0

> <s_epik_input>
TzFbQ0gyXVtDSDJdW0NIMl1bQ0BIXTFuKGMyPU8pW2NIXWMoRiljKD1PKW4yW0NIMl1DKD1PKVtOSF1jM1tjSF1bY0hdYyhbY0hdW2NIXTMpUyg9TykoPU8pTjRbQ0gyXVtDSDJdT1tDSDJdW0NIMl00

> <s_epik_cmdline>
J2VwaWtfcHl0aG9uJywgJy1waCcsICc3LjAnLCAnLXRuJywgJzgnLCAnLW1hJywgJzIwMCcsICctbWV0YWxfYmluZGluZycsICctaW1hZScsICc8aW5maWxlLm1hZT4nLCAnLW9tYWUnLCAnPG91dGZpbGUubWFlPic=

> <r_lp_tautomer_probability>
1

> <r_epik_Ionization_Penalty>
1.9271e-06

> <r_epik_Ionization_Penalty_Charging>
3.88729e-08

> <r_epik_Ionization_Penalty_Neutral>
1.88823e-06

> <r_epik_State_Penalty>
-0

> <r_epik_Charging_Adjusted_Penalty>
3.88729e-08

> <i_epik_Tot_Q>
0

> <i_epik_Tot_abs_Q>
0

> <r_epik_Metal_State_Penalty>
-0

> <b_epik_Metal_Only>
0

> <s_epik_Chemistry_Notes>
This compound contains an acetal/aminal-like group ( X-CH(R)-Y where X, Y are N, S, or O) that may be acid/base labile, releasing an aldehyde.

> <s_lp_Force_Field>
OPLS_2005

> <r_lp_Energy>
28.5933

> <b_lp_Chiralities_Consistent>
1

> <s_lp_Variant>
AV-unprocessed.smi:98-2

> <Gold.Version>
5.8.1

> <Gold.Id.Protein>
6NUR|6NUR_protein|mol2

> <Gold.PLP.Fitness>
53.3150

> <Gold.PLP.PLP>
-49.2682

> <Gold.PLP.part.hbond>
-2.0000

> <Gold.PLP.part.metal>
0.0000

> <Gold.PLP.part.buried>
-3.3014

> <Gold.PLP.part.nonpolar>
-46.0478

> <Gold.PLP.part.repulsive>
1.4146

> <Gold.PLP.ligand.clash>
0.0000

> <Gold.PLP.ligand.torsion>
3.0129

> <Gold.PLP.Chemscore.Hbond>
1.0000

> <Gold.PLP.Chemscore.CHOScore>
0.9726

> <Gold.PLP.Chemscore.Metal>
0.0000

> <Gold.Chemscore.Hbonds>
donor molecule, donor type, donor heavy atom, donor atom, acceptor molecule, acceptor atom, score
      P1  H  7997  8009       L1    17  1.00
      L1  C     9    36       P1  8028  0.99

> <Gold.PLP.Chemscore.Internal.Correction>
4.1548

> <Gold.Rescore>
     Score         DG    S(hbond)    S(metal)    S(lipo)     H(rot)  DE(clash)    DE(int)     intcor
     10.95     -16.35       0.95        0.00     102.45       1.67       0.29       5.11       ----

> <Gold.Chemscore.Fitness>
10.9503

> <Gold.Chemscore.DG>
-16.3513

> <Gold.Chemscore.ZeroCoef>
-5.4800

> <Gold.Chemscore.Hbond>
0.9494

> <Gold.Chemscore.Metal>
0.0000

> <Gold.Chemscore.Lipo>
102.4512

> <Gold.Chemscore.Internal_Hbond>
0.0000

> <Gold.Chemscore.DEClash>
0.2872

> <Gold.Chemscore.DEInternal>
5.1138

> <Gold.Chemscore.Rot>
1.6744

> <Gold.Chemscore.Internal.Correction>
   9.000000E+99

> <Gold.Chemscore.Hbonds>
donor molecule, donor type, donor heavy atom, donor atom, acceptor molecule, acceptor atom, score
      P1  H  7997  8009       L1    17  0.62

> <Gold.Chemscore.Hbond.Weighted>
-3.1710

> <Gold.Chemscore.Metal.Weighted>
-0.0000

> <Gold.Chemscore.Lipo.Weighted>
-11.9868

> <Gold.Chemscore.Internal_Hbond.Weighted>
0.0000

> <Gold.Chemscore.DEClash.Weighted>
0.2872

> <Gold.Chemscore.DEInternal.Weighted>
5.1138

> <Gold.Chemscore.Rot.Weighted>
4.2865

> <Gold.Chemscore.Internal.Correction.Weighted>
   9.000000E+99

> <Gold.Protein.RotatedTorsions>
[ 6907 6896 6895 6894 ] final -171.21 input  -60.11 | X-H torsion
[ 7974 7965 7964 7962 ] final -179.53 input  175.53 | X-H torsion
[ 8008 7997 7996 7995 ] final  166.78 input   59.86 | X-H torsion
[ 10167 10162 10161 10158 ] final  141.44 input  -65.29 | X-H torsion
[ 10718 10713 10712 10709 ] final -122.66 input   66.30 | X-H torsion
[ 10763 10752 10751 10750 ] final -136.73 input  -60.55 | X-H torsion
[ 11005 11000 10999 10996 ] final   76.61 input  -57.11 | X-H torsion

> <Gold.Protein.ActiveResidues>
 VAL166  LYS551  ARG553  GLY616  TRP617  ASP618  TYR619  PRO620  LYS621  CYS622 
 ASP623  PHE694  ASN695  SER759  ASP760  ASP761  ALA762  ILE779  LEU786  VAL792 
 PHE793  MET794  SER795  GLU796  ALA797  LYS798  CYS799  TRP800  GLU811  SER814 

> <Gold.Protein.RotatedAtoms>
  151.5201  133.3468  159.2899 H   0  0  0  0  0  0  0  0  0  0  0  0  # atno 6907 bound_to 6896
  150.8658  134.8023  159.7128 H   0  0  0  0  0  0  0  0  0  0  0  0  # atno 6908 bound_to 6896
  152.4663  134.5077  159.9796 H   0  0  0  0  0  0  0  0  0  0  0  0  # atno 6909 bound_to 6896
  144.7137  140.0703  143.6429 H   0  0  0  0  0  0  0  0  0  0  0  0  # atno 7974 bound_to 7965
  156.1689  140.1634  156.8482 H   0  0  0  0  0  0  0  0  0  0  0  0  # atno 8008 bound_to 7997
  154.5236  140.0772  156.8253 H   0  0  0  0  0  0  0  0  0  0  0  0  # atno 8009 bound_to 7997
  155.3553  140.3392  155.4242 H   0  0  0  0  0  0  0  0  0  0  0  0  # atno 8010 bound_to 7997
  139.5020  144.6171  151.6138 H   0  0  0  0  0  0  0  0  0  0  0  0  # atno 10167 bound_to 10162
  156.1437  130.6484  150.9809 H   0  0  0  0  0  0  0  0  0  0  0  0  # atno 10718 bound_to 10713
  154.8677  135.3663  154.5109 H   0  0  0  0  0  0  0  0  0  0  0  0  # atno 10763 bound_to 10752
  153.5744  135.7020  153.5495 H   0  0  0  0  0  0  0  0  0  0  0  0  # atno 10764 bound_to 10752
  153.3513  135.4071  155.1611 H   0  0  0  0  0  0  0  0  0  0  0  0  # atno 10765 bound_to 10752
  139.9291  134.7615  156.1417 H   0  0  0  0  0  0  0  0  0  0  0  0  # atno 11005 bound_to 11000
  145.9789  139.2926  143.1054 LP  0  0  0  0  0  0  0  0  0  0  0  0  # atno 17320 bound_to 7965
  145.9033  140.9228  143.0491 LP  0  0  0  0  0  0  0  0  0  0  0  0  # atno 17321 bound_to 7965
  140.5862  143.9859  150.6297 LP  0  0  0  0  0  0  0  0  0  0  0  0  # atno 17342 bound_to 10162
  140.3025  143.3251  152.0958 LP  0  0  0  0  0  0  0  0  0  0  0  0  # atno 17343 bound_to 10162
  157.6598  131.0883  150.7865 LP  0  0  0  0  0  0  0  0  0  0  0  0  # atno 17370 bound_to 10713
  156.7938  130.4899  149.5380 LP  0  0  0  0  0  0  0  0  0  0  0  0  # atno 17371 bound_to 10713
  141.0868  133.6731  156.2453 LP  0  0  0  0  0  0  0  0  0  0  0  0  # atno 17394 bound_to 11000
  140.6253  134.5320  157.5553 LP  0  0  0  0  0  0  0  0  0  0  0  0  # atno 17395 bound_to 11000

$$$$
