AV-unprocessed.smi:651|AV-procd|sdf|3190|dock9
  -GOLD-   22720 0113D 1   1.00000     0.00000
 Structure written by MMmdl.
 39 40  0  0  0  0  0  0  0  0  2 V2000
  151.6419  145.2768  159.0289 C   0  0  0  0  0  0  0  0  0  0  0  0
  151.5507  143.8189  158.6305 C   0  0  0  0  0  0  0  0  0  0  0  0
  152.3204  142.8183  159.2614 C   0  0  0  0  0  0  0  0  0  0  0  0
  152.1820  141.4779  158.8447 C   0  0  0  0  0  0  0  0  0  0  0  0
  151.2768  141.1643  157.8066 C   0  0  0  0  0  0  0  0  0  0  0  0
  151.1002  139.7278  157.3408 C   0  0  0  0  0  0  0  0  0  0  0  0
  150.6424  139.6409  155.8797 C   0  0  0  0  0  0  0  0  0  0  0  0
  151.3480  140.0647  154.9629 O   0  0  0  0  0  0  0  0  0  0  0  0
  149.4452  139.0704  155.6783 N   0  0  0  0  0  0  0  0  0  0  0  0
  148.8159  138.8699  154.3712 C   0  0  2  0  0  0  0  0  0  0  0  0
  148.4396  140.2179  153.7253 C   0  0  0  0  0  0  0  0  0  0  0  0
  147.0229  140.0632  153.1602 C   0  0  0  0  0  0  0  0  0  0  0  0
  146.7234  138.5632  153.1986 C   0  0  0  0  0  0  0  0  0  0  0  0
  147.5210  138.0107  154.3895 C   0  0  2  0  0  0  0  0  0  0  0  0
  146.6924  138.0924  155.6900 C   0  0  0  0  0  0  0  0  0  0  0  0
  146.2531  139.3006  156.0512 N   0  0  0  0  0  0  0  0  0  0  0  0
  146.4446  137.0864  156.3529 O   0  0  0  0  0  0  0  0  0  0  0  0
  150.5341  142.2075  157.2125 C   0  0  0  0  0  0  0  0  0  0  0  0
  150.6949  143.4786  157.6407 N   0  3  0  0  0  0  0  0  0  0  0  0
  152.6260  145.5051  159.4394 H   0  0  0  0  0  0  0  0  0  0  0  0
  150.8922  145.5079  159.7860 H   0  0  0  0  0  0  0  0  0  0  0  0
  151.4749  145.9268  158.1693 H   0  0  0  0  0  0  0  0  0  0  0  0
  153.0067  143.0718  160.0562 H   0  0  0  0  0  0  0  0  0  0  0  0
  152.7615  140.7000  159.3204 H   0  0  0  0  0  0  0  0  0  0  0  0
  152.0431  139.1907  157.4530 H   0  0  0  0  0  0  0  0  0  0  0  0
  150.3712  139.2247  157.9777 H   0  0  0  0  0  0  0  0  0  0  0  0
  148.9322  138.7413  156.4836 H   0  0  0  0  0  0  0  0  0  0  0  0
  149.5359  138.3798  153.7127 H   0  0  0  0  0  0  0  0  0  0  0  0
  148.4646  141.0397  154.4426 H   0  0  0  0  0  0  0  0  0  0  0  0
  149.1473  140.4645  152.9331 H   0  0  0  0  0  0  0  0  0  0  0  0
  146.3145  140.5984  153.7936 H   0  0  0  0  0  0  0  0  0  0  0  0
  146.9316  140.4736  152.1542 H   0  0  0  0  0  0  0  0  0  0  0  0
  145.6527  138.3625  153.2638 H   0  0  0  0  0  0  0  0  0  0  0  0
  147.0799  138.0964  152.2795 H   0  0  0  0  0  0  0  0  0  0  0  0
  147.7734  136.9637  154.2118 H   0  0  0  0  0  0  0  0  0  0  0  0
  145.6979  139.4063  156.8881 H   0  0  0  0  0  0  0  0  0  0  0  0
  146.4697  140.1039  155.4790 H   0  0  0  0  0  0  0  0  0  0  0  0
  149.8166  142.0643  156.4173 H   0  0  0  0  0  0  0  0  0  0  0  0
  150.1445  144.2147  157.1981 H   0  0  0  0  0  0  0  0  0  0  0  0
  1  2  1  0  0  0  0
  1 20  1  0  0  0  0
  1 21  1  0  0  0  0
  1 22  1  0  0  0  0
  2 19  1  0  0  0  0
  2  3  2  0  0  0  0
  3  4  1  0  0  0  0
  3 23  1  0  0  0  0
  4  5  2  0  0  0  0
  4 24  1  0  0  0  0
  5  6  1  0  0  0  0
  5 18  1  0  0  0  0
  6  7  1  0  0  0  0
  6 25  1  0  0  0  0
  6 26  1  0  0  0  0
  7  8  2  0  0  0  0
  7  9  1  0  0  0  0
  9 10  1  0  0  0  0
  9 27  1  0  0  0  0
 10 14  1  0  0  0  0
 10 11  1  0  0  0  0
 10 28  1  0  0  0  0
 11 12  1  0  0  0  0
 11 29  1  0  0  0  0
 11 30  1  0  0  0  0
 12 13  1  0  0  0  0
 12 31  1  0  0  0  0
 12 32  1  0  0  0  0
 13 14  1  0  0  0  0
 13 33  1  0  0  0  0
 13 34  1  0  0  0  0
 14 15  1  0  0  0  0
 14 35  1  0  0  0  0
 15 16  1  0  0  0  0
 15 17  2  0  0  0  0
 16 36  1  0  0  0  0
 16 37  1  0  0  0  0
 18 19  2  0  0  0  0
 18 38  1  0  0  0  0
 19 39  1  0  0  0  0
M  CHG  1  19   1
M  END
> <s_m_source_file>
AV-unprocessed.smi

> <i_m_source_file_index>
651

> <i_lp_mmshare_version>
43012

> <i_f3d_flags>
0

> <s_epik_input>
W0NIM11jMVtjSF1bY0hdYyhbY0hdbjEpW0NIMl1DKD1PKVtOSF1bQ0BASF0yW0NIMl1bQ0gyXVtDSDJdW0NASF0yQyg9TylbTkgyXQ==

> <s_epik_cmdline>
J2VwaWtfcHl0aG9uJywgJy1waCcsICc3LjAnLCAnLXRuJywgJzgnLCAnLW1hJywgJzIwMCcsICctbWV0YWxfYmluZGluZycsICctaW1hZScsICc8aW5maWxlLm1hZT4nLCAnLW9tYWUnLCAnPG91dGZpbGUubWFlPic=

> <r_epik_Ionization_Penalty>
2.14971

> <r_epik_Ionization_Penalty_Charging>
2.14971

> <r_epik_Ionization_Penalty_Neutral>
1.65229e-07

> <r_epik_State_Penalty>
2.28946

> <r_epik_Charging_Adjusted_Penalty>
4.43917

> <i_epik_Tot_Q>
1

> <i_epik_Tot_abs_Q>
1

> <r_epik_Metal_State_Penalty>
2.30508

> <b_epik_Metal_Only>
0

> <s_lp_Force_Field>
OPLS_2005

> <r_lp_Energy>
19.6238

> <b_lp_Chiralities_Consistent>
1

> <s_lp_Variant>
AV-unprocessed.smi:651-7

> <Gold.Version>
5.8.1

> <Gold.Id.Protein>
6NUR|6NUR_protein|mol2

> <Gold.PLP.Fitness>
38.6766

> <Gold.PLP.PLP>
-30.9161

> <Gold.PLP.part.hbond>
-2.0000

> <Gold.PLP.part.metal>
0.0000

> <Gold.PLP.part.buried>
-1.6719

> <Gold.PLP.part.nonpolar>
-28.5764

> <Gold.PLP.part.repulsive>
0.0700

> <Gold.PLP.ligand.clash>
0.0000

> <Gold.PLP.ligand.torsion>
0.4359

> <Gold.PLP.Chemscore.Hbond>
2.8715

> <Gold.PLP.Chemscore.CHOScore>
0.0000

> <Gold.PLP.Chemscore.Metal>
0.0000

> <Gold.Chemscore.Hbonds>
donor molecule, donor type, donor heavy atom, donor atom, acceptor molecule, acceptor atom, score
      L1  H    19    39       P1  8028  1.92
      P1  H  7989  7998       L1     8  1.00

> <Gold.PLP.Chemscore.Internal.Correction>
0.0178

> <Gold.Rescore>
     Score         DG    S(hbond)    S(metal)    S(lipo)     H(rot)  DE(clash)    DE(int)     intcor
     15.85     -17.18       1.94        0.00      89.20       2.04       0.78       0.55       ----

> <Gold.Chemscore.Fitness>
15.8508

> <Gold.Chemscore.DG>
-17.1847

> <Gold.Chemscore.ZeroCoef>
-5.4800

> <Gold.Chemscore.Hbond>
1.9423

> <Gold.Chemscore.Metal>
0.0000

> <Gold.Chemscore.Lipo>
89.1985

> <Gold.Chemscore.Internal_Hbond>
0.0000

> <Gold.Chemscore.DEClash>
0.7848

> <Gold.Chemscore.DEInternal>
0.5491

> <Gold.Chemscore.Rot>
2.0386

> <Gold.Chemscore.Internal.Correction>
   9.000000E+99

> <Gold.Chemscore.Hbonds>
donor molecule, donor type, donor heavy atom, donor atom, acceptor molecule, acceptor atom, score
      L1  H    19    39       P1  8028  0.68
      P1  H  7989  7998       L1     8  0.99

> <Gold.Chemscore.Hbond.Weighted>
-6.4872

> <Gold.Chemscore.Metal.Weighted>
-0.0000

> <Gold.Chemscore.Lipo.Weighted>
-10.4362

> <Gold.Chemscore.Internal_Hbond.Weighted>
0.0000

> <Gold.Chemscore.DEClash.Weighted>
0.7848

> <Gold.Chemscore.DEInternal.Weighted>
0.5491

> <Gold.Chemscore.Rot.Weighted>
5.2188

> <Gold.Chemscore.Internal.Correction.Weighted>
   9.000000E+99

> <Gold.Protein.RotatedTorsions>
[ 6907 6896 6895 6894 ] final  179.39 input  -60.11 | X-H torsion
[ 7974 7965 7964 7962 ] final   11.68 input  175.53 | X-H torsion
[ 8008 7997 7996 7995 ] final -120.50 input   59.86 | X-H torsion
[ 10167 10162 10161 10158 ] final  -91.59 input  -65.29 | X-H torsion
[ 10718 10713 10712 10709 ] final   58.09 input   66.30 | X-H torsion
[ 10763 10752 10751 10750 ] final   29.60 input  -60.55 | X-H torsion
[ 11005 11000 10999 10996 ] final  -33.15 input  -57.11 | X-H torsion

> <Gold.Protein.ActiveResidues>
 VAL166  LYS551  ARG553  GLY616  TRP617  ASP618  TYR619  PRO620  LYS621  CYS622 
 ASP623  PHE694  ASN695  SER759  ASP760  ASP761  ALA762  ILE779  LEU786  VAL792 
 PHE793  MET794  SER795  GLU796  ALA797  LYS798  CYS799  TRP800  GLU811  SER814 

> <Gold.Protein.RotatedAtoms>
  151.6725  133.3313  159.3199 H   0  0  0  0  0  0  0  0  0  0  0  0  # atno 6907 bound_to 6896
  150.7861  134.6850  159.6474 H   0  0  0  0  0  0  0  0  0  0  0  0  # atno 6908 bound_to 6896
  152.3931  134.6413  160.0152 H   0  0  0  0  0  0  0  0  0  0  0  0  # atno 6909 bound_to 6896
  146.2366  139.9450  142.8478 H   0  0  0  0  0  0  0  0  0  0  0  0  # atno 7974 bound_to 7965
  155.1329  140.0400  157.2779 H   0  0  0  0  0  0  0  0  0  0  0  0  # atno 8008 bound_to 7997
  154.6530  140.2573  155.7167 H   0  0  0  0  0  0  0  0  0  0  0  0  # atno 8009 bound_to 7997
  156.2585  140.2832  156.0971 H   0  0  0  0  0  0  0  0  0  0  0  0  # atno 8010 bound_to 7997
  140.3434  143.2930  151.9809 H   0  0  0  0  0  0  0  0  0  0  0  0  # atno 10167 bound_to 10162
  157.5568  130.8806  149.9048 H   0  0  0  0  0  0  0  0  0  0  0  0  # atno 10718 bound_to 10713
  153.0421  135.6485  154.0915 H   0  0  0  0  0  0  0  0  0  0  0  0  # atno 10763 bound_to 10752
  154.0620  135.2887  155.3325 H   0  0  0  0  0  0  0  0  0  0  0  0  # atno 10764 bound_to 10752
  154.6651  135.5377  153.8132 H   0  0  0  0  0  0  0  0  0  0  0  0  # atno 10765 bound_to 10752
  140.9611  133.7164  156.1371 H   0  0  0  0  0  0  0  0  0  0  0  0  # atno 11005 bound_to 11000
  145.1916  140.9814  143.4207 LP  0  0  0  0  0  0  0  0  0  0  0  0  # atno 17320 bound_to 7965
  144.9852  139.3744  143.6242 LP  0  0  0  0  0  0  0  0  0  0  0  0  # atno 17321 bound_to 7965
  139.4837  144.6138  151.7385 LP  0  0  0  0  0  0  0  0  0  0  0  0  # atno 17342 bound_to 10162
  140.5288  144.0764  150.6046 LP  0  0  0  0  0  0  0  0  0  0  0  0  # atno 17343 bound_to 10162
  156.0626  130.3697  150.0949 LP  0  0  0  0  0  0  0  0  0  0  0  0  # atno 17370 bound_to 10713
  156.9116  130.9654  151.3562 LP  0  0  0  0  0  0  0  0  0  0  0  0  # atno 17371 bound_to 10713
  140.7465  134.4092  157.5547 LP  0  0  0  0  0  0  0  0  0  0  0  0  # atno 17394 bound_to 11000
  139.8878  134.8872  156.2506 LP  0  0  0  0  0  0  0  0  0  0  0  0  # atno 17395 bound_to 11000

$$$$
