AV-unprocessed.smi:2623|AV-procd|sdf|10231|dock6
  -GOLD-   2272014233D 1   1.00000     0.00000
 Structure written by MMmdl.
 41 43  0  0  0  0  0  0  0  0  2 V2000
  149.8551  140.1405  153.9863 O   0  0  0  0  0  0  0  0  0  0  0  0
  149.1144  140.8126  154.9802 C   0  0  0  0  0  0  0  0  0  0  0  0
  149.9689  141.2526  156.1225 C   0  0  0  0  0  0  0  0  0  0  0  0
  150.3583  142.5323  156.3819 N   0  3  0  0  0  0  0  0  0  0  0  0
  151.1613  142.5600  157.5228 C   0  0  0  0  0  0  0  0  0  0  0  0
  151.7871  143.6210  158.1703 C   0  0  0  0  0  0  0  0  0  0  0  0
  152.5399  143.3051  159.3201 C   0  0  0  0  0  0  0  0  0  0  0  0
  152.6478  141.9785  159.7854 C   0  0  0  0  0  0  0  0  0  0  0  0
  152.0088  140.9111  159.1207 C   0  0  0  0  0  0  0  0  0  0  0  0
  151.2675  141.2310  157.9830 C   0  0  0  0  0  0  0  0  0  0  0  0
  150.5157  140.4596  157.0881 N   0  0  0  0  0  0  0  0  0  0  0  0
  150.4224  139.0027  157.2750 C   0  0  0  0  0  0  0  0  0  0  0  0
  149.9893  138.6091  158.7013 C   0  0  2  0  0  0  0  0  0  0  0  0
  151.0794  138.0419  159.3994 O   0  0  0  0  0  0  0  0  0  0  0  0
  148.8277  137.6048  158.7052 C   0  0  0  0  0  0  0  0  0  0  0  0
  148.2415  137.5881  160.0001 O   0  0  0  0  0  0  0  0  0  0  0  0
  147.9524  136.3672  160.5705 C   0  0  0  0  0  0  0  0  0  0  0  0
  147.6086  136.3660  161.9385 C   0  0  0  0  0  0  0  0  0  0  0  0
  147.2972  135.1641  162.6026 C   0  0  0  0  0  0  0  0  0  0  0  0
  147.3277  133.9447  161.9012 C   0  0  0  0  0  0  0  0  0  0  0  0
  147.6704  133.9309  160.5364 C   0  0  0  0  0  0  0  0  0  0  0  0
  147.9814  135.1334  159.8719 C   0  0  0  0  0  0  0  0  0  0  0  0
  149.3946  140.2167  153.1644 H   0  0  0  0  0  0  0  0  0  0  0  0
  148.6274  141.6808  154.5359 H   0  0  0  0  0  0  0  0  0  0  0  0
  148.3256  140.1541  155.3437 H   0  0  0  0  0  0  0  0  0  0  0  0
  151.7052  144.6383  157.8163 H   0  0  0  0  0  0  0  0  0  0  0  0
  153.0442  144.0959  159.8566 H   0  0  0  0  0  0  0  0  0  0  0  0
  153.2323  141.7748  160.6711 H   0  0  0  0  0  0  0  0  0  0  0  0
  152.0958  139.9000  159.4898 H   0  0  0  0  0  0  0  0  0  0  0  0
  149.6961  138.6338  156.5498 H   0  0  0  0  0  0  0  0  0  0  0  0
  151.3725  138.5404  157.0065 H   0  0  0  0  0  0  0  0  0  0  0  0
  149.6829  139.5001  159.2505 H   0  0  0  0  0  0  0  0  0  0  0  0
  151.6225  138.7431  159.7251 H   0  0  0  0  0  0  0  0  0  0  0  0
  148.0905  137.8796  157.9485 H   0  0  0  0  0  0  0  0  0  0  0  0
  149.2044  136.6085  158.4665 H   0  0  0  0  0  0  0  0  0  0  0  0
  147.5826  137.2972  162.4854 H   0  0  0  0  0  0  0  0  0  0  0  0
  147.0352  135.1782  163.6503 H   0  0  0  0  0  0  0  0  0  0  0  0
  147.0887  133.0217  162.4089 H   0  0  0  0  0  0  0  0  0  0  0  0
  147.6952  132.9956  159.9971 H   0  0  0  0  0  0  0  0  0  0  0  0
  148.2402  135.0814  158.8252 H   0  0  0  0  0  0  0  0  0  0  0  0
  150.0956  143.3268  155.8128 H   0  0  0  0  0  0  0  0  0  0  0  0
  1  2  1  0  0  0  0
  1 23  1  0  0  0  0
  2  3  1  0  0  0  0
  2 24  1  0  0  0  0
  2 25  1  0  0  0  0
  3 11  1  0  0  0  0
  3  4  2  0  0  0  0
  4  5  1  0  0  0  0
  4 41  1  0  0  0  0
  5 10  2  0  0  0  0
  5  6  1  0  0  0  0
  6  7  2  0  0  0  0
  6 26  1  0  0  0  0
  7  8  1  0  0  0  0
  7 27  1  0  0  0  0
  8  9  2  0  0  0  0
  8 28  1  0  0  0  0
  9 10  1  0  0  0  0
  9 29  1  0  0  0  0
 10 11  1  0  0  0  0
 11 12  1  0  0  0  0
 12 13  1  0  0  0  0
 12 30  1  0  0  0  0
 12 31  1  0  0  0  0
 13 14  1  0  0  0  0
 13 15  1  0  0  0  0
 13 32  1  0  0  0  0
 14 33  1  0  0  0  0
 15 16  1  0  0  0  0
 15 34  1  0  0  0  0
 15 35  1  0  0  0  0
 16 17  1  0  0  0  0
 17 22  1  0  0  0  0
 17 18  2  0  0  0  0
 18 19  1  0  0  0  0
 18 36  1  0  0  0  0
 19 20  2  0  0  0  0
 19 37  1  0  0  0  0
 20 21  1  0  0  0  0
 20 38  1  0  0  0  0
 21 22  2  0  0  0  0
 21 39  1  0  0  0  0
 22 40  1  0  0  0  0
M  CHG  1   4   1
M  END
> <s_m_source_file>
AV-unprocessed.smi

> <i_m_source_file_index>
2623

> <i_lp_mmshare_version>
43012

> <i_f3d_flags>
0

> <s_epik_input>
W2NIXTFbY0hdW2NIXVtjSF1jKGMxMiluKGMobjIpW0NIMl1bT0hdKVtDSDJdW0NASF0oW09IXSlbQ0gyXU9jM1tjSF1bY0hdW2NIXVtjSF1bY0hdMw==

> <s_epik_cmdline>
J2VwaWtfcHl0aG9uJywgJy1waCcsICc3LjAnLCAnLXRuJywgJzgnLCAnLW1hJywgJzIwMCcsICctbWV0YWxfYmluZGluZycsICctaW1hZScsICc8aW5maWxlLm1hZT4nLCAnLW9tYWUnLCAnPG91dGZpbGUubWFlPic=

> <r_lp_tautomer_probability>
1

> <r_epik_Ionization_Penalty>
1.40416

> <r_epik_Ionization_Penalty_Charging>
1.4033

> <r_epik_Ionization_Penalty_Neutral>
0.000858184

> <r_epik_State_Penalty>
1.48564

> <r_epik_Charging_Adjusted_Penalty>
2.88894

> <i_epik_Tot_Q>
1

> <i_epik_Tot_abs_Q>
1

> <r_epik_Metal_State_Penalty>
5.52809

> <b_epik_Metal_Only>
0

> <s_lp_Force_Field>
OPLS_2005

> <r_lp_Energy>
17.9205

> <b_lp_Chiralities_Consistent>
1

> <s_lp_Variant>
AV-unprocessed.smi:2623-3

> <Gold.Version>
5.8.1

> <Gold.Id.Protein>
6NUR|6NUR_protein|mol2

> <Gold.PLP.Fitness>
57.9789

> <Gold.PLP.PLP>
-48.3492

> <Gold.PLP.part.hbond>
-5.1541

> <Gold.PLP.part.metal>
0.0000

> <Gold.PLP.part.buried>
-6.6988

> <Gold.PLP.part.nonpolar>
-38.0754

> <Gold.PLP.part.repulsive>
0.0830

> <Gold.PLP.ligand.clash>
0.0000

> <Gold.PLP.ligand.torsion>
1.4751

> <Gold.PLP.Chemscore.Hbond>
4.1536

> <Gold.PLP.Chemscore.CHOScore>
0.0000

> <Gold.PLP.Chemscore.Metal>
0.0000

> <Gold.Chemscore.Hbonds>
donor molecule, donor type, donor heavy atom, donor atom, acceptor molecule, acceptor atom, score
      L1  H     1    23       P1  7957  0.86
      L1  H     4    41       P1  8028  1.79
      P1  H  6931  6943       L1    16  0.15
      P1  H  6934  6947       L1    16  0.51
      P1  H  7989  7998       L1     1  0.82

> <Gold.PLP.Chemscore.Internal.Correction>
0.1192

> <Gold.Rescore>
     Score         DG    S(hbond)    S(metal)    S(lipo)     H(rot)  DE(clash)    DE(int)     intcor
     18.07     -19.75       2.57        0.00     117.16       3.13       0.16       1.53       ----

> <Gold.Chemscore.Fitness>
18.0654

> <Gold.Chemscore.DG>
-19.7528

> <Gold.Chemscore.ZeroCoef>
-5.4800

> <Gold.Chemscore.Hbond>
2.5686

> <Gold.Chemscore.Metal>
0.0000

> <Gold.Chemscore.Lipo>
117.1610

> <Gold.Chemscore.Internal_Hbond>
0.0000

> <Gold.Chemscore.DEClash>
0.1596

> <Gold.Chemscore.DEInternal>
1.5277

> <Gold.Chemscore.Rot>
3.1305

> <Gold.Chemscore.Internal.Correction>
   9.000000E+99

> <Gold.Chemscore.Hbonds>
donor molecule, donor type, donor heavy atom, donor atom, acceptor molecule, acceptor atom, score
      L1  H     1    23       P1  7957  0.79
      L1  H     4    41       P1  8028  0.86
      P1  H  6931  6943       L1    16  0.01
      P1  H  6934  6947       L1    16  0.38
      P1  H  7989  7998       L1     1  0.20

> <Gold.Chemscore.Hbond.Weighted>
-8.5791

> <Gold.Chemscore.Metal.Weighted>
-0.0000

> <Gold.Chemscore.Lipo.Weighted>
-13.7078

> <Gold.Chemscore.Internal_Hbond.Weighted>
0.0000

> <Gold.Chemscore.DEClash.Weighted>
0.1596

> <Gold.Chemscore.DEInternal.Weighted>
1.5277

> <Gold.Chemscore.Rot.Weighted>
8.0141

> <Gold.Chemscore.Internal.Correction.Weighted>
   9.000000E+99

> <Gold.Protein.RotatedTorsions>
[ 6907 6896 6895 6894 ] final   86.86 input  -60.11 | X-H torsion
[ 7974 7965 7964 7962 ] final -123.76 input  175.53 | X-H torsion
[ 8008 7997 7996 7995 ] final  -10.14 input   59.86 | X-H torsion
[ 10167 10162 10161 10158 ] final  -60.84 input  -65.29 | X-H torsion
[ 10718 10713 10712 10709 ] final  155.62 input   66.30 | X-H torsion
[ 10763 10752 10751 10750 ] final  -43.30 input  -60.55 | X-H torsion
[ 11005 11000 10999 10996 ] final   40.86 input  -57.11 | X-H torsion

> <Gold.Protein.ActiveResidues>
 VAL166  LYS551  ARG553  GLY616  TRP617  ASP618  TYR619  PRO620  LYS621  CYS622 
 ASP623  PHE694  ASN695  SER759  ASP760  ASP761  ALA762  ILE779  LEU786  VAL792 
 PHE793  MET794  SER795  GLU796  ALA797  LYS798  CYS799  TRP800  GLU811  SER814 

> <Gold.Protein.RotatedAtoms>
  152.5402  134.2365  159.8845 H   0  0  0  0  0  0  0  0  0  0  0  0  # atno 6907 bound_to 6896
  151.2335  133.4431  159.2612 H   0  0  0  0  0  0  0  0  0  0  0  0  # atno 6908 bound_to 6896
  151.0693  134.9802  159.8356 H   0  0  0  0  0  0  0  0  0  0  0  0  # atno 6909 bound_to 6896
  145.0153  140.7941  143.4414 H   0  0  0  0  0  0  0  0  0  0  0  0  # atno 7974 bound_to 7965
  154.5581  140.2336  155.8378 H   0  0  0  0  0  0  0  0  0  0  0  0  # atno 8008 bound_to 7997
  156.2006  140.3053  155.9479 H   0  0  0  0  0  0  0  0  0  0  0  0  # atno 8009 bound_to 7997
  155.2940  140.0428  157.3015 H   0  0  0  0  0  0  0  0  0  0  0  0  # atno 8010 bound_to 7997
  140.6045  143.2370  151.5853 H   0  0  0  0  0  0  0  0  0  0  0  0  # atno 10167 bound_to 10162
  157.2159  131.0708  151.1942 H   0  0  0  0  0  0  0  0  0  0  0  0  # atno 10718 bound_to 10713
  153.9933  135.6702  153.4755 H   0  0  0  0  0  0  0  0  0  0  0  0  # atno 10763 bound_to 10752
  153.0695  135.4982  154.8270 H   0  0  0  0  0  0  0  0  0  0  0  0  # atno 10764 bound_to 10752
  154.7096  135.3095  154.9180 H   0  0  0  0  0  0  0  0  0  0  0  0  # atno 10765 bound_to 10752
  140.1889  134.4011  155.8157 H   0  0  0  0  0  0  0  0  0  0  0  0  # atno 11005 bound_to 11000
  145.1968  139.2272  143.5213 LP  0  0  0  0  0  0  0  0  0  0  0  0  # atno 17320 bound_to 7965
  146.3477  140.1777  142.8589 LP  0  0  0  0  0  0  0  0  0  0  0  0  # atno 17321 bound_to 7965
  139.5315  144.2903  152.1157 LP  0  0  0  0  0  0  0  0  0  0  0  0  # atno 17342 bound_to 10162
  140.2090  144.4581  150.6394 LP  0  0  0  0  0  0  0  0  0  0  0  0  # atno 17343 bound_to 10162
  157.3625  130.7139  149.6511 LP  0  0  0  0  0  0  0  0  0  0  0  0  # atno 17370 bound_to 10713
  155.9686  130.4221  150.4502 LP  0  0  0  0  0  0  0  0  0  0  0  0  # atno 17371 bound_to 10713
  141.2226  133.7037  156.8061 LP  0  0  0  0  0  0  0  0  0  0  0  0  # atno 17394 bound_to 11000
  140.2182  134.8777  157.3348 LP  0  0  0  0  0  0  0  0  0  0  0  0  # atno 17395 bound_to 11000

$$$$
