#       Name:                AV-unprocessed.smi:573
#       Creating user name   scv26
#       Creation time:       Thu Mar 26 23:47:22 2020


#       File generated by GOLD software.
#

@<TRIPOS>MOLECULE
AV-unprocessed.smi:573
    49    51     1
SMALL
NO_CHARGES


@<TRIPOS>ATOM
      1 ****        -4.7493   0.4076  -1.7969 C.3            1 S1                 0.0000
      2 ****        -3.3348   0.1864  -1.2459 C.3            1 S1                 0.0000
      3 ****        -3.3010   0.7418   0.0530 O.3            1 S1                 0.0000
      4 ****        -2.9805  -1.3113  -1.1773 C.3            1 S1                 0.0000
      5 ****        -1.5463  -1.5409  -1.0703 N.pl3          1 S1                 0.0000
      6 ****        -0.9404  -1.4994   0.1911 C.cat          1 S1                 0.0000
      7 ****        -1.5716  -1.6256   1.3889 N.pl3          1 S1                 1.0000
      8 ****        -0.6183  -1.5067   2.4035 C.ar           1 S1                 0.0000
      9 ****        -0.7567  -1.5555   3.7871 C.ar           1 S1                 0.0000
     10 ****         0.4191  -1.3893   4.5477 C.ar           1 S1                 0.0000
     11 ****         1.6700  -1.1815   3.9314 C.ar           1 S1                 0.0000
     12 ****         1.8014  -1.1335   2.5279 C.ar           1 S1                 0.0000
     13 ****         0.6366  -1.3040   1.7796 C.ar           1 S1                 0.0000
     14 ****         0.3883  -1.3171   0.4001 N.pl3          1 S1                 0.0000
     15 ****         1.4901  -1.1241  -0.5534 C.3            1 S1                 0.0000
     16 ****         1.6129   0.3409  -1.0029 C.3            1 S1                 0.0000
     17 ****         2.7936   0.5514  -1.9694 C.3            1 S1                 0.0000
     18 ****         2.9174   2.0307  -2.3513 C.3            1 S1                 0.0000
     19 ****         2.9799   2.8888  -1.0830 C.3            1 S1                 0.0000
     20 ****         1.7991   2.5602  -0.1552 C.3            1 S1                 0.0000
     21 ****         1.7904   1.1681   0.1459 O.3            1 S1                 0.0000
     22 ****        -4.8374   0.0227  -2.8131 H              1 S1                 0.0000
     23 ****        -4.9998   1.4687  -1.8255 H              1 S1                 0.0000
     24 ****        -5.4986  -0.0961  -1.1849 H              1 S1                 0.0000
     25 ****        -2.6230   0.7176  -1.8795 H              1 S1                 0.0000
     26 ****        -2.4076   0.7292   0.3608 H              1 S1                 0.0000
     27 ****        -3.5282  -1.8134  -0.3787 H              1 S1                 0.0000
     28 ****        -3.2957  -1.7920  -2.1037 H              1 S1                 0.0000
     29 ****        -0.9758  -1.3813  -1.8885 H              1 S1                 0.0000
     30 ****        -1.7144  -1.7105   4.2625 H              1 S1                 0.0000
     31 ****         0.3596  -1.4188   5.6261 H              1 S1                 0.0000
     32 ****         2.5482  -1.0548   4.5480 H              1 S1                 0.0000
     33 ****         2.7646  -0.9664   2.0692 H              1 S1                 0.0000
     34 ****         2.4188  -1.4804  -0.1079 H              1 S1                 0.0000
     35 ****         1.2969  -1.7665  -1.4131 H              1 S1                 0.0000
     36 ****         0.6841   0.6271  -1.5002 H              1 S1                 0.0000
     37 ****         3.7191   0.2183  -1.4975 H              1 S1                 0.0000
     38 ****         2.6633  -0.0551  -2.8661 H              1 S1                 0.0000
     39 ****         3.8039   2.1928  -2.9650 H              1 S1                 0.0000
     40 ****         2.0585   2.3278  -2.9544 H              1 S1                 0.0000
     41 ****         3.9178   2.7005  -0.5589 H              1 S1                 0.0000
     42 ****         2.9734   3.9476  -1.3433 H              1 S1                 0.0000
     43 ****         1.8867   3.1206   0.7757 H              1 S1                 0.0000
     44 ****         0.8514   2.8500  -0.6120 H              1 S1                 0.0000
     45 ****        -2.5664  -1.7725   1.5011 H              1 S1                 0.0000
     46 ****        -3.8768   0.2011   0.6662 LP             1 S1                 0.0000
     47 ****        -3.6353   1.6838   0.0260 LP             1 S1                 0.0000
     48 ****         2.6619   0.9312   0.5754 LP             1 S1                 0.0000
     49 ****         1.0434   0.9868   0.7855 LP             1 S1                 0.0000
@<TRIPOS>BOND
    1    1    2 1     
    2    1   22 1     
    3    1   23 1     
    4    1   24 1     
    5    2    3 1     
    6    2    4 1     
    7    2   25 1     
    8    3   26 1     
    9    4    5 1     
   10    4   27 1     
   11    4   28 1     
   12    5    6 ar    
   13    5   29 1     
   14    6   14 ar    
   15    6    7 ar    
   16    7    8 1     
   17    7   45 1     
   18    8   13 ar    
   19    8    9 ar    
   20    9   10 ar    
   21    9   30 1     
   22   10   11 ar    
   23   10   31 1     
   24   11   12 ar    
   25   11   32 1     
   26   12   13 ar    
   27   12   33 1     
   28   13   14 1     
   29   14   15 1     
   30   15   16 1     
   31   15   34 1     
   32   15   35 1     
   33   16   21 1     
   34   16   17 1     
   35   16   36 1     
   36   17   18 1     
   37   17   37 1     
   38   17   38 1     
   39   18   19 1     
   40   18   39 1     
   41   18   40 1     
   42   19   20 1     
   43   19   41 1     
   44   19   42 1     
   45   20   21 1     
   46   20   43 1     
   47   20   44 1     
   48    3   46 1     
   49    3   47 1     
   50   21   48 1     
   51   21   49 1     
@<TRIPOS>SUBSTRUCTURE
      1 S1             1
@<TRIPOS>SET
LONE_PAIRS      STATIC     ATOMS    <user>   **** ""
4 46 47 48 49
DONOR_HYDROGENS      STATIC     ATOMS    <user>   **** ""
3 26 29 45
ATOM$BLUE        STATIC     ATOMS    COLORGROUP SYSTEM
4 46 47 48 49
ATOM$RED        STATIC     ATOMS    COLORGROUP SYSTEM
3 26 29 45
