#       Name:                AV-unprocessed.smi:2976
#       Creating user name   scv26
#       Creation time:       Fri Mar 27 16:28:12 2020


#       File generated by GOLD software.
#

@<TRIPOS>MOLECULE
AV-unprocessed.smi:2976
    45    46     1
SMALL
NO_CHARGES


@<TRIPOS>ATOM
      1 ****        -3.7531  -2.0790  -2.0871 C.3            1 S1                 0.0000
      2 ****        -3.1586  -1.3281  -0.8808 C.3            1 S1                 0.0000
      3 ****        -3.6169  -2.0091   0.4245 C.3            1 S1                 0.0000
      4 ****        -3.0789  -1.2892   1.6659 C.3            1 S1                 0.0000
      5 ****        -1.5499  -1.2127   1.6242 C.3            1 S1                 0.0000
      6 ****        -1.0578  -0.5193   0.3414 C.3            1 S1                 0.0000
      7 ****         0.4053  -0.5217   0.3465 N.am           1 S1                 0.0000
      8 ****         1.1971   0.5611   0.3970 C.2            1 S1                 0.0000
      9 ****         0.7662   1.7143   0.4429 O.2            1 S1                 0.0000
     10 ****         2.7072   0.2785   0.3802 C.3            1 S1                 0.0000
     11 ****         3.5383   1.4899   0.4513 N.am           1 S1                 0.0000
     12 ****         3.9767   1.9434  -0.7806 N.2            1 S1                 0.0000
     13 ****         4.6976   3.0094  -0.8445 C.2            1 S1                 0.0000
     14 ****         5.0736   3.7571   0.3349 C.2            1 S1                 0.0000
     15 ****         6.0419   5.1811   0.1863 Cl             1 S1                 0.0000
     16 ****         4.6444   3.3003   1.5384 C.2            1 S1                 0.0000
     17 ****         5.0561   4.1398   2.9945 Cl             1 S1                 0.0000
     18 ****         3.8210   2.0882   1.6497 C.2            1 S1                 0.0000
     19 ****         3.4124   1.6415   2.7223 O.2            1 S1                 0.0000
     20 ****        -1.6086  -1.2070  -0.9383 C.3            1 S1                 0.0000
     21 ****        -1.1344  -0.4722  -2.2117 C.3            1 S1                 0.0000
     22 ****        -3.3065  -3.0676  -2.1978 H              1 S1                 0.0000
     23 ****        -3.6052  -1.5355  -3.0196 H              1 S1                 0.0000
     24 ****        -4.8290  -2.2139  -1.9718 H              1 S1                 0.0000
     25 ****        -3.5752  -0.3196  -0.8874 H              1 S1                 0.0000
     26 ****        -4.7065  -2.0331   0.4693 H              1 S1                 0.0000
     27 ****        -3.2858  -3.0486   0.4347 H              1 S1                 0.0000
     28 ****        -3.4981  -0.2837   1.7214 H              1 S1                 0.0000
     29 ****        -3.4009  -1.8110   2.5675 H              1 S1                 0.0000
     30 ****        -1.1873  -0.6764   2.5022 H              1 S1                 0.0000
     31 ****        -1.1353  -2.2202   1.6844 H              1 S1                 0.0000
     32 ****        -1.4316   0.5063   0.3562 H              1 S1                 0.0000
     33 ****         0.8523  -1.4262   0.3061 H              1 S1                 0.0000
     34 ****         2.9505  -0.3964   1.2029 H              1 S1                 0.0000
     35 ****         2.9390  -0.2782  -0.5298 H              1 S1                 0.0000
     36 ****         5.0632   3.4047  -1.7924 H              1 S1                 0.0000
     37 ****        -1.1990  -2.2181  -0.9732 H              1 S1                 0.0000
     38 ****        -1.5451   0.5367  -2.2608 H              1 S1                 0.0000
     39 ****        -1.4290  -0.9986  -3.1184 H              1 S1                 0.0000
     40 ****        -0.0487  -0.3873  -2.2519 H              1 S1                 0.0000
     41 ****        -0.2200   1.8799   0.4438 LP             1 S1                 0.0000
     42 ****         1.4026   2.4848   0.4793 LP             1 S1                 0.0000
     43 ****         3.7357   1.4475  -1.6148 LP             1 S1                 0.0000
     44 ****         2.8527   0.8130   2.7382 LP             1 S1                 0.0000
     45 ****         3.6403   2.1074   3.5773 LP             1 S1                 0.0000
@<TRIPOS>BOND
    1    1    2 1     
    2    1   22 1     
    3    1   23 1     
    4    1   24 1     
    5    2   20 1     
    6    2    3 1     
    7    2   25 1     
    8    3    4 1     
    9    3   26 1     
   10    3   27 1     
   11    4    5 1     
   12    4   28 1     
   13    4   29 1     
   14    5    6 1     
   15    5   30 1     
   16    5   31 1     
   17    6    7 1     
   18    6   20 1     
   19    6   32 1     
   20    7    8 am    
   21    7   33 1     
   22    8    9 2     
   23    8   10 1     
   24   10   11 1     
   25   10   34 1     
   26   10   35 1     
   27   11   18 am    
   28   11   12 1     
   29   12   13 2     
   30   13   14 1     
   31   13   36 1     
   32   14   15 1     
   33   14   16 2     
   34   16   17 1     
   35   16   18 1     
   36   18   19 2     
   37   20   21 1     
   38   20   37 1     
   39   21   38 1     
   40   21   39 1     
   41   21   40 1     
   42    9   41 1     
   43    9   42 1     
   44   12   43 1     
   45   19   44 1     
   46   19   45 1     
@<TRIPOS>SUBSTRUCTURE
      1 S1             1
@<TRIPOS>SET
LONE_PAIRS      STATIC     ATOMS    <user>   **** ""
5 41 42 43 44 45
DONOR_HYDROGENS      STATIC     ATOMS    <user>   **** ""
1 33
ATOM$BLUE        STATIC     ATOMS    COLORGROUP SYSTEM
5 41 42 43 44 45
ATOM$RED        STATIC     ATOMS    COLORGROUP SYSTEM
1 33
