AV-unprocessed.smi:3314|AV-procd|sdf|12738|dock1
  -GOLD-   2272019 83D 1   1.00000     0.00000
 Structure written by MMmdl.
 38 39  0  0  0  0  0  0  0  0  2 V2000
  151.7315  145.5925  159.8812 C   0  0  0  0  0  0  0  0  0  0  0  0
  152.0003  144.1106  159.7168 C   0  0  0  0  0  0  0  0  0  0  0  0
  152.7308  143.3779  160.7367 C   0  0  0  0  0  0  0  0  0  0  0  0
  152.9550  142.0632  160.5746 C   0  0  0  0  0  0  0  0  0  0  0  0
  153.7087  141.2194  161.5814 C   0  0  0  0  0  0  0  0  0  0  0  0
  152.4969  141.3958  159.4450 N   0  0  0  0  0  0  0  0  0  0  0  0
  151.7919  142.0346  158.4099 C   0  0  0  0  0  0  0  0  0  0  0  0
  151.3537  141.4610  157.3270 N   0  0  0  0  0  0  0  0  0  0  0  0
  151.5260  140.1035  157.0690 C   0  0  0  0  0  0  0  0  0  0  0  0
  151.4985  139.1528  157.8560 O   0  0  0  0  0  0  0  0  0  0  0  0
  151.7946  139.8400  155.5714 C   0  0  1  0  0  0  0  0  0  0  0  0
  151.9086  138.3462  155.1814 C   0  0  0  0  0  0  0  0  0  0  0  0
  150.5890  137.6727  155.2364 N   0  3  2  0  0  0  0  0  0  0  0  0
  150.6706  136.2313  154.9185 C   0  0  0  0  0  0  0  0  0  0  0  0
  149.5986  138.3866  154.3994 C   0  0  0  0  0  0  0  0  0  0  0  0
  149.5066  139.8616  154.8211 C   0  0  0  0  0  0  0  0  0  0  0  0
  150.7995  140.4618  154.7505 O   0  0  0  0  0  0  0  0  0  0  0  0
  151.5616  143.4565  158.6155 C   0  0  0  0  0  0  0  0  0  0  0  0
  152.1363  145.9655  160.8225 H   0  0  0  0  0  0  0  0  0  0  0  0
  150.6586  145.7867  159.8720 H   0  0  0  0  0  0  0  0  0  0  0  0
  152.1901  146.1539  159.0670 H   0  0  0  0  0  0  0  0  0  0  0  0
  153.0937  143.8854  161.6188 H   0  0  0  0  0  0  0  0  0  0  0  0
  154.7229  141.5994  161.7068 H   0  0  0  0  0  0  0  0  0  0  0  0
  153.7727  140.1775  161.2651 H   0  0  0  0  0  0  0  0  0  0  0  0
  153.2089  141.2513  162.5499 H   0  0  0  0  0  0  0  0  0  0  0  0
  152.7462  140.3211  155.3415 H   0  0  0  0  0  0  0  0  0  0  0  0
  152.3092  138.2653  154.1696 H   0  0  0  0  0  0  0  0  0  0  0  0
  152.6160  137.8314  155.8334 H   0  0  0  0  0  0  0  0  0  0  0  0
  151.0174  136.0732  153.8963 H   0  0  0  0  0  0  0  0  0  0  0  0
  149.6940  135.7581  155.0258 H   0  0  0  0  0  0  0  0  0  0  0  0
  151.3605  135.7273  155.5961 H   0  0  0  0  0  0  0  0  0  0  0  0
  149.8875  138.3161  153.3494 H   0  0  0  0  0  0  0  0  0  0  0  0
  148.6214  137.9124  154.4967 H   0  0  0  0  0  0  0  0  0  0  0  0
  148.8357  140.3998  154.1517 H   0  0  0  0  0  0  0  0  0  0  0  0
  149.0843  139.9545  155.8222 H   0  0  0  0  0  0  0  0  0  0  0  0
  151.0232  144.0342  157.8776 H   0  0  0  0  0  0  0  0  0  0  0  0
  152.7101  140.4097  159.3977 H   0  0  0  0  0  0  0  0  0  0  0  0
  150.2670  137.7410  156.1915 H   0  0  0  0  0  0  0  0  0  0  0  0
  1  2  1  0  0  0  0
  1 19  1  0  0  0  0
  1 20  1  0  0  0  0
  1 21  1  0  0  0  0
  2 18  2  0  0  0  0
  2  3  1  0  0  0  0
  3  4  2  0  0  0  0
  3 22  1  0  0  0  0
  4  5  1  0  0  0  0
  4  6  1  0  0  0  0
  5 23  1  0  0  0  0
  5 24  1  0  0  0  0
  5 25  1  0  0  0  0
  6  7  1  0  0  0  0
  6 37  1  0  0  0  0
  7  8  2  0  0  0  0
  7 18  1  0  0  0  0
  8  9  1  0  0  0  0
  9 10  2  0  0  0  0
  9 11  1  0  0  0  0
 11 17  1  0  0  0  0
 11 12  1  0  0  0  0
 11 26  1  0  0  0  0
 12 13  1  0  0  0  0
 12 27  1  0  0  0  0
 12 28  1  0  0  0  0
 13 14  1  0  0  0  0
 13 15  1  0  0  0  0
 13 38  1  0  0  0  0
 14 29  1  0  0  0  0
 14 30  1  0  0  0  0
 14 31  1  0  0  0  0
 15 16  1  0  0  0  0
 15 32  1  0  0  0  0
 15 33  1  0  0  0  0
 16 17  1  0  0  0  0
 16 34  1  0  0  0  0
 16 35  1  0  0  0  0
 18 36  1  0  0  0  0
M  CHG  1  13   1
M  END
> <s_m_source_file>
AV-unprocessed.smi

> <i_m_source_file_index>
3314

> <i_lp_mmshare_version>
43012

> <i_f3d_flags>
0

> <s_epik_input>
W0NIM11jMVtjSF1jKFtDSDNdKW5jKFtjSF0xKVtOSF1DKD1PKVtDQEBIXTJbQ0gyXU4oW0NIM10pW0NIMl1bQ0gyXU8y

> <s_epik_cmdline>
J2VwaWtfcHl0aG9uJywgJy1waCcsICc3LjAnLCAnLXRuJywgJzgnLCAnLW1hJywgJzIwMCcsICctbWV0YWxfYmluZGluZycsICctaW1hZScsICc8aW5maWxlLm1hZT4nLCAnLW9tYWUnLCAnPG91dGZpbGUubWFlPic=

> <r_epik_Ionization_Penalty>
0.519783

> <r_epik_Ionization_Penalty_Charging>
0.519783

> <r_epik_Ionization_Penalty_Neutral>
1.74183e-13

> <r_epik_State_Penalty>
2.39351

> <r_epik_Charging_Adjusted_Penalty>
2.91329

> <i_epik_Tot_Q>
1

> <i_epik_Tot_abs_Q>
1

> <r_epik_Metal_State_Penalty>
2.41924

> <b_epik_Metal_Only>
0

> <s_lp_Force_Field>
OPLS_2005

> <r_lp_Energy>
32.167

> <b_lp_Chiralities_Consistent>
1

> <s_lp_Variant>
AV-unprocessed.smi:3314-8

> <Gold.Version>
5.8.1

> <Gold.Id.Protein>
6NUR|6NUR_protein|mol2

> <Gold.PLP.Fitness>
41.8213

> <Gold.PLP.PLP>
-39.5032

> <Gold.PLP.part.hbond>
-0.8746

> <Gold.PLP.part.metal>
0.0000

> <Gold.PLP.part.buried>
-4.4405

> <Gold.PLP.part.nonpolar>
-34.5875

> <Gold.PLP.part.repulsive>
0.2838

> <Gold.PLP.ligand.clash>
0.0000

> <Gold.PLP.ligand.torsion>
0.3513

> <Gold.PLP.Chemscore.Hbond>
1.0000

> <Gold.PLP.Chemscore.CHOScore>
0.0000

> <Gold.PLP.Chemscore.Metal>
0.0000

> <Gold.Chemscore.Hbonds>
donor molecule, donor type, donor heavy atom, donor atom, acceptor molecule, acceptor atom, score
      P1  H  7989  7998       L1    17  1.00

> <Gold.PLP.Chemscore.Internal.Correction>
0.0208

> <Gold.Rescore>
     Score         DG    S(hbond)    S(metal)    S(lipo)     H(rot)  DE(clash)    DE(int)     intcor
     16.63     -18.24       0.98        0.00     103.03       1.00       0.02       1.59       ----

> <Gold.Chemscore.Fitness>
16.6327

> <Gold.Chemscore.DG>
-18.2380

> <Gold.Chemscore.ZeroCoef>
-5.4800

> <Gold.Chemscore.Hbond>
0.9772

> <Gold.Chemscore.Metal>
0.0000

> <Gold.Chemscore.Lipo>
103.0276

> <Gold.Chemscore.Internal_Hbond>
0.0000

> <Gold.Chemscore.DEClash>
0.0195

> <Gold.Chemscore.DEInternal>
1.5859

> <Gold.Chemscore.Rot>
1.0000

> <Gold.Chemscore.Internal.Correction>
   9.000000E+99

> <Gold.Chemscore.Hbonds>
donor molecule, donor type, donor heavy atom, donor atom, acceptor molecule, acceptor atom, score
      P1  H  7989  7998       L1    17  0.33

> <Gold.Chemscore.Hbond.Weighted>
-3.2638

> <Gold.Chemscore.Metal.Weighted>
-0.0000

> <Gold.Chemscore.Lipo.Weighted>
-12.0542

> <Gold.Chemscore.Internal_Hbond.Weighted>
0.0000

> <Gold.Chemscore.DEClash.Weighted>
0.0195

> <Gold.Chemscore.DEInternal.Weighted>
1.5859

> <Gold.Chemscore.Rot.Weighted>
2.5600

> <Gold.Chemscore.Internal.Correction.Weighted>
   9.000000E+99

> <Gold.Protein.RotatedTorsions>
[ 6907 6896 6895 6894 ] final -131.78 input  -60.11 | X-H torsion
[ 7974 7965 7964 7962 ] final   74.60 input  175.53 | X-H torsion
[ 8008 7997 7996 7995 ] final  144.94 input   59.86 | X-H torsion
[ 10167 10162 10161 10158 ] final   12.80 input  -65.29 | X-H torsion
[ 10718 10713 10712 10709 ] final  -49.16 input   66.30 | X-H torsion
[ 10763 10752 10751 10750 ] final  -95.66 input  -60.55 | X-H torsion
[ 11005 11000 10999 10996 ] final  -33.96 input  -57.11 | X-H torsion

> <Gold.Protein.ActiveResidues>
 VAL166  LYS551  ARG553  GLY616  TRP617  ASP618  TYR619  PRO620  LYS621  CYS622 
 ASP623  PHE694  ASN695  SER759  ASP760  ASP761  ALA762  ILE779  LEU786  VAL792 
 PHE793  MET794  SER795  GLU796  ALA797  LYS798  CYS799  TRP800  GLU811  SER814 

> <Gold.Protein.RotatedAtoms>
  150.9549  133.6509  159.2764 H   0  0  0  0  0  0  0  0  0  0  0  0  # atno 6907 bound_to 6896
  151.3852  135.0945  159.9518 H   0  0  0  0  0  0  0  0  0  0  0  0  # atno 6908 bound_to 6896
  152.5125  133.9075  159.7526 H   0  0  0  0  0  0  0  0  0  0  0  0  # atno 6909 bound_to 6896
  145.7262  139.2666  143.1568 H   0  0  0  0  0  0  0  0  0  0  0  0  # atno 7974 bound_to 7965
  156.2896  140.2222  156.5135 H   0  0  0  0  0  0  0  0  0  0  0  0  # atno 8008 bound_to 7997
  154.7589  140.0475  157.0978 H   0  0  0  0  0  0  0  0  0  0  0  0  # atno 8009 bound_to 7997
  155.0016  140.3102  155.4868 H   0  0  0  0  0  0  0  0  0  0  0  0  # atno 8010 bound_to 7997
  140.6044  143.8537  150.6999 H   0  0  0  0  0  0  0  0  0  0  0  0  # atno 10167 bound_to 10162
  156.1919  130.4153  149.9359 H   0  0  0  0  0  0  0  0  0  0  0  0  # atno 10718 bound_to 10713
  154.7168  135.5112  153.8750 H   0  0  0  0  0  0  0  0  0  0  0  0  # atno 10763 bound_to 10752
  153.0828  135.6636  154.0020 H   0  0  0  0  0  0  0  0  0  0  0  0  # atno 10764 bound_to 10752
  153.9851  135.3025  155.3396 H   0  0  0  0  0  0  0  0  0  0  0  0  # atno 10765 bound_to 10752
  140.9677  133.7127  156.1473 H   0  0  0  0  0  0  0  0  0  0  0  0  # atno 11005 bound_to 11000
  146.0580  140.8000  142.9749 LP  0  0  0  0  0  0  0  0  0  0  0  0  # atno 17320 bound_to 7965
  144.6904  140.3154  143.7241 LP  0  0  0  0  0  0  0  0  0  0  0  0  # atno 17321 bound_to 7965
  140.2091  143.3898  152.1732 LP  0  0  0  0  0  0  0  0  0  0  0  0  # atno 17342 bound_to 10162
  139.5314  144.7163  151.5042 LP  0  0  0  0  0  0  0  0  0  0  0  0  # atno 17343 bound_to 10162
  156.7097  130.8965  151.3608 LP  0  0  0  0  0  0  0  0  0  0  0  0  # atno 17370 bound_to 10713
  157.6934  130.9257  150.0577 LP  0  0  0  0  0  0  0  0  0  0  0  0  # atno 17371 bound_to 10713
  140.7374  134.4187  157.5559 LP  0  0  0  0  0  0  0  0  0  0  0  0  # atno 17394 bound_to 11000
  139.8901  134.8814  156.2389 LP  0  0  0  0  0  0  0  0  0  0  0  0  # atno 17395 bound_to 11000

$$$$
