AV-unprocessed.smi:255|AV-procd|sdf|1956|dock3
  -GOLD-   2262021 93D 1   1.00000     0.00000
 Structure written by MMmdl.
 44 47  0  0  0  0  0  0  0  0  1 V2000
  149.5645  141.7093  158.0275 O   0  0  0  0  0  0  0  0  0  0  0  0
  150.7882  141.1654  157.5817 C   0  0  0  0  0  0  0  0  0  0  0  0
  150.5842  140.4479  156.2296 C   0  0  1  0  0  0  0  0  0  0  0  0
  151.8718  140.0440  155.5100 C   0  0  0  0  0  0  0  0  0  0  0  0
  151.3544  139.0719  154.4494 C   0  0  1  0  0  0  0  0  0  0  0  0
  152.2303  138.0961  154.2105 F   0  0  0  0  0  0  0  0  0  0  0  0
  150.0247  138.5357  155.0075 C   0  0  0  0  0  0  0  0  0  0  0  0
  149.7779  139.2264  156.2735 N   0  0  0  0  0  0  0  0  0  0  0  0
  149.8936  138.4563  157.3842 C   0  0  0  0  0  0  0  0  0  0  0  0
  151.0318  138.4757  158.1287 N   0  0  0  0  0  0  0  0  0  0  0  0
  151.1242  137.7228  159.2290 C   0  0  0  0  0  0  0  0  0  0  0  0
  150.2156  136.8989  159.7558 N   0  0  0  0  0  0  0  0  0  0  0  0
  149.0702  136.8844  159.0149 C   0  0  0  0  0  0  0  0  0  0  0  0
  148.8303  137.6249  157.8241 C   0  0  0  0  0  0  0  0  0  0  0  0
  147.5563  137.3552  157.3416 N   0  0  0  0  0  0  0  0  0  0  0  0
  147.0700  136.4990  158.1984 C   0  0  0  0  0  0  0  0  0  0  0  0
  147.9072  136.1683  159.2408 N   0  0  0  0  0  0  0  0  0  0  0  0
  147.6219  135.2435  160.3268 C   0  0  0  0  0  0  0  0  0  0  0  0
  146.5555  135.7562  161.3284 C   0  0  2  0  0  0  0  0  0  0  0  0
  146.9140  137.0435  161.7932 O   0  0  0  0  0  0  0  0  0  0  0  0
  146.3881  134.8193  162.5134 C   0  0  0  0  0  0  0  0  0  0  0  0
  145.3888  133.7882  161.9931 C   0  0  0  0  0  0  0  0  0  0  0  0
  144.6036  134.4620  161.0137 O   0  0  0  0  0  0  0  0  0  0  0  0
  145.1233  135.7670  160.7784 C   0  0  0  0  0  0  0  0  0  0  0  0
  150.0349  141.1324  155.5808 H   0  0  0  0  0  0  0  0  0  0  0  0
  151.1815  139.5901  153.5057 H   0  0  0  0  0  0  0  0  0  0  0  0
  148.8670  141.3499  157.5011 H   0  0  0  0  0  0  0  0  0  0  0  0
  151.5244  141.9664  157.5052 H   0  0  0  0  0  0  0  0  0  0  0  0
  151.1431  140.4644  158.3377 H   0  0  0  0  0  0  0  0  0  0  0  0
  152.4051  140.8921  155.0800 H   0  0  0  0  0  0  0  0  0  0  0  0
  152.5474  139.5343  156.1985 H   0  0  0  0  0  0  0  0  0  0  0  0
  149.2082  138.7594  154.3203 H   0  0  0  0  0  0  0  0  0  0  0  0
  150.0491  137.4508  155.1229 H   0  0  0  0  0  0  0  0  0  0  0  0
  152.0595  137.7916  159.7647 H   0  0  0  0  0  0  0  0  0  0  0  0
  146.0771  136.0856  158.0957 H   0  0  0  0  0  0  0  0  0  0  0  0
  147.3061  134.2976  159.8854 H   0  0  0  0  0  0  0  0  0  0  0  0
  148.5567  135.0357  160.8491 H   0  0  0  0  0  0  0  0  0  0  0  0
  146.4134  137.2322  162.5721 H   0  0  0  0  0  0  0  0  0  0  0  0
  147.3233  134.3744  162.8554 H   0  0  0  0  0  0  0  0  0  0  0  0
  145.9440  135.3485  163.3583 H   0  0  0  0  0  0  0  0  0  0  0  0
  145.9070  132.9577  161.5128 H   0  0  0  0  0  0  0  0  0  0  0  0
  144.7651  133.3802  162.7888 H   0  0  0  0  0  0  0  0  0  0  0  0
  144.5049  136.4663  161.3438 H   0  0  0  0  0  0  0  0  0  0  0  0
  145.0489  136.0497  159.7293 H   0  0  0  0  0  0  0  0  0  0  0  0
  1  2  1  0  0  0  0
  1 27  1  0  0  0  0
  2  3  1  0  0  0  0
  2 28  1  0  0  0  0
  2 29  1  0  0  0  0
  3 25  1  0  0  0  0
  3  8  1  0  0  0  0
  3  4  1  0  0  0  0
  4  5  1  0  0  0  0
  4 30  1  0  0  0  0
  4 31  1  0  0  0  0
  5 26  1  0  0  0  0
  5  6  1  0  0  0  0
  5  7  1  0  0  0  0
  7  8  1  0  0  0  0
  7 32  1  0  0  0  0
  7 33  1  0  0  0  0
  8  9  1  0  0  0  0
  9 14  1  0  0  0  0
  9 10  2  0  0  0  0
 10 11  1  0  0  0  0
 11 12  2  0  0  0  0
 11 34  1  0  0  0  0
 12 13  1  0  0  0  0
 13 17  1  0  0  0  0
 13 14  2  0  0  0  0
 14 15  1  0  0  0  0
 15 16  2  0  0  0  0
 16 17  1  0  0  0  0
 16 35  1  0  0  0  0
 17 18  1  0  0  0  0
 18 19  1  0  0  0  0
 18 36  1  0  0  0  0
 18 37  1  0  0  0  0
 19 24  1  0  0  0  0
 19 20  1  0  0  0  0
 19 21  1  0  0  0  0
 20 38  1  0  0  0  0
 21 22  1  0  0  0  0
 21 39  1  0  0  0  0
 21 40  1  0  0  0  0
 22 23  1  0  0  0  0
 22 41  1  0  0  0  0
 22 42  1  0  0  0  0
 23 24  1  0  0  0  0
 24 43  1  0  0  0  0
 24 44  1  0  0  0  0
M  END
> <s_m_source_file>
AV-unprocessed.smi

> <i_m_source_file_index>
255

> <i_lp_mmshare_version>
43012

> <i_f3d_flags>
0

> <s_epik_input>
W09IXVtDSDJdW0NAQEhdMVtDSDJdW0NASF0oRilbQ0gyXU4xYyhuW2NIXW4yKWMoYzIzKW5bY0hdbjNbQ0gyXVtDQEBdNChbT0hdKVtDSDJdW0NIMl1PW0NIMl00

> <s_epik_cmdline>
J2VwaWtfcHl0aG9uJywgJy1waCcsICc3LjAnLCAnLXRuJywgJzgnLCAnLW1hJywgJzIwMCcsICctbWV0YWxfYmluZGluZycsICctaW1hZScsICc8aW5maWxlLm1hZT4nLCAnLW9tYWUnLCAnPG91dGZpbGUubWFlPic=

> <r_lp_tautomer_probability>
1

> <r_epik_Ionization_Penalty>
0.0058098

> <r_epik_Ionization_Penalty_Charging>
0

> <r_epik_Ionization_Penalty_Neutral>
0.0058098

> <r_epik_State_Penalty>
0.00411166

> <r_epik_Charging_Adjusted_Penalty>
0.00411166

> <i_epik_Tot_Q>
0

> <i_epik_Tot_abs_Q>
0

> <r_epik_Metal_State_Penalty>
-0

> <b_epik_Metal_Only>
0

> <s_lp_Force_Field>
OPLS_2005

> <r_lp_Energy>
54.0655

> <b_lp_Chiralities_Consistent>
1

> <s_lp_Variant>
AV-unprocessed.smi:255-8

> <Gold.Version>
5.8.1

> <Gold.Id.Protein>
6NUR|6NUR_protein|mol2

> <Gold.PLP.Fitness>
41.2304

> <Gold.PLP.PLP>
-35.6892

> <Gold.PLP.part.hbond>
-3.3819

> <Gold.PLP.part.metal>
0.0000

> <Gold.PLP.part.buried>
-2.5838

> <Gold.PLP.part.nonpolar>
-29.2951

> <Gold.PLP.part.repulsive>
0.0003

> <Gold.PLP.ligand.clash>
0.0000

> <Gold.PLP.ligand.torsion>
0.8576

> <Gold.PLP.Chemscore.Hbond>
2.3895

> <Gold.PLP.Chemscore.CHOScore>
0.0000

> <Gold.PLP.Chemscore.Metal>
0.0000

> <Gold.Chemscore.Hbonds>
donor molecule, donor type, donor heavy atom, donor atom, acceptor molecule, acceptor atom, score
      P1  H  6896  6908       L1    12  0.99
      P1  H  6934  6947       L1    20  0.61

> <Gold.PLP.Chemscore.Internal.Correction>
0.0881

> <Gold.Rescore>
     Score         DG    S(hbond)    S(metal)    S(lipo)     H(rot)  DE(clash)    DE(int)     intcor
      7.62     -10.24       1.44        0.00      72.37       3.33       0.38       2.24       ----

> <Gold.Chemscore.Fitness>
7.6249

> <Gold.Chemscore.DG>
-10.2444

> <Gold.Chemscore.ZeroCoef>
-5.4800

> <Gold.Chemscore.Hbond>
1.4416

> <Gold.Chemscore.Metal>
0.0000

> <Gold.Chemscore.Lipo>
72.3706

> <Gold.Chemscore.Internal_Hbond>
0.0000

> <Gold.Chemscore.DEClash>
0.3762

> <Gold.Chemscore.DEInternal>
2.2432

> <Gold.Chemscore.Rot>
3.3273

> <Gold.Chemscore.Internal.Correction>
   9.000000E+99

> <Gold.Chemscore.Hbonds>
donor molecule, donor type, donor heavy atom, donor atom, acceptor molecule, acceptor atom, score
      P1  H  6896  6908       L1    12  0.41
      P1  H  6931  6943       L1    20  0.03
      P1  H  6934  6947       L1    20  0.18

> <Gold.Chemscore.Hbond.Weighted>
-4.8150

> <Gold.Chemscore.Metal.Weighted>
-0.0000

> <Gold.Chemscore.Lipo.Weighted>
-8.4674

> <Gold.Chemscore.Internal_Hbond.Weighted>
0.0000

> <Gold.Chemscore.DEClash.Weighted>
0.3762

> <Gold.Chemscore.DEInternal.Weighted>
2.2432

> <Gold.Chemscore.Rot.Weighted>
8.5179

> <Gold.Chemscore.Internal.Correction.Weighted>
   9.000000E+99

> <Gold.Protein.RotatedTorsions>
[ 6907 6896 6895 6894 ] final -145.33 input  -60.11 | X-H torsion
[ 7974 7965 7964 7962 ] final   -2.63 input  175.53 | X-H torsion
[ 8008 7997 7996 7995 ] final   75.54 input   59.86 | X-H torsion
[ 10167 10162 10161 10158 ] final  122.28 input  -65.29 | X-H torsion
[ 10718 10713 10712 10709 ] final  -79.92 input   66.30 | X-H torsion
[ 10763 10752 10751 10750 ] final   87.51 input  -60.55 | X-H torsion
[ 11005 11000 10999 10996 ] final  106.03 input  -57.11 | X-H torsion

> <Gold.Protein.ActiveResidues>
 VAL166  LYS551  ARG553  GLY616  TRP617  ASP618  TYR619  PRO620  LYS621  CYS622 
 ASP623  PHE694  ASN695  SER759  ASP760  ASP761  ALA762  ILE779  LEU786  VAL792 
 PHE793  MET794  SER795  GLU796  ALA797  LYS798  CYS799  TRP800  GLU811  SER814 

> <Gold.Protein.RotatedAtoms>
  151.1263  133.5068  159.2600 H   0  0  0  0  0  0  0  0  0  0  0  0  # atno 6907 bound_to 6896
  151.1806  135.0359  159.8801 H   0  0  0  0  0  0  0  0  0  0  0  0  # atno 6908 bound_to 6896
  152.5458  134.1115  159.8414 H   0  0  0  0  0  0  0  0  0  0  0  0  # atno 6909 bound_to 6896
  146.2401  140.1600  142.8333 H   0  0  0  0  0  0  0  0  0  0  0  0  # atno 7974 bound_to 7965
  155.8144  140.3472  155.5477 H   0  0  0  0  0  0  0  0  0  0  0  0  # atno 8008 bound_to 7997
  155.8407  140.0941  157.1756 H   0  0  0  0  0  0  0  0  0  0  0  0  # atno 8009 bound_to 7997
  154.4005  140.1395  156.3713 H   0  0  0  0  0  0  0  0  0  0  0  0  # atno 8010 bound_to 7997
  139.5868  144.7009  151.3389 H   0  0  0  0  0  0  0  0  0  0  0  0  # atno 10167 bound_to 10162
  156.0081  130.4559  150.3721 H   0  0  0  0  0  0  0  0  0  0  0  0  # atno 10718 bound_to 10713
  153.1675  135.4541  154.9857 H   0  0  0  0  0  0  0  0  0  0  0  0  # atno 10763 bound_to 10752
  154.7942  135.3231  154.7708 H   0  0  0  0  0  0  0  0  0  0  0  0  # atno 10764 bound_to 10752
  153.8188  135.6948  153.4885 H   0  0  0  0  0  0  0  0  0  0  0  0  # atno 10765 bound_to 10752
  139.8809  134.9355  156.5604 H   0  0  0  0  0  0  0  0  0  0  0  0  # atno 11005 bound_to 11000
  145.0097  140.8703  143.5232 LP  0  0  0  0  0  0  0  0  0  0  0  0  # atno 17320 bound_to 7965
  145.1632  139.2446  143.5380 LP  0  0  0  0  0  0  0  0  0  0  0  0  # atno 17321 bound_to 7965
  140.7138  143.7320  150.7617 LP  0  0  0  0  0  0  0  0  0  0  0  0  # atno 17342 bound_to 10162
  140.0866  143.4918  152.2501 LP  0  0  0  0  0  0  0  0  0  0  0  0  # atno 17343 bound_to 10162
  157.1805  131.0391  151.2750 LP  0  0  0  0  0  0  0  0  0  0  0  0  # atno 17370 bound_to 10713
  157.4149  130.7406  149.6868 LP  0  0  0  0  0  0  0  0  0  0  0  0  # atno 17371 bound_to 10713
  140.8174  133.8381  155.8864 LP  0  0  0  0  0  0  0  0  0  0  0  0  # atno 17394 bound_to 11000
  140.9450  134.1852  157.4770 LP  0  0  0  0  0  0  0  0  0  0  0  0  # atno 17395 bound_to 11000

$$$$
