AV-unprocessed.smi:3105|AV-procd|sdf|11822|dock8
  -GOLD-   2272017193D 1   1.00000     0.00000
 Structure written by MMmdl.
 34 34  0  0  0  0  0  0  0  0  2 V2000
  147.5445  131.0485  154.1863 C   0  0  0  0  0  0  0  0  0  0  0  0
  147.4545  129.8482  153.2254 C   0  0  1  0  0  0  0  0  0  0  0  0
  146.8327  130.2730  151.9494 N   0  3  0  0  0  0  0  0  0  0  0  0
  145.8231  131.3486  152.0622 C   0  0  0  0  0  0  0  0  0  0  0  0
  144.6404  131.1325  151.0972 C   0  0  0  0  0  0  0  0  0  0  0  0
  143.8599  132.4074  150.7456 C   0  0  0  0  0  0  0  0  0  0  0  0
  142.7031  132.2399  150.1013 N   0  0  0  0  0  0  0  0  0  0  0  0
  144.2808  133.5228  151.0485 O   0  0  0  0  0  0  0  0  0  0  0  0
  148.8389  129.2018  152.9467 C   0  0  1  0  0  0  0  0  0  0  0  0
  149.6400  128.9052  154.2282 C   0  0  0  0  0  0  0  0  0  0  0  0
  148.7128  127.9810  152.1568 N   0  0  0  0  0  0  0  0  0  0  0  0
  148.2274  127.8430  150.8725 C   0  0  0  0  0  0  0  0  0  0  0  0
  148.3031  126.5193  150.5466 C   0  0  0  0  0  0  0  0  0  0  0  0
  148.8644  125.9167  151.7064 C   0  0  0  0  0  0  0  0  0  0  0  0
  149.1115  126.7931  152.6661 N   0  0  0  0  0  0  0  0  0  0  0  0
  147.9123  130.7516  155.1680 H   0  0  0  0  0  0  0  0  0  0  0  0
  146.5694  131.5083  154.3465 H   0  0  0  0  0  0  0  0  0  0  0  0
  148.2128  131.8179  153.7983 H   0  0  0  0  0  0  0  0  0  0  0  0
  146.8147  129.0910  153.6817 H   0  0  0  0  0  0  0  0  0  0  0  0
  147.5549  130.5449  151.2983 H   0  0  0  0  0  0  0  0  0  0  0  0
  145.4568  131.4010  153.0888 H   0  0  0  0  0  0  0  0  0  0  0  0
  146.2938  132.3077  151.8469 H   0  0  0  0  0  0  0  0  0  0  0  0
  145.0207  130.7021  150.1698 H   0  0  0  0  0  0  0  0  0  0  0  0
  143.9477  130.4004  151.5139 H   0  0  0  0  0  0  0  0  0  0  0  0
  142.1434  133.0408  149.8456 H   0  0  0  0  0  0  0  0  0  0  0  0
  142.3875  131.3080  149.8723 H   0  0  0  0  0  0  0  0  0  0  0  0
  149.4244  129.9028  152.3494 H   0  0  0  0  0  0  0  0  0  0  0  0
  149.9015  129.8177  154.7630 H   0  0  0  0  0  0  0  0  0  0  0  0
  150.5755  128.3962  153.9938 H   0  0  0  0  0  0  0  0  0  0  0  0
  149.0790  128.2664  154.9112 H   0  0  0  0  0  0  0  0  0  0  0  0
  147.8693  128.6883  150.3033 H   0  0  0  0  0  0  0  0  0  0  0  0
  148.0056  126.0525  149.6193 H   0  0  0  0  0  0  0  0  0  0  0  0
  149.0984  124.8764  151.8781 H   0  0  0  0  0  0  0  0  0  0  0  0
  146.3497  129.4681  151.5745 H   0  0  0  0  0  0  0  0  0  0  0  0
  1  2  1  0  0  0  0
  1 16  1  0  0  0  0
  1 17  1  0  0  0  0
  1 18  1  0  0  0  0
  2  3  1  0  0  0  0
  2  9  1  0  0  0  0
  2 19  1  0  0  0  0
  3  4  1  0  0  0  0
  3 20  1  0  0  0  0
  3 34  1  0  0  0  0
  4  5  1  0  0  0  0
  4 21  1  0  0  0  0
  4 22  1  0  0  0  0
  5  6  1  0  0  0  0
  5 23  1  0  0  0  0
  5 24  1  0  0  0  0
  6  7  1  0  0  0  0
  6  8  2  0  0  0  0
  7 25  1  0  0  0  0
  7 26  1  0  0  0  0
  9 10  1  0  0  0  0
  9 11  1  0  0  0  0
  9 27  1  0  0  0  0
 10 28  1  0  0  0  0
 10 29  1  0  0  0  0
 10 30  1  0  0  0  0
 11 15  1  0  0  0  0
 11 12  1  0  0  0  0
 12 13  2  0  0  0  0
 12 31  1  0  0  0  0
 13 14  1  0  0  0  0
 13 32  1  0  0  0  0
 14 15  2  0  0  0  0
 14 33  1  0  0  0  0
M  CHG  1   3   1
M  END
> <s_m_source_file>
AV-unprocessed.smi

> <i_m_source_file_index>
3105

> <i_lp_mmshare_version>
43012

> <i_f3d_flags>
0

> <s_epik_input>
W05IMl1DKD1PKVtDSDJdW0NIMl1bTkhdW0NAQEhdKFtDSDNdKVtDQEhdKFtDSDNdKW4xW2NIXVtjSF1bY0hdbjE=

> <s_epik_cmdline>
J2VwaWtfcHl0aG9uJywgJy1waCcsICc3LjAnLCAnLXRuJywgJzgnLCAnLW1hJywgJzIwMCcsICctbWV0YWxfYmluZGluZycsICctaW1hZScsICc8aW5maWxlLm1hZT4nLCAnLW9tYWUnLCAnPG91dGZpbGUubWFlPic=

> <r_lp_tautomer_probability>
1

> <r_epik_Ionization_Penalty>
0.00475669

> <r_epik_Ionization_Penalty_Charging>
0.00474654

> <r_epik_Ionization_Penalty_Neutral>
1.01546e-05

> <r_epik_State_Penalty>
-0

> <r_epik_Charging_Adjusted_Penalty>
0.00474654

> <i_epik_Tot_Q>
1

> <i_epik_Tot_abs_Q>
1

> <r_epik_Metal_State_Penalty>
-0

> <b_epik_Metal_Only>
0

> <s_lp_Force_Field>
OPLS_2005

> <r_lp_Energy>
4.89455

> <b_lp_Chiralities_Consistent>
1

> <s_lp_Variant>
AV-unprocessed.smi:3105-4

> <Gold.Version>
5.8.1

> <Gold.Id.Protein>
6NUR|6NUR_protein|mol2

> <Gold.PLP.Fitness>
40.8173

> <Gold.PLP.PLP>
-31.2393

> <Gold.PLP.part.hbond>
-3.0000

> <Gold.PLP.part.metal>
0.0000

> <Gold.PLP.part.buried>
-5.2694

> <Gold.PLP.part.nonpolar>
-22.8804

> <Gold.PLP.part.repulsive>
0.3343

> <Gold.PLP.ligand.clash>
0.0000

> <Gold.PLP.ligand.torsion>
0.9180

> <Gold.PLP.Chemscore.Hbond>
2.9760

> <Gold.PLP.Chemscore.CHOScore>
0.7863

> <Gold.PLP.Chemscore.Metal>
0.0000

> <Gold.Chemscore.Hbonds>
donor molecule, donor type, donor heavy atom, donor atom, acceptor molecule, acceptor atom, score
      L1  H     3    20       P1 10747  1.00
      L1  H     7    25       P1 10186  1.00
      L1  H     7    26       P1 10952  0.80
      L1  C    12    31       P1 10747  0.71

> <Gold.PLP.Chemscore.Internal.Correction>
0.1272

> <Gold.Rescore>
     Score         DG    S(hbond)    S(metal)    S(lipo)     H(rot)  DE(clash)    DE(int)     intcor
     13.96     -15.35       2.90        0.00      64.01       2.85       0.22       1.18       ----

> <Gold.Chemscore.Fitness>
13.9586

> <Gold.Chemscore.DG>
-15.3538

> <Gold.Chemscore.ZeroCoef>
-5.4800

> <Gold.Chemscore.Hbond>
2.8963

> <Gold.Chemscore.Metal>
0.0000

> <Gold.Chemscore.Lipo>
64.0132

> <Gold.Chemscore.Internal_Hbond>
0.0000

> <Gold.Chemscore.DEClash>
0.2163

> <Gold.Chemscore.DEInternal>
1.1790

> <Gold.Chemscore.Rot>
2.8473

> <Gold.Chemscore.Internal.Correction>
   9.000000E+99

> <Gold.Chemscore.Hbonds>
donor molecule, donor type, donor heavy atom, donor atom, acceptor molecule, acceptor atom, score
      L1  H     3    20       P1 10747  1.00
      L1  H     7    25       P1 10186  1.00
      L1  H     7    26       P1 10952  0.77

> <Gold.Chemscore.Hbond.Weighted>
-9.6735

> <Gold.Chemscore.Metal.Weighted>
-0.0000

> <Gold.Chemscore.Lipo.Weighted>
-7.4895

> <Gold.Chemscore.Internal_Hbond.Weighted>
0.0000

> <Gold.Chemscore.DEClash.Weighted>
0.2163

> <Gold.Chemscore.DEInternal.Weighted>
1.1790

> <Gold.Chemscore.Rot.Weighted>
7.2892

> <Gold.Chemscore.Internal.Correction.Weighted>
   9.000000E+99

> <Gold.Protein.RotatedTorsions>
[ 6907 6896 6895 6894 ] final   53.31 input  -60.11 | X-H torsion
[ 7974 7965 7964 7962 ] final  -65.97 input  175.53 | X-H torsion
[ 8008 7997 7996 7995 ] final   17.15 input   59.86 | X-H torsion
[ 10167 10162 10161 10158 ] final  116.68 input  -65.29 | X-H torsion
[ 10718 10713 10712 10709 ] final -150.20 input   66.30 | X-H torsion
[ 10763 10752 10751 10750 ] final  -65.70 input  -60.55 | X-H torsion
[ 11005 11000 10999 10996 ] final  -63.32 input  -57.11 | X-H torsion

> <Gold.Protein.ActiveResidues>
 VAL166  LYS551  ARG553  GLY616  TRP617  ASP618  TYR619  PRO620  LYS621  CYS622 
 ASP623  PHE694  ASN695  SER759  ASP760  ASP761  ALA762  ILE779  LEU786  VAL792 
 PHE793  MET794  SER795  GLU796  ALA797  LYS798  CYS799  TRP800  GLU811  SER814 

> <Gold.Protein.RotatedAtoms>
  152.3324  134.7242  160.0285 H   0  0  0  0  0  0  0  0  0  0  0  0  # atno 6907 bound_to 6896
  151.7654  133.3331  159.3437 H   0  0  0  0  0  0  0  0  0  0  0  0  # atno 6908 bound_to 6896
  150.7431  134.5999  159.6076 H   0  0  0  0  0  0  0  0  0  0  0  0  # atno 6909 bound_to 6896
  145.7476  140.8924  143.0497 H   0  0  0  0  0  0  0  0  0  0  0  0  # atno 7974 bound_to 7965
  154.8873  140.2982  155.5391 H   0  0  0  0  0  0  0  0  0  0  0  0  # atno 8008 bound_to 7997
  156.3021  140.2431  156.3818 H   0  0  0  0  0  0  0  0  0  0  0  0  # atno 8009 bound_to 7997
  154.8655  140.0403  157.1681 H   0  0  0  0  0  0  0  0  0  0  0  0  # atno 8010 bound_to 7997
  139.6230  144.7104  151.2593 H   0  0  0  0  0  0  0  0  0  0  0  0  # atno 10167 bound_to 10162
  156.4430  130.8131  151.2361 H   0  0  0  0  0  0  0  0  0  0  0  0  # atno 10718 bound_to 10713
  154.3489  135.6141  153.5633 H   0  0  0  0  0  0  0  0  0  0  0  0  # atno 10763 bound_to 10752
  152.9799  135.5787  154.4766 H   0  0  0  0  0  0  0  0  0  0  0  0  # atno 10764 bound_to 10752
  154.4484  135.2852  155.1776 H   0  0  0  0  0  0  0  0  0  0  0  0  # atno 10765 bound_to 10752
  141.1389  133.6650  156.5662 H   0  0  0  0  0  0  0  0  0  0  0  0  # atno 11005 bound_to 11000
  144.6857  139.9546  143.7479 LP  0  0  0  0  0  0  0  0  0  0  0  0  # atno 17320 bound_to 7965
  146.0388  139.3402  143.0710 LP  0  0  0  0  0  0  0  0  0  0  0  0  # atno 17321 bound_to 7965
  140.7394  143.6620  150.8156 LP  0  0  0  0  0  0  0  0  0  0  0  0  # atno 17342 bound_to 10162
  140.0234  143.5519  152.2791 LP  0  0  0  0  0  0  0  0  0  0  0  0  # atno 17343 bound_to 10162
  157.7505  131.0162  150.3535 LP  0  0  0  0  0  0  0  0  0  0  0  0  # atno 17370 bound_to 10713
  156.3897  130.3895  149.7039 LP  0  0  0  0  0  0  0  0  0  0  0  0  # atno 17371 bound_to 10713
  140.3949  134.7408  157.4744 LP  0  0  0  0  0  0  0  0  0  0  0  0  # atno 17394 bound_to 11000
  140.0539  134.6091  155.8829 LP  0  0  0  0  0  0  0  0  0  0  0  0  # atno 17395 bound_to 11000

$$$$
