AV-unprocessed.smi:337|AV-procd|sdf|2373|dock2
  -GOLD-   2262022293D 1   1.00000     0.00000
 Structure written by MMmdl.
 43 44  0  0  0  0  0  0  0  0  1 V2000
  144.9561  133.3521  152.5758 C   0  0  0  0  0  0  0  0  0  0  0  0
  146.3040  133.4431  151.8411 C   0  0  1  0  0  0  0  0  0  0  0  0
  146.5671  134.8490  151.5358 N   0  0  0  0  0  0  0  0  0  0  0  0
  145.6501  135.7257  151.0989 C   0  0  0  0  0  0  0  0  0  0  0  0
  146.1704  136.9307  150.8649 N   0  0  0  0  0  0  0  0  0  0  0  0
  144.4616  135.4629  150.9237 O   0  0  0  0  0  0  0  0  0  0  0  0
  147.4045  132.8883  152.7583 C   0  0  0  0  0  0  0  0  0  0  0  0
  147.3767  131.7137  153.1292 O   0  0  0  0  0  0  0  0  0  0  0  0
  148.3615  133.7536  153.1264 N   0  0  0  0  0  0  0  0  0  0  0  0
  149.4311  133.4563  154.0731 C   0  0  0  0  0  0  0  0  0  0  0  0
  149.0779  133.7874  155.5167 C   0  0  0  0  0  0  0  0  0  0  0  0
  147.7584  134.0988  155.9066 C   0  0  0  0  0  0  0  0  0  0  0  0
  147.4937  134.3813  157.2595 C   0  0  0  0  0  0  0  0  0  0  0  0
  148.5570  134.3497  158.1924 C   0  0  0  0  0  0  0  0  0  0  0  0
  148.3085  134.6157  159.5564 N   0  0  0  0  0  0  0  0  0  0  0  0
  147.5218  133.6429  160.3117 C   0  0  0  0  0  0  0  0  0  0  0  0
  147.5909  133.9520  161.8168 C   0  0  0  0  0  0  0  0  0  0  0  0
  147.1731  135.2929  162.0503 O   0  0  0  0  0  0  0  0  0  0  0  0
  148.0179  136.2318  161.3931 C   0  0  0  0  0  0  0  0  0  0  0  0
  147.9718  136.0017  159.8725 C   0  0  0  0  0  0  0  0  0  0  0  0
  149.8279  134.0697  157.8104 N   0  0  0  0  0  0  0  0  0  0  0  0
  150.0756  133.7965  156.5118 C   0  0  0  0  0  0  0  0  0  0  0  0
  144.7134  132.3194  152.8288 H   0  0  0  0  0  0  0  0  0  0  0  0
  144.1469  133.7307  151.9507 H   0  0  0  0  0  0  0  0  0  0  0  0
  144.9555  133.9308  153.5010 H   0  0  0  0  0  0  0  0  0  0  0  0
  146.2532  132.8671  150.9148 H   0  0  0  0  0  0  0  0  0  0  0  0
  147.5201  135.1652  151.6393 H   0  0  0  0  0  0  0  0  0  0  0  0
  145.5832  137.6835  150.5374 H   0  0  0  0  0  0  0  0  0  0  0  0
  147.1554  137.0864  151.0235 H   0  0  0  0  0  0  0  0  0  0  0  0
  148.3119  134.6977  152.7714 H   0  0  0  0  0  0  0  0  0  0  0  0
  149.7163  132.4061  153.9884 H   0  0  0  0  0  0  0  0  0  0  0  0
  150.3080  134.0398  153.7921 H   0  0  0  0  0  0  0  0  0  0  0  0
  146.9545  134.1209  155.1856 H   0  0  0  0  0  0  0  0  0  0  0  0
  146.4868  134.6275  157.5615 H   0  0  0  0  0  0  0  0  0  0  0  0
  146.4854  133.6736  159.9724 H   0  0  0  0  0  0  0  0  0  0  0  0
  147.8953  132.6340  160.1320 H   0  0  0  0  0  0  0  0  0  0  0  0
  146.9386  133.2753  162.3689 H   0  0  0  0  0  0  0  0  0  0  0  0
  148.6021  133.8026  162.1992 H   0  0  0  0  0  0  0  0  0  0  0  0
  147.6783  137.2403  161.6296 H   0  0  0  0  0  0  0  0  0  0  0  0
  149.0388  136.1441  161.7688 H   0  0  0  0  0  0  0  0  0  0  0  0
  148.6499  136.7029  159.3880 H   0  0  0  0  0  0  0  0  0  0  0  0
  146.9715  136.2147  159.4930 H   0  0  0  0  0  0  0  0  0  0  0  0
  151.1025  133.5717  156.2630 H   0  0  0  0  0  0  0  0  0  0  0  0
  1  2  1  0  0  0  0
  1 23  1  0  0  0  0
  1 24  1  0  0  0  0
  1 25  1  0  0  0  0
  2  3  1  0  0  0  0
  2  7  1  0  0  0  0
  2 26  1  0  0  0  0
  3  4  1  0  0  0  0
  3 27  1  0  0  0  0
  4  5  1  0  0  0  0
  4  6  2  0  0  0  0
  5 28  1  0  0  0  0
  5 29  1  0  0  0  0
  7  8  2  0  0  0  0
  7  9  1  0  0  0  0
  9 10  1  0  0  0  0
  9 30  1  0  0  0  0
 10 11  1  0  0  0  0
 10 31  1  0  0  0  0
 10 32  1  0  0  0  0
 11 22  1  0  0  0  0
 11 12  2  0  0  0  0
 12 13  1  0  0  0  0
 12 33  1  0  0  0  0
 13 14  2  0  0  0  0
 13 34  1  0  0  0  0
 14 15  1  0  0  0  0
 14 21  1  0  0  0  0
 15 20  1  0  0  0  0
 15 16  1  0  0  0  0
 16 17  1  0  0  0  0
 16 35  1  0  0  0  0
 16 36  1  0  0  0  0
 17 18  1  0  0  0  0
 17 37  1  0  0  0  0
 17 38  1  0  0  0  0
 18 19  1  0  0  0  0
 19 20  1  0  0  0  0
 19 39  1  0  0  0  0
 19 40  1  0  0  0  0
 20 41  1  0  0  0  0
 20 42  1  0  0  0  0
 21 22  2  0  0  0  0
 22 43  1  0  0  0  0
M  END
> <s_m_source_file>
AV-unprocessed.smi

> <i_m_source_file_index>
337

> <i_lp_mmshare_version>
43012

> <i_f3d_flags>
0

> <s_epik_input>
W05IMl1DKD1PKVtOSF1bQ0BASF0oW0NIM10pQyg9TylbTkhdW0NIMl1jMVtjSF1bY0hdYyhuW2NIXTEpTjJbQ0gyXVtDSDJdT1tDSDJdW0NIMl0y

> <s_epik_cmdline>
J2VwaWtfcHl0aG9uJywgJy1waCcsICc3LjAnLCAnLXRuJywgJzgnLCAnLW1hJywgJzIwMCcsICctbWV0YWxfYmluZGluZycsICctaW1hZScsICc8aW5maWxlLm1hZT4nLCAnLW9tYWUnLCAnPG91dGZpbGUubWFlPic=

> <r_lp_tautomer_probability>
1

> <r_epik_Ionization_Penalty>
0.0048357

> <r_epik_Ionization_Penalty_Charging>
0

> <r_epik_Ionization_Penalty_Neutral>
0.0048357

> <r_epik_State_Penalty>
0.0034696

> <r_epik_Charging_Adjusted_Penalty>
0.0034696

> <i_epik_Tot_Q>
0

> <i_epik_Tot_abs_Q>
0

> <r_epik_Metal_State_Penalty>
-0

> <b_epik_Metal_Only>
0

> <s_lp_Force_Field>
OPLS_2005

> <r_lp_Energy>
9.87941

> <b_lp_Chiralities_Consistent>
1

> <s_lp_Variant>
AV-unprocessed.smi:337-2

> <Gold.Version>
5.8.1

> <Gold.Id.Protein>
6NUR|6NUR_protein|mol2

> <Gold.PLP.Fitness>
44.0521

> <Gold.PLP.PLP>
-32.0781

> <Gold.PLP.part.hbond>
-5.3260

> <Gold.PLP.part.metal>
0.0000

> <Gold.PLP.part.buried>
-6.3156

> <Gold.PLP.part.nonpolar>
-21.3289

> <Gold.PLP.part.repulsive>
0.5106

> <Gold.PLP.ligand.clash>
0.8795

> <Gold.PLP.ligand.torsion>
0.7501

> <Gold.PLP.Chemscore.Hbond>
4.6567

> <Gold.PLP.Chemscore.CHOScore>
0.0000

> <Gold.PLP.Chemscore.Metal>
0.0000

> <Gold.Chemscore.Hbonds>
donor molecule, donor type, donor heavy atom, donor atom, acceptor molecule, acceptor atom, score
      L1  H     3    27       P1  7948  1.00
      L1  H     5    28       P1 10171  0.93
      L1  H     5    29       P1  7948  0.71
      L1  H     9    30       P1  7948  1.00
      P1  H  6896  6909       L1    21  1.00

> <Gold.PLP.Chemscore.Internal.Correction>
0.3835

> <Gold.Rescore>
     Score         DG    S(hbond)    S(metal)    S(lipo)     H(rot)  DE(clash)    DE(int)     intcor
     16.55     -18.75       4.20        0.00      51.71       2.66       0.00       2.21       ----

> <Gold.Chemscore.Fitness>
16.5450

> <Gold.Chemscore.DG>
-18.7546

> <Gold.Chemscore.ZeroCoef>
-5.4800

> <Gold.Chemscore.Hbond>
4.1999

> <Gold.Chemscore.Metal>
0.0000

> <Gold.Chemscore.Lipo>
51.7082

> <Gold.Chemscore.Internal_Hbond>
0.0000

> <Gold.Chemscore.DEClash>
0.0000

> <Gold.Chemscore.DEInternal>
2.2096

> <Gold.Chemscore.Rot>
2.6573

> <Gold.Chemscore.Internal.Correction>
   9.000000E+99

> <Gold.Chemscore.Hbonds>
donor molecule, donor type, donor heavy atom, donor atom, acceptor molecule, acceptor atom, score
      L1  H     3    27       P1  7948  0.82
      L1  H     5    28       P1 10171  0.88
      L1  H     5    29       P1  7948  0.69
      L1  H     9    30       P1  7948  0.44
      P1  H  6896  6909       L1    21  0.63

> <Gold.Chemscore.Hbond.Weighted>
-14.0275

> <Gold.Chemscore.Metal.Weighted>
-0.0000

> <Gold.Chemscore.Lipo.Weighted>
-6.0499

> <Gold.Chemscore.Internal_Hbond.Weighted>
0.0000

> <Gold.Chemscore.DEClash.Weighted>
0.0000

> <Gold.Chemscore.DEInternal.Weighted>
2.2096

> <Gold.Chemscore.Rot.Weighted>
6.8027

> <Gold.Chemscore.Internal.Correction.Weighted>
   9.000000E+99

> <Gold.Protein.RotatedTorsions>
[ 6907 6896 6895 6894 ] final    1.25 input  -60.11 | X-H torsion
[ 7974 7965 7964 7962 ] final   89.88 input  175.53 | X-H torsion
[ 8008 7997 7996 7995 ] final -111.67 input   59.86 | X-H torsion
[ 10167 10162 10161 10158 ] final   34.62 input  -65.29 | X-H torsion
[ 10718 10713 10712 10709 ] final  164.85 input   66.30 | X-H torsion
[ 10763 10752 10751 10750 ] final -164.67 input  -60.55 | X-H torsion
[ 11005 11000 10999 10996 ] final   41.02 input  -57.11 | X-H torsion

> <Gold.Protein.ActiveResidues>
 VAL166  LYS551  ARG553  GLY616  TRP617  ASP618  TYR619  PRO620  LYS621  CYS622 
 ASP623  PHE694  ASN695  SER759  ASP760  ASP761  ALA762  ILE779  LEU786  VAL792 
 PHE793  MET794  SER795  GLU796  ALA797  LYS798  CYS799  TRP800  GLU811  SER814 

> <Gold.Protein.RotatedAtoms>
  151.5896  135.1054  160.0035 H   0  0  0  0  0  0  0  0  0  0  0  0  # atno 6907 bound_to 6896
  152.4313  133.7278  159.6581 H   0  0  0  0  0  0  0  0  0  0  0  0  # atno 6908 bound_to 6896
  150.8205  133.8189  159.3163 H   0  0  0  0  0  0  0  0  0  0  0  0  # atno 6909 bound_to 6896
  145.5265  139.2281  143.2643 H   0  0  0  0  0  0  0  0  0  0  0  0  # atno 7974 bound_to 7965
  154.9934  140.0395  157.2329 H   0  0  0  0  0  0  0  0  0  0  0  0  # atno 8008 bound_to 7997
  154.7608  140.2784  155.6193 H   0  0  0  0  0  0  0  0  0  0  0  0  # atno 8009 bound_to 7997
  156.2903  140.2629  156.2386 H   0  0  0  0  0  0  0  0  0  0  0  0  # atno 8010 bound_to 7997
  140.4298  144.1341  150.6158 H   0  0  0  0  0  0  0  0  0  0  0  0  # atno 10167 bound_to 10162
  157.0886  131.0411  151.2546 H   0  0  0  0  0  0  0  0  0  0  0  0  # atno 10718 bound_to 10713
  154.7006  135.2987  154.9346 H   0  0  0  0  0  0  0  0  0  0  0  0  # atno 10763 bound_to 10752
  154.0280  135.6674  153.4782 H   0  0  0  0  0  0  0  0  0  0  0  0  # atno 10764 bound_to 10752
  153.0678  135.5078  154.8148 H   0  0  0  0  0  0  0  0  0  0  0  0  # atno 10765 bound_to 10752
  140.1875  134.4028  155.8165 H   0  0  0  0  0  0  0  0  0  0  0  0  # atno 11005 bound_to 11000
  146.2072  140.6079  142.9076 LP  0  0  0  0  0  0  0  0  0  0  0  0  # atno 17320 bound_to 7965
  144.7648  140.5506  143.6710 LP  0  0  0  0  0  0  0  0  0  0  0  0  # atno 17321 bound_to 7965
  140.4440  143.2514  151.9436 LP  0  0  0  0  0  0  0  0  0  0  0  0  # atno 17342 bound_to 10162
  139.4784  144.5627  151.8214 LP  0  0  0  0  0  0  0  0  0  0  0  0  # atno 17343 bound_to 10162
  157.4740  130.7726  149.7351 LP  0  0  0  0  0  0  0  0  0  0  0  0  # atno 17370 bound_to 10713
  155.9904  130.3945  150.3029 LP  0  0  0  0  0  0  0  0  0  0  0  0  # atno 17371 bound_to 10713
  141.2225  133.7030  156.8037 LP  0  0  0  0  0  0  0  0  0  0  0  0  # atno 17394 bound_to 11000
  140.2197  134.8766  157.3364 LP  0  0  0  0  0  0  0  0  0  0  0  0  # atno 17395 bound_to 11000

$$$$
