AV-unprocessed.smi:37|AV-procd|sdf|311|dock6
  -GOLD-   2262016123D 1   1.00000     0.00000
 Structure written by MMmdl.
 44 45  0  0  0  0  0  0  0  0  1 V2000
  146.4906  136.2431  162.8060 C   0  0  0  0  0  0  0  0  0  0  0  0
  147.5474  135.6826  161.8447 C   0  0  0  0  0  0  0  0  0  0  0  0
  147.7980  136.6118  160.6592 C   0  0  0  0  0  0  0  0  0  0  0  0
  147.1315  137.6335  160.4922 O   0  0  0  0  0  0  0  0  0  0  0  0
  148.7895  136.1805  159.8642 O   0  0  0  0  0  0  0  0  0  0  0  0
  149.0142  136.8143  158.6165 C   0  0  0  0  0  0  0  0  0  0  0  0
  150.3563  137.5547  158.6661 C   0  0  2  0  0  0  0  0  0  0  0  0
  150.2793  138.7040  159.5018 O   0  0  0  0  0  0  0  0  0  0  0  0
  151.2291  139.6488  159.1021 C   0  0  1  0  0  0  0  0  0  0  0  0
  152.2490  139.8448  160.2012 N   0  0  0  0  0  0  0  0  0  0  0  0
  152.1895  139.1436  161.4000 C   0  0  0  0  0  0  0  0  0  0  0  0
  153.0956  139.3075  162.3925 C   0  0  0  0  0  0  0  0  0  0  0  0
  152.9772  138.5909  163.5231 F   0  0  0  0  0  0  0  0  0  0  0  0
  154.2010  140.2502  162.2451 C   0  0  0  0  0  0  0  0  0  0  0  0
  155.0683  140.4695  163.0884 O   0  0  0  0  0  0  0  0  0  0  0  0
  154.2232  140.9270  161.0220 N   0  0  0  0  0  0  0  0  0  0  0  0
  153.2981  140.7654  159.9894 C   0  0  0  0  0  0  0  0  0  0  0  0
  153.4188  141.4045  158.9451 O   0  0  0  0  0  0  0  0  0  0  0  0
  151.8505  139.1555  157.7764 C   0  0  1  0  0  0  0  0  0  0  0  0
  153.6146  138.2428  158.0093 Br  0  0  0  0  0  0  0  0  0  0  0  0
  150.8380  138.1189  157.3266 C   0  0  2  0  0  0  0  0  0  0  0  0
  149.7696  138.7672  156.6400 O   0  0  0  0  0  0  0  0  0  0  0  0
  149.9682  139.3596  155.4483 C   0  0  0  0  0  0  0  0  0  0  0  0
  151.0452  139.4513  154.8571 O   0  0  0  0  0  0  0  0  0  0  0  0
  148.6689  139.9287  154.8744 C   0  0  0  0  0  0  0  0  0  0  0  0
  148.8330  140.5515  153.4799 C   0  0  0  0  0  0  0  0  0  0  0  0
  154.9739  141.5855  160.8729 H   0  0  0  0  0  0  0  0  0  0  0  0
  146.2994  135.5413  163.6176 H   0  0  0  0  0  0  0  0  0  0  0  0
  145.5444  136.4216  162.2943 H   0  0  0  0  0  0  0  0  0  0  0  0
  146.8149  137.1834  163.2535 H   0  0  0  0  0  0  0  0  0  0  0  0
  148.4870  135.5230  162.3737 H   0  0  0  0  0  0  0  0  0  0  0  0
  147.2268  134.7104  161.4690 H   0  0  0  0  0  0  0  0  0  0  0  0
  149.0371  136.0556  157.8332 H   0  0  0  0  0  0  0  0  0  0  0  0
  148.2026  137.5054  158.3842 H   0  0  0  0  0  0  0  0  0  0  0  0
  151.1268  136.8899  159.0600 H   0  0  0  0  0  0  0  0  0  0  0  0
  150.7022  140.5997  159.0012 H   0  0  0  0  0  0  0  0  0  0  0  0
  151.4003  138.4252  161.5645 H   0  0  0  0  0  0  0  0  0  0  0  0
  151.9854  139.9781  157.0731 H   0  0  0  0  0  0  0  0  0  0  0  0
  151.3065  137.3485  156.7130 H   0  0  0  0  0  0  0  0  0  0  0  0
  147.9302  139.1278  154.8334 H   0  0  0  0  0  0  0  0  0  0  0  0
  148.2836  140.6774  155.5670 H   0  0  0  0  0  0  0  0  0  0  0  0
  147.8809  140.9417  153.1201 H   0  0  0  0  0  0  0  0  0  0  0  0
  149.1829  139.8166  152.7542 H   0  0  0  0  0  0  0  0  0  0  0  0
  149.5435  141.3789  153.4941 H   0  0  0  0  0  0  0  0  0  0  0  0
  1  2  1  0  0  0  0
  1 28  1  0  0  0  0
  1 29  1  0  0  0  0
  1 30  1  0  0  0  0
  2  3  1  0  0  0  0
  2 31  1  0  0  0  0
  2 32  1  0  0  0  0
  3  4  2  0  0  0  0
  3  5  1  0  0  0  0
  5  6  1  0  0  0  0
  6  7  1  0  0  0  0
  6 33  1  0  0  0  0
  6 34  1  0  0  0  0
  7 21  1  0  0  0  0
  7  8  1  0  0  0  0
  7 35  1  0  0  0  0
  8  9  1  0  0  0  0
  9 10  1  0  0  0  0
  9 19  1  0  0  0  0
  9 36  1  0  0  0  0
 10 17  1  0  0  0  0
 10 11  1  0  0  0  0
 11 12  2  0  0  0  0
 11 37  1  0  0  0  0
 12 13  1  0  0  0  0
 12 14  1  0  0  0  0
 14 15  2  0  0  0  0
 14 16  1  0  0  0  0
 16 27  1  0  0  0  0
 16 17  1  0  0  0  0
 17 18  2  0  0  0  0
 19 20  1  0  0  0  0
 19 21  1  0  0  0  0
 19 38  1  0  0  0  0
 21 22  1  0  0  0  0
 21 39  1  0  0  0  0
 22 23  1  0  0  0  0
 23 24  2  0  0  0  0
 23 25  1  0  0  0  0
 25 26  1  0  0  0  0
 25 40  1  0  0  0  0
 25 41  1  0  0  0  0
 26 42  1  0  0  0  0
 26 43  1  0  0  0  0
 26 44  1  0  0  0  0
M  END
> <s_m_source_file>
AV-unprocessed.smi

> <i_m_source_file_index>
37

> <i_lp_mmshare_version>
43012

> <i_f3d_flags>
0

> <s_epik_input>
W0NIM11bQ0gyXUMoPU8pT1tDSDJdW0NAQEhdMU9bQ0BASF0objJbY0hdYyhGKWMoPU8pW25IXWMyPU8pW0NAQEhdKEJyKVtDQEhdMU9DKD1PKVtDSDJdW0NIM10=

> <s_epik_cmdline>
J2VwaWtfcHl0aG9uJywgJy1waCcsICc3LjAnLCAnLXRuJywgJzgnLCAnLW1hJywgJzIwMCcsICctbWV0YWxfYmluZGluZycsICctaW1hZScsICc8aW5maWxlLm1hZT4nLCAnLW9tYWUnLCAnPG91dGZpbGUubWFlPic=

> <r_lp_tautomer_probability>
0.999537

> <r_epik_Ionization_Penalty>
0.104106

> <r_epik_Ionization_Penalty_Charging>
0.104106

> <r_epik_Ionization_Penalty_Neutral>
3.94675e-16

> <r_epik_State_Penalty>
0.0940182

> <r_epik_Charging_Adjusted_Penalty>
0.198124

> <i_epik_Tot_Q>
0

> <i_epik_Tot_abs_Q>
0

> <r_epik_Metal_State_Penalty>
3.05314

> <b_epik_Metal_Only>
0

> <s_epik_Chemistry_Notes>
This compound has an ester and may undergo hydrolysis at high or low pH. This compound contains an acetal/aminal-like group ( X-CH(R)-Y where X, Y are N, S, or O) that may be acid/base labile, releasing an aldehyde.

> <s_lp_Force_Field>
OPLS_2005

> <r_lp_Energy>
26.7513

> <b_lp_Chiralities_Consistent>
1

> <s_lp_Variant>
AV-unprocessed.smi:37-9

> <Gold.Version>
5.8.1

> <Gold.Id.Protein>
6NUR|6NUR_protein|mol2

> <Gold.PLP.Fitness>
45.0564

> <Gold.PLP.PLP>
-34.8354

> <Gold.PLP.part.hbond>
-5.6544

> <Gold.PLP.part.metal>
0.0000

> <Gold.PLP.part.buried>
-3.8216

> <Gold.PLP.part.nonpolar>
-26.1453

> <Gold.PLP.part.repulsive>
0.0624

> <Gold.PLP.ligand.clash>
0.0000

> <Gold.PLP.ligand.torsion>
0.5456

> <Gold.PLP.Chemscore.Hbond>
3.7193

> <Gold.PLP.Chemscore.CHOScore>
0.0000

> <Gold.PLP.Chemscore.Metal>
0.0000

> <Gold.Chemscore.Hbonds>
donor molecule, donor type, donor heavy atom, donor atom, acceptor molecule, acceptor atom, score
      P1  H  6934  6947       L1     4  0.81
      P1  H  7989  7998       L1    24  0.96

> <Gold.PLP.Chemscore.Internal.Correction>
0.1544

> <Gold.Rescore>
     Score         DG    S(hbond)    S(metal)    S(lipo)     H(rot)  DE(clash)    DE(int)     intcor
     12.19     -14.00       2.93        0.00      62.02       3.33       0.14       1.66       ----

> <Gold.Chemscore.Fitness>
12.1910

> <Gold.Chemscore.DG>
-13.9950

> <Gold.Chemscore.ZeroCoef>
-5.4800

> <Gold.Chemscore.Hbond>
2.9295

> <Gold.Chemscore.Metal>
0.0000

> <Gold.Chemscore.Lipo>
62.0190

> <Gold.Chemscore.Internal_Hbond>
0.0000

> <Gold.Chemscore.DEClash>
0.1406

> <Gold.Chemscore.DEInternal>
1.6635

> <Gold.Chemscore.Rot>
3.3303

> <Gold.Chemscore.Internal.Correction>
   9.000000E+99

> <Gold.Chemscore.Hbonds>
donor molecule, donor type, donor heavy atom, donor atom, acceptor molecule, acceptor atom, score
      P1  H  6934  6947       L1     4  0.80
      P1  H  7989  7998       L1    24  0.91

> <Gold.Chemscore.Hbond.Weighted>
-9.7844

> <Gold.Chemscore.Metal.Weighted>
-0.0000

> <Gold.Chemscore.Lipo.Weighted>
-7.2562

> <Gold.Chemscore.Internal_Hbond.Weighted>
0.0000

> <Gold.Chemscore.DEClash.Weighted>
0.1406

> <Gold.Chemscore.DEInternal.Weighted>
1.6635

> <Gold.Chemscore.Rot.Weighted>
8.5256

> <Gold.Chemscore.Internal.Correction.Weighted>
   9.000000E+99

> <Gold.Protein.RotatedTorsions>
[ 6907 6896 6895 6894 ] final   36.88 input  -60.11 | X-H torsion
[ 7974 7965 7964 7962 ] final  -83.00 input  175.53 | X-H torsion
[ 8008 7997 7996 7995 ] final    8.35 input   59.86 | X-H torsion
[ 10167 10162 10161 10158 ] final  -17.65 input  -65.29 | X-H torsion
[ 10718 10713 10712 10709 ] final   44.02 input   66.30 | X-H torsion
[ 10763 10752 10751 10750 ] final -141.02 input  -60.55 | X-H torsion
[ 11005 11000 10999 10996 ] final  -98.07 input  -57.11 | X-H torsion

> <Gold.Protein.ActiveResidues>
 VAL166  LYS551  ARG553  GLY616  TRP617  ASP618  TYR619  PRO620  LYS621  CYS622 
 ASP623  PHE694  ASN695  SER759  ASP760  ASP761  ALA762  ILE779  LEU786  VAL792 
 PHE793  MET794  SER795  GLU796  ALA797  LYS798  CYS799  TRP800  GLU811  SER814 

> <Gold.Protein.RotatedAtoms>
  152.1356  134.9101  160.0556 H   0  0  0  0  0  0  0  0  0  0  0  0  # atno 6907 bound_to 6896
  152.0189  133.3886  159.4258 H   0  0  0  0  0  0  0  0  0  0  0  0  # atno 6908 bound_to 6896
  150.6860  134.3569  159.4977 H   0  0  0  0  0  0  0  0  0  0  0  0  # atno 6909 bound_to 6896
  145.5258  140.9526  143.1630 H   0  0  0  0  0  0  0  0  0  0  0  0  # atno 7974 bound_to 7965
  154.7657  140.2793  155.6178 H   0  0  0  0  0  0  0  0  0  0  0  0  # atno 8008 bound_to 7997
  156.2924  140.2651  156.2374 H   0  0  0  0  0  0  0  0  0  0  0  0  # atno 8009 bound_to 7997
  154.9962  140.0373  157.2330 H   0  0  0  0  0  0  0  0  0  0  0  0  # atno 8010 bound_to 7997
  140.7250  143.4994  150.9888 H   0  0  0  0  0  0  0  0  0  0  0  0  # atno 10167 bound_to 10162
  157.4223  130.7976  149.7526 H   0  0  0  0  0  0  0  0  0  0  0  0  # atno 10718 bound_to 10713
  154.8559  135.3536  154.5801 H   0  0  0  0  0  0  0  0  0  0  0  0  # atno 10763 bound_to 10752
  153.6412  135.6998  153.5245 H   0  0  0  0  0  0  0  0  0  0  0  0  # atno 10764 bound_to 10752
  153.2969  135.4218  155.1177 H   0  0  0  0  0  0  0  0  0  0  0  0  # atno 10765 bound_to 10752
  141.1357  133.8218  157.0791 H   0  0  0  0  0  0  0  0  0  0  0  0  # atno 11005 bound_to 11000
  144.7652  139.6862  143.7218 LP  0  0  0  0  0  0  0  0  0  0  0  0  # atno 17320 bound_to 7965
  146.2076  139.5411  142.9702 LP  0  0  0  0  0  0  0  0  0  0  0  0  # atno 17321 bound_to 7965
  139.8703  143.7201  152.3167 LP  0  0  0  0  0  0  0  0  0  0  0  0  # atno 17342 bound_to 10162
  139.7447  144.7550  151.0597 LP  0  0  0  0  0  0  0  0  0  0  0  0  # atno 17343 bound_to 10162
  155.9884  130.3959  150.3117 LP  0  0  0  0  0  0  0  0  0  0  0  0  # atno 17370 bound_to 10713
  157.1267  131.0261  151.2987 LP  0  0  0  0  0  0  0  0  0  0  0  0  # atno 17371 bound_to 10713
  140.0463  134.9828  157.1055 LP  0  0  0  0  0  0  0  0  0  0  0  0  # atno 17394 bound_to 11000
  140.4058  134.2034  155.7163 LP  0  0  0  0  0  0  0  0  0  0  0  0  # atno 17395 bound_to 11000

$$$$
