AV-unprocessed.smi:771|AV-procd|sdf|3682|dock4
  -GOLD-   22720 1 93D 1   1.00000     0.00000
 Structure written by MMmdl.
 41 42  0  0  0  0  0  0  0  0  3 V2000
  150.5434  132.6511  157.8645 O   0  0  0  0  0  0  0  0  0  0  0  0
  149.5016  133.2160  157.5287 C   0  0  0  0  0  0  0  0  0  0  0  0
  148.1558  132.7982  158.1363 C   0  0  0  0  0  0  0  0  0  0  0  0
  147.9799  133.2771  159.5179 N   0  0  0  0  0  0  0  0  0  0  0  0
  147.7859  134.6607  159.6998 C   0  0  0  0  0  0  0  0  0  0  0  0
  147.6107  135.2045  160.9203 C   0  0  0  0  0  0  0  0  0  0  0  0
  147.4103  136.6271  161.0888 N   0  3  0  0  0  0  0  0  0  0  0  0
  146.9470  137.2708  160.1527 O   0  0  0  0  0  0  0  0  0  0  0  0
  147.7069  137.1476  162.1602 O   0  5  0  0  0  0  0  0  0  0  0  0
  147.6265  134.3134  162.0644 C   0  0  0  0  0  0  0  0  0  0  0  0
  147.8089  132.9888  161.8966 C   0  0  0  0  0  0  0  0  0  0  0  0
  147.9987  132.3990  160.5676 C   0  0  0  0  0  0  0  0  0  0  0  0
  148.1640  131.1894  160.4071 O   0  0  0  0  0  0  0  0  0  0  0  0
  149.4594  134.2073  156.6261 N   0  0  0  0  0  0  0  0  0  0  0  0
  150.6226  134.7939  155.9682 C   0  0  0  0  0  0  0  0  0  0  0  0
  150.5786  136.3401  155.9453 C   0  0  1  0  0  0  0  0  0  0  0  0
  151.6017  136.9461  156.9282 C   0  0  0  0  0  0  0  0  0  0  0  0
  151.5121  138.4800  156.9657 C   0  0  0  0  0  0  0  0  0  0  0  0
  151.6933  139.0835  155.5651 C   0  0  0  0  0  0  0  0  0  0  0  0
  150.6819  138.4922  154.5680 C   0  0  0  0  0  0  0  0  0  0  0  0
  150.7340  136.9526  154.5281 C   0  0  1  0  0  0  0  0  0  0  0  0
  151.9480  136.5427  153.9263 O   0  0  0  0  0  0  0  0  0  0  0  0
  147.3387  133.1654  157.5120 H   0  0  0  0  0  0  0  0  0  0  0  0
  148.0856  131.7108  158.0881 H   0  0  0  0  0  0  0  0  0  0  0  0
  147.7833  135.2377  158.7863 H   0  0  0  0  0  0  0  0  0  0  0  0
  147.4907  134.7010  163.0634 H   0  0  0  0  0  0  0  0  0  0  0  0
  147.8155  132.3432  162.7625 H   0  0  0  0  0  0  0  0  0  0  0  0
  148.5590  134.6055  156.4010 H   0  0  0  0  0  0  0  0  0  0  0  0
  151.5319  134.4496  156.4633 H   0  0  0  0  0  0  0  0  0  0  0  0
  150.6668  134.4035  154.9512 H   0  0  0  0  0  0  0  0  0  0  0  0
  149.5922  136.6351  156.3069 H   0  0  0  0  0  0  0  0  0  0  0  0
  151.4337  136.5503  157.9303 H   0  0  0  0  0  0  0  0  0  0  0  0
  152.6118  136.6460  156.6463 H   0  0  0  0  0  0  0  0  0  0  0  0
  150.5448  138.7801  157.3710 H   0  0  0  0  0  0  0  0  0  0  0  0
  152.2676  138.8797  157.6427 H   0  0  0  0  0  0  0  0  0  0  0  0
  151.5794  140.1669  155.6100 H   0  0  0  0  0  0  0  0  0  0  0  0
  152.7092  138.8957  155.2154 H   0  0  0  0  0  0  0  0  0  0  0  0
  149.6775  138.8060  154.8549 H   0  0  0  0  0  0  0  0  0  0  0  0
  150.8539  138.9025  153.5722 H   0  0  0  0  0  0  0  0  0  0  0  0
  149.9246  136.6028  153.8865 H   0  0  0  0  0  0  0  0  0  0  0  0
  151.8040  136.4410  152.9982 H   0  0  0  0  0  0  0  0  0  0  0  0
  1  2  2  0  0  0  0
  2  3  1  0  0  0  0
  2 14  1  0  0  0  0
  3  4  1  0  0  0  0
  3 23  1  0  0  0  0
  3 24  1  0  0  0  0
  4 12  1  0  0  0  0
  4  5  1  0  0  0  0
  5  6  2  0  0  0  0
  5 25  1  0  0  0  0
  6  7  1  0  0  0  0
  6 10  1  0  0  0  0
  7  8  2  0  0  0  0
  7  9  1  0  0  0  0
 10 11  2  0  0  0  0
 10 26  1  0  0  0  0
 11 12  1  0  0  0  0
 11 27  1  0  0  0  0
 12 13  2  0  0  0  0
 14 15  1  0  0  0  0
 14 28  1  0  0  0  0
 15 16  1  0  0  0  0
 15 29  1  0  0  0  0
 15 30  1  0  0  0  0
 16 21  1  0  0  0  0
 16 17  1  0  0  0  0
 16 31  1  0  0  0  0
 17 18  1  0  0  0  0
 17 32  1  0  0  0  0
 17 33  1  0  0  0  0
 18 19  1  0  0  0  0
 18 34  1  0  0  0  0
 18 35  1  0  0  0  0
 19 20  1  0  0  0  0
 19 36  1  0  0  0  0
 19 37  1  0  0  0  0
 20 21  1  0  0  0  0
 20 38  1  0  0  0  0
 20 39  1  0  0  0  0
 21 22  1  0  0  0  0
 21 40  1  0  0  0  0
 22 41  1  0  0  0  0
M  CHG  1   7   1
M  CHG  1   9  -1
M  END
> <s_m_source_file>
AV-unprocessed.smi

> <i_m_source_file_index>
771

> <i_lp_mmshare_version>
43012

> <i_f3d_flags>
0

> <s_epik_input>
Tz1jMVtjSF1bY0hdYyhbTitdKD1PKVtPLV0pW2NIXW4xW0NIMl1DKD1PKVtOSF1bQ0gyXVtDQEBIXTJbQ0gyXVtDSDJdW0NIMl1bQ0gyXVtDQEhdMltPSF0=

> <s_epik_cmdline>
J2VwaWtfcHl0aG9uJywgJy1waCcsICc3LjAnLCAnLXRuJywgJzgnLCAnLW1hJywgJzIwMCcsICctbWV0YWxfYmluZGluZycsICctaW1hZScsICc8aW5maWxlLm1hZT4nLCAnLW9tYWUnLCAnPG91dGZpbGUubWFlPic=

> <r_lp_tautomer_probability>
1

> <r_epik_Ionization_Penalty>
3.77175e-07

> <r_epik_Ionization_Penalty_Charging>
7.70067e-11

> <r_epik_Ionization_Penalty_Neutral>
3.77098e-07

> <r_epik_State_Penalty>
-0

> <r_epik_Charging_Adjusted_Penalty>
7.70067e-11

> <i_epik_Tot_Q>
0

> <i_epik_Tot_abs_Q>
2

> <r_epik_Metal_State_Penalty>
-0

> <b_epik_Metal_Only>
0

> <s_lp_Force_Field>
OPLS_2005

> <r_lp_Energy>
25.2575

> <b_lp_Chiralities_Consistent>
1

> <s_lp_Variant>
AV-unprocessed.smi:771-2

> <Gold.Version>
5.8.1

> <Gold.Id.Protein>
6NUR|6NUR_protein|mol2

> <Gold.PLP.Fitness>
45.5315

> <Gold.PLP.PLP>
-33.1662

> <Gold.PLP.part.hbond>
-5.3645

> <Gold.PLP.part.metal>
0.0000

> <Gold.PLP.part.buried>
-5.4389

> <Gold.PLP.part.nonpolar>
-23.6728

> <Gold.PLP.part.repulsive>
0.0538

> <Gold.PLP.ligand.clash>
0.0000

> <Gold.PLP.ligand.torsion>
1.3414

> <Gold.PLP.Chemscore.Hbond>
5.0000

> <Gold.PLP.Chemscore.CHOScore>
0.0000

> <Gold.PLP.Chemscore.Metal>
0.0000

> <Gold.Chemscore.Hbonds>
donor molecule, donor type, donor heavy atom, donor atom, acceptor molecule, acceptor atom, score
      L1  H    22    41       P1  7949  1.00
      P1  H  6896  6909       L1     1  1.00
      P1  H  6931  6943       L1     9  0.99
      P1  H  6934  6947       L1     8  0.90
      P1  H 10752 10764       L1    22  0.55

> <Gold.PLP.Chemscore.Internal.Correction>
0.0482

> <Gold.Rescore>
     Score         DG    S(hbond)    S(metal)    S(lipo)     H(rot)  DE(clash)    DE(int)     intcor
     19.45     -21.05       4.25        0.00      66.01       2.48       0.00       1.60       ----

> <Gold.Chemscore.Fitness>
19.4483

> <Gold.Chemscore.DG>
-21.0507

> <Gold.Chemscore.ZeroCoef>
-5.4800

> <Gold.Chemscore.Hbond>
4.2468

> <Gold.Chemscore.Metal>
0.0000

> <Gold.Chemscore.Lipo>
66.0104

> <Gold.Chemscore.Internal_Hbond>
0.0000

> <Gold.Chemscore.DEClash>
0.0029

> <Gold.Chemscore.DEInternal>
1.5994

> <Gold.Chemscore.Rot>
2.4753

> <Gold.Chemscore.Internal.Correction>
   9.000000E+99

> <Gold.Chemscore.Hbonds>
donor molecule, donor type, donor heavy atom, donor atom, acceptor molecule, acceptor atom, score
      L1  H    22    41       P1  7949  1.00
      P1  H  6896  6909       L1     1  0.78
      P1  H  6931  6943       L1     9  0.70
      P1  H  6934  6947       L1     8  0.18
      P1  H 10752 10764       L1    22  0.16

> <Gold.Chemscore.Hbond.Weighted>
-14.1844

> <Gold.Chemscore.Metal.Weighted>
-0.0000

> <Gold.Chemscore.Lipo.Weighted>
-7.7232

> <Gold.Chemscore.Internal_Hbond.Weighted>
0.0000

> <Gold.Chemscore.DEClash.Weighted>
0.0029

> <Gold.Chemscore.DEInternal.Weighted>
1.5994

> <Gold.Chemscore.Rot.Weighted>
6.3369

> <Gold.Chemscore.Internal.Correction.Weighted>
   9.000000E+99

> <Gold.Protein.RotatedTorsions>
[ 6907 6896 6895 6894 ] final  -35.49 input  -60.11 | X-H torsion
[ 7974 7965 7964 7962 ] final   65.00 input  175.53 | X-H torsion
[ 8008 7997 7996 7995 ] final  -21.28 input   59.86 | X-H torsion
[ 10167 10162 10161 10158 ] final   42.01 input  -65.29 | X-H torsion
[ 10718 10713 10712 10709 ] final  130.91 input   66.30 | X-H torsion
[ 10763 10752 10751 10750 ] final  -86.24 input  -60.55 | X-H torsion
[ 11005 11000 10999 10996 ] final -160.38 input  -57.11 | X-H torsion

> <Gold.Protein.ActiveResidues>
 VAL166  LYS551  ARG553  GLY616  TRP617  ASP618  TYR619  PRO620  LYS621  CYS622 
 ASP623  PHE694  ASN695  SER759  ASP760  ASP761  ALA762  ILE779  LEU786  VAL792 
 PHE793  MET794  SER795  GLU796  ALA797  LYS798  CYS799  TRP800  GLU811  SER814 

> <Gold.Protein.RotatedAtoms>
  151.0392  134.9595  159.8152 H   0  0  0  0  0  0  0  0  0  0  0  0  # atno 6907 bound_to 6896
  152.5361  134.2680  159.8970 H   0  0  0  0  0  0  0  0  0  0  0  0  # atno 6908 bound_to 6896
  151.2692  133.4221  159.2654 H   0  0  0  0  0  0  0  0  0  0  0  0  # atno 6909 bound_to 6896
  145.8436  139.3210  143.0917 H   0  0  0  0  0  0  0  0  0  0  0  0  # atno 7974 bound_to 7965
  154.4715  140.2039  155.9982 H   0  0  0  0  0  0  0  0  0  0  0  0  # atno 8008 bound_to 7997
  156.1019  140.3242  155.7924 H   0  0  0  0  0  0  0  0  0  0  0  0  # atno 8009 bound_to 7997
  155.4783  140.0536  157.2961 H   0  0  0  0  0  0  0  0  0  0  0  0  # atno 8010 bound_to 7997
  140.3587  144.2257  150.6140 H   0  0  0  0  0  0  0  0  0  0  0  0  # atno 10167 bound_to 10162
  157.5018  131.1094  150.9417 H   0  0  0  0  0  0  0  0  0  0  0  0  # atno 10718 bound_to 10713
  154.6203  135.5456  153.7567 H   0  0  0  0  0  0  0  0  0  0  0  0  # atno 10763 bound_to 10752
  153.0235  135.6411  154.1451 H   0  0  0  0  0  0  0  0  0  0  0  0  # atno 10764 bound_to 10752
  154.1385  135.2910  155.3147 H   0  0  0  0  0  0  0  0  0  0  0  0  # atno 10765 bound_to 10752
  140.6322  134.4640  157.5230 H   0  0  0  0  0  0  0  0  0  0  0  0  # atno 11005 bound_to 11000
  145.9437  140.8960  143.0294 LP  0  0  0  0  0  0  0  0  0  0  0  0  # atno 17320 bound_to 7965
  144.6732  140.1584  143.7424 LP  0  0  0  0  0  0  0  0  0  0  0  0  # atno 17321 bound_to 7965
  140.5149  143.2281  151.8479 LP  0  0  0  0  0  0  0  0  0  0  0  0  # atno 17342 bound_to 10162
  139.4817  144.4906  151.9189 LP  0  0  0  0  0  0  0  0  0  0  0  0  # atno 17343 bound_to 10162
  157.0085  130.5627  149.5318 LP  0  0  0  0  0  0  0  0  0  0  0  0  # atno 17370 bound_to 10713
  156.0234  130.5328  150.8338 LP  0  0  0  0  0  0  0  0  0  0  0  0  # atno 17371 bound_to 10713
  139.9112  134.8341  156.1523 LP  0  0  0  0  0  0  0  0  0  0  0  0  # atno 17394 bound_to 11000
  141.0667  133.6816  156.2059 LP  0  0  0  0  0  0  0  0  0  0  0  0  # atno 17395 bound_to 11000

$$$$
