AV-unprocessed.smi:153|AV-procd|sdf|1255|dock8
  -GOLD-   2262018493D 1   1.00000     0.00000
 Structure written by MMmdl.
 60 63  0  0  0  0  0  0  0  0  2 V2000
  150.6077  144.9070  159.2320 C   0  0  0  0  0  0  0  0  0  0  0  0
  151.7555  143.9540  158.8600 C   0  0  1  0  0  0  0  0  0  0  0  0
  152.7238  144.0019  159.9058 O   0  0  0  0  0  0  0  0  0  0  0  0
  153.3073  142.7202  160.0584 C   0  0  0  0  0  0  0  0  0  0  0  0
  152.1207  141.7949  159.8487 C   0  0  0  0  0  0  0  0  0  0  0  0
  151.3828  142.4553  158.6842 C   0  0  1  0  0  0  0  0  0  0  0  0
  149.9951  142.2151  158.8430 O   0  0  0  0  0  0  0  0  0  0  0  0
  151.8150  141.9341  157.2866 C   0  0  0  0  0  0  0  0  0  0  0  0
  151.6306  140.5027  157.0944 N   0  0  0  0  0  0  0  0  0  0  0  0
  152.1086  139.4992  157.9039 C   0  0  0  0  0  0  0  0  0  0  0  0
  151.7999  138.2897  157.5275 N   0  0  0  0  0  0  0  0  0  0  0  0
  151.0728  138.4618  156.3535 C   0  0  0  0  0  0  0  0  0  0  0  0
  150.4270  137.5809  155.4307 C   0  0  0  0  0  0  0  0  0  0  0  0
  150.3933  136.2214  155.5300 N   0  0  0  0  0  0  0  0  0  0  0  0
  150.9902  135.5624  156.6857 C   0  0  0  0  0  0  0  0  0  0  0  0
  149.4103  135.4726  154.7432 C   0  0  0  0  0  0  0  0  0  0  0  0
  148.3020  134.8501  155.6173 C   0  0  1  0  0  0  0  0  0  0  0  0
  147.5017  135.8948  156.1356 O   0  0  0  0  0  0  0  0  0  0  0  0
  147.3823  133.9288  154.7907 C   0  0  0  0  0  0  0  0  0  0  0  0
  147.0421  134.4982  153.4613 N   0  3  0  0  0  0  0  0  0  0  0  0
  146.6377  133.4575  152.4860 C   0  0  0  0  0  0  0  0  0  0  0  0
  146.3624  134.0870  151.1100 C   0  0  0  0  0  0  0  0  0  0  0  0
  145.3629  135.0906  151.2365 O   0  0  0  0  0  0  0  0  0  0  0  0
  145.7711  136.1411  152.1035 C   0  0  0  0  0  0  0  0  0  0  0  0
  146.0273  135.5801  153.5127 C   0  0  0  0  0  0  0  0  0  0  0  0
  149.7913  138.1579  154.3761 N   0  0  0  0  0  0  0  0  0  0  0  0
  149.7820  139.4839  154.2216 C   0  0  0  0  0  0  0  0  0  0  0  0
  150.3315  140.4153  154.9995 N   0  0  0  0  0  0  0  0  0  0  0  0
  150.9679  139.8549  156.0662 C   0  0  0  0  0  0  0  0  0  0  0  0
  149.8431  144.9279  158.4551 H   0  0  0  0  0  0  0  0  0  0  0  0
  150.9761  145.9253  159.3581 H   0  0  0  0  0  0  0  0  0  0  0  0
  150.1329  144.6105  160.1680 H   0  0  0  0  0  0  0  0  0  0  0  0
  152.2350  144.3276  157.9539 H   0  0  0  0  0  0  0  0  0  0  0  0
  154.0705  142.5640  159.2946 H   0  0  0  0  0  0  0  0  0  0  0  0
  153.7671  142.6016  161.0397 H   0  0  0  0  0  0  0  0  0  0  0  0
  152.4134  140.7598  159.6809 H   0  0  0  0  0  0  0  0  0  0  0  0
  151.5056  141.8135  160.7503 H   0  0  0  0  0  0  0  0  0  0  0  0
  149.6273  142.0060  157.9980 H   0  0  0  0  0  0  0  0  0  0  0  0
  151.2631  142.4571  156.5043 H   0  0  0  0  0  0  0  0  0  0  0  0
  152.8682  142.1588  157.1127 H   0  0  0  0  0  0  0  0  0  0  0  0
  152.6847  139.6941  158.7971 H   0  0  0  0  0  0  0  0  0  0  0  0
  151.9978  135.9362  156.8697 H   0  0  0  0  0  0  0  0  0  0  0  0
  151.0680  134.4875  156.5220 H   0  0  0  0  0  0  0  0  0  0  0  0
  150.3846  135.7217  157.5782 H   0  0  0  0  0  0  0  0  0  0  0  0
  148.9892  136.0664  153.9310 H   0  0  0  0  0  0  0  0  0  0  0  0
  149.9567  134.6708  154.2456 H   0  0  0  0  0  0  0  0  0  0  0  0
  148.7518  134.2959  156.4404 H   0  0  0  0  0  0  0  0  0  0  0  0
  147.0214  135.5639  156.8800 H   0  0  0  0  0  0  0  0  0  0  0  0
  147.8835  132.9682  154.6582 H   0  0  0  0  0  0  0  0  0  0  0  0
  146.4607  133.7179  155.3356 H   0  0  0  0  0  0  0  0  0  0  0  0
  147.4252  132.7087  152.3934 H   0  0  0  0  0  0  0  0  0  0  0  0
  145.7457  132.9434  152.8477 H   0  0  0  0  0  0  0  0  0  0  0  0
  147.2731  134.5133  150.6861 H   0  0  0  0  0  0  0  0  0  0  0  0
  146.0125  133.3261  150.4123 H   0  0  0  0  0  0  0  0  0  0  0  0
  146.6648  136.6282  151.7097 H   0  0  0  0  0  0  0  0  0  0  0  0
  144.9860  136.8967  152.1371 H   0  0  0  0  0  0  0  0  0  0  0  0
  145.0977  135.1923  153.9327 H   0  0  0  0  0  0  0  0  0  0  0  0
  146.3587  136.3885  154.1631 H   0  0  0  0  0  0  0  0  0  0  0  0
  149.2553  139.8509  153.3529 H   0  0  0  0  0  0  0  0  0  0  0  0
  147.8943  134.9061  153.1031 H   0  0  0  0  0  0  0  0  0  0  0  0
  1  2  1  0  0  0  0
  1 30  1  0  0  0  0
  1 31  1  0  0  0  0
  1 32  1  0  0  0  0
  2  6  1  0  0  0  0
  2  3  1  0  0  0  0
  2 33  1  0  0  0  0
  3  4  1  0  0  0  0
  4  5  1  0  0  0  0
  4 34  1  0  0  0  0
  4 35  1  0  0  0  0
  5  6  1  0  0  0  0
  5 36  1  0  0  0  0
  5 37  1  0  0  0  0
  6  7  1  0  0  0  0
  6  8  1  0  0  0  0
  7 38  1  0  0  0  0
  8  9  1  0  0  0  0
  8 39  1  0  0  0  0
  8 40  1  0  0  0  0
  9 29  1  0  0  0  0
  9 10  1  0  0  0  0
 10 11  2  0  0  0  0
 10 41  1  0  0  0  0
 11 12  1  0  0  0  0
 12 29  2  0  0  0  0
 12 13  1  0  0  0  0
 13 14  1  0  0  0  0
 13 26  2  0  0  0  0
 14 15  1  0  0  0  0
 14 16  1  0  0  0  0
 15 42  1  0  0  0  0
 15 43  1  0  0  0  0
 15 44  1  0  0  0  0
 16 17  1  0  0  0  0
 16 45  1  0  0  0  0
 16 46  1  0  0  0  0
 17 18  1  0  0  0  0
 17 19  1  0  0  0  0
 17 47  1  0  0  0  0
 18 48  1  0  0  0  0
 19 20  1  0  0  0  0
 19 49  1  0  0  0  0
 19 50  1  0  0  0  0
 20 25  1  0  0  0  0
 20 21  1  0  0  0  0
 20 60  1  0  0  0  0
 21 22  1  0  0  0  0
 21 51  1  0  0  0  0
 21 52  1  0  0  0  0
 22 23  1  0  0  0  0
 22 53  1  0  0  0  0
 22 54  1  0  0  0  0
 23 24  1  0  0  0  0
 24 25  1  0  0  0  0
 24 55  1  0  0  0  0
 24 56  1  0  0  0  0
 25 57  1  0  0  0  0
 25 58  1  0  0  0  0
 26 27  1  0  0  0  0
 27 28  2  0  0  0  0
 27 59  1  0  0  0  0
 28 29  1  0  0  0  0
M  CHG  1  20   1
M  END
> <s_m_source_file>
AV-unprocessed.smi

> <i_m_source_file_index>
153

> <i_lp_mmshare_version>
43012

> <i_f3d_flags>
0

> <s_epik_input>
W0NIMl0xW0NIMl1PW0NAQEhdKFtDSDNdKVtDQEBdMShbT0hdKVtDSDJdbihbY0hdbjIpYyhjMjMpbltjSF1uYzNOKFtDSDNdKVtDSDJdW0NASF0oW09IXSlbQ0gyXU40W0NIMl1bQ0gyXU9bQ0gyXVtDSDJdNA==

> <s_epik_cmdline>
J2VwaWtfcHl0aG9uJywgJy1waCcsICc3LjAnLCAnLXRuJywgJzgnLCAnLW1hJywgJzIwMCcsICctbWV0YWxfYmluZGluZycsICctaW1hZScsICc8aW5maWxlLm1hZT4nLCAnLW9tYWUnLCAnPG91dGZpbGUubWFlPic=

> <r_lp_tautomer_probability>
1

> <r_epik_Ionization_Penalty>
0.403509

> <r_epik_Ionization_Penalty_Charging>
0.40072

> <r_epik_Ionization_Penalty_Neutral>
0.00278876

> <r_epik_State_Penalty>
0.400058

> <r_epik_Charging_Adjusted_Penalty>
0.800778

> <i_epik_Tot_Q>
1

> <i_epik_Tot_abs_Q>
1

> <r_epik_Metal_State_Penalty>
0.400321

> <b_epik_Metal_Only>
0

> <s_lp_Force_Field>
OPLS_2005

> <r_lp_Energy>
46.896

> <b_lp_Chiralities_Consistent>
1

> <s_lp_Variant>
AV-unprocessed.smi:153-6

> <Gold.Version>
5.8.1

> <Gold.Id.Protein>
6NUR|6NUR_protein|mol2

> <Gold.PLP.Fitness>
46.9447

> <Gold.PLP.PLP>
-37.1101

> <Gold.PLP.part.hbond>
-2.9307

> <Gold.PLP.part.metal>
0.0000

> <Gold.PLP.part.buried>
-3.8524

> <Gold.PLP.part.nonpolar>
-30.5197

> <Gold.PLP.part.repulsive>
0.4887

> <Gold.PLP.ligand.clash>
0.0000

> <Gold.PLP.ligand.torsion>
0.5690

> <Gold.PLP.Chemscore.Hbond>
2.5000

> <Gold.PLP.Chemscore.CHOScore>
1.0000

> <Gold.PLP.Chemscore.Metal>
0.0000

> <Gold.Chemscore.Hbonds>
donor molecule, donor type, donor heavy atom, donor atom, acceptor molecule, acceptor atom, score
      L1  H    20    60       P1  7948  1.76
      P1  H  7989  7998       L1    28  0.50
      L1  C    27    59       P1  7957  1.00

> <Gold.PLP.Chemscore.Internal.Correction>
0.4726

> <Gold.Rescore>
     Score         DG    S(hbond)    S(metal)    S(lipo)     H(rot)  DE(clash)    DE(int)     intcor
      7.02     -10.09       0.85        0.00      94.19       3.62       0.74       2.33       ----

> <Gold.Chemscore.Fitness>
7.0188

> <Gold.Chemscore.DG>
-10.0876

> <Gold.Chemscore.ZeroCoef>
-5.4800

> <Gold.Chemscore.Hbond>
0.8534

> <Gold.Chemscore.Metal>
0.0000

> <Gold.Chemscore.Lipo>
94.1871

> <Gold.Chemscore.Internal_Hbond>
0.0000

> <Gold.Chemscore.DEClash>
0.7395

> <Gold.Chemscore.DEInternal>
2.3294

> <Gold.Chemscore.Rot>
3.6182

> <Gold.Chemscore.Internal.Correction>
   9.000000E+99

> <Gold.Chemscore.Hbonds>
donor molecule, donor type, donor heavy atom, donor atom, acceptor molecule, acceptor atom, score
      L1  H    20    60       P1  7948  0.80
      P1  H  7989  7998       L1    28  0.02

> <Gold.Chemscore.Hbond.Weighted>
-2.8502

> <Gold.Chemscore.Metal.Weighted>
-0.0000

> <Gold.Chemscore.Lipo.Weighted>
-11.0199

> <Gold.Chemscore.Internal_Hbond.Weighted>
0.0000

> <Gold.Chemscore.DEClash.Weighted>
0.7395

> <Gold.Chemscore.DEInternal.Weighted>
2.3294

> <Gold.Chemscore.Rot.Weighted>
9.2625

> <Gold.Chemscore.Internal.Correction.Weighted>
   9.000000E+99

> <Gold.Protein.RotatedTorsions>
[ 6907 6896 6895 6894 ] final  -39.78 input  -60.11 | X-H torsion
[ 7974 7965 7964 7962 ] final  -79.03 input  175.53 | X-H torsion
[ 8008 7997 7996 7995 ] final    7.37 input   59.86 | X-H torsion
[ 10167 10162 10161 10158 ] final   73.85 input  -65.29 | X-H torsion
[ 10718 10713 10712 10709 ] final   36.73 input   66.30 | X-H torsion
[ 10763 10752 10751 10750 ] final   -0.70 input  -60.55 | X-H torsion
[ 11005 11000 10999 10996 ] final  158.10 input  -57.11 | X-H torsion

> <Gold.Protein.ActiveResidues>
 VAL166  LYS551  ARG553  GLY616  TRP617  ASP618  TYR619  PRO620  LYS621  CYS622 
 ASP623  PHE694  ASN695  SER759  ASP760  ASP761  ALA762  ILE779  LEU786  VAL792 
 PHE793  MET794  SER795  GLU796  ALA797  LYS798  CYS799  TRP800  GLU811  SER814 

> <Gold.Protein.RotatedAtoms>
  150.9863  134.9207  159.7873 H   0  0  0  0  0  0  0  0  0  0  0  0  # atno 6907 bound_to 6896
  152.5237  134.3342  159.9204 H   0  0  0  0  0  0  0  0  0  0  0  0  # atno 6908 bound_to 6896
  151.3349  133.3944  159.2700 H   0  0  0  0  0  0  0  0  0  0  0  0  # atno 6909 bound_to 6896
  145.5786  140.9452  143.1356 H   0  0  0  0  0  0  0  0  0  0  0  0  # atno 7974 bound_to 7965
  154.7530  140.2770  155.6277 H   0  0  0  0  0  0  0  0  0  0  0  0  # atno 8008 bound_to 7997
  156.2899  140.2675  156.2215 H   0  0  0  0  0  0  0  0  0  0  0  0  # atno 8009 bound_to 7997
  155.0113  140.0372  157.2390 H   0  0  0  0  0  0  0  0  0  0  0  0  # atno 8010 bound_to 7997
  140.0200  144.5548  150.7589 H   0  0  0  0  0  0  0  0  0  0  0  0  # atno 10167 bound_to 10162
  157.3384  130.7535  149.6895 H   0  0  0  0  0  0  0  0  0  0  0  0  # atno 10718 bound_to 10713
  153.3353  135.6977  153.6912 H   0  0  0  0  0  0  0  0  0  0  0  0  # atno 10763 bound_to 10752
  153.5699  135.3518  155.2834 H   0  0  0  0  0  0  0  0  0  0  0  0  # atno 10764 bound_to 10752
  154.8626  135.4269  154.2553 H   0  0  0  0  0  0  0  0  0  0  0  0  # atno 10765 bound_to 10752
  140.1832  134.8460  157.2827 H   0  0  0  0  0  0  0  0  0  0  0  0  # atno 11005 bound_to 11000
  144.7404  139.7465  143.7313 LP  0  0  0  0  0  0  0  0  0  0  0  0  # atno 17320 bound_to 7965
  146.1732  139.4892  142.9914 LP  0  0  0  0  0  0  0  0  0  0  0  0  # atno 17321 bound_to 7965
  140.7346  143.2731  151.3825 LP  0  0  0  0  0  0  0  0  0  0  0  0  # atno 17342 bound_to 10162
  139.6146  144.1028  152.2333 LP  0  0  0  0  0  0  0  0  0  0  0  0  # atno 17343 bound_to 10162
  155.9704  130.4175  150.4281 LP  0  0  0  0  0  0  0  0  0  0  0  0  # atno 17370 bound_to 10713
  157.2325  131.0507  151.2484 LP  0  0  0  0  0  0  0  0  0  0  0  0  # atno 17371 bound_to 10713
  140.2243  134.3985  155.7551 LP  0  0  0  0  0  0  0  0  0  0  0  0  # atno 17394 bound_to 11000
  141.2224  133.7182  156.8540 LP  0  0  0  0  0  0  0  0  0  0  0  0  # atno 17395 bound_to 11000

$$$$
