AV-unprocessed.smi:3112|AV-procd|sdf|11838|dock5
  -GOLD-   2272017213D 1   1.00000     0.00000
 Structure written by MMmdl.
 37 37  0  0  0  0  0  0  0  0  2 V2000
  149.1762  141.0177  154.6829 C   0  0  0  0  0  0  0  0  0  0  0  0
  147.9269  140.6394  153.8753 C   0  0  0  0  0  0  0  0  0  0  0  0
  147.7885  139.1251  153.6348 C   0  0  2  0  0  0  0  0  0  0  0  0
  149.0368  138.6133  153.2107 O   0  0  0  0  0  0  0  0  0  0  0  0
  146.7426  138.8069  152.5530 C   0  0  0  0  0  0  0  0  0  0  0  0
  146.4204  137.3644  152.5348 N   0  3  0  0  0  0  0  0  0  0  0  0
  145.2857  136.9668  151.6680 C   0  0  1  0  0  0  0  0  0  0  0  0
  145.7038  136.9522  150.1846 C   0  0  0  0  0  0  0  0  0  0  0  0
  144.6930  135.6052  152.1185 C   0  0  2  0  0  0  0  0  0  0  0  0
  144.8641  135.3421  153.6267 C   0  0  0  0  0  0  0  0  0  0  0  0
  145.1643  134.4805  151.3154 N   0  0  0  0  0  0  0  0  0  0  0  0
  144.4270  133.6599  150.4857 C   0  0  0  0  0  0  0  0  0  0  0  0
  145.2886  132.7602  149.9267 C   0  0  0  0  0  0  0  0  0  0  0  0
  146.5509  133.1140  150.4776 C   0  0  0  0  0  0  0  0  0  0  0  0
  146.4746  134.1442  151.3041 N   0  0  0  0  0  0  0  0  0  0  0  0
  149.2108  142.0929  154.8600 H   0  0  0  0  0  0  0  0  0  0  0  0
  150.0909  140.7415  154.1581 H   0  0  0  0  0  0  0  0  0  0  0  0
  149.1831  140.5217  155.6539 H   0  0  0  0  0  0  0  0  0  0  0  0
  147.0503  140.9970  154.4167 H   0  0  0  0  0  0  0  0  0  0  0  0
  147.9315  141.1708  152.9225 H   0  0  0  0  0  0  0  0  0  0  0  0
  147.5073  138.6365  154.5691 H   0  0  0  0  0  0  0  0  0  0  0  0
  148.8864  137.8169  152.7237 H   0  0  0  0  0  0  0  0  0  0  0  0
  145.8249  139.3606  152.7550 H   0  0  0  0  0  0  0  0  0  0  0  0
  147.1044  139.1314  151.5773 H   0  0  0  0  0  0  0  0  0  0  0  0
  147.2414  136.8473  152.2532 H   0  0  0  0  0  0  0  0  0  0  0  0
  144.4999  137.7139  151.7896 H   0  0  0  0  0  0  0  0  0  0  0  0
  144.8873  136.5998  149.5537 H   0  0  0  0  0  0  0  0  0  0  0  0
  146.5598  136.2985  150.0132 H   0  0  0  0  0  0  0  0  0  0  0  0
  145.9723  137.9468  149.8298 H   0  0  0  0  0  0  0  0  0  0  0  0
  143.6167  135.6647  151.9480 H   0  0  0  0  0  0  0  0  0  0  0  0
  144.4287  136.1496  154.2158 H   0  0  0  0  0  0  0  0  0  0  0  0
  145.9128  135.2536  153.9114 H   0  0  0  0  0  0  0  0  0  0  0  0
  144.3652  134.4178  153.9198 H   0  0  0  0  0  0  0  0  0  0  0  0
  143.3609  133.7827  150.3619 H   0  0  0  0  0  0  0  0  0  0  0  0
  145.0531  131.9701  149.2292 H   0  0  0  0  0  0  0  0  0  0  0  0
  147.5138  132.6575  150.3015 H   0  0  0  0  0  0  0  0  0  0  0  0
  146.1903  137.0956  153.4805 H   0  0  0  0  0  0  0  0  0  0  0  0
  1  2  1  0  0  0  0
  1 16  1  0  0  0  0
  1 17  1  0  0  0  0
  1 18  1  0  0  0  0
  2  3  1  0  0  0  0
  2 19  1  0  0  0  0
  2 20  1  0  0  0  0
  3  4  1  0  0  0  0
  3  5  1  0  0  0  0
  3 21  1  0  0  0  0
  4 22  1  0  0  0  0
  5  6  1  0  0  0  0
  5 23  1  0  0  0  0
  5 24  1  0  0  0  0
  6  7  1  0  0  0  0
  6 25  1  0  0  0  0
  6 37  1  0  0  0  0
  7  8  1  0  0  0  0
  7  9  1  0  0  0  0
  7 26  1  0  0  0  0
  8 27  1  0  0  0  0
  8 28  1  0  0  0  0
  8 29  1  0  0  0  0
  9 10  1  0  0  0  0
  9 11  1  0  0  0  0
  9 30  1  0  0  0  0
 10 31  1  0  0  0  0
 10 32  1  0  0  0  0
 10 33  1  0  0  0  0
 11 15  1  0  0  0  0
 11 12  1  0  0  0  0
 12 13  2  0  0  0  0
 12 34  1  0  0  0  0
 13 14  1  0  0  0  0
 13 35  1  0  0  0  0
 14 15  2  0  0  0  0
 14 36  1  0  0  0  0
M  CHG  1   6   1
M  END
> <s_m_source_file>
AV-unprocessed.smi

> <i_m_source_file_index>
3112

> <i_lp_mmshare_version>
43012

> <i_f3d_flags>
0

> <s_epik_input>
W0NIM11bQ0gyXVtDQEhdKFtPSF0pW0NIMl1bTkhdW0NASF0oW0NIM10pW0NASF0oW0NIM10pbjFbY0hdW2NIXVtjSF1uMQ==

> <s_epik_cmdline>
J2VwaWtfcHl0aG9uJywgJy1waCcsICc3LjAnLCAnLXRuJywgJzgnLCAnLW1hJywgJzIwMCcsICctbWV0YWxfYmluZGluZycsICctaW1hZScsICc8aW5maWxlLm1hZT4nLCAnLW9tYWUnLCAnPG91dGZpbGUubWFlPic=

> <r_lp_tautomer_probability>
1

> <r_epik_Ionization_Penalty>
0.0154842

> <r_epik_Ionization_Penalty_Charging>
0.0154724

> <r_epik_Ionization_Penalty_Neutral>
1.17979e-05

> <r_epik_State_Penalty>
0.0121607

> <r_epik_Charging_Adjusted_Penalty>
0.0276331

> <i_epik_Tot_Q>
1

> <i_epik_Tot_abs_Q>
1

> <r_epik_Metal_State_Penalty>
0.0121863

> <b_epik_Metal_Only>
0

> <s_lp_Force_Field>
OPLS_2005

> <r_lp_Energy>
12.0711

> <b_lp_Chiralities_Consistent>
1

> <s_lp_Variant>
AV-unprocessed.smi:3112-3

> <Gold.Version>
5.8.1

> <Gold.Id.Protein>
6NUR|6NUR_protein|mol2

> <Gold.PLP.Fitness>
39.3745

> <Gold.PLP.PLP>
-26.6757

> <Gold.PLP.part.hbond>
-3.0000

> <Gold.PLP.part.metal>
0.0000

> <Gold.PLP.part.buried>
3.8579

> <Gold.PLP.part.nonpolar>
-28.0077

> <Gold.PLP.part.repulsive>
0.2327

> <Gold.PLP.ligand.clash>
0.0000

> <Gold.PLP.ligand.torsion>
1.2642

> <Gold.PLP.Chemscore.Hbond>
3.0000

> <Gold.PLP.Chemscore.CHOScore>
1.9995

> <Gold.PLP.Chemscore.Metal>
0.0000

> <Gold.Chemscore.Hbonds>
donor molecule, donor type, donor heavy atom, donor atom, acceptor molecule, acceptor atom, score
      L1  H     4    22       P1  7948  1.00
      L1  H     6    25       P1  7948  2.00
      L1  C    12    34       P1 10186  0.90
      L1  C    14    36       P1 10747  1.00

> <Gold.PLP.Chemscore.Internal.Correction>
0.2289

> <Gold.Rescore>
     Score         DG    S(hbond)    S(metal)    S(lipo)     H(rot)  DE(clash)    DE(int)     intcor
     11.45     -15.33       2.00        0.00      79.94       2.41       2.81       1.07       ----

> <Gold.Chemscore.Fitness>
11.4527

> <Gold.Chemscore.DG>
-15.3325

> <Gold.Chemscore.ZeroCoef>
-5.4800

> <Gold.Chemscore.Hbond>
1.9958

> <Gold.Chemscore.Metal>
0.0000

> <Gold.Chemscore.Lipo>
79.9410

> <Gold.Chemscore.Internal_Hbond>
0.0000

> <Gold.Chemscore.DEClash>
2.8102

> <Gold.Chemscore.DEInternal>
1.0696

> <Gold.Chemscore.Rot>
2.4089

> <Gold.Chemscore.Internal.Correction>
   9.000000E+99

> <Gold.Chemscore.Hbonds>
donor molecule, donor type, donor heavy atom, donor atom, acceptor molecule, acceptor atom, score
      L1  H     4    22       P1  7948  1.00
      L1  H     6    25       P1  7948  1.00

> <Gold.Chemscore.Hbond.Weighted>
-6.6661

> <Gold.Chemscore.Metal.Weighted>
-0.0000

> <Gold.Chemscore.Lipo.Weighted>
-9.3531

> <Gold.Chemscore.Internal_Hbond.Weighted>
0.0000

> <Gold.Chemscore.DEClash.Weighted>
2.8102

> <Gold.Chemscore.DEInternal.Weighted>
1.0696

> <Gold.Chemscore.Rot.Weighted>
6.1667

> <Gold.Chemscore.Internal.Correction.Weighted>
   9.000000E+99

> <Gold.Protein.RotatedTorsions>
[ 6907 6896 6895 6894 ] final  -78.68 input  -60.11 | X-H torsion
[ 7974 7965 7964 7962 ] final  -67.56 input  175.53 | X-H torsion
[ 8008 7997 7996 7995 ] final  -17.96 input   59.86 | X-H torsion
[ 10167 10162 10161 10158 ] final -171.41 input  -65.29 | X-H torsion
[ 10718 10713 10712 10709 ] final -116.03 input   66.30 | X-H torsion
[ 10763 10752 10751 10750 ] final  122.30 input  -60.55 | X-H torsion
[ 11005 11000 10999 10996 ] final -163.73 input  -57.11 | X-H torsion

> <Gold.Protein.ActiveResidues>
 VAL166  LYS551  ARG553  GLY616  TRP617  ASP618  TYR619  PRO620  LYS621  CYS622 
 ASP623  PHE694  ASN695  SER759  ASP760  ASP761  ALA762  ILE779  LEU786  VAL792 
 PHE793  MET794  SER795  GLU796  ALA797  LYS798  CYS799  TRP800  GLU811  SER814 

> <Gold.Protein.RotatedAtoms>
  150.6967  134.4235  159.5215 H   0  0  0  0  0  0  0  0  0  0  0  0  # atno 6907 bound_to 6896
  152.1974  134.8615  160.0520 H   0  0  0  0  0  0  0  0  0  0  0  0  # atno 6908 bound_to 6896
  151.9548  133.3642  159.4050 H   0  0  0  0  0  0  0  0  0  0  0  0  # atno 6909 bound_to 6896
  145.7277  140.9011  143.0597 H   0  0  0  0  0  0  0  0  0  0  0  0  # atno 7974 bound_to 7965
  154.4940  140.2128  155.9487 H   0  0  0  0  0  0  0  0  0  0  0  0  # atno 8008 bound_to 7997
  156.1345  140.3191  155.8367 H   0  0  0  0  0  0  0  0  0  0  0  0  # atno 8009 bound_to 7997
  155.4236  140.0498  157.3014 H   0  0  0  0  0  0  0  0  0  0  0  0  # atno 8010 bound_to 7997
  139.5804  144.1437  152.1507 H   0  0  0  0  0  0  0  0  0  0  0  0  # atno 10167 bound_to 10162
  156.0935  130.6113  150.8983 H   0  0  0  0  0  0  0  0  0  0  0  0  # atno 10718 bound_to 10713
  153.6276  135.3402  155.3031 H   0  0  0  0  0  0  0  0  0  0  0  0  # atno 10763 bound_to 10752
  154.8587  135.4288  154.2140 H   0  0  0  0  0  0  0  0  0  0  0  0  # atno 10764 bound_to 10752
  153.3028  135.7026  153.7261 H   0  0  0  0  0  0  0  0  0  0  0  0  # atno 10765 bound_to 10752
  140.5948  134.5008  157.5198 H   0  0  0  0  0  0  0  0  0  0  0  0  # atno 11005 bound_to 11000
  144.6901  139.9288  143.7471 LP  0  0  0  0  0  0  0  0  0  0  0  0  # atno 17320 bound_to 7965
  146.0567  139.3563  143.0606 LP  0  0  0  0  0  0  0  0  0  0  0  0  # atno 17321 bound_to 7965
  140.0989  144.5557  150.7003 LP  0  0  0  0  0  0  0  0  0  0  0  0  # atno 17342 bound_to 10162
  140.7083  143.2484  151.4660 LP  0  0  0  0  0  0  0  0  0  0  0  0  # atno 17343 bound_to 10162
  157.6091  131.0937  150.8827 LP  0  0  0  0  0  0  0  0  0  0  0  0  # atno 17370 bound_to 10713
  156.8970  130.5233  149.5284 LP  0  0  0  0  0  0  0  0  0  0  0  0  # atno 17371 bound_to 10713
  139.9258  134.8059  156.1073 LP  0  0  0  0  0  0  0  0  0  0  0  0  # atno 17394 bound_to 11000
  141.0911  133.6714  156.2543 LP  0  0  0  0  0  0  0  0  0  0  0  0  # atno 17395 bound_to 11000

$$$$
