AV-unprocessed.smi:814|AV-procd|sdf|3823|dock8
  -GOLD-   22720 1263D 1   1.00000     0.00000
 Structure written by MMmdl.
 36 37  0  0  0  0  0  0  0  0  1 V2000
  152.8034  143.6207  162.4684 C   0  0  0  0  0  0  0  0  0  0  0  0
  152.3171  143.7451  161.1078 N   0  0  0  0  0  0  0  0  0  0  0  0
  151.2915  144.5790  160.6820 C   0  0  0  0  0  0  0  0  0  0  0  0
  151.1536  144.3754  159.3303 C   0  0  0  0  0  0  0  0  0  0  0  0
  152.0801  143.4275  158.9100 N   0  0  0  0  0  0  0  0  0  0  0  0
  152.7489  143.0944  160.0100 C   0  0  0  0  0  0  0  0  0  0  0  0
  153.8451  142.0746  160.0372 C   0  0  0  0  0  0  0  0  0  0  0  0
  153.3081  140.6374  159.9444 C   0  0  0  0  0  0  0  0  0  0  0  0
  152.1100  140.5628  159.1166 N   0  0  0  0  0  0  0  0  0  0  0  0
  152.0343  139.9526  157.9238 C   0  0  0  0  0  0  0  0  0  0  0  0
  152.9879  139.3755  157.4002 O   0  0  0  0  0  0  0  0  0  0  0  0
  150.6757  140.0047  157.2119 C   0  0  2  0  0  0  0  0  0  0  0  0
  150.6780  139.1364  155.9322 C   0  0  0  0  0  0  0  0  0  0  0  0
  149.4437  139.3707  155.0791 C   0  0  0  0  0  0  0  0  0  0  0  0
  148.6326  140.4321  155.2281 C   0  0  0  0  0  0  0  0  0  0  0  0
  148.8609  141.5202  156.2624 C   0  0  0  0  0  0  0  0  0  0  0  0
  150.2716  141.4549  156.8778 C   0  0  0  0  0  0  0  0  0  0  0  0
  152.1642  144.1841  163.1489 H   0  0  0  0  0  0  0  0  0  0  0  0
  153.8193  144.0112  162.5335 H   0  0  0  0  0  0  0  0  0  0  0  0
  152.7997  142.5733  162.7702 H   0  0  0  0  0  0  0  0  0  0  0  0
  150.7558  145.2288  161.3584 H   0  0  0  0  0  0  0  0  0  0  0  0
  150.4651  144.8322  158.6346 H   0  0  0  0  0  0  0  0  0  0  0  0
  154.5182  142.2760  159.2028 H   0  0  0  0  0  0  0  0  0  0  0  0
  154.4400  142.1998  160.9422 H   0  0  0  0  0  0  0  0  0  0  0  0
  154.0635  139.9865  159.5035 H   0  0  0  0  0  0  0  0  0  0  0  0
  153.1017  140.2415  160.9404 H   0  0  0  0  0  0  0  0  0  0  0  0
  151.2798  141.0149  159.4718 H   0  0  0  0  0  0  0  0  0  0  0  0
  149.9209  139.6011  157.8896 H   0  0  0  0  0  0  0  0  0  0  0  0
  151.5548  139.3382  155.3151 H   0  0  0  0  0  0  0  0  0  0  0  0
  150.7176  138.0808  156.2035 H   0  0  0  0  0  0  0  0  0  0  0  0
  149.2351  138.6394  154.3121 H   0  0  0  0  0  0  0  0  0  0  0  0
  147.7614  140.5341  154.5980 H   0  0  0  0  0  0  0  0  0  0  0  0
  148.7024  142.4951  155.8006 H   0  0  0  0  0  0  0  0  0  0  0  0
  148.1046  141.4102  157.0401 H   0  0  0  0  0  0  0  0  0  0  0  0
  150.3106  142.0828  157.7692 H   0  0  0  0  0  0  0  0  0  0  0  0
  150.9880  141.8795  156.1724 H   0  0  0  0  0  0  0  0  0  0  0  0
  1  2  1  0  0  0  0
  1 18  1  0  0  0  0
  1 19  1  0  0  0  0
  1 20  1  0  0  0  0
  2  6  1  0  0  0  0
  2  3  1  0  0  0  0
  3  4  2  0  0  0  0
  3 21  1  0  0  0  0
  4  5  1  0  0  0  0
  4 22  1  0  0  0  0
  5  6  2  0  0  0  0
  6  7  1  0  0  0  0
  7  8  1  0  0  0  0
  7 23  1  0  0  0  0
  7 24  1  0  0  0  0
  8  9  1  0  0  0  0
  8 25  1  0  0  0  0
  8 26  1  0  0  0  0
  9 10  1  0  0  0  0
  9 27  1  0  0  0  0
 10 11  2  0  0  0  0
 10 12  1  0  0  0  0
 12 17  1  0  0  0  0
 12 13  1  0  0  0  0
 12 28  1  0  0  0  0
 13 14  1  0  0  0  0
 13 29  1  0  0  0  0
 13 30  1  0  0  0  0
 14 15  2  0  0  0  0
 14 31  1  0  0  0  0
 15 16  1  0  0  0  0
 15 32  1  0  0  0  0
 16 17  1  0  0  0  0
 16 33  1  0  0  0  0
 16 34  1  0  0  0  0
 17 35  1  0  0  0  0
 17 36  1  0  0  0  0
M  END
> <s_m_source_file>
AV-unprocessed.smi

> <i_m_source_file_index>
814

> <i_lp_mmshare_version>
43012

> <i_f3d_flags>
0

> <s_epik_input>
W0NIM11uMVtjSF1bY0hdbmMxW0NIMl1bQ0gyXVtOSF1DKD1PKVtDQEBIXTJbQ0gyXVtDSF09W0NIXVtDSDJdW0NIMl0y

> <s_epik_cmdline>
J2VwaWtfcHl0aG9uJywgJy1waCcsICc3LjAnLCAnLXRuJywgJzgnLCAnLW1hJywgJzIwMCcsICctbWV0YWxfYmluZGluZycsICctaW1hZScsICc8aW5maWxlLm1hZT4nLCAnLW9tYWUnLCAnPG91dGZpbGUubWFlPic=

> <r_lp_tautomer_probability>
1

> <r_epik_Ionization_Penalty>
1.21249

> <r_epik_Ionization_Penalty_Charging>
1.21249

> <r_epik_Ionization_Penalty_Neutral>
1.60917e-08

> <r_epik_State_Penalty>
1.27906

> <r_epik_Charging_Adjusted_Penalty>
2.49154

> <i_epik_Tot_Q>
0

> <i_epik_Tot_abs_Q>
0

> <r_epik_Metal_State_Penalty>
0.409603

> <b_epik_Metal_Only>
0

> <s_lp_Force_Field>
OPLS_2005

> <r_lp_Energy>
6.39824

> <b_lp_Chiralities_Consistent>
1

> <s_lp_Variant>
AV-unprocessed.smi:814-3

> <Gold.Version>
5.8.1

> <Gold.Id.Protein>
6NUR|6NUR_protein|mol2

> <Gold.PLP.Fitness>
45.7655

> <Gold.PLP.PLP>
-43.6003

> <Gold.PLP.part.hbond>
-1.0000

> <Gold.PLP.part.metal>
0.0000

> <Gold.PLP.part.buried>
-3.2559

> <Gold.PLP.part.nonpolar>
-39.4779

> <Gold.PLP.part.repulsive>
0.1379

> <Gold.PLP.ligand.clash>
0.0000

> <Gold.PLP.ligand.torsion>
0.4294

> <Gold.PLP.Chemscore.Hbond>
1.0000

> <Gold.PLP.Chemscore.CHOScore>
0.0000

> <Gold.PLP.Chemscore.Metal>
0.0000

> <Gold.Chemscore.Hbonds>
donor molecule, donor type, donor heavy atom, donor atom, acceptor molecule, acceptor atom, score
      P1  H  7997  8010       L1    11  1.00

> <Gold.PLP.Chemscore.Internal.Correction>
0.0240

> <Gold.Rescore>
     Score         DG    S(hbond)    S(metal)    S(lipo)     H(rot)  DE(clash)    DE(int)     intcor
     15.23     -15.63       0.96        0.00      93.84       1.58       0.22       0.19       ----

> <Gold.Chemscore.Fitness>
15.2256

> <Gold.Chemscore.DG>
-15.6329

> <Gold.Chemscore.ZeroCoef>
-5.4800

> <Gold.Chemscore.Hbond>
0.9642

> <Gold.Chemscore.Metal>
0.0000

> <Gold.Chemscore.Lipo>
93.8437

> <Gold.Chemscore.Internal_Hbond>
0.0000

> <Gold.Chemscore.DEClash>
0.2210

> <Gold.Chemscore.DEInternal>
0.1863

> <Gold.Chemscore.Rot>
1.5809

> <Gold.Chemscore.Internal.Correction>
   9.000000E+99

> <Gold.Chemscore.Hbonds>
donor molecule, donor type, donor heavy atom, donor atom, acceptor molecule, acceptor atom, score
      P1  H  7997  8010       L1    11  1.00

> <Gold.Chemscore.Hbond.Weighted>
-3.2204

> <Gold.Chemscore.Metal.Weighted>
-0.0000

> <Gold.Chemscore.Lipo.Weighted>
-10.9797

> <Gold.Chemscore.Internal_Hbond.Weighted>
0.0000

> <Gold.Chemscore.DEClash.Weighted>
0.2210

> <Gold.Chemscore.DEInternal.Weighted>
0.1863

> <Gold.Chemscore.Rot.Weighted>
4.0472

> <Gold.Chemscore.Internal.Correction.Weighted>
   9.000000E+99

> <Gold.Protein.RotatedTorsions>
[ 6907 6896 6895 6894 ] final -149.94 input  -60.11 | X-H torsion
[ 7974 7965 7964 7962 ] final  138.94 input  175.53 | X-H torsion
[ 8008 7997 7996 7995 ] final   45.44 input   59.86 | X-H torsion
[ 10167 10162 10161 10158 ] final   69.87 input  -65.29 | X-H torsion
[ 10718 10713 10712 10709 ] final  131.42 input   66.30 | X-H torsion
[ 10763 10752 10751 10750 ] final  -30.24 input  -60.55 | X-H torsion
[ 11005 11000 10999 10996 ] final   28.94 input  -57.11 | X-H torsion

> <Gold.Protein.ActiveResidues>
 VAL166  LYS551  ARG553  GLY616  TRP617  ASP618  TYR619  PRO620  LYS621  CYS622 
 ASP623  PHE694  ASN695  SER759  ASP760  ASP761  ALA762  ILE779  LEU786  VAL792 
 PHE793  MET794  SER795  GLU796  ALA797  LYS798  CYS799  TRP800  GLU811  SER814 

> <Gold.Protein.RotatedAtoms>
  151.1914  133.4665  159.2594 H   0  0  0  0  0  0  0  0  0  0  0  0  # atno 6907 bound_to 6896
  151.1160  135.0053  159.8526 H   0  0  0  0  0  0  0  0  0  0  0  0  # atno 6908 bound_to 6896
  152.5453  134.1829  159.8696 H   0  0  0  0  0  0  0  0  0  0  0  0  # atno 6909 bound_to 6896
  144.9325  139.5029  143.5610 H   0  0  0  0  0  0  0  0  0  0  0  0  # atno 7974 bound_to 7965
  155.3359  140.3405  155.4239 H   0  0  0  0  0  0  0  0  0  0  0  0  # atno 8008 bound_to 7997
  156.1838  140.1673  156.8261 H   0  0  0  0  0  0  0  0  0  0  0  0  # atno 8009 bound_to 7997
  154.5363  140.0734  156.8416 H   0  0  0  0  0  0  0  0  0  0  0  0  # atno 8010 bound_to 7997
  140.0631  144.5216  150.7280 H   0  0  0  0  0  0  0  0  0  0  0  0  # atno 10167 bound_to 10162
  157.4969  131.1093  150.9481 H   0  0  0  0  0  0  0  0  0  0  0  0  # atno 10718 bound_to 10713
  153.7778  135.6907  153.4894 H   0  0  0  0  0  0  0  0  0  0  0  0  # atno 10763 bound_to 10752
  153.1832  135.4499  155.0053 H   0  0  0  0  0  0  0  0  0  0  0  0  # atno 10764 bound_to 10752
  154.8093  135.3370  154.7283 H   0  0  0  0  0  0  0  0  0  0  0  0  # atno 10765 bound_to 10752
  140.3103  134.2657  155.7735 H   0  0  0  0  0  0  0  0  0  0  0  0  # atno 11005 bound_to 11000
  146.3253  139.8287  142.8912 LP  0  0  0  0  0  0  0  0  0  0  0  0  # atno 17320 bound_to 7965
  145.3118  141.0222  143.3550 LP  0  0  0  0  0  0  0  0  0  0  0  0  # atno 17321 bound_to 7965
  140.7162  143.2547  151.4426 LP  0  0  0  0  0  0  0  0  0  0  0  0  # atno 17342 bound_to 10162
  139.5881  144.1559  152.2054 LP  0  0  0  0  0  0  0  0  0  0  0  0  # atno 17343 bound_to 10162
  157.0165  130.5657  149.5326 LP  0  0  0  0  0  0  0  0  0  0  0  0  # atno 17370 bound_to 10713
  156.0205  130.5300  150.8263 LP  0  0  0  0  0  0  0  0  0  0  0  0  # atno 17371 bound_to 10713
  141.2109  133.7704  156.9897 LP  0  0  0  0  0  0  0  0  0  0  0  0  # atno 17394 bound_to 11000
  140.1031  134.9523  157.1953 LP  0  0  0  0  0  0  0  0  0  0  0  0  # atno 17395 bound_to 11000

$$$$
