AV-unprocessed.smi:1863|AV-procd|sdf|7550|dock1
  -GOLD-   22720 9263D 1   1.00000     0.00000
 Structure written by MMmdl.
 37 38  0  0  0  0  0  0  0  0  1 V2000
  146.9283  142.2395  154.0159 C   0  0  0  0  0  0  0  0  0  0  0  0
  147.0867  140.7882  154.4903 C   0  0  2  0  0  0  0  0  0  0  0  0
  148.5360  140.2930  154.2918 C   0  0  0  0  0  0  0  0  0  0  0  0
  149.4530  140.8501  155.2852 N   0  0  0  0  0  0  0  0  0  0  0  0
  148.9688  141.7522  156.3166 C   0  0  0  0  0  0  0  0  0  0  0  0
  150.1585  141.9406  157.2676 C   0  0  0  0  0  0  0  0  0  0  0  0
  151.3857  141.4399  156.4990 C   0  0  0  0  0  0  0  0  0  0  0  0
  150.7807  140.6833  155.3289 C   0  0  0  0  0  0  0  0  0  0  0  0
  151.4554  140.0148  154.5467 O   0  0  0  0  0  0  0  0  0  0  0  0
  146.1492  139.9567  153.7372 N   0  0  0  0  0  0  0  0  0  0  0  0
  146.2086  138.6218  153.6212 C   0  0  0  0  0  0  0  0  0  0  0  0
  147.0724  137.9288  154.1585 O   0  0  0  0  0  0  0  0  0  0  0  0
  145.2315  138.1620  152.8217 N   0  0  0  0  0  0  0  0  0  0  0  0
  144.9681  136.8200  152.4376 C   0  0  0  0  0  0  0  0  0  0  0  0
  143.6249  136.3923  152.4017 C   0  0  0  0  0  0  0  0  0  0  0  0
  143.3381  135.0623  152.0404 C   0  0  0  0  0  0  0  0  0  0  0  0
  144.4128  134.2041  151.7377 C   0  0  0  0  0  0  0  0  0  0  0  0
  145.7048  134.5918  151.7827 N   0  0  0  0  0  0  0  0  0  0  0  0
  145.9726  135.8701  152.1273 C   0  0  0  0  0  0  0  0  0  0  0  0
  147.5864  142.9080  154.5719 H   0  0  0  0  0  0  0  0  0  0  0  0
  145.9064  142.5916  154.1617 H   0  0  0  0  0  0  0  0  0  0  0  0
  147.1686  142.3410  152.9568 H   0  0  0  0  0  0  0  0  0  0  0  0
  146.8473  140.7710  155.5552 H   0  0  0  0  0  0  0  0  0  0  0  0
  148.5778  139.2023  154.2984 H   0  0  0  0  0  0  0  0  0  0  0  0
  148.8941  140.5972  153.3072 H   0  0  0  0  0  0  0  0  0  0  0  0
  148.6797  142.6995  155.8594 H   0  0  0  0  0  0  0  0  0  0  0  0
  148.1000  141.3412  156.8325 H   0  0  0  0  0  0  0  0  0  0  0  0
  150.2657  142.9795  157.5810 H   0  0  0  0  0  0  0  0  0  0  0  0
  150.0167  141.3387  158.1664 H   0  0  0  0  0  0  0  0  0  0  0  0
  151.9861  142.2689  156.1233 H   0  0  0  0  0  0  0  0  0  0  0  0
  152.0187  140.7936  157.1077 H   0  0  0  0  0  0  0  0  0  0  0  0
  145.4093  140.4399  153.2494 H   0  0  0  0  0  0  0  0  0  0  0  0
  144.6530  138.8615  152.3799 H   0  0  0  0  0  0  0  0  0  0  0  0
  142.8219  137.0741  152.6418 H   0  0  0  0  0  0  0  0  0  0  0  0
  142.3188  134.7085  151.9963 H   0  0  0  0  0  0  0  0  0  0  0  0
  144.2304  133.1773  151.4572 H   0  0  0  0  0  0  0  0  0  0  0  0
  147.0226  136.1143  152.1713 H   0  0  0  0  0  0  0  0  0  0  0  0
  1  2  1  0  0  0  0
  1 20  1  0  0  0  0
  1 21  1  0  0  0  0
  1 22  1  0  0  0  0
  2  3  1  0  0  0  0
  2 10  1  0  0  0  0
  2 23  1  0  0  0  0
  3  4  1  0  0  0  0
  3 24  1  0  0  0  0
  3 25  1  0  0  0  0
  4  8  1  0  0  0  0
  4  5  1  0  0  0  0
  5  6  1  0  0  0  0
  5 26  1  0  0  0  0
  5 27  1  0  0  0  0
  6  7  1  0  0  0  0
  6 28  1  0  0  0  0
  6 29  1  0  0  0  0
  7  8  1  0  0  0  0
  7 30  1  0  0  0  0
  7 31  1  0  0  0  0
  8  9  2  0  0  0  0
 10 11  1  0  0  0  0
 10 32  1  0  0  0  0
 11 12  2  0  0  0  0
 11 13  1  0  0  0  0
 13 14  1  0  0  0  0
 13 33  1  0  0  0  0
 14 19  1  0  0  0  0
 14 15  2  0  0  0  0
 15 16  1  0  0  0  0
 15 34  1  0  0  0  0
 16 17  2  0  0  0  0
 16 35  1  0  0  0  0
 17 18  1  0  0  0  0
 17 36  1  0  0  0  0
 18 19  2  0  0  0  0
 19 37  1  0  0  0  0
M  END
> <s_m_source_file>
AV-unprocessed.smi

> <i_m_source_file_index>
1863

> <i_lp_mmshare_version>
43012

> <i_f3d_flags>
0

> <s_epik_input>
Tz1DMVtDSDJdW0NIMl1bQ0gyXU4xW0NIMl1bQ0BASF0oW0NIM10pW05IXUMoPU8pW05IXWMyW2NIXVtjSF1bY0hdbltjSF0y

> <s_epik_cmdline>
J2VwaWtfcHl0aG9uJywgJy1waCcsICc3LjAnLCAnLXRuJywgJzgnLCAnLW1hJywgJzIwMCcsICctbWV0YWxfYmluZGluZycsICctaW1hZScsICc8aW5maWxlLm1hZT4nLCAnLW9tYWUnLCAnPG91dGZpbGUubWFlPic=

> <r_epik_Ionization_Penalty>
0.0047799

> <r_epik_Ionization_Penalty_Charging>
0

> <r_epik_Ionization_Penalty_Neutral>
0.0047799

> <r_epik_State_Penalty>
0.0034394

> <r_epik_Charging_Adjusted_Penalty>
0.0034394

> <i_epik_Tot_Q>
0

> <i_epik_Tot_abs_Q>
0

> <r_epik_Metal_State_Penalty>
-0

> <b_epik_Metal_Only>
0

> <s_lp_Force_Field>
OPLS_2005

> <r_lp_Energy>
22.2943

> <b_lp_Chiralities_Consistent>
1

> <s_lp_Variant>
AV-unprocessed.smi:1863-1

> <Gold.Version>
5.8.1

> <Gold.Id.Protein>
6NUR|6NUR_protein|mol2

> <Gold.PLP.Fitness>
39.7230

> <Gold.PLP.PLP>
-29.0386

> <Gold.PLP.part.hbond>
-3.0000

> <Gold.PLP.part.metal>
0.0000

> <Gold.PLP.part.buried>
-3.2960

> <Gold.PLP.part.nonpolar>
-22.7410

> <Gold.PLP.part.repulsive>
0.2995

> <Gold.PLP.ligand.clash>
0.0000

> <Gold.PLP.ligand.torsion>
0.6903

> <Gold.PLP.Chemscore.Hbond>
3.0000

> <Gold.PLP.Chemscore.CHOScore>
1.0000

> <Gold.PLP.Chemscore.Metal>
0.0000

> <Gold.Chemscore.Hbonds>
donor molecule, donor type, donor heavy atom, donor atom, acceptor molecule, acceptor atom, score
      L1  H    10    32       P1 10175  1.00
      L1  H    13    33       P1 10175  1.00
      P1  H  7989  7998       L1     9  0.57
      L1  C    19    37       P1  7948  0.77

> <Gold.PLP.Chemscore.Internal.Correction>
0.0650

> <Gold.Rescore>
     Score         DG    S(hbond)    S(metal)    S(lipo)     H(rot)  DE(clash)    DE(int)     intcor
     14.68     -17.21       2.93        0.00      50.45       1.54       0.02       2.51       ----

> <Gold.Chemscore.Fitness>
14.6836

> <Gold.Chemscore.DG>
-17.2094

> <Gold.Chemscore.ZeroCoef>
-5.4800

> <Gold.Chemscore.Hbond>
2.9271

> <Gold.Chemscore.Metal>
0.0000

> <Gold.Chemscore.Lipo>
50.4488

> <Gold.Chemscore.Internal_Hbond>
0.0000

> <Gold.Chemscore.DEClash>
0.0159

> <Gold.Chemscore.DEInternal>
2.5099

> <Gold.Chemscore.Rot>
1.5428

> <Gold.Chemscore.Internal.Correction>
   9.000000E+99

> <Gold.Chemscore.Hbonds>
donor molecule, donor type, donor heavy atom, donor atom, acceptor molecule, acceptor atom, score
      L1  H    10    32       P1 10175  0.93
      L1  H    13    33       P1 10175  0.95
      P1  H  7989  7998       L1     9  0.23

> <Gold.Chemscore.Hbond.Weighted>
-9.7766

> <Gold.Chemscore.Metal.Weighted>
-0.0000

> <Gold.Chemscore.Lipo.Weighted>
-5.9025

> <Gold.Chemscore.Internal_Hbond.Weighted>
0.0000

> <Gold.Chemscore.DEClash.Weighted>
0.0159

> <Gold.Chemscore.DEInternal.Weighted>
2.5099

> <Gold.Chemscore.Rot.Weighted>
3.9497

> <Gold.Chemscore.Internal.Correction.Weighted>
   9.000000E+99

> <Gold.Protein.RotatedTorsions>
[ 6907 6896 6895 6894 ] final   32.38 input  -60.11 | X-H torsion
[ 7974 7965 7964 7962 ] final    4.21 input  175.53 | X-H torsion
[ 8008 7997 7996 7995 ] final  -31.87 input   59.86 | X-H torsion
[ 10167 10162 10161 10158 ] final   49.51 input  -65.29 | X-H torsion
[ 10718 10713 10712 10709 ] final -179.98 input   66.30 | X-H torsion
[ 10763 10752 10751 10750 ] final  137.14 input  -60.55 | X-H torsion
[ 11005 11000 10999 10996 ] final   49.34 input  -57.11 | X-H torsion

> <Gold.Protein.ActiveResidues>
 VAL166  LYS551  ARG553  GLY616  TRP617  ASP618  TYR619  PRO620  LYS621  CYS622 
 ASP623  PHE694  ASN695  SER759  ASP760  ASP761  ALA762  ILE779  LEU786  VAL792 
 PHE793  MET794  SER795  GLU796  ALA797  LYS798  CYS799  TRP800  GLU811  SER814 

> <Gold.Protein.RotatedAtoms>
  152.0737  134.9517  160.0574 H   0  0  0  0  0  0  0  0  0  0  0  0  # atno 6907 bound_to 6896
  152.0833  133.4158  159.4519 H   0  0  0  0  0  0  0  0  0  0  0  0  # atno 6908 bound_to 6896
  150.6836  134.2877  159.4697 H   0  0  0  0  0  0  0  0  0  0  0  0  # atno 6909 bound_to 6896
  146.2444  140.0569  142.8371 H   0  0  0  0  0  0  0  0  0  0  0  0  # atno 7974 bound_to 7965
  154.4199  140.1752  156.1636 H   0  0  0  0  0  0  0  0  0  0  0  0  # atno 8008 bound_to 7997
  155.9818  140.3377  155.6646 H   0  0  0  0  0  0  0  0  0  0  0  0  # atno 8009 bound_to 7997
  155.6490  140.0688  157.2584 H   0  0  0  0  0  0  0  0  0  0  0  0  # atno 8010 bound_to 7997
  140.2821  144.3144  150.6261 H   0  0  0  0  0  0  0  0  0  0  0  0  # atno 10167 bound_to 10162
  156.8672  130.9771  151.3077 H   0  0  0  0  0  0  0  0  0  0  0  0  # atno 10718 bound_to 10713
  153.8682  135.3059  155.3441 H   0  0  0  0  0  0  0  0  0  0  0  0  # atno 10763 bound_to 10752
  154.7818  135.4831  153.9863 H   0  0  0  0  0  0  0  0  0  0  0  0  # atno 10764 bound_to 10752
  153.1422  135.6826  153.9106 H   0  0  0  0  0  0  0  0  0  0  0  0  # atno 10765 bound_to 10752
  140.1112  134.4952  155.8676 H   0  0  0  0  0  0  0  0  0  0  0  0  # atno 11005 bound_to 11000
  145.0935  140.9300  143.4755 LP  0  0  0  0  0  0  0  0  0  0  0  0  # atno 17320 bound_to 7965
  145.0746  139.3005  143.5814 LP  0  0  0  0  0  0  0  0  0  0  0  0  # atno 17321 bound_to 7965
  140.5803  143.2173  151.7440 LP  0  0  0  0  0  0  0  0  0  0  0  0  # atno 17342 bound_to 10162
  139.4960  144.4090  152.0101 LP  0  0  0  0  0  0  0  0  0  0  0  0  # atno 17343 bound_to 10162
  157.6217  130.8660  149.9119 LP  0  0  0  0  0  0  0  0  0  0  0  0  # atno 17370 bound_to 10713
  156.0746  130.3680  150.0705 LP  0  0  0  0  0  0  0  0  0  0  0  0  # atno 17371 bound_to 10713
  141.2130  133.6728  156.6708 LP  0  0  0  0  0  0  0  0  0  0  0  0  # atno 17394 bound_to 11000
  140.3089  134.8103  157.4159 LP  0  0  0  0  0  0  0  0  0  0  0  0  # atno 17395 bound_to 11000

$$$$
