AV-unprocessed.smi:1041|AV-procd|sdf|4534|dock10
  -GOLD-   22720 2563D 1   1.00000     0.00000
 Structure written by MMmdl.
 52 53  0  0  0  0  0  0  0  0  3 V2000
  149.6374  131.4970  154.4980 C   0  0  0  0  0  0  0  0  0  0  0  0
  148.7387  132.5405  154.1646 O   0  0  0  0  0  0  0  0  0  0  0  0
  149.4025  133.7661  153.9047 C   0  0  0  0  0  0  0  0  0  0  0  0
  148.7734  134.8678  154.7725 C   0  0  0  0  0  0  0  0  0  0  0  0
  149.3604  136.2064  154.5091 N   0  3  2  0  0  0  0  0  0  0  0  0
  150.7637  136.3426  154.9833 C   0  0  0  0  0  0  0  0  0  0  0  0
  151.3618  137.7027  154.5782 C   0  0  0  0  0  0  0  0  0  0  0  0
  150.5073  138.8861  155.0672 C   0  0  2  0  0  0  0  0  0  0  0  0
  150.6528  139.1232  156.5898 C   0  0  0  0  0  0  0  0  0  0  0  0
  151.2906  140.3981  156.8905 N   0  0  0  0  0  0  0  0  0  0  0  0
  150.7352  141.4088  157.5780 C   0  0  0  0  0  0  0  0  0  0  0  0
  149.5670  141.3955  157.9643 O   0  0  0  0  0  0  0  0  0  0  0  0
  151.6297  142.6085  157.9121 C   0  0  0  0  0  0  0  0  0  0  0  0
  152.0946  142.7421  159.3642 C   0  0  0  0  0  0  0  0  0  0  0  0
  151.9152  143.8703  160.1084 C   0  0  0  0  0  0  0  0  0  0  0  0
  151.2196  145.1097  159.5738 C   0  0  0  0  0  0  0  0  0  0  0  0
  152.3799  143.9487  161.4321 N   0  0  0  0  0  0  0  0  0  0  0  0
  152.9913  142.9498  161.9450 C   0  0  0  0  0  0  0  0  0  0  0  0
  153.4873  143.0427  163.3722 C   0  0  0  0  0  0  0  0  0  0  0  0
  153.2400  141.7736  161.2733 N   0  5  0  0  0  0  0  0  0  0  0  0
  152.8109  141.6157  159.9891 C   0  0  0  0  0  0  0  0  0  0  0  0
  153.0205  140.5847  159.3511 O   0  0  0  0  0  0  0  0  0  0  0  0
  149.0520  138.6775  154.5975 C   0  0  0  0  0  0  0  0  0  0  0  0
  148.5005  137.3053  155.0184 C   0  0  0  0  0  0  0  0  0  0  0  0
  149.0802  130.5816  154.6962 H   0  0  0  0  0  0  0  0  0  0  0  0
  150.2125  131.7415  155.3919 H   0  0  0  0  0  0  0  0  0  0  0  0
  150.3300  131.2988  153.6789 H   0  0  0  0  0  0  0  0  0  0  0  0
  150.4587  133.6655  154.1593 H   0  0  0  0  0  0  0  0  0  0  0  0
  149.3556  134.0140  152.8443 H   0  0  0  0  0  0  0  0  0  0  0  0
  147.7028  134.8888  154.5640 H   0  0  0  0  0  0  0  0  0  0  0  0
  148.8747  134.6251  155.8312 H   0  0  0  0  0  0  0  0  0  0  0  0
  150.7991  136.2151  156.0659 H   0  0  0  0  0  0  0  0  0  0  0  0
  151.3844  135.5549  154.5592 H   0  0  0  0  0  0  0  0  0  0  0  0
  152.3811  137.7917  154.9553 H   0  0  0  0  0  0  0  0  0  0  0  0
  151.4387  137.7440  153.4908 H   0  0  0  0  0  0  0  0  0  0  0  0
  150.8834  139.7813  154.5704 H   0  0  0  0  0  0  0  0  0  0  0  0
  149.6785  139.1241  157.0772 H   0  0  0  0  0  0  0  0  0  0  0  0
  151.2212  138.3124  157.0484 H   0  0  0  0  0  0  0  0  0  0  0  0
  152.2549  140.5020  156.6076 H   0  0  0  0  0  0  0  0  0  0  0  0
  152.5024  142.5580  157.2614 H   0  0  0  0  0  0  0  0  0  0  0  0
  151.1118  143.5181  157.6061 H   0  0  0  0  0  0  0  0  0  0  0  0
  150.1671  144.9017  159.3801 H   0  0  0  0  0  0  0  0  0  0  0  0
  151.6857  145.4420  158.6459 H   0  0  0  0  0  0  0  0  0  0  0  0
  151.2738  145.9321  160.2883 H   0  0  0  0  0  0  0  0  0  0  0  0
  153.3217  142.1023  163.8993 H   0  0  0  0  0  0  0  0  0  0  0  0
  152.9657  143.8313  163.9163 H   0  0  0  0  0  0  0  0  0  0  0  0
  154.5549  143.2637  163.3848 H   0  0  0  0  0  0  0  0  0  0  0  0
  148.4014  139.4711  154.9656 H   0  0  0  0  0  0  0  0  0  0  0  0
  149.0167  138.7515  153.5097 H   0  0  0  0  0  0  0  0  0  0  0  0
  147.4909  137.1954  154.6206 H   0  0  0  0  0  0  0  0  0  0  0  0
  148.4186  137.2402  156.1043 H   0  0  0  0  0  0  0  0  0  0  0  0
  149.3781  136.3126  153.5047 H   0  0  0  0  0  0  0  0  0  0  0  0
  1  2  1  0  0  0  0
  1 25  1  0  0  0  0
  1 26  1  0  0  0  0
  1 27  1  0  0  0  0
  2  3  1  0  0  0  0
  3  4  1  0  0  0  0
  3 28  1  0  0  0  0
  3 29  1  0  0  0  0
  4  5  1  0  0  0  0
  4 30  1  0  0  0  0
  4 31  1  0  0  0  0
  5 24  1  0  0  0  0
  5  6  1  0  0  0  0
  5 52  1  0  0  0  0
  6  7  1  0  0  0  0
  6 32  1  0  0  0  0
  6 33  1  0  0  0  0
  7  8  1  0  0  0  0
  7 34  1  0  0  0  0
  7 35  1  0  0  0  0
  8  9  1  0  0  0  0
  8 23  1  0  0  0  0
  8 36  1  0  0  0  0
  9 10  1  0  0  0  0
  9 37  1  0  0  0  0
  9 38  1  0  0  0  0
 10 11  1  0  0  0  0
 10 39  1  0  0  0  0
 11 12  2  0  0  0  0
 11 13  1  0  0  0  0
 13 14  1  0  0  0  0
 13 40  1  0  0  0  0
 13 41  1  0  0  0  0
 14 21  1  0  0  0  0
 14 15  2  0  0  0  0
 15 16  1  0  0  0  0
 15 17  1  0  0  0  0
 16 42  1  0  0  0  0
 16 43  1  0  0  0  0
 16 44  1  0  0  0  0
 17 18  2  0  0  0  0
 18 19  1  0  0  0  0
 18 20  1  0  0  0  0
 19 45  1  0  0  0  0
 19 46  1  0  0  0  0
 19 47  1  0  0  0  0
 20 21  1  0  0  0  0
 21 22  2  0  0  0  0
 23 24  1  0  0  0  0
 23 48  1  0  0  0  0
 23 49  1  0  0  0  0
 24 50  1  0  0  0  0
 24 51  1  0  0  0  0
M  CHG  1   5   1
M  CHG  1  20  -1
M  END
> <s_m_source_file>
AV-unprocessed.smi

> <i_m_source_file_index>
1041

> <i_lp_mmshare_version>
43012

> <i_f3d_flags>
0

> <s_epik_input>
W0NIM11PW0NIMl1bQ0gyXU4xW0NIMl1bQ0gyXVtDSF0oW0NIMl1bQ0gyXTEpW0NIMl1bTkhdQyg9TylbQ0gyXWMyYyhbQ0gzXSluYyhbQ0gzXSlbbkhdYzI9Tw==

> <s_epik_cmdline>
J2VwaWtfcHl0aG9uJywgJy1waCcsICc3LjAnLCAnLXRuJywgJzgnLCAnLW1hJywgJzIwMCcsICctbWV0YWxfYmluZGluZycsICctaW1hZScsICc8aW5maWxlLm1hZT4nLCAnLW9tYWUnLCAnPG91dGZpbGUubWFlPic=

> <r_lp_tautomer_probability>
0.839158

> <r_epik_Ionization_Penalty>
6.54961

> <r_epik_Ionization_Penalty_Charging>
0.00968647

> <r_epik_Ionization_Penalty_Neutral>
6.53992

> <r_epik_State_Penalty>
4.43892

> <r_epik_Charging_Adjusted_Penalty>
4.44861

> <i_epik_Tot_Q>
0

> <i_epik_Tot_abs_Q>
2

> <r_epik_Metal_State_Penalty>
0.818645

> <b_epik_Metal_Only>
1

> <s_lp_Force_Field>
OPLS_2005

> <r_lp_Energy>
22.1122

> <b_lp_Chiralities_Consistent>
1

> <s_lp_Variant>
AV-unprocessed.smi:1041-7

> <Gold.Version>
5.8.1

> <Gold.Id.Protein>
6NUR|6NUR_protein|mol2

> <Gold.PLP.Fitness>
48.5731

> <Gold.PLP.PLP>
-45.2944

> <Gold.PLP.part.hbond>
-1.0000

> <Gold.PLP.part.metal>
0.0000

> <Gold.PLP.part.buried>
-7.7672

> <Gold.PLP.part.nonpolar>
-36.8826

> <Gold.PLP.part.repulsive>
0.3939

> <Gold.PLP.ligand.clash>
0.0000

> <Gold.PLP.ligand.torsion>
1.3861

> <Gold.PLP.Chemscore.Hbond>
2.0000

> <Gold.PLP.Chemscore.CHOScore>
0.0000

> <Gold.PLP.Chemscore.Metal>
0.0000

> <Gold.Chemscore.Hbonds>
donor molecule, donor type, donor heavy atom, donor atom, acceptor molecule, acceptor atom, score
      L1  H     5    52       P1  7948  2.00

> <Gold.PLP.Chemscore.Internal.Correction>
0.0510

> <Gold.Rescore>
     Score         DG    S(hbond)    S(metal)    S(lipo)     H(rot)  DE(clash)    DE(int)     intcor
     13.49     -16.25       1.66        0.00      96.21       2.35       1.36       1.40       ----

> <Gold.Chemscore.Fitness>
13.4948

> <Gold.Chemscore.DG>
-16.2533

> <Gold.Chemscore.ZeroCoef>
-5.4800

> <Gold.Chemscore.Hbond>
1.6581

> <Gold.Chemscore.Metal>
0.0000

> <Gold.Chemscore.Lipo>
96.2068

> <Gold.Chemscore.Internal_Hbond>
0.0000

> <Gold.Chemscore.DEClash>
1.3551

> <Gold.Chemscore.DEInternal>
1.4034

> <Gold.Chemscore.Rot>
2.3520

> <Gold.Chemscore.Internal.Correction>
   9.000000E+99

> <Gold.Chemscore.Hbonds>
donor molecule, donor type, donor heavy atom, donor atom, acceptor molecule, acceptor atom, score
      L1  H     5    52       P1  7948  0.78

> <Gold.Chemscore.Hbond.Weighted>
-5.5382

> <Gold.Chemscore.Metal.Weighted>
-0.0000

> <Gold.Chemscore.Lipo.Weighted>
-11.2562

> <Gold.Chemscore.Internal_Hbond.Weighted>
0.0000

> <Gold.Chemscore.DEClash.Weighted>
1.3551

> <Gold.Chemscore.DEInternal.Weighted>
1.4034

> <Gold.Chemscore.Rot.Weighted>
6.0211

> <Gold.Chemscore.Internal.Correction.Weighted>
   9.000000E+99

> <Gold.Protein.RotatedTorsions>
[ 6907 6896 6895 6894 ] final  167.31 input  -60.11 | X-H torsion
[ 7974 7965 7964 7962 ] final   17.46 input  175.53 | X-H torsion
[ 8008 7997 7996 7995 ] final   11.49 input   59.86 | X-H torsion
[ 10167 10162 10161 10158 ] final  143.77 input  -65.29 | X-H torsion
[ 10718 10713 10712 10709 ] final  104.66 input   66.30 | X-H torsion
[ 10763 10752 10751 10750 ] final  -51.37 input  -60.55 | X-H torsion
[ 11005 11000 10999 10996 ] final   27.25 input  -57.11 | X-H torsion

> <Gold.Protein.ActiveResidues>
 VAL166  LYS551  ARG553  GLY616  TRP617  ASP618  TYR619  PRO620  LYS621  CYS622 
 ASP623  PHE694  ASN695  SER759  ASP760  ASP761  ALA762  ILE779  LEU786  VAL792 
 PHE793  MET794  SER795  GLU796  ALA797  LYS798  CYS799  TRP800  GLU811  SER814 

> <Gold.Protein.RotatedAtoms>
  151.8654  133.3465  159.3717 H   0  0  0  0  0  0  0  0  0  0  0  0  # atno 6907 bound_to 6896
  150.7167  134.5165  159.5642 H   0  0  0  0  0  0  0  0  0  0  0  0  # atno 6908 bound_to 6896
  152.2687  134.7956  160.0469 H   0  0  0  0  0  0  0  0  0  0  0  0  # atno 6909 bound_to 6896
  146.2217  139.8599  142.8606 H   0  0  0  0  0  0  0  0  0  0  0  0  # atno 7974 bound_to 7965
  154.8077  140.2863  155.5876 H   0  0  0  0  0  0  0  0  0  0  0  0  # atno 8008 bound_to 7997
  156.2984  140.2574  156.2888 H   0  0  0  0  0  0  0  0  0  0  0  0  # atno 8009 bound_to 7997
  154.9484  140.0380  157.2121 H   0  0  0  0  0  0  0  0  0  0  0  0  # atno 8010 bound_to 7997
  139.4962  144.6018  151.6465 H   0  0  0  0  0  0  0  0  0  0  0  0  # atno 10167 bound_to 10162
  157.6732  131.0809  150.5740 H   0  0  0  0  0  0  0  0  0  0  0  0  # atno 10718 bound_to 10713
  154.1254  135.6528  153.4911 H   0  0  0  0  0  0  0  0  0  0  0  0  # atno 10763 bound_to 10752
  153.0212  135.5280  154.7054 H   0  0  0  0  0  0  0  0  0  0  0  0  # atno 10764 bound_to 10752
  154.6274  135.2972  155.0227 H   0  0  0  0  0  0  0  0  0  0  0  0  # atno 10765 bound_to 10752
  140.3283  134.2467  155.7706 H   0  0  0  0  0  0  0  0  0  0  0  0  # atno 11005 bound_to 11000
  145.2715  141.0110  143.3769 LP  0  0  0  0  0  0  0  0  0  0  0  0  # atno 17320 bound_to 7965
  144.9220  139.4400  143.6536 LP  0  0  0  0  0  0  0  0  0  0  0  0  # atno 17321 bound_to 7965
  140.5669  144.0174  150.6197 LP  0  0  0  0  0  0  0  0  0  0  0  0  # atno 17342 bound_to 10162
  140.3279  143.3096  152.0718 LP  0  0  0  0  0  0  0  0  0  0  0  0  # atno 17343 bound_to 10162
  156.6041  130.4362  149.5885 LP  0  0  0  0  0  0  0  0  0  0  0  0  # atno 17370 bound_to 10713
  156.2482  130.6892  151.1620 LP  0  0  0  0  0  0  0  0  0  0  0  0  # atno 17371 bound_to 10713
  141.2070  133.7818  157.0146 LP  0  0  0  0  0  0  0  0  0  0  0  0  # atno 17394 bound_to 11000
  140.0883  134.9608  157.1735 LP  0  0  0  0  0  0  0  0  0  0  0  0  # atno 17395 bound_to 11000

$$$$
