AV-unprocessed.smi:594|AV-procd|sdf|3015|dock6
  -GOLD-   2262023523D 1   1.00000     0.00000
 Structure written by MMmdl.
 40 41  0  0  0  0  0  0  0  0  3 V2000
  150.5015  139.4330  155.0325 C   0  0  0  0  0  0  0  0  0  0  0  0
  149.2083  139.9846  154.4081 C   0  0  1  0  0  0  0  0  0  0  0  0
  147.9680  139.2039  154.8917 C   0  0  0  0  0  0  0  0  0  0  0  0
  146.6793  139.7208  154.2324 C   0  0  0  0  0  0  0  0  0  0  0  0
  146.4998  141.2287  154.4620 C   0  0  0  0  0  0  0  0  0  0  0  0
  147.7298  142.0142  153.9764 C   0  0  0  0  0  0  0  0  0  0  0  0
  149.0364  141.5086  154.6275 C   0  0  1  0  0  0  0  0  0  0  0  0
  149.0739  141.8443  156.0512 N   0  0  0  0  0  0  0  0  0  0  0  0
  150.1790  141.9272  156.8066 C   0  0  0  0  0  0  0  0  0  0  0  0
  151.3103  141.6928  156.3797 O   0  0  0  0  0  0  0  0  0  0  0  0
  149.9621  142.3232  158.2733 C   0  0  0  0  0  0  0  0  0  0  0  0
  151.2046  142.3055  159.0633 N   0  0  0  0  0  0  0  0  0  0  0  0
  151.9875  141.1356  159.0043 C   0  0  0  0  0  0  0  0  0  0  0  0
  153.1434  141.0124  159.6857 C   0  0  0  0  0  0  0  0  0  0  0  0
  153.9354  139.8041  159.6124 N   0  3  0  0  0  0  0  0  0  0  0  0
  153.9468  139.1708  158.5619 O   0  0  0  0  0  0  0  0  0  0  0  0
  154.5726  139.4488  160.5996 O   0  5  0  0  0  0  0  0  0  0  0  0
  153.5705  142.1357  160.4973 C   0  0  0  0  0  0  0  0  0  0  0  0
  152.8277  143.2585  160.5560 C   0  0  0  0  0  0  0  0  0  0  0  0
  151.5711  143.3910  159.8119 C   0  0  0  0  0  0  0  0  0  0  0  0
  150.8889  144.4150  159.8590 O   0  0  0  0  0  0  0  0  0  0  0  0
  150.4851  139.4974  156.1207 H   0  0  0  0  0  0  0  0  0  0  0  0
  151.3736  139.9835  154.6786 H   0  0  0  0  0  0  0  0  0  0  0  0
  150.6456  138.3851  154.7683 H   0  0  0  0  0  0  0  0  0  0  0  0
  149.2888  139.8247  153.3318 H   0  0  0  0  0  0  0  0  0  0  0  0
  148.0873  138.1426  154.6704 H   0  0  0  0  0  0  0  0  0  0  0  0
  147.8778  139.2814  155.9760 H   0  0  0  0  0  0  0  0  0  0  0  0
  146.7096  139.5160  153.1614 H   0  0  0  0  0  0  0  0  0  0  0  0
  145.8180  139.1803  154.6258 H   0  0  0  0  0  0  0  0  0  0  0  0
  145.6075  141.5792  153.9429 H   0  0  0  0  0  0  0  0  0  0  0  0
  146.3335  141.4214  155.5227 H   0  0  0  0  0  0  0  0  0  0  0  0
  147.8095  141.9150  152.8932 H   0  0  0  0  0  0  0  0  0  0  0  0
  147.5914  143.0786  154.1698 H   0  0  0  0  0  0  0  0  0  0  0  0
  149.8753  142.0106  154.1415 H   0  0  0  0  0  0  0  0  0  0  0  0
  148.1872  142.0466  156.4897 H   0  0  0  0  0  0  0  0  0  0  0  0
  149.5048  143.3135  158.3228 H   0  0  0  0  0  0  0  0  0  0  0  0
  149.2210  141.6461  158.7002 H   0  0  0  0  0  0  0  0  0  0  0  0
  151.5874  140.3595  158.3679 H   0  0  0  0  0  0  0  0  0  0  0  0
  154.4894  142.0851  161.0629 H   0  0  0  0  0  0  0  0  0  0  0  0
  153.1652  144.0834  161.1662 H   0  0  0  0  0  0  0  0  0  0  0  0
  1  2  1  0  0  0  0
  1 22  1  0  0  0  0
  1 23  1  0  0  0  0
  1 24  1  0  0  0  0
  2  7  1  0  0  0  0
  2  3  1  0  0  0  0
  2 25  1  0  0  0  0
  3  4  1  0  0  0  0
  3 26  1  0  0  0  0
  3 27  1  0  0  0  0
  4  5  1  0  0  0  0
  4 28  1  0  0  0  0
  4 29  1  0  0  0  0
  5  6  1  0  0  0  0
  5 30  1  0  0  0  0
  5 31  1  0  0  0  0
  6  7  1  0  0  0  0
  6 32  1  0  0  0  0
  6 33  1  0  0  0  0
  7  8  1  0  0  0  0
  7 34  1  0  0  0  0
  8  9  1  0  0  0  0
  8 35  1  0  0  0  0
  9 10  2  0  0  0  0
  9 11  1  0  0  0  0
 11 12  1  0  0  0  0
 11 36  1  0  0  0  0
 11 37  1  0  0  0  0
 12 20  1  0  0  0  0
 12 13  1  0  0  0  0
 13 14  2  0  0  0  0
 13 38  1  0  0  0  0
 14 15  1  0  0  0  0
 14 18  1  0  0  0  0
 15 16  2  0  0  0  0
 15 17  1  0  0  0  0
 18 19  2  0  0  0  0
 18 39  1  0  0  0  0
 19 20  1  0  0  0  0
 19 40  1  0  0  0  0
 20 21  2  0  0  0  0
M  CHG  1  15   1
M  CHG  1  17  -1
M  END
> <s_m_source_file>
AV-unprocessed.smi

> <i_m_source_file_index>
594

> <i_lp_mmshare_version>
43012

> <i_f3d_flags>
0

> <s_epik_input>
W0NIM11bQ0BASF0xW0NIMl1bQ0gyXVtDSDJdW0NIMl1bQ0BIXTFbTkhdQyg9TylbQ0gyXW4yW2NIXWMoW04rXSg9TylbTy1dKVtjSF1bY0hdYzI9Tw==

> <s_epik_cmdline>
J2VwaWtfcHl0aG9uJywgJy1waCcsICc3LjAnLCAnLXRuJywgJzgnLCAnLW1hJywgJzIwMCcsICctbWV0YWxfYmluZGluZycsICctaW1hZScsICc8aW5maWxlLm1hZT4nLCAnLW9tYWUnLCAnPG91dGZpbGUubWFlPic=

> <r_lp_tautomer_probability>
1

> <r_epik_Ionization_Penalty>
1.91305e-08

> <r_epik_Ionization_Penalty_Charging>
8.35811e-11

> <r_epik_Ionization_Penalty_Neutral>
1.90469e-08

> <r_epik_State_Penalty>
-0

> <r_epik_Charging_Adjusted_Penalty>
8.35811e-11

> <i_epik_Tot_Q>
0

> <i_epik_Tot_abs_Q>
2

> <r_epik_Metal_State_Penalty>
-0

> <b_epik_Metal_Only>
0

> <s_lp_Force_Field>
OPLS_2005

> <r_lp_Energy>
20.421

> <b_lp_Chiralities_Consistent>
1

> <s_lp_Variant>
AV-unprocessed.smi:594-2

> <Gold.Version>
5.8.1

> <Gold.Id.Protein>
6NUR|6NUR_protein|mol2

> <Gold.PLP.Fitness>
39.4442

> <Gold.PLP.PLP>
-38.0324

> <Gold.PLP.part.hbond>
-2.0000

> <Gold.PLP.part.metal>
0.0000

> <Gold.PLP.part.buried>
-4.2298

> <Gold.PLP.part.nonpolar>
-32.3390

> <Gold.PLP.part.repulsive>
0.2488

> <Gold.PLP.ligand.clash>
0.0000

> <Gold.PLP.ligand.torsion>
0.8009

> <Gold.PLP.Chemscore.Hbond>
1.0000

> <Gold.PLP.Chemscore.CHOScore>
0.0000

> <Gold.PLP.Chemscore.Metal>
0.0000

> <Gold.Chemscore.Hbonds>
donor molecule, donor type, donor heavy atom, donor atom, acceptor molecule, acceptor atom, score
      P1  H  7997  8009       L1    16  1.00

> <Gold.PLP.Chemscore.Internal.Correction>
0.0135

> <Gold.Rescore>
     Score         DG    S(hbond)    S(metal)    S(lipo)     H(rot)  DE(clash)    DE(int)     intcor
     11.24     -14.85       0.95        0.00      86.73       1.55       0.02       3.59       ----

> <Gold.Chemscore.Fitness>
11.2379

> <Gold.Chemscore.DG>
-14.8466

> <Gold.Chemscore.ZeroCoef>
-5.4800

> <Gold.Chemscore.Hbond>
0.9547

> <Gold.Chemscore.Metal>
0.0000

> <Gold.Chemscore.Lipo>
86.7279

> <Gold.Chemscore.Internal_Hbond>
0.0000

> <Gold.Chemscore.DEClash>
0.0154

> <Gold.Chemscore.DEInternal>
3.5932

> <Gold.Chemscore.Rot>
1.5505

> <Gold.Chemscore.Internal.Correction>
   9.000000E+99

> <Gold.Chemscore.Hbonds>
donor molecule, donor type, donor heavy atom, donor atom, acceptor molecule, acceptor atom, score
      P1  H  7997  8009       L1    16  0.67

> <Gold.Chemscore.Hbond.Weighted>
-3.1886

> <Gold.Chemscore.Metal.Weighted>
-0.0000

> <Gold.Chemscore.Lipo.Weighted>
-10.1472

> <Gold.Chemscore.Internal_Hbond.Weighted>
0.0000

> <Gold.Chemscore.DEClash.Weighted>
0.0154

> <Gold.Chemscore.DEInternal.Weighted>
3.5932

> <Gold.Chemscore.Rot.Weighted>
3.9692

> <Gold.Chemscore.Internal.Correction.Weighted>
   9.000000E+99

> <Gold.Protein.RotatedTorsions>
[ 6907 6896 6895 6894 ] final    8.41 input  -60.11 | X-H torsion
[ 7974 7965 7964 7962 ] final  110.75 input  175.53 | X-H torsion
[ 8008 7997 7996 7995 ] final  117.92 input   59.86 | X-H torsion
[ 10167 10162 10161 10158 ] final  -15.63 input  -65.29 | X-H torsion
[ 10718 10713 10712 10709 ] final   36.03 input   66.30 | X-H torsion
[ 10763 10752 10751 10750 ] final  125.16 input  -60.55 | X-H torsion
[ 11005 11000 10999 10996 ] final -133.17 input  -57.11 | X-H torsion

> <Gold.Protein.ActiveResidues>
 VAL166  LYS551  ARG553  GLY616  TRP617  ASP618  TYR619  PRO620  LYS621  CYS622 
 ASP623  PHE694  ASN695  SER759  ASP760  ASP761  ALA762  ILE779  LEU786  VAL792 
 PHE793  MET794  SER795  GLU796  ALA797  LYS798  CYS799  TRP800  GLU811  SER814 

> <Gold.Protein.RotatedAtoms>
  151.7056  135.0922  160.0258 H   0  0  0  0  0  0  0  0  0  0  0  0  # atno 6907 bound_to 6896
  152.3693  133.6394  159.6083 H   0  0  0  0  0  0  0  0  0  0  0  0  # atno 6908 bound_to 6896
  150.7661  133.9212  159.3440 H   0  0  0  0  0  0  0  0  0  0  0  0  # atno 6909 bound_to 6896
  145.2510  139.2740  143.4067 H   0  0  0  0  0  0  0  0  0  0  0  0  # atno 7974 bound_to 7965
  156.2519  140.2886  156.0753 H   0  0  0  0  0  0  0  0  0  0  0  0  # atno 8008 bound_to 7997
  155.1626  140.0400  157.2863 H   0  0  0  0  0  0  0  0  0  0  0  0  # atno 8009 bound_to 7997
  154.6382  140.2516  155.7359 H   0  0  0  0  0  0  0  0  0  0  0  0  # atno 8010 bound_to 7997
  140.7221  143.5199  150.9647 H   0  0  0  0  0  0  0  0  0  0  0  0  # atno 10167 bound_to 10162
  157.3299  130.7492  149.6840 H   0  0  0  0  0  0  0  0  0  0  0  0  # atno 10718 bound_to 10713
  153.6728  135.3327  155.3158 H   0  0  0  0  0  0  0  0  0  0  0  0  # atno 10763 bound_to 10752
  154.8486  135.4390  154.1687 H   0  0  0  0  0  0  0  0  0  0  0  0  # atno 10764 bound_to 10752
  153.2683  135.6998  153.7583 H   0  0  0  0  0  0  0  0  0  0  0  0  # atno 10765 bound_to 10752
  140.9105  134.1574  157.4393 H   0  0  0  0  0  0  0  0  0  0  0  0  # atno 11005 bound_to 11000
  146.3302  140.2900  142.8615 LP  0  0  0  0  0  0  0  0  0  0  0  0  # atno 17320 bound_to 7965
  144.9503  140.8172  143.5576 LP  0  0  0  0  0  0  0  0  0  0  0  0  # atno 17321 bound_to 7965
  139.8916  143.6947  152.3144 LP  0  0  0  0  0  0  0  0  0  0  0  0  # atno 17342 bound_to 10162
  139.7264  144.7592  151.0872 LP  0  0  0  0  0  0  0  0  0  0  0  0  # atno 17343 bound_to 10162
  155.9694  130.4198  150.4393 LP  0  0  0  0  0  0  0  0  0  0  0  0  # atno 17370 bound_to 10713
  157.2423  131.0528  151.2429 LP  0  0  0  0  0  0  0  0  0  0  0  0  # atno 17371 bound_to 10713
  139.8756  134.9934  156.5641 LP  0  0  0  0  0  0  0  0  0  0  0  0  # atno 17394 bound_to 11000
  140.8116  133.8424  155.8815 LP  0  0  0  0  0  0  0  0  0  0  0  0  # atno 17395 bound_to 11000

$$$$
