AV-unprocessed.smi:3333|AV-procd|sdf|12831|dock10
  -GOLD-   2272019213D 1   1.00000     0.00000
 Structure written by MMmdl.
 41 43  0  0  0  0  0  0  0  0  1 V2000
  145.4974  143.9209  158.5020 C   0  0  0  0  0  0  0  0  0  0  0  0
  145.6811  142.4847  158.0004 C   0  0  0  0  0  0  0  0  0  0  0  0
  146.0893  142.4268  156.5663 C   0  0  0  0  0  0  0  0  0  0  0  0
  147.2804  141.9825  156.1572 N   0  0  0  0  0  0  0  0  0  0  0  0
  147.4365  142.0541  154.7690 C   0  0  0  0  0  0  0  0  0  0  0  0
  148.7153  141.5868  154.1337 C   0  0  0  0  0  0  0  0  0  0  0  0
  149.7553  141.2215  155.1974 C   0  0  0  0  0  0  0  0  0  0  0  0
  150.4315  140.1987  155.0820 O   0  0  0  0  0  0  0  0  0  0  0  0
  149.8683  142.0640  156.2363 N   0  0  0  0  0  0  0  0  0  0  0  0
  150.7836  141.8923  157.3597 C   0  0  0  0  0  0  0  0  0  0  0  0
  150.8775  143.1636  158.2297 C   0  0  2  0  0  0  0  0  0  0  0  0
  151.4865  144.3821  157.4968 C   0  0  0  0  0  0  0  0  0  0  0  0
  152.6441  144.8004  158.4213 C   0  0  1  0  0  0  0  0  0  0  0  0
  152.0759  145.3855  159.7278 C   0  0  0  0  0  0  0  0  0  0  0  0
  151.5328  144.1377  160.4500 C   0  0  0  0  0  0  0  0  0  0  0  0
  151.8238  143.0094  159.4420 C   0  0  2  0  0  0  0  0  0  0  0  0
  153.1734  143.4484  158.8817 C   0  0  0  0  0  0  0  0  0  0  0  0
  146.3426  142.5854  154.1305 C   0  0  0  0  0  0  0  0  0  0  0  0
  145.0750  143.0037  155.2496 S   0  0  0  0  0  0  0  0  0  0  0  0
  145.1977  143.9310  159.5499 H   0  0  0  0  0  0  0  0  0  0  0  0
  144.7293  144.4416  157.9299 H   0  0  0  0  0  0  0  0  0  0  0  0
  146.4239  144.4894  158.4146 H   0  0  0  0  0  0  0  0  0  0  0  0
  146.4328  141.9730  158.6025 H   0  0  0  0  0  0  0  0  0  0  0  0
  144.7517  141.9277  158.1213 H   0  0  0  0  0  0  0  0  0  0  0  0
  148.5218  140.7283  153.4889 H   0  0  0  0  0  0  0  0  0  0  0  0
  149.1379  142.3621  153.4936 H   0  0  0  0  0  0  0  0  0  0  0  0
  149.2730  142.8793  156.2536 H   0  0  0  0  0  0  0  0  0  0  0  0
  150.4650  141.0430  157.9663 H   0  0  0  0  0  0  0  0  0  0  0  0
  151.7632  141.6304  156.9590 H   0  0  0  0  0  0  0  0  0  0  0  0
  149.8757  143.4084  158.5860 H   0  0  0  0  0  0  0  0  0  0  0  0
  151.8731  144.1043  156.5153 H   0  0  0  0  0  0  0  0  0  0  0  0
  150.7607  145.1827  157.3507 H   0  0  0  0  0  0  0  0  0  0  0  0
  153.3798  145.4432  157.9373 H   0  0  0  0  0  0  0  0  0  0  0  0
  152.8612  145.8588  160.3184 H   0  0  0  0  0  0  0  0  0  0  0  0
  151.3003  146.1295  159.5428 H   0  0  0  0  0  0  0  0  0  0  0  0
  152.0725  143.9707  161.3830 H   0  0  0  0  0  0  0  0  0  0  0  0
  150.4723  144.2220  160.6902 H   0  0  0  0  0  0  0  0  0  0  0  0
  151.8109  142.0159  159.8914 H   0  0  0  0  0  0  0  0  0  0  0  0
  153.5341  142.8228  158.0640 H   0  0  0  0  0  0  0  0  0  0  0  0
  153.9531  143.5251  159.6417 H   0  0  0  0  0  0  0  0  0  0  0  0
  146.2062  142.7535  153.0725 H   0  0  0  0  0  0  0  0  0  0  0  0
  1  2  1  0  0  0  0
  1 20  1  0  0  0  0
  1 21  1  0  0  0  0
  1 22  1  0  0  0  0
  2  3  1  0  0  0  0
  2 23  1  0  0  0  0
  2 24  1  0  0  0  0
  3 19  1  0  0  0  0
  3  4  2  0  0  0  0
  4  5  1  0  0  0  0
  5  6  1  0  0  0  0
  5 18  2  0  0  0  0
  6  7  1  0  0  0  0
  6 25  1  0  0  0  0
  6 26  1  0  0  0  0
  7  8  2  0  0  0  0
  7  9  1  0  0  0  0
  9 10  1  0  0  0  0
  9 27  1  0  0  0  0
 10 11  1  0  0  0  0
 10 28  1  0  0  0  0
 10 29  1  0  0  0  0
 11 16  1  0  0  0  0
 11 12  1  0  0  0  0
 11 30  1  0  0  0  0
 12 13  1  0  0  0  0
 12 31  1  0  0  0  0
 12 32  1  0  0  0  0
 13 17  1  0  0  0  0
 13 14  1  0  0  0  0
 13 33  1  0  0  0  0
 14 15  1  0  0  0  0
 14 34  1  0  0  0  0
 14 35  1  0  0  0  0
 15 16  1  0  0  0  0
 15 36  1  0  0  0  0
 15 37  1  0  0  0  0
 16 17  1  0  0  0  0
 16 38  1  0  0  0  0
 17 39  1  0  0  0  0
 17 40  1  0  0  0  0
 18 19  1  0  0  0  0
 18 41  1  0  0  0  0
M  END
> <s_m_source_file>
AV-unprocessed.smi

> <i_m_source_file_index>
3333

> <i_lp_mmshare_version>
43012

> <i_f3d_flags>
0

> <s_epik_input>
W0NIM11bQ0gyXWMxbmMoW2NIXXMxKVtDSDJdQyg9TylbTkhdW0NIMl1bQ0BIXShbQ0gyXVtDQEBIXTIzKVtDQEBIXShbQ0gyXTMpW0NIMl1bQ0gyXTI=

> <s_epik_cmdline>
J2VwaWtfcHl0aG9uJywgJy1waCcsICc3LjAnLCAnLXRuJywgJzgnLCAnLW1hJywgJzIwMCcsICctbWV0YWxfYmluZGluZycsICctaW1hZScsICc8aW5maWxlLm1hZT4nLCAnLW9tYWUnLCAnPG91dGZpbGUubWFlPic=

> <r_lp_tautomer_probability>
1

> <r_epik_Ionization_Penalty>
6.68371e-05

> <r_epik_Ionization_Penalty_Charging>
0

> <r_epik_Ionization_Penalty_Neutral>
6.68371e-05

> <r_epik_State_Penalty>
-0

> <r_epik_Charging_Adjusted_Penalty>
0

> <i_epik_Tot_Q>
0

> <i_epik_Tot_abs_Q>
0

> <r_epik_Metal_State_Penalty>
-0

> <b_epik_Metal_Only>
0

> <s_lp_Force_Field>
OPLS_2005

> <r_lp_Energy>
44.1536

> <b_lp_Chiralities_Consistent>
1

> <s_lp_Variant>
AV-unprocessed.smi:3333-1

> <Gold.Version>
5.8.1

> <Gold.Id.Protein>
6NUR|6NUR_protein|mol2

> <Gold.PLP.Fitness>
50.4888

> <Gold.PLP.PLP>
-45.3997

> <Gold.PLP.part.hbond>
-2.0000

> <Gold.PLP.part.metal>
0.0000

> <Gold.PLP.part.buried>
-2.6477

> <Gold.PLP.part.nonpolar>
-41.4798

> <Gold.PLP.part.repulsive>
0.2768

> <Gold.PLP.ligand.clash>
0.0000

> <Gold.PLP.ligand.torsion>
0.3589

> <Gold.PLP.Chemscore.Hbond>
1.9280

> <Gold.PLP.Chemscore.CHOScore>
0.0000

> <Gold.PLP.Chemscore.Metal>
0.0000

> <Gold.Chemscore.Hbonds>
donor molecule, donor type, donor heavy atom, donor atom, acceptor molecule, acceptor atom, score
      L1  H     9    27       P1  8028  1.00
      P1  H  7989  7998       L1     8  0.66

> <Gold.PLP.Chemscore.Internal.Correction>
0.0229

> <Gold.Rescore>
     Score         DG    S(hbond)    S(metal)    S(lipo)     H(rot)  DE(clash)    DE(int)     intcor
     19.87     -20.33       1.28        0.00     121.59       1.42       0.23       0.23       ----

> <Gold.Chemscore.Fitness>
19.8675

> <Gold.Chemscore.DG>
-20.3320

> <Gold.Chemscore.ZeroCoef>
-5.4800

> <Gold.Chemscore.Hbond>
1.2778

> <Gold.Chemscore.Metal>
0.0000

> <Gold.Chemscore.Lipo>
121.5906

> <Gold.Chemscore.Internal_Hbond>
0.0000

> <Gold.Chemscore.DEClash>
0.2341

> <Gold.Chemscore.DEInternal>
0.2304

> <Gold.Chemscore.Rot>
1.4227

> <Gold.Chemscore.Internal.Correction>
   9.000000E+99

> <Gold.Chemscore.Hbonds>
donor molecule, donor type, donor heavy atom, donor atom, acceptor molecule, acceptor atom, score
      L1  H     9    27       P1  8028  0.92
      P1  H  7989  7998       L1     8  0.10

> <Gold.Chemscore.Hbond.Weighted>
-4.2680

> <Gold.Chemscore.Metal.Weighted>
-0.0000

> <Gold.Chemscore.Lipo.Weighted>
-14.2261

> <Gold.Chemscore.Internal_Hbond.Weighted>
0.0000

> <Gold.Chemscore.DEClash.Weighted>
0.2341

> <Gold.Chemscore.DEInternal.Weighted>
0.2304

> <Gold.Chemscore.Rot.Weighted>
3.6421

> <Gold.Chemscore.Internal.Correction.Weighted>
   9.000000E+99

> <Gold.Protein.RotatedTorsions>
[ 6907 6896 6895 6894 ] final -147.24 input  -60.11 | X-H torsion
[ 7974 7965 7964 7962 ] final -119.03 input  175.53 | X-H torsion
[ 8008 7997 7996 7995 ] final -122.36 input   59.86 | X-H torsion
[ 10167 10162 10161 10158 ] final  153.13 input  -65.29 | X-H torsion
[ 10718 10713 10712 10709 ] final  -96.00 input   66.30 | X-H torsion
[ 10763 10752 10751 10750 ] final  -71.90 input  -60.55 | X-H torsion
[ 11005 11000 10999 10996 ] final  161.06 input  -57.11 | X-H torsion

> <Gold.Protein.ActiveResidues>
 VAL166  LYS551  ARG553  GLY616  TRP617  ASP618  TYR619  PRO620  LYS621  CYS622 
 ASP623  PHE694  ASN695  SER759  ASP760  ASP761  ALA762  ILE779  LEU786  VAL792 
 PHE793  MET794  SER795  GLU796  ALA797  LYS798  CYS799  TRP800  GLU811  SER814 

> <Gold.Protein.RotatedAtoms>
  151.1529  133.4895  159.2594 H   0  0  0  0  0  0  0  0  0  0  0  0  # atno 6907 bound_to 6896
  151.1535  135.0238  159.8688 H   0  0  0  0  0  0  0  0  0  0  0  0  # atno 6908 bound_to 6896
  152.5463  134.1411  159.8532 H   0  0  0  0  0  0  0  0  0  0  0  0  # atno 6909 bound_to 6896
  145.0672  140.8333  143.4117 H   0  0  0  0  0  0  0  0  0  0  0  0  # atno 7974 bound_to 7965
  155.1630  140.0406  157.2846 H   0  0  0  0  0  0  0  0  0  0  0  0  # atno 8008 bound_to 7997
  154.6323  140.2527  155.7392 H   0  0  0  0  0  0  0  0  0  0  0  0  # atno 8009 bound_to 7997
  156.2491  140.2873  156.0680 H   0  0  0  0  0  0  0  0  0  0  0  0  # atno 8010 bound_to 7997
  139.4829  144.5299  151.7739 H   0  0  0  0  0  0  0  0  0  0  0  0  # atno 10167 bound_to 10162
  156.0054  130.5133  150.6160 H   0  0  0  0  0  0  0  0  0  0  0  0  # atno 10718 bound_to 10713
  154.4382  135.5947  153.6112 H   0  0  0  0  0  0  0  0  0  0  0  0  # atno 10763 bound_to 10752
  152.9803  135.5992  154.3754 H   0  0  0  0  0  0  0  0  0  0  0  0  # atno 10764 bound_to 10752
  154.3601  135.2841  155.2303 H   0  0  0  0  0  0  0  0  0  0  0  0  # atno 10765 bound_to 10752
  140.2120  134.8260  157.3131 H   0  0  0  0  0  0  0  0  0  0  0  0  # atno 11005 bound_to 11000
  145.1337  139.2616  143.5526 LP  0  0  0  0  0  0  0  0  0  0  0  0  # atno 17320 bound_to 7965
  146.3527  140.0995  142.8608 LP  0  0  0  0  0  0  0  0  0  0  0  0  # atno 17321 bound_to 7965
  140.4824  144.1430  150.5935 LP  0  0  0  0  0  0  0  0  0  0  0  0  # atno 17342 bound_to 10162
  140.4263  143.2588  151.9652 LP  0  0  0  0  0  0  0  0  0  0  0  0  # atno 17343 bound_to 10162
  157.3984  131.0806  151.1330 LP  0  0  0  0  0  0  0  0  0  0  0  0  # atno 17370 bound_to 10713
  157.2000  130.6390  149.5735 LP  0  0  0  0  0  0  0  0  0  0  0  0  # atno 17371 bound_to 10713
  140.1940  134.4336  155.7699 LP  0  0  0  0  0  0  0  0  0  0  0  0  # atno 17394 bound_to 11000
  141.2226  133.7040  156.8075 LP  0  0  0  0  0  0  0  0  0  0  0  0  # atno 17395 bound_to 11000

$$$$
