AV-unprocessed.smi:2510|AV-procd|sdf|9870|dock7
  -GOLD-   2272013503D 1   1.00000     0.00000
 Structure written by MMmdl.
 48 49  0  0  0  0  0  0  0  0  1 V2000
  146.9413  142.2203  156.8117 C   0  0  0  0  0  0  0  0  0  0  0  0
  147.6405  141.1143  157.6200 C   0  0  0  0  0  0  0  0  0  0  0  0
  149.1763  141.0266  157.4223 C   0  0  0  0  0  0  0  0  0  0  0  0
  149.7993  142.3854  157.8306 C   0  0  0  0  0  0  0  0  0  0  0  0
  151.2628  142.6003  157.4075 C   0  0  0  0  0  0  0  0  0  0  0  0
  149.9021  139.7976  158.0456 C   0  0  1  0  0  0  0  0  0  0  0  0
  149.0360  138.6285  158.1968 N   0  0  0  0  0  0  0  0  0  0  0  0
  149.3284  137.5245  158.8995 C   0  0  0  0  0  0  0  0  0  0  0  0
  150.3489  137.4007  159.5761 O   0  0  0  0  0  0  0  0  0  0  0  0
  148.3183  136.3780  158.8107 C   0  0  0  0  0  0  0  0  0  0  0  0
  147.6770  136.1485  160.1550 C   0  0  0  0  0  0  0  0  0  0  0  0
  146.8364  135.0670  160.5531 C   0  0  0  0  0  0  0  0  0  0  0  0
  146.4906  135.3636  161.8411 C   0  0  0  0  0  0  0  0  0  0  0  0
  145.6190  134.6508  162.8180 C   0  0  0  0  0  0  0  0  0  0  0  0
  147.1217  136.5474  162.1458 N   0  0  0  0  0  0  0  0  0  0  0  0
  147.8525  137.0347  161.1265 N   0  0  0  0  0  0  0  0  0  0  0  0
  150.7784  139.7034  156.7819 C   0  0  1  0  0  0  0  0  0  0  0  0
  151.2654  138.3643  156.2291 C   0  0  0  0  0  0  0  0  0  0  0  0
  149.6814  140.4921  156.0490 C   0  0  1  0  0  0  0  0  0  0  0  0
  148.7779  139.6034  155.4007 O   0  0  0  0  0  0  0  0  0  0  0  0
  149.2355  139.1708  154.1313 C   0  0  0  0  0  0  0  0  0  0  0  0
  147.0620  137.0279  163.0324 H   0  0  0  0  0  0  0  0  0  0  0  0
  145.8928  142.2972  157.0996 H   0  0  0  0  0  0  0  0  0  0  0  0
  146.9645  142.0191  155.7413 H   0  0  0  0  0  0  0  0  0  0  0  0
  147.4001  143.1942  156.9825 H   0  0  0  0  0  0  0  0  0  0  0  0
  147.4062  141.2899  158.6698 H   0  0  0  0  0  0  0  0  0  0  0  0
  147.1632  140.1605  157.4012 H   0  0  0  0  0  0  0  0  0  0  0  0
  149.1959  143.2134  157.4606 H   0  0  0  0  0  0  0  0  0  0  0  0
  149.7630  142.4968  158.9142 H   0  0  0  0  0  0  0  0  0  0  0  0
  151.6504  143.5218  157.8421 H   0  0  0  0  0  0  0  0  0  0  0  0
  151.3671  142.6915  156.3270 H   0  0  0  0  0  0  0  0  0  0  0  0
  151.9058  141.7868  157.7421 H   0  0  0  0  0  0  0  0  0  0  0  0
  150.4681  140.0447  158.9455 H   0  0  0  0  0  0  0  0  0  0  0  0
  148.1743  138.6342  157.6696 H   0  0  0  0  0  0  0  0  0  0  0  0
  147.5584  136.6176  158.0661 H   0  0  0  0  0  0  0  0  0  0  0  0
  148.8289  135.4805  158.4590 H   0  0  0  0  0  0  0  0  0  0  0  0
  146.5214  134.2133  159.9715 H   0  0  0  0  0  0  0  0  0  0  0  0
  145.2672  133.7041  162.4074 H   0  0  0  0  0  0  0  0  0  0  0  0
  144.7459  135.2537  163.0687 H   0  0  0  0  0  0  0  0  0  0  0  0
  146.1610  134.4377  163.7395 H   0  0  0  0  0  0  0  0  0  0  0  0
  151.6387  140.3595  156.9213 H   0  0  0  0  0  0  0  0  0  0  0  0
  150.4404  137.6920  155.9947 H   0  0  0  0  0  0  0  0  0  0  0  0
  151.9094  137.8547  156.9458 H   0  0  0  0  0  0  0  0  0  0  0  0
  151.8383  138.5044  155.3128 H   0  0  0  0  0  0  0  0  0  0  0  0
  150.1017  141.2430  155.3785 H   0  0  0  0  0  0  0  0  0  0  0  0
  148.4835  138.5290  153.6729 H   0  0  0  0  0  0  0  0  0  0  0  0
  150.1572  138.5954  154.2245 H   0  0  0  0  0  0  0  0  0  0  0  0
  149.4165  140.0105  153.4604 H   0  0  0  0  0  0  0  0  0  0  0  0
  1  2  1  0  0  0  0
  1 23  1  0  0  0  0
  1 24  1  0  0  0  0
  1 25  1  0  0  0  0
  2  3  1  0  0  0  0
  2 26  1  0  0  0  0
  2 27  1  0  0  0  0
  3 19  1  0  0  0  0
  3  4  1  0  0  0  0
  3  6  1  0  0  0  0
  4  5  1  0  0  0  0
  4 28  1  0  0  0  0
  4 29  1  0  0  0  0
  5 30  1  0  0  0  0
  5 31  1  0  0  0  0
  5 32  1  0  0  0  0
  6  7  1  0  0  0  0
  6 17  1  0  0  0  0
  6 33  1  0  0  0  0
  7  8  1  0  0  0  0
  7 34  1  0  0  0  0
  8  9  2  0  0  0  0
  8 10  1  0  0  0  0
 10 11  1  0  0  0  0
 10 35  1  0  0  0  0
 10 36  1  0  0  0  0
 11 16  2  0  0  0  0
 11 12  1  0  0  0  0
 12 13  2  0  0  0  0
 12 37  1  0  0  0  0
 13 14  1  0  0  0  0
 13 15  1  0  0  0  0
 14 38  1  0  0  0  0
 14 39  1  0  0  0  0
 14 40  1  0  0  0  0
 15 22  1  0  0  0  0
 15 16  1  0  0  0  0
 17 18  1  0  0  0  0
 17 19  1  0  0  0  0
 17 41  1  0  0  0  0
 18 42  1  0  0  0  0
 18 43  1  0  0  0  0
 18 44  1  0  0  0  0
 19 20  1  0  0  0  0
 19 45  1  0  0  0  0
 20 21  1  0  0  0  0
 21 46  1  0  0  0  0
 21 47  1  0  0  0  0
 21 48  1  0  0  0  0
M  END
> <s_m_source_file>
AV-unprocessed.smi

> <i_m_source_file_index>
2510

> <i_lp_mmshare_version>
43012

> <i_f3d_flags>
0

> <s_epik_input>
W0NIM11PW0NAQEhdMVtDQEhdKFtDSDNdKVtDQEBIXShDMShbQ0gyXVtDSDNdKVtDSDJdW0NIM10pW05IXUMoPU8pW0NIMl1jMltjSF1jKFtDSDNdKVtuSF1uMg==

> <s_epik_cmdline>
J2VwaWtfcHl0aG9uJywgJy1waCcsICc3LjAnLCAnLXRuJywgJzgnLCAnLW1hJywgJzIwMCcsICctbWV0YWxfYmluZGluZycsICctaW1hZScsICc8aW5maWxlLm1hZT4nLCAnLW9tYWUnLCAnPG91dGZpbGUubWFlPic=

> <r_lp_tautomer_probability>
0.5

> <r_epik_Ionization_Penalty>
9.73156e-05

> <r_epik_Ionization_Penalty_Charging>
0

> <r_epik_Ionization_Penalty_Neutral>
9.73156e-05

> <r_epik_State_Penalty>
0.41068

> <r_epik_Charging_Adjusted_Penalty>
0.41068

> <i_epik_Tot_Q>
0

> <i_epik_Tot_abs_Q>
0

> <r_epik_Metal_State_Penalty>
0.410699

> <b_epik_Metal_Only>
0

> <s_lp_Force_Field>
OPLS_2005

> <r_lp_Energy>
26.8932

> <b_lp_Chiralities_Consistent>
1

> <s_lp_Variant>
AV-unprocessed.smi:2510-1

> <Gold.Version>
5.8.1

> <Gold.Id.Protein>
6NUR|6NUR_protein|mol2

> <Gold.PLP.Fitness>
31.2702

> <Gold.PLP.PLP>
-26.5715

> <Gold.PLP.part.hbond>
-3.0000

> <Gold.PLP.part.metal>
0.0000

> <Gold.PLP.part.buried>
-4.2815

> <Gold.PLP.part.nonpolar>
-19.9996

> <Gold.PLP.part.repulsive>
0.3644

> <Gold.PLP.ligand.clash>
0.0000

> <Gold.PLP.ligand.torsion>
0.7448

> <Gold.PLP.Chemscore.Hbond>
1.8240

> <Gold.PLP.Chemscore.CHOScore>
0.0000

> <Gold.PLP.Chemscore.Metal>
0.0000

> <Gold.Chemscore.Hbonds>
donor molecule, donor type, donor heavy atom, donor atom, acceptor molecule, acceptor atom, score
      P1  H  6931  6943       L1    16  1.00
      P1  H  6934  6947       L1    16  0.66

> <Gold.PLP.Chemscore.Internal.Correction>
0.7162

> <Gold.Rescore>
     Score         DG    S(hbond)    S(metal)    S(lipo)     H(rot)  DE(clash)    DE(int)     intcor
     11.21     -14.89       1.63        0.00      73.52       1.81       0.04       3.65       ----

> <Gold.Chemscore.Fitness>
11.2084

> <Gold.Chemscore.DG>
-14.8896

> <Gold.Chemscore.ZeroCoef>
-5.4800

> <Gold.Chemscore.Hbond>
1.6294

> <Gold.Chemscore.Metal>
0.0000

> <Gold.Chemscore.Lipo>
73.5167

> <Gold.Chemscore.Internal_Hbond>
0.0000

> <Gold.Chemscore.DEClash>
0.0361

> <Gold.Chemscore.DEInternal>
3.6451

> <Gold.Chemscore.Rot>
1.8102

> <Gold.Chemscore.Internal.Correction>
   9.000000E+99

> <Gold.Chemscore.Hbonds>
donor molecule, donor type, donor heavy atom, donor atom, acceptor molecule, acceptor atom, score
      P1  H  6931  6943       L1    16  0.48
      P1  H  6934  6947       L1    16  0.29

> <Gold.Chemscore.Hbond.Weighted>
-5.4422

> <Gold.Chemscore.Metal.Weighted>
-0.0000

> <Gold.Chemscore.Lipo.Weighted>
-8.6015

> <Gold.Chemscore.Internal_Hbond.Weighted>
0.0000

> <Gold.Chemscore.DEClash.Weighted>
0.0361

> <Gold.Chemscore.DEInternal.Weighted>
3.6451

> <Gold.Chemscore.Rot.Weighted>
4.6341

> <Gold.Chemscore.Internal.Correction.Weighted>
   9.000000E+99

> <Gold.Protein.RotatedTorsions>
[ 6907 6896 6895 6894 ] final   60.56 input  -60.11 | X-H torsion
[ 7974 7965 7964 7962 ] final -147.13 input  175.53 | X-H torsion
[ 8008 7997 7996 7995 ] final  -88.57 input   59.86 | X-H torsion
[ 10167 10162 10161 10158 ] final   21.62 input  -65.29 | X-H torsion
[ 10718 10713 10712 10709 ] final  122.36 input   66.30 | X-H torsion
[ 10763 10752 10751 10750 ] final -102.15 input  -60.55 | X-H torsion
[ 11005 11000 10999 10996 ] final   36.54 input  -57.11 | X-H torsion

> <Gold.Protein.ActiveResidues>
 VAL166  LYS551  ARG553  GLY616  TRP617  ASP618  TYR619  PRO620  LYS621  CYS622 
 ASP623  PHE694  ASN695  SER759  ASP760  ASP761  ALA762  ILE779  LEU786  VAL792 
 PHE793  MET794  SER795  GLU796  ALA797  LYS798  CYS799  TRP800  GLU811  SER814 

> <Gold.Protein.RotatedAtoms>
  152.4013  134.6281  160.0068 H   0  0  0  0  0  0  0  0  0  0  0  0  # atno 6907 bound_to 6896
  151.6486  133.3316  159.3154 H   0  0  0  0  0  0  0  0  0  0  0  0  # atno 6908 bound_to 6896
  150.7913  134.6981  159.6579 H   0  0  0  0  0  0  0  0  0  0  0  0  # atno 6909 bound_to 6896
  144.8114  140.5367  143.5640 H   0  0  0  0  0  0  0  0  0  0  0  0  # atno 7974 bound_to 7965
  154.6763  140.0552  157.0219 H   0  0  0  0  0  0  0  0  0  0  0  0  # atno 8008 bound_to 7997
  155.1015  140.3229  155.4527 H   0  0  0  0  0  0  0  0  0  0  0  0  # atno 8009 bound_to 7997
  156.2677  140.2030  156.6141 H   0  0  0  0  0  0  0  0  0  0  0  0  # atno 8010 bound_to 7997
  140.5412  143.9673  150.6520 H   0  0  0  0  0  0  0  0  0  0  0  0  # atno 10167 bound_to 10162
  157.5748  131.1080  150.8299 H   0  0  0  0  0  0  0  0  0  0  0  0  # atno 10718 bound_to 10713
  154.7712  135.4871  153.9652 H   0  0  0  0  0  0  0  0  0  0  0  0  # atno 10763 bound_to 10752
  153.1370  135.6765  153.9094 H   0  0  0  0  0  0  0  0  0  0  0  0  # atno 10764 bound_to 10752
  153.8781  135.3135  155.3423 H   0  0  0  0  0  0  0  0  0  0  0  0  # atno 10765 bound_to 10752
  140.2315  134.3522  155.7962 H   0  0  0  0  0  0  0  0  0  0  0  0  # atno 11005 bound_to 11000
  145.5316  139.1475  143.3496 LP  0  0  0  0  0  0  0  0  0  0  0  0  # atno 17320 bound_to 7965
  146.2413  140.5456  142.8933 LP  0  0  0  0  0  0  0  0  0  0  0  0  # atno 17321 bound_to 7965
  140.3074  143.3220  152.0912 LP  0  0  0  0  0  0  0  0  0  0  0  0  # atno 17342 bound_to 10162
  139.4989  144.6658  151.6360 LP  0  0  0  0  0  0  0  0  0  0  0  0  # atno 17343 bound_to 10162
  156.8761  130.5163  149.5293 LP  0  0  0  0  0  0  0  0  0  0  0  0  # atno 17370 bound_to 10713
  156.0793  130.5807  150.9533 LP  0  0  0  0  0  0  0  0  0  0  0  0  # atno 17371 bound_to 10713
  141.2217  133.7248  156.8739 LP  0  0  0  0  0  0  0  0  0  0  0  0  # atno 17394 bound_to 11000
  140.1745  134.9076  157.2874 LP  0  0  0  0  0  0  0  0  0  0  0  0  # atno 17395 bound_to 11000

$$$$
