AV-unprocessed.smi:97|AV-procd|sdf|862|dock10
  -GOLD-   2262017313D 1   1.00000     0.00000
 Structure written by MMmdl.
 46 49  0  0  0  0  0  0  0  0  1 V2000
  152.4228  137.1470  159.6046 O   0  0  0  0  0  0  0  0  0  0  0  0
  153.3625  137.6676  159.0051 C   0  0  0  0  0  0  0  0  0  0  0  0
  154.4153  138.4580  159.8029 C   0  0  0  0  0  0  0  0  0  0  0  0
  153.9776  139.8066  160.2335 N   0  0  0  0  0  0  0  0  0  0  0  0
  154.1700  140.1944  161.5830 C   0  0  0  0  0  0  0  0  0  0  0  0
  154.6921  139.4332  162.3981 O   0  0  0  0  0  0  0  0  0  0  0  0
  153.7211  141.5406  161.9217 C   0  0  0  0  0  0  0  0  0  0  0  0
  153.8424  141.9848  163.1840 F   0  0  0  0  0  0  0  0  0  0  0  0
  153.1865  142.3506  160.9849 C   0  0  0  0  0  0  0  0  0  0  0  0
  153.0315  141.9686  159.6656 N   0  0  0  0  0  0  0  0  0  0  0  0
  152.4383  142.9113  158.6436 C   0  0  1  0  0  0  0  0  0  0  0  0
  150.9710  143.2034  158.9786 C   0  0  0  0  0  0  0  0  0  0  0  0
  151.0693  144.5305  159.6998 C   0  0  0  0  0  0  0  0  0  0  0  0
  152.2368  145.1877  158.9742 C   0  0  0  0  0  0  0  0  0  0  0  0
  153.1368  144.1224  158.6863 O   0  0  0  0  0  0  0  0  0  0  0  0
  153.4115  140.6702  159.2645 C   0  0  0  0  0  0  0  0  0  0  0  0
  153.2598  140.3005  158.0982 O   0  0  0  0  0  0  0  0  0  0  0  0
  153.4993  137.6055  157.6699 N   0  0  0  0  0  0  0  0  0  0  0  0
  152.5287  137.0288  156.7481 C   0  0  0  0  0  0  0  0  0  0  0  0
  151.9080  138.0549  155.8106 C   0  0  0  0  0  0  0  0  0  0  0  0
  151.8377  137.8131  154.4104 C   0  0  0  0  0  0  0  0  0  0  0  0
  151.2594  138.7624  153.5382 C   0  0  0  0  0  0  0  0  0  0  0  0
  150.7528  139.9443  154.1014 C   0  0  0  0  0  0  0  0  0  0  0  0
  150.8119  140.1821  155.4589 C   0  0  0  0  0  0  0  0  0  0  0  0
  151.3824  139.2552  156.3467 C   0  0  0  0  0  0  0  0  0  0  0  0
  150.2540  141.3888  155.7334 O   0  0  0  0  0  0  0  0  0  0  0  0
  149.8381  141.9097  154.4974 C   0  0  0  0  0  0  0  0  0  0  0  0
  150.1558  140.9937  153.4812 O   0  0  0  0  0  0  0  0  0  0  0  0
  154.7052  137.8629  160.6706 H   0  0  0  0  0  0  0  0  0  0  0  0
  155.3252  138.5032  159.2032 H   0  0  0  0  0  0  0  0  0  0  0  0
  152.8683  143.3359  161.2915 H   0  0  0  0  0  0  0  0  0  0  0  0
  152.5832  142.4458  157.6674 H   0  0  0  0  0  0  0  0  0  0  0  0
  150.4175  143.3155  158.0455 H   0  0  0  0  0  0  0  0  0  0  0  0
  150.5122  142.4093  159.5688 H   0  0  0  0  0  0  0  0  0  0  0  0
  150.1507  145.1156  159.6479 H   0  0  0  0  0  0  0  0  0  0  0  0
  151.3159  144.3728  160.7503 H   0  0  0  0  0  0  0  0  0  0  0  0
  151.9012  145.6285  158.0345 H   0  0  0  0  0  0  0  0  0  0  0  0
  152.7158  145.9684  159.5653 H   0  0  0  0  0  0  0  0  0  0  0  0
  154.3061  138.0511  157.2583 H   0  0  0  0  0  0  0  0  0  0  0  0
  153.0390  136.2791  156.1434 H   0  0  0  0  0  0  0  0  0  0  0  0
  151.7488  136.5011  157.2999 H   0  0  0  0  0  0  0  0  0  0  0  0
  152.2277  136.8955  153.9951 H   0  0  0  0  0  0  0  0  0  0  0  0
  151.2066  138.5836  152.4745 H   0  0  0  0  0  0  0  0  0  0  0  0
  151.4192  139.4595  157.4068 H   0  0  0  0  0  0  0  0  0  0  0  0
  148.7606  142.0768  154.5153 H   0  0  0  0  0  0  0  0  0  0  0  0
  150.3479  142.8554  154.3090 H   0  0  0  0  0  0  0  0  0  0  0  0
  1  2  2  0  0  0  0
  2  3  1  0  0  0  0
  2 18  1  0  0  0  0
  3  4  1  0  0  0  0
  3 29  1  0  0  0  0
  3 30  1  0  0  0  0
  4 16  1  0  0  0  0
  4  5  1  0  0  0  0
  5  6  2  0  0  0  0
  5  7  1  0  0  0  0
  7  8  1  0  0  0  0
  7  9  2  0  0  0  0
  9 10  1  0  0  0  0
  9 31  1  0  0  0  0
 10 11  1  0  0  0  0
 10 16  1  0  0  0  0
 11 15  1  0  0  0  0
 11 12  1  0  0  0  0
 11 32  1  0  0  0  0
 12 13  1  0  0  0  0
 12 33  1  0  0  0  0
 12 34  1  0  0  0  0
 13 14  1  0  0  0  0
 13 35  1  0  0  0  0
 13 36  1  0  0  0  0
 14 15  1  0  0  0  0
 14 37  1  0  0  0  0
 14 38  1  0  0  0  0
 16 17  2  0  0  0  0
 18 19  1  0  0  0  0
 18 39  1  0  0  0  0
 19 20  1  0  0  0  0
 19 40  1  0  0  0  0
 19 41  1  0  0  0  0
 20 25  1  0  0  0  0
 20 21  2  0  0  0  0
 21 22  1  0  0  0  0
 21 42  1  0  0  0  0
 22 23  2  0  0  0  0
 22 43  1  0  0  0  0
 23 28  1  0  0  0  0
 23 24  1  0  0  0  0
 24 25  2  0  0  0  0
 24 26  1  0  0  0  0
 25 44  1  0  0  0  0
 26 27  1  0  0  0  0
 27 28  1  0  0  0  0
 27 45  1  0  0  0  0
 27 46  1  0  0  0  0
M  END
> <s_m_source_file>
AV-unprocessed.smi

> <i_m_source_file_index>
97

> <i_lp_mmshare_version>
43012

> <i_f3d_flags>
0

> <s_epik_input>
TzFbQ0gyXU9jKGMxMilbY0hdYyhbY0hdW2NIXTIpW0NIMl1bTkhdQyg9TylbQ0gyXW4zYyg9TyljKEYpW2NIXW4oYzM9TylbQ0BASF00W0NIMl1bQ0gyXVtDSDJdTzQ=

> <s_epik_cmdline>
J2VwaWtfcHl0aG9uJywgJy1waCcsICc3LjAnLCAnLXRuJywgJzgnLCAnLW1hJywgJzIwMCcsICctbWV0YWxfYmluZGluZycsICctaW1hZScsICc8aW5maWxlLm1hZT4nLCAnLW9tYWUnLCAnPG91dGZpbGUubWFlPic=

> <r_lp_tautomer_probability>
1

> <r_epik_Ionization_Penalty>
3.79042e-08

> <r_epik_Ionization_Penalty_Charging>
3.81036e-09

> <r_epik_Ionization_Penalty_Neutral>
3.40938e-08

> <r_epik_State_Penalty>
-0

> <r_epik_Charging_Adjusted_Penalty>
3.81036e-09

> <i_epik_Tot_Q>
0

> <i_epik_Tot_abs_Q>
0

> <r_epik_Metal_State_Penalty>
-0

> <b_epik_Metal_Only>
0

> <s_epik_Chemistry_Notes>
This compound contains an acetal/aminal-like group ( X-CH(R)-Y where X, Y are N, S, or O) that may be acid/base labile, releasing an aldehyde.

> <s_lp_Force_Field>
OPLS_2005

> <r_lp_Energy>
39.492

> <b_lp_Chiralities_Consistent>
1

> <s_lp_Variant>
AV-unprocessed.smi:97-2

> <Gold.Version>
5.8.1

> <Gold.Id.Protein>
6NUR|6NUR_protein|mol2

> <Gold.PLP.Fitness>
56.2792

> <Gold.PLP.PLP>
-51.7188

> <Gold.PLP.part.hbond>
-3.0068

> <Gold.PLP.part.metal>
0.0000

> <Gold.PLP.part.buried>
-3.4063

> <Gold.PLP.part.nonpolar>
-45.5035

> <Gold.PLP.part.repulsive>
2.0176

> <Gold.PLP.ligand.clash>
0.0000

> <Gold.PLP.ligand.torsion>
0.5567

> <Gold.PLP.Chemscore.Hbond>
1.8853

> <Gold.PLP.Chemscore.CHOScore>
0.0000

> <Gold.PLP.Chemscore.Metal>
0.0000

> <Gold.Chemscore.Hbonds>
donor molecule, donor type, donor heavy atom, donor atom, acceptor molecule, acceptor atom, score
      P1  H  6896  6907       L1     1  0.71
      P1  H  7997  8010       L1    17  0.90
      P1  H  8011  8017       L1    28  0.23

> <Gold.PLP.Chemscore.Internal.Correction>
0.0177

> <Gold.Rescore>
     Score         DG    S(hbond)    S(metal)    S(lipo)     H(rot)  DE(clash)    DE(int)     intcor
     14.49     -16.38       1.87        0.00      96.07       2.58       0.19       1.70       ----

> <Gold.Chemscore.Fitness>
14.4883

> <Gold.Chemscore.DG>
-16.3765

> <Gold.Chemscore.ZeroCoef>
-5.4800

> <Gold.Chemscore.Hbond>
1.8745

> <Gold.Chemscore.Metal>
0.0000

> <Gold.Chemscore.Lipo>
96.0739

> <Gold.Chemscore.Internal_Hbond>
0.0000

> <Gold.Chemscore.DEClash>
0.1879

> <Gold.Chemscore.DEInternal>
1.7003

> <Gold.Chemscore.Rot>
2.5801

> <Gold.Chemscore.Internal.Correction>
   9.000000E+99

> <Gold.Chemscore.Hbonds>
donor molecule, donor type, donor heavy atom, donor atom, acceptor molecule, acceptor atom, score
      P1  H  6896  6907       L1     1  0.71
      P1  H  7997  8010       L1    17  0.88

> <Gold.Chemscore.Hbond.Weighted>
-6.2609

> <Gold.Chemscore.Metal.Weighted>
-0.0000

> <Gold.Chemscore.Lipo.Weighted>
-11.2406

> <Gold.Chemscore.Internal_Hbond.Weighted>
0.0000

> <Gold.Chemscore.DEClash.Weighted>
0.1879

> <Gold.Chemscore.DEInternal.Weighted>
1.7003

> <Gold.Chemscore.Rot.Weighted>
6.6050

> <Gold.Chemscore.Internal.Correction.Weighted>
   9.000000E+99

> <Gold.Protein.RotatedTorsions>
[ 6907 6896 6895 6894 ] final   18.70 input  -60.11 | X-H torsion
[ 7974 7965 7964 7962 ] final  175.90 input  175.53 | X-H torsion
[ 8008 7997 7996 7995 ] final   38.57 input   59.86 | X-H torsion
[ 10167 10162 10161 10158 ] final -127.12 input  -65.29 | X-H torsion
[ 10718 10713 10712 10709 ] final -120.07 input   66.30 | X-H torsion
[ 10763 10752 10751 10750 ] final    5.38 input  -60.55 | X-H torsion
[ 11005 11000 10999 10996 ] final   -5.33 input  -57.11 | X-H torsion

> <Gold.Protein.ActiveResidues>
 VAL166  LYS551  ARG553  GLY616  TRP617  ASP618  TYR619  PRO620  LYS621  CYS622 
 ASP623  PHE694  ASN695  SER759  ASP760  ASP761  ALA762  ILE779  LEU786  VAL792 
 PHE793  MET794  SER795  GLU796  ALA797  LYS798  CYS799  TRP800  GLU811  SER814 

> <Gold.Protein.RotatedAtoms>
  151.8694  135.0495  160.0477 H   0  0  0  0  0  0  0  0  0  0  0  0  # atno 6907 bound_to 6896
  152.2600  133.5284  159.5384 H   0  0  0  0  0  0  0  0  0  0  0  0  # atno 6908 bound_to 6896
  150.7113  134.0759  159.3923 H   0  0  0  0  0  0  0  0  0  0  0  0  # atno 6909 bound_to 6896
  144.7193  140.0016  143.6440 H   0  0  0  0  0  0  0  0  0  0  0  0  # atno 7974 bound_to 7965
  155.2223  140.3332  155.4314 H   0  0  0  0  0  0  0  0  0  0  0  0  # atno 8008 bound_to 7997
  156.2328  140.1858  156.7245 H   0  0  0  0  0  0  0  0  0  0  0  0  # atno 8009 bound_to 7997
  154.6007  140.0623  156.9350 H   0  0  0  0  0  0  0  0  0  0  0  0  # atno 8010 bound_to 7997
  139.9642  143.5916  152.2435 H   0  0  0  0  0  0  0  0  0  0  0  0  # atno 10167 bound_to 10162
  156.1230  130.6337  150.9495 H   0  0  0  0  0  0  0  0  0  0  0  0  # atno 10718 bound_to 10713
  153.2601  135.6922  153.7587 H   0  0  0  0  0  0  0  0  0  0  0  0  # atno 10763 bound_to 10752
  153.6649  135.3354  155.3138 H   0  0  0  0  0  0  0  0  0  0  0  0  # atno 10764 bound_to 10752
  154.8427  135.4486  154.1589 H   0  0  0  0  0  0  0  0  0  0  0  0  # atno 10765 bound_to 10752
  140.6899  133.9080  155.8611 H   0  0  0  0  0  0  0  0  0  0  0  0  # atno 11005 bound_to 11000
  146.0331  139.3352  143.0743 LP  0  0  0  0  0  0  0  0  0  0  0  0  # atno 17320 bound_to 7965
  145.8428  140.9571  143.0790 LP  0  0  0  0  0  0  0  0  0  0  0  0  # atno 17321 bound_to 7965
  139.6530  144.7661  151.2110 LP  0  0  0  0  0  0  0  0  0  0  0  0  # atno 17342 bound_to 10162
  140.7543  143.6130  150.8587 LP  0  0  0  0  0  0  0  0  0  0  0  0  # atno 17343 bound_to 10162
  157.6412  131.0910  150.8246 LP  0  0  0  0  0  0  0  0  0  0  0  0  # atno 17370 bound_to 10713
  156.8340  130.5025  149.5328 LP  0  0  0  0  0  0  0  0  0  0  0  0  # atno 17371 bound_to 10713
  141.0249  134.0837  157.4079 LP  0  0  0  0  0  0  0  0  0  0  0  0  # atno 17394 bound_to 11000
  139.8926  135.0126  156.6856 LP  0  0  0  0  0  0  0  0  0  0  0  0  # atno 17395 bound_to 11000

$$$$
