AV-unprocessed.smi:560|AV-procd|sdf|2930|dock2
  -GOLD-   2262023423D 1   1.00000     0.00000
 Structure written by MMmdl.
 42 43  0  0  0  0  0  0  0  0  2 V2000
  152.5472  140.4837  158.6589 C   0  0  0  0  0  0  0  0  0  0  0  0
  151.2585  141.1529  158.1395 C   0  0  2  0  0  0  0  0  0  0  0  0
  151.0440  140.9555  156.6293 C   0  0  0  0  0  0  0  0  0  0  0  0
  150.6373  141.8779  155.9220 O   0  0  0  0  0  0  0  0  0  0  0  0
  151.3300  139.7355  156.1456 N   0  0  0  0  0  0  0  0  0  0  0  0
  151.1705  139.3157  154.7545 C   0  0  2  0  0  0  0  0  0  0  0  0
  149.6935  139.4074  154.3341 C   0  0  0  0  0  0  0  0  0  0  0  0
  148.8347  138.3122  154.9931 C   0  0  0  0  0  0  0  0  0  0  0  0
  149.3799  136.9593  154.7142 N   0  3  2  0  0  0  0  0  0  0  0  0
  148.4940  135.8765  155.2144 C   0  0  0  0  0  0  0  0  0  0  0  0
  149.0706  134.4760  154.9824 C   0  0  0  0  0  0  0  0  0  0  0  0
  149.2494  134.1001  153.7140 N   0  0  0  0  0  0  0  0  0  0  0  0
  149.3653  133.7488  155.9293 O   0  0  0  0  0  0  0  0  0  0  0  0
  150.7850  136.8287  155.1842 C   0  0  0  0  0  0  0  0  0  0  0  0
  151.6895  137.8825  154.5225 C   0  0  0  0  0  0  0  0  0  0  0  0
  151.2043  142.5694  158.4835 N   0  0  0  0  0  0  0  0  0  0  0  0
  152.1664  143.3250  159.1223 C   0  0  0  0  0  0  0  0  0  0  0  0
  151.6703  144.5893  159.2617 C   0  0  0  0  0  0  0  0  0  0  0  0
  150.3757  144.5108  158.6777 C   0  0  0  0  0  0  0  0  0  0  0  0
  150.0966  143.3013  158.2205 N   0  0  0  0  0  0  0  0  0  0  0  0
  152.5433  139.4120  158.4575 H   0  0  0  0  0  0  0  0  0  0  0  0
  152.6433  140.6113  159.7375 H   0  0  0  0  0  0  0  0  0  0  0  0
  153.4417  140.9043  158.1974 H   0  0  0  0  0  0  0  0  0  0  0  0
  150.4198  140.6685  158.6426 H   0  0  0  0  0  0  0  0  0  0  0  0
  151.6524  139.0373  156.7998 H   0  0  0  0  0  0  0  0  0  0  0  0
  151.7427  140.0038  154.1294 H   0  0  0  0  0  0  0  0  0  0  0  0
  149.2923  140.3933  154.5728 H   0  0  0  0  0  0  0  0  0  0  0  0
  149.6244  139.3077  153.2500 H   0  0  0  0  0  0  0  0  0  0  0  0
  148.7785  138.4683  156.0716 H   0  0  0  0  0  0  0  0  0  0  0  0
  147.8159  138.3835  154.6106 H   0  0  0  0  0  0  0  0  0  0  0  0
  148.2730  136.0317  156.2717 H   0  0  0  0  0  0  0  0  0  0  0  0
  147.5400  135.9100  154.6864 H   0  0  0  0  0  0  0  0  0  0  0  0
  149.6218  133.1857  153.5011 H   0  0  0  0  0  0  0  0  0  0  0  0
  149.0057  134.7334  152.9655 H   0  0  0  0  0  0  0  0  0  0  0  0
  150.8197  136.9291  156.2702 H   0  0  0  0  0  0  0  0  0  0  0  0
  151.1686  135.8353  154.9504 H   0  0  0  0  0  0  0  0  0  0  0  0
  151.7327  137.6887  153.4499 H   0  0  0  0  0  0  0  0  0  0  0  0
  152.7125  137.7784  154.8859 H   0  0  0  0  0  0  0  0  0  0  0  0
  153.1155  142.9050  159.4211 H   0  0  0  0  0  0  0  0  0  0  0  0
  152.1571  145.4405  159.7138 H   0  0  0  0  0  0  0  0  0  0  0  0
  149.6345  145.2897  158.5764 H   0  0  0  0  0  0  0  0  0  0  0  0
  149.3972  136.8616  153.7085 H   0  0  0  0  0  0  0  0  0  0  0  0
  1  2  1  0  0  0  0
  1 21  1  0  0  0  0
  1 22  1  0  0  0  0
  1 23  1  0  0  0  0
  2  3  1  0  0  0  0
  2 16  1  0  0  0  0
  2 24  1  0  0  0  0
  3  4  2  0  0  0  0
  3  5  1  0  0  0  0
  5  6  1  0  0  0  0
  5 25  1  0  0  0  0
  6 15  1  0  0  0  0
  6  7  1  0  0  0  0
  6 26  1  0  0  0  0
  7  8  1  0  0  0  0
  7 27  1  0  0  0  0
  7 28  1  0  0  0  0
  8  9  1  0  0  0  0
  8 29  1  0  0  0  0
  8 30  1  0  0  0  0
  9 10  1  0  0  0  0
  9 14  1  0  0  0  0
  9 42  1  0  0  0  0
 10 11  1  0  0  0  0
 10 31  1  0  0  0  0
 10 32  1  0  0  0  0
 11 12  1  0  0  0  0
 11 13  2  0  0  0  0
 12 33  1  0  0  0  0
 12 34  1  0  0  0  0
 14 15  1  0  0  0  0
 14 35  1  0  0  0  0
 14 36  1  0  0  0  0
 15 37  1  0  0  0  0
 15 38  1  0  0  0  0
 16 20  1  0  0  0  0
 16 17  1  0  0  0  0
 17 18  2  0  0  0  0
 17 39  1  0  0  0  0
 18 19  1  0  0  0  0
 18 40  1  0  0  0  0
 19 20  2  0  0  0  0
 19 41  1  0  0  0  0
M  CHG  1   9   1
M  END
> <s_m_source_file>
AV-unprocessed.smi

> <i_m_source_file_index>
560

> <i_lp_mmshare_version>
43012

> <i_f3d_flags>
0

> <s_epik_input>
bjFbY0hdW2NIXVtjSF1uMVtDQEhdKFtDSDNdKUMoPU8pW05IXVtDSF0yW0NIMl1bQ0gyXU4oW0NIMl1bQ0gyXTIpW0NIMl1DKD1PKVtOSDJd

> <s_epik_cmdline>
J2VwaWtfcHl0aG9uJywgJy1waCcsICc3LjAnLCAnLXRuJywgJzgnLCAnLW1hJywgJzIwMCcsICctbWV0YWxfYmluZGluZycsICctaW1hZScsICc8aW5maWxlLm1hZT4nLCAnLW9tYWUnLCAnPG91dGZpbGUubWFlPic=

> <r_lp_tautomer_probability>
1

> <r_epik_Ionization_Penalty>
1.02943

> <r_epik_Ionization_Penalty_Charging>
1.02936

> <r_epik_Ionization_Penalty_Neutral>
7.4537e-05

> <r_epik_State_Penalty>
1.08036

> <r_epik_Charging_Adjusted_Penalty>
2.10972

> <i_epik_Tot_Q>
1

> <i_epik_Tot_abs_Q>
1

> <r_epik_Metal_State_Penalty>
1.09347

> <b_epik_Metal_Only>
0

> <s_lp_Force_Field>
OPLS_2005

> <r_lp_Energy>
16.2494

> <b_lp_Chiralities_Consistent>
1

> <s_lp_Variant>
AV-unprocessed.smi:560-5

> <Gold.Version>
5.8.1

> <Gold.Id.Protein>
6NUR|6NUR_protein|mol2

> <Gold.PLP.Fitness>
45.6934

> <Gold.PLP.PLP>
-34.4911

> <Gold.PLP.part.hbond>
-2.2468

> <Gold.PLP.part.metal>
0.0000

> <Gold.PLP.part.buried>
-2.3530

> <Gold.PLP.part.nonpolar>
-30.0849

> <Gold.PLP.part.repulsive>
0.3787

> <Gold.PLP.ligand.clash>
0.0000

> <Gold.PLP.ligand.torsion>
0.4779

> <Gold.PLP.Chemscore.Hbond>
3.0000

> <Gold.PLP.Chemscore.CHOScore>
1.0000

> <Gold.PLP.Chemscore.Metal>
0.0000

> <Gold.Chemscore.Hbonds>
donor molecule, donor type, donor heavy atom, donor atom, acceptor molecule, acceptor atom, score
      L1  H     9    42       P1  7948  2.00
      L1  H    12    34       P1  7948  0.60
      L1  C    19    41       P1  8029  1.00

> <Gold.PLP.Chemscore.Internal.Correction>
0.1581

> <Gold.Rescore>
     Score         DG    S(hbond)    S(metal)    S(lipo)     H(rot)  DE(clash)    DE(int)     intcor
     13.00     -14.83       1.93        0.00      80.06       2.52       0.23       1.60       ----

> <Gold.Chemscore.Fitness>
12.9972

> <Gold.Chemscore.DG>
-14.8254

> <Gold.Chemscore.ZeroCoef>
-5.4800

> <Gold.Chemscore.Hbond>
1.9284

> <Gold.Chemscore.Metal>
0.0000

> <Gold.Chemscore.Lipo>
80.0588

> <Gold.Chemscore.Internal_Hbond>
0.0000

> <Gold.Chemscore.DEClash>
0.2317

> <Gold.Chemscore.DEInternal>
1.5966

> <Gold.Chemscore.Rot>
2.5243

> <Gold.Chemscore.Internal.Correction>
   9.000000E+99

> <Gold.Chemscore.Hbonds>
donor molecule, donor type, donor heavy atom, donor atom, acceptor molecule, acceptor atom, score
      L1  H     9    42       P1  7948  0.90
      L1  H    12    34       P1  7948  0.04

> <Gold.Chemscore.Hbond.Weighted>
-6.4407

> <Gold.Chemscore.Metal.Weighted>
-0.0000

> <Gold.Chemscore.Lipo.Weighted>
-9.3669

> <Gold.Chemscore.Internal_Hbond.Weighted>
0.0000

> <Gold.Chemscore.DEClash.Weighted>
0.2317

> <Gold.Chemscore.DEInternal.Weighted>
1.5966

> <Gold.Chemscore.Rot.Weighted>
6.4622

> <Gold.Chemscore.Internal.Correction.Weighted>
   9.000000E+99

> <Gold.Protein.RotatedTorsions>
[ 6907 6896 6895 6894 ] final  -28.97 input  -60.11 | X-H torsion
[ 7974 7965 7964 7962 ] final -100.00 input  175.53 | X-H torsion
[ 8008 7997 7996 7995 ] final -115.08 input   59.86 | X-H torsion
[ 10167 10162 10161 10158 ] final  -28.47 input  -65.29 | X-H torsion
[ 10718 10713 10712 10709 ] final  169.75 input   66.30 | X-H torsion
[ 10763 10752 10751 10750 ] final   63.13 input  -60.55 | X-H torsion
[ 11005 11000 10999 10996 ] final  -96.37 input  -57.11 | X-H torsion

> <Gold.Protein.ActiveResidues>
 VAL166  LYS551  ARG553  GLY616  TRP617  ASP618  TYR619  PRO620  LYS621  CYS622 
 ASP623  PHE694  ASN695  SER759  ASP760  ASP761  ALA762  ILE779  LEU786  VAL792 
 PHE793  MET794  SER795  GLU796  ALA797  LYS798  CYS799  TRP800  GLU811  SER814 

> <Gold.Protein.RotatedAtoms>
  151.1256  135.0103  159.8558 H   0  0  0  0  0  0  0  0  0  0  0  0  # atno 6907 bound_to 6896
  152.5449  134.1671  159.8591 H   0  0  0  0  0  0  0  0  0  0  0  0  # atno 6908 bound_to 6896
  151.1733  133.4726  159.2627 H   0  0  0  0  0  0  0  0  0  0  0  0  # atno 6909 bound_to 6896
  145.3002  140.9375  143.2828 H   0  0  0  0  0  0  0  0  0  0  0  0  # atno 7974 bound_to 7965
  155.0463  140.0392  157.2528 H   0  0  0  0  0  0  0  0  0  0  0  0  # atno 8008 bound_to 7997
  154.7174  140.2705  155.6549 H   0  0  0  0  0  0  0  0  0  0  0  0  # atno 8009 bound_to 7997
  156.2807  140.2709  156.1835 H   0  0  0  0  0  0  0  0  0  0  0  0  # atno 8010 bound_to 7997
  140.7269  143.4008  151.1269 H   0  0  0  0  0  0  0  0  0  0  0  0  # atno 10167 bound_to 10162
  157.0181  131.0224  151.2783 H   0  0  0  0  0  0  0  0  0  0  0  0  # atno 10718 bound_to 10713
  153.0007  135.5440  154.6303 H   0  0  0  0  0  0  0  0  0  0  0  0  # atno 10763 bound_to 10752
  154.5582  135.2832  155.0947 H   0  0  0  0  0  0  0  0  0  0  0  0  # atno 10764 bound_to 10752
  154.2160  135.6459  153.5182 H   0  0  0  0  0  0  0  0  0  0  0  0  # atno 10765 bound_to 10752
  141.1413  133.8093  157.0562 H   0  0  0  0  0  0  0  0  0  0  0  0  # atno 11005 bound_to 11000
  144.9100  139.4541  143.6591 LP  0  0  0  0  0  0  0  0  0  0  0  0  # atno 17320 bound_to 7965
  146.3154  139.7902  142.8987 LP  0  0  0  0  0  0  0  0  0  0  0  0  # atno 17321 bound_to 7965
  139.7627  143.8611  152.3104 LP  0  0  0  0  0  0  0  0  0  0  0  0  # atno 17342 bound_to 10162
  139.8503  144.7168  150.9223 LP  0  0  0  0  0  0  0  0  0  0  0  0  # atno 17343 bound_to 10162
  157.5270  130.8034  149.7873 LP  0  0  0  0  0  0  0  0  0  0  0  0  # atno 17370 bound_to 10713
  156.0112  130.3832  150.2259 LP  0  0  0  0  0  0  0  0  0  0  0  0  # atno 17371 bound_to 10713
  140.0600  134.9759  157.1289 LP  0  0  0  0  0  0  0  0  0  0  0  0  # atno 17394 bound_to 11000
  140.3862  134.2234  155.7168 LP  0  0  0  0  0  0  0  0  0  0  0  0  # atno 17395 bound_to 11000

$$$$
