AV-unprocessed.smi:2886|AV-procd|sdf|11088|dock8
  -GOLD-   2272015563D 1   1.00000     0.00000
 Structure written by MMmdl.
 28 30  0  0  0  0  0  0  0  0  1 V2000
  152.3472  136.7549  156.3912 O   0  0  0  0  0  0  0  0  0  0  0  0
  152.1359  137.9623  156.2951 C   0  0  0  0  0  0  0  0  0  0  0  0
  151.7657  138.5238  155.1203 N   0  0  0  0  0  0  0  0  0  0  0  0
  151.5134  139.8547  154.8927 N   0  0  0  0  0  0  0  0  0  0  0  0
  151.6234  140.6774  155.8792 C   0  0  0  0  0  0  0  0  0  0  0  0
  151.9975  140.2541  157.2247 C   0  0  0  0  0  0  0  0  0  0  0  0
  152.1162  141.1415  158.2865 N   0  0  0  0  0  0  0  0  0  0  0  0
  151.9096  142.5834  158.2953 C   0  0  1  0  0  0  0  0  0  0  0  0
  150.7212  143.0140  159.1560 C   0  0  0  0  0  0  0  0  0  0  0  0
  151.3707  144.0533  160.0814 C   0  0  1  0  0  0  0  0  0  0  0  0
  152.2332  143.3849  161.1597 C   0  0  0  0  0  0  0  0  0  0  0  0
  153.4354  142.9096  160.3457 C   0  0  0  0  0  0  0  0  0  0  0  0
  153.0652  143.3775  158.9280 C   0  0  2  0  0  0  0  0  0  0  0  0
  152.3803  144.5803  159.2353 O   0  0  0  0  0  0  0  0  0  0  0  0
  152.2505  138.9270  157.3977 C   0  0  0  0  0  0  0  0  0  0  0  0
  152.7177  138.3163  158.9498 Cl  0  0  0  0  0  0  0  0  0  0  0  0
  151.6595  137.9370  154.3052 H   0  0  0  0  0  0  0  0  0  0  0  0
  151.4426  141.7430  155.7432 H   0  0  0  0  0  0  0  0  0  0  0  0
  152.2298  140.7305  159.2025 H   0  0  0  0  0  0  0  0  0  0  0  0
  151.7361  142.9433  157.2812 H   0  0  0  0  0  0  0  0  0  0  0  0
  149.9495  143.4704  158.5357 H   0  0  0  0  0  0  0  0  0  0  0  0
  150.2654  142.1963  159.7164 H   0  0  0  0  0  0  0  0  0  0  0  0
  150.6745  144.7969  160.4702 H   0  0  0  0  0  0  0  0  0  0  0  0
  152.5447  144.1096  161.9129 H   0  0  0  0  0  0  0  0  0  0  0  0
  151.7125  142.5700  161.6635 H   0  0  0  0  0  0  0  0  0  0  0  0
  154.3434  143.4072  160.6876 H   0  0  0  0  0  0  0  0  0  0  0  0
  153.5972  141.8336  160.4132 H   0  0  0  0  0  0  0  0  0  0  0  0
  153.9233  143.5060  158.2676 H   0  0  0  0  0  0  0  0  0  0  0  0
  1  2  2  0  0  0  0
  2 15  1  0  0  0  0
  2  3  1  0  0  0  0
  3 17  1  0  0  0  0
  3  4  1  0  0  0  0
  4  5  2  0  0  0  0
  5  6  1  0  0  0  0
  5 18  1  0  0  0  0
  6  7  1  0  0  0  0
  6 15  2  0  0  0  0
  7  8  1  0  0  0  0
  7 19  1  0  0  0  0
  8 13  1  0  0  0  0
  8  9  1  0  0  0  0
  8 20  1  0  0  0  0
  9 10  1  0  0  0  0
  9 21  1  0  0  0  0
  9 22  1  0  0  0  0
 10 14  1  0  0  0  0
 10 11  1  0  0  0  0
 10 23  1  0  0  0  0
 11 12  1  0  0  0  0
 11 24  1  0  0  0  0
 11 25  1  0  0  0  0
 12 13  1  0  0  0  0
 12 26  1  0  0  0  0
 12 27  1  0  0  0  0
 13 14  1  0  0  0  0
 13 28  1  0  0  0  0
 15 16  1  0  0  0  0
M  END
> <s_m_source_file>
AV-unprocessed.smi

> <i_m_source_file_index>
2886

> <i_lp_mmshare_version>
43012

> <i_f3d_flags>
0

> <s_epik_input>
Tz1jMVtuSF1uW2NIXWMoYzFDbClbTkhdW0NASF0oW0NIMl1bQ0BASF0yMylbQ0BASF0oTzMpW0NIMl1bQ0gyXTI=

> <s_epik_cmdline>
J2VwaWtfcHl0aG9uJywgJy1waCcsICc3LjAnLCAnLXRuJywgJzgnLCAnLW1hJywgJzIwMCcsICctbWV0YWxfYmluZGluZycsICctaW1hZScsICc8aW5maWxlLm1hZT4nLCAnLW9tYWUnLCAnPG91dGZpbGUubWFlPic=

> <r_lp_tautomer_probability>
0.986175

> <r_epik_Ionization_Penalty>
0.000975594

> <r_epik_Ionization_Penalty_Charging>
0.000940184

> <r_epik_Ionization_Penalty_Neutral>
3.54099e-05

> <r_epik_State_Penalty>
0.00620319

> <r_epik_Charging_Adjusted_Penalty>
0.00714337

> <i_epik_Tot_Q>
0

> <i_epik_Tot_abs_Q>
0

> <r_epik_Metal_State_Penalty>
0.287699

> <b_epik_Metal_Only>
0

> <s_lp_Force_Field>
OPLS_2005

> <r_lp_Energy>
55.2825

> <b_lp_Chiralities_Consistent>
1

> <s_lp_Variant>
AV-unprocessed.smi:2886-2

> <Gold.Version>
5.8.1

> <Gold.Id.Protein>
6NUR|6NUR_protein|mol2

> <Gold.PLP.Fitness>
33.5023

> <Gold.PLP.PLP>
-27.6341

> <Gold.PLP.part.hbond>
-2.0000

> <Gold.PLP.part.metal>
0.0000

> <Gold.PLP.part.buried>
-5.1052

> <Gold.PLP.part.nonpolar>
-20.2086

> <Gold.PLP.part.repulsive>
0.3032

> <Gold.PLP.ligand.clash>
0.0000

> <Gold.PLP.ligand.torsion>
0.0573

> <Gold.PLP.Chemscore.Hbond>
1.9913

> <Gold.PLP.Chemscore.CHOScore>
0.0000

> <Gold.PLP.Chemscore.Metal>
0.0000

> <Gold.Chemscore.Hbonds>
donor molecule, donor type, donor heavy atom, donor atom, acceptor molecule, acceptor atom, score
      P1  H  7989  7998       L1     4  1.00
      P1  H 10752 10764       L1     1  1.00

> <Gold.PLP.Chemscore.Internal.Correction>
0.0090

> <Gold.Rescore>
     Score         DG    S(hbond)    S(metal)    S(lipo)     H(rot)  DE(clash)    DE(int)     intcor
     18.72     -18.86       1.72        0.00      87.23       1.00       0.09       0.05       ----

> <Gold.Chemscore.Fitness>
18.7220

> <Gold.Chemscore.DG>
-18.8590

> <Gold.Chemscore.ZeroCoef>
-5.4800

> <Gold.Chemscore.Hbond>
1.7165

> <Gold.Chemscore.Metal>
0.0000

> <Gold.Chemscore.Lipo>
87.2293

> <Gold.Chemscore.Internal_Hbond>
0.0000

> <Gold.Chemscore.DEClash>
0.0901

> <Gold.Chemscore.DEInternal>
0.0470

> <Gold.Chemscore.Rot>
1.0000

> <Gold.Chemscore.Internal.Correction>
   9.000000E+99

> <Gold.Chemscore.Hbonds>
donor molecule, donor type, donor heavy atom, donor atom, acceptor molecule, acceptor atom, score
      P1  H  7989  7998       L1     4  0.44
      P1  H 10752 10764       L1     1  0.93

> <Gold.Chemscore.Hbond.Weighted>
-5.7332

> <Gold.Chemscore.Metal.Weighted>
-0.0000

> <Gold.Chemscore.Lipo.Weighted>
-10.2058

> <Gold.Chemscore.Internal_Hbond.Weighted>
0.0000

> <Gold.Chemscore.DEClash.Weighted>
0.0901

> <Gold.Chemscore.DEInternal.Weighted>
0.0470

> <Gold.Chemscore.Rot.Weighted>
2.5600

> <Gold.Chemscore.Internal.Correction.Weighted>
   9.000000E+99

> <Gold.Protein.RotatedTorsions>
[ 6907 6896 6895 6894 ] final   14.08 input  -60.11 | X-H torsion
[ 7974 7965 7964 7962 ] final  -30.40 input  175.53 | X-H torsion
[ 8008 7997 7996 7995 ] final -119.57 input   59.86 | X-H torsion
[ 10167 10162 10161 10158 ] final   70.71 input  -65.29 | X-H torsion
[ 10718 10713 10712 10709 ] final  -66.70 input   66.30 | X-H torsion
[ 10763 10752 10751 10750 ] final  -28.43 input  -60.55 | X-H torsion
[ 11005 11000 10999 10996 ] final -103.24 input  -57.11 | X-H torsion

> <Gold.Protein.ActiveResidues>
 VAL166  LYS551  ARG553  GLY616  TRP617  ASP618  TYR619  PRO620  LYS621  CYS622 
 ASP623  PHE694  ASN695  SER759  ASP760  ASP761  ALA762  ILE779  LEU786  VAL792 
 PHE793  MET794  SER795  GLU796  ALA797  LYS798  CYS799  TRP800  GLU811  SER814 

> <Gold.Protein.RotatedAtoms>
  151.7966  135.0721  160.0394 H   0  0  0  0  0  0  0  0  0  0  0  0  # atno 6907 bound_to 6896
  152.3119  133.5757  159.5694 H   0  0  0  0  0  0  0  0  0  0  0  0  # atno 6908 bound_to 6896
  150.7324  134.0056  159.3694 H   0  0  0  0  0  0  0  0  0  0  0  0  # atno 6909 bound_to 6896
  146.1146  140.5535  142.8762 H   0  0  0  0  0  0  0  0  0  0  0  0  # atno 7974 bound_to 7965
  155.1179  140.0398  157.2742 H   0  0  0  0  0  0  0  0  0  0  0  0  # atno 8008 bound_to 7997
  154.6636  140.2596  155.7057 H   0  0  0  0  0  0  0  0  0  0  0  0  # atno 8009 bound_to 7997
  156.2629  140.2812  156.1117 H   0  0  0  0  0  0  0  0  0  0  0  0  # atno 8010 bound_to 7997
  140.0539  144.5289  150.7343 H   0  0  0  0  0  0  0  0  0  0  0  0  # atno 10167 bound_to 10162
  156.0597  130.4266  150.1748 H   0  0  0  0  0  0  0  0  0  0  0  0  # atno 10718 bound_to 10713
  153.7483  135.6928  153.4951 H   0  0  0  0  0  0  0  0  0  0  0  0  # atno 10763 bound_to 10752
  153.2021  135.4433  155.0278 H   0  0  0  0  0  0  0  0  0  0  0  0  # atno 10764 bound_to 10752
  154.8196  135.3415  154.7005 H   0  0  0  0  0  0  0  0  0  0  0  0  # atno 10765 bound_to 10752
  141.1154  133.8624  157.1462 H   0  0  0  0  0  0  0  0  0  0  0  0  # atno 11005 bound_to 11000
  144.7541  140.5265  143.6781 LP  0  0  0  0  0  0  0  0  0  0  0  0  # atno 17320 bound_to 7965
  145.5594  139.1479  143.3350 LP  0  0  0  0  0  0  0  0  0  0  0  0  # atno 17321 bound_to 7965
  140.7204  143.2583  151.4298 LP  0  0  0  0  0  0  0  0  0  0  0  0  # atno 17342 bound_to 10162
  139.5935  144.1447  152.2117 LP  0  0  0  0  0  0  0  0  0  0  0  0  # atno 17343 bound_to 10162
  156.9818  130.9866  151.3435 LP  0  0  0  0  0  0  0  0  0  0  0  0  # atno 17370 bound_to 10713
  157.5597  130.8237  149.8249 LP  0  0  0  0  0  0  0  0  0  0  0  0  # atno 17371 bound_to 10713
  140.0073  135.0003  157.0320 LP  0  0  0  0  0  0  0  0  0  0  0  0  # atno 17394 bound_to 11000
  140.4660  134.1435  155.7197 LP  0  0  0  0  0  0  0  0  0  0  0  0  # atno 17395 bound_to 11000

$$$$
