AV-unprocessed.smi:2505|AV-procd|sdf|9860|dock1
  -GOLD-   2272013493D 1   1.00000     0.00000
 Structure written by MMmdl.
 48 52  0  0  0  0  0  0  0  0  1 V2000
  146.9373  136.6284  155.6774 O   0  0  0  0  0  0  0  0  0  0  0  0
  147.5930  136.5135  154.6448 C   0  0  0  0  0  0  0  0  0  0  0  0
  148.6520  137.2770  154.3168 N   0  0  0  0  0  0  0  0  0  0  0  0
  149.1306  138.4585  154.9430 C   0  0  0  0  0  0  0  0  0  0  0  0
  148.7872  138.8952  156.2465 C   0  0  0  0  0  0  0  0  0  0  0  0
  149.2751  140.0448  156.7603 N   0  0  0  0  0  0  0  0  0  0  0  0
  150.0866  140.7629  155.9794 C   0  0  0  0  0  0  0  0  0  0  0  0
  150.6590  142.0122  156.5739 C   0  0  0  0  0  0  0  0  0  0  0  0
  151.5668  141.9502  157.7855 C   0  0  0  0  0  0  0  0  0  0  0  0
  150.1822  142.5203  157.9191 C   0  0  0  0  0  0  0  0  0  0  0  0
  150.4812  140.4514  154.7418 N   0  0  0  0  0  0  0  0  0  0  0  0
  149.9983  139.3035  154.2201 C   0  0  0  0  0  0  0  0  0  0  0  0
  147.3062  135.5611  153.7414 N   0  0  0  0  0  0  0  0  0  0  0  0
  146.2303  134.5692  153.7870 C   0  0  1  0  0  0  0  0  0  0  0  0
  145.5892  134.3731  152.4129 C   0  0  2  0  0  0  0  0  0  0  0  0
  144.2614  134.6976  151.8281 C   0  0  0  0  0  0  0  0  0  0  0  0
  143.9928  133.3336  151.1399 C   0  0  0  0  0  0  0  0  0  0  0  0
  145.0088  132.4298  151.6393 O   0  0  0  0  0  0  0  0  0  0  0  0
  145.3486  132.9622  152.9038 C   0  0  1  0  0  0  0  0  0  0  0  0
  146.7036  133.0694  153.6330 C   0  0  0  0  0  0  0  0  0  0  0  0
  147.9869  132.7416  152.8479 C   0  0  0  0  0  0  0  0  0  0  0  0
  149.0457  132.3451  153.8718 C   0  0  0  0  0  0  0  0  0  0  0  0
  148.2583  131.6443  154.9718 C   0  0  0  0  0  0  0  0  0  0  0  0
  146.8477  132.2425  154.9186 C   0  0  0  0  0  0  0  0  0  0  0  0
  149.1478  137.0020  153.4813 H   0  0  0  0  0  0  0  0  0  0  0  0
  148.1148  138.3526  156.8913 H   0  0  0  0  0  0  0  0  0  0  0  0
  150.8865  142.7476  155.8047 H   0  0  0  0  0  0  0  0  0  0  0  0
  151.7517  140.9757  158.2334 H   0  0  0  0  0  0  0  0  0  0  0  0
  152.4035  142.6447  157.8198 H   0  0  0  0  0  0  0  0  0  0  0  0
  150.0913  143.5973  158.0436 H   0  0  0  0  0  0  0  0  0  0  0  0
  149.4457  141.9253  158.4558 H   0  0  0  0  0  0  0  0  0  0  0  0
  150.3095  139.0580  153.2151 H   0  0  0  0  0  0  0  0  0  0  0  0
  147.9176  135.5053  152.9398 H   0  0  0  0  0  0  0  0  0  0  0  0
  145.4984  134.7362  154.5827 H   0  0  0  0  0  0  0  0  0  0  0  0
  146.3509  134.4170  151.6284 H   0  0  0  0  0  0  0  0  0  0  0  0
  143.5205  134.9210  152.5970 H   0  0  0  0  0  0  0  0  0  0  0  0
  144.3009  135.5246  151.1186 H   0  0  0  0  0  0  0  0  0  0  0  0
  142.9972  132.9629  151.3863 H   0  0  0  0  0  0  0  0  0  0  0  0
  144.0699  133.4033  150.0546 H   0  0  0  0  0  0  0  0  0  0  0  0
  144.5084  132.8711  153.6021 H   0  0  0  0  0  0  0  0  0  0  0  0
  147.8030  131.9013  152.1771 H   0  0  0  0  0  0  0  0  0  0  0  0
  148.3439  133.5634  152.2274 H   0  0  0  0  0  0  0  0  0  0  0  0
  149.8281  131.7157  153.4471 H   0  0  0  0  0  0  0  0  0  0  0  0
  149.5222  133.2392  154.2746 H   0  0  0  0  0  0  0  0  0  0  0  0
  148.2087  130.5754  154.7611 H   0  0  0  0  0  0  0  0  0  0  0  0
  148.7243  131.7654  155.9503 H   0  0  0  0  0  0  0  0  0  0  0  0
  146.6708  132.8588  155.7995 H   0  0  0  0  0  0  0  0  0  0  0  0
  146.1073  131.4426  154.9589 H   0  0  0  0  0  0  0  0  0  0  0  0
  1  2  2  0  0  0  0
  2  3  1  0  0  0  0
  2 13  1  0  0  0  0
  3  4  1  0  0  0  0
  3 25  1  0  0  0  0
  4 12  1  0  0  0  0
  4  5  2  0  0  0  0
  5  6  1  0  0  0  0
  5 26  1  0  0  0  0
  6  7  2  0  0  0  0
  7  8  1  0  0  0  0
  7 11  1  0  0  0  0
  8 10  1  0  0  0  0
  8  9  1  0  0  0  0
  8 27  1  0  0  0  0
  9 10  1  0  0  0  0
  9 28  1  0  0  0  0
  9 29  1  0  0  0  0
 10 30  1  0  0  0  0
 10 31  1  0  0  0  0
 11 12  2  0  0  0  0
 12 32  1  0  0  0  0
 13 14  1  0  0  0  0
 13 33  1  0  0  0  0
 14 20  1  0  0  0  0
 14 15  1  0  0  0  0
 14 34  1  0  0  0  0
 15 19  1  0  0  0  0
 15 16  1  0  0  0  0
 15 35  1  0  0  0  0
 16 17  1  0  0  0  0
 16 36  1  0  0  0  0
 16 37  1  0  0  0  0
 17 18  1  0  0  0  0
 17 38  1  0  0  0  0
 17 39  1  0  0  0  0
 18 19  1  0  0  0  0
 19 20  1  0  0  0  0
 19 40  1  0  0  0  0
 20 24  1  0  0  0  0
 20 21  1  0  0  0  0
 21 22  1  0  0  0  0
 21 41  1  0  0  0  0
 21 42  1  0  0  0  0
 22 23  1  0  0  0  0
 22 43  1  0  0  0  0
 22 44  1  0  0  0  0
 23 24  1  0  0  0  0
 23 45  1  0  0  0  0
 23 46  1  0  0  0  0
 24 47  1  0  0  0  0
 24 48  1  0  0  0  0
M  END
> <s_m_source_file>
AV-unprocessed.smi

> <i_m_source_file_index>
2505

> <i_lp_mmshare_version>
43012

> <i_f3d_flags>
0

> <s_epik_input>
W0NIMl0xW0NIMl1bQ0hdMWMobltjSF0yKW5bY0hdYzJbTkhdQyg9TylbTkhdW0NAQEhdM1tDQEBIXShbQ0gyXVtDSDJdTzQpW0NASF00QzM1W0NIMl1bQ0gyXVtDSDJdW0NIMl01

> <s_epik_cmdline>
J2VwaWtfcHl0aG9uJywgJy1waCcsICc3LjAnLCAnLXRuJywgJzgnLCAnLW1hJywgJzIwMCcsICctbWV0YWxfYmluZGluZycsICctaW1hZScsICc8aW5maWxlLm1hZT4nLCAnLW9tYWUnLCAnPG91dGZpbGUubWFlPic=

> <r_lp_tautomer_probability>
1

> <r_epik_Ionization_Penalty>
2.6075e-05

> <r_epik_Ionization_Penalty_Charging>
0

> <r_epik_Ionization_Penalty_Neutral>
2.6075e-05

> <r_epik_State_Penalty>
-0

> <r_epik_Charging_Adjusted_Penalty>
0

> <i_epik_Tot_Q>
0

> <i_epik_Tot_abs_Q>
0

> <r_epik_Metal_State_Penalty>
-0

> <b_epik_Metal_Only>
0

> <s_lp_Force_Field>
OPLS_2005

> <r_lp_Energy>
84.9225

> <b_lp_Chiralities_Consistent>
1

> <s_lp_Variant>
AV-unprocessed.smi:2505-8

> <Gold.Version>
5.8.1

> <Gold.Id.Protein>
6NUR|6NUR_protein|mol2

> <Gold.PLP.Fitness>
42.3030

> <Gold.PLP.PLP>
-30.7376

> <Gold.PLP.part.hbond>
-3.0000

> <Gold.PLP.part.metal>
0.0000

> <Gold.PLP.part.buried>
-4.0195

> <Gold.PLP.part.nonpolar>
-24.7674

> <Gold.PLP.part.repulsive>
0.2297

> <Gold.PLP.ligand.clash>
0.0000

> <Gold.PLP.ligand.torsion>
0.2859

> <Gold.PLP.Chemscore.Hbond>
2.9120

> <Gold.PLP.Chemscore.CHOScore>
1.0000

> <Gold.PLP.Chemscore.Metal>
0.0000

> <Gold.Chemscore.Hbonds>
donor molecule, donor type, donor heavy atom, donor atom, acceptor molecule, acceptor atom, score
      L1  H     3    25       P1  7948  0.91
      L1  H    13    33       P1  7948  1.00
      P1  H  7989  7998       L1    11  1.00
      L1  C    12    32       P1  7957  0.99

> <Gold.PLP.Chemscore.Internal.Correction>
0.4013

> <Gold.Rescore>
     Score         DG    S(hbond)    S(metal)    S(lipo)     H(rot)  DE(clash)    DE(int)     intcor
     18.26     -19.79       2.55        0.00      75.17       1.17       0.10       1.42       ----

> <Gold.Chemscore.Fitness>
18.2611

> <Gold.Chemscore.DG>
-19.7853

> <Gold.Chemscore.ZeroCoef>
-5.4800

> <Gold.Chemscore.Hbond>
2.5501

> <Gold.Chemscore.Metal>
0.0000

> <Gold.Chemscore.Lipo>
75.1660

> <Gold.Chemscore.Internal_Hbond>
0.0000

> <Gold.Chemscore.DEClash>
0.1011

> <Gold.Chemscore.DEInternal>
1.4230

> <Gold.Chemscore.Rot>
1.1744

> <Gold.Chemscore.Internal.Correction>
   9.000000E+99

> <Gold.Chemscore.Hbonds>
donor molecule, donor type, donor heavy atom, donor atom, acceptor molecule, acceptor atom, score
      L1  H     3    25       P1  7948  0.88
      L1  H    13    33       P1  7948  0.96
      P1  H  7989  7998       L1    11  0.25

> <Gold.Chemscore.Hbond.Weighted>
-8.5173

> <Gold.Chemscore.Metal.Weighted>
-0.0000

> <Gold.Chemscore.Lipo.Weighted>
-8.7944

> <Gold.Chemscore.Internal_Hbond.Weighted>
0.0000

> <Gold.Chemscore.DEClash.Weighted>
0.1011

> <Gold.Chemscore.DEInternal.Weighted>
1.4230

> <Gold.Chemscore.Rot.Weighted>
3.0064

> <Gold.Chemscore.Internal.Correction.Weighted>
   9.000000E+99

> <Gold.Protein.RotatedTorsions>
[ 6907 6896 6895 6894 ] final   27.27 input  -60.11 | X-H torsion
[ 7974 7965 7964 7962 ] final  156.93 input  175.53 | X-H torsion
[ 8008 7997 7996 7995 ] final   83.34 input   59.86 | X-H torsion
[ 10167 10162 10161 10158 ] final  -29.89 input  -65.29 | X-H torsion
[ 10718 10713 10712 10709 ] final  139.49 input   66.30 | X-H torsion
[ 10763 10752 10751 10750 ] final  127.07 input  -60.55 | X-H torsion
[ 11005 11000 10999 10996 ] final  114.35 input  -57.11 | X-H torsion

> <Gold.Protein.ActiveResidues>
 VAL166  LYS551  ARG553  GLY616  TRP617  ASP618  TYR619  PRO620  LYS621  CYS622 
 ASP623  PHE694  ASN695  SER759  ASP760  ASP761  ALA762  ILE779  LEU786  VAL792 
 PHE793  MET794  SER795  GLU796  ALA797  LYS798  CYS799  TRP800  GLU811  SER814 

> <Gold.Protein.RotatedAtoms>
  151.9998  134.9934  160.0564 H   0  0  0  0  0  0  0  0  0  0  0  0  # atno 6907 bound_to 6896
  152.1530  133.4529  159.4831 H   0  0  0  0  0  0  0  0  0  0  0  0  # atno 6908 bound_to 6896
  150.6878  134.2083  159.4392 H   0  0  0  0  0  0  0  0  0  0  0  0  # atno 6909 bound_to 6896
  144.7933  139.7271  143.6212 H   0  0  0  0  0  0  0  0  0  0  0  0  # atno 7974 bound_to 7965
  155.9226  140.3420  155.6184 H   0  0  0  0  0  0  0  0  0  0  0  0  # atno 8008 bound_to 7997
  155.7255  140.0789  157.2330 H   0  0  0  0  0  0  0  0  0  0  0  0  # atno 8009 bound_to 7997
  154.4072  140.1597  156.2438 H   0  0  0  0  0  0  0  0  0  0  0  0  # atno 8010 bound_to 7997
  140.7255  143.3892  151.1459 H   0  0  0  0  0  0  0  0  0  0  0  0  # atno 10167 bound_to 10162
  157.4137  131.1031  151.0427 H   0  0  0  0  0  0  0  0  0  0  0  0  # atno 10718 bound_to 10713
  153.7036  135.3279  155.3230 H   0  0  0  0  0  0  0  0  0  0  0  0  # atno 10763 bound_to 10752
  154.8406  135.4460  154.1386 H   0  0  0  0  0  0  0  0  0  0  0  0  # atno 10764 bound_to 10752
  153.2460  135.6976  153.7809 H   0  0  0  0  0  0  0  0  0  0  0  0  # atno 10765 bound_to 10752
  139.8978  134.9566  156.6879 H   0  0  0  0  0  0  0  0  0  0  0  0  # atno 11005 bound_to 11000
  146.2193  139.5606  142.9629 LP  0  0  0  0  0  0  0  0  0  0  0  0  # atno 17320 bound_to 7965
  145.5738  141.0391  143.2160 LP  0  0  0  0  0  0  0  0  0  0  0  0  # atno 17321 bound_to 7965
  139.7495  143.8801  152.3073 LP  0  0  0  0  0  0  0  0  0  0  0  0  # atno 17342 bound_to 10162
  139.8649  144.7098  150.9055 LP  0  0  0  0  0  0  0  0  0  0  0  0  # atno 17343 bound_to 10162
  157.1382  130.6131  149.5548 LP  0  0  0  0  0  0  0  0  0  0  0  0  # atno 17370 bound_to 10713
  155.9858  130.4890  150.7052 LP  0  0  0  0  0  0  0  0  0  0  0  0  # atno 17371 bound_to 10713
  140.7248  133.9110  155.8171 LP  0  0  0  0  0  0  0  0  0  0  0  0  # atno 17394 bound_to 11000
  141.0199  134.0903  157.4131 LP  0  0  0  0  0  0  0  0  0  0  0  0  # atno 17395 bound_to 11000

$$$$
