AV-unprocessed.smi:2087|AV-procd|sdf|8520|dock2
  -GOLD-   2272011233D 1   1.00000     0.00000
 Structure written by MMmdl.
 51 52  0  0  0  0  0  0  0  0  2 V2000
  145.6557  134.7676  150.7596 C   0  0  0  0  0  0  0  0  0  0  0  0
  146.1441  134.3688  152.1600 C   0  0  0  0  0  0  0  0  0  0  0  0
  145.5796  132.9926  152.5523 C   0  0  0  0  0  0  0  0  0  0  0  0
  145.7789  135.4583  153.1918 C   0  0  0  0  0  0  0  0  0  0  0  0
  146.5017  136.7370  152.9706 N   0  3  1  0  0  0  0  0  0  0  0  0
  145.9518  137.5513  151.8584 C   0  0  0  0  0  0  0  0  0  0  0  0
  146.7801  138.8333  151.6721 C   0  0  0  0  0  0  0  0  0  0  0  0
  146.8143  139.5547  152.8955 O   0  0  0  0  0  0  0  0  0  0  0  0
  147.4402  138.8193  153.9426 C   0  0  1  0  0  0  0  0  0  0  0  0
  147.5504  139.7168  155.1888 C   0  0  0  0  0  0  0  0  0  0  0  0
  148.9123  140.2128  155.3473 N   0  0  0  0  0  0  0  0  0  0  0  0
  149.2911  141.1502  156.2285 C   0  0  0  0  0  0  0  0  0  0  0  0
  148.5455  141.6072  157.0953 O   0  0  0  0  0  0  0  0  0  0  0  0
  150.7302  141.6627  156.0963 C   0  0  0  0  0  0  0  0  0  0  0  0
  151.3224  141.9868  157.4010 N   0  0  0  0  0  0  0  0  0  0  0  0
  150.9886  143.1710  158.0324 C   0  0  0  0  0  0  0  0  0  0  0  0
  151.4935  143.5458  159.2282 C   0  0  0  0  0  0  0  0  0  0  0  0
  152.4493  142.7025  159.9359 C   0  0  0  0  0  0  0  0  0  0  0  0
  152.9206  142.9987  161.0343 O   0  0  0  0  0  0  0  0  0  0  0  0
  152.7855  141.5042  159.2617 N   0  0  0  0  0  0  0  0  0  0  0  0
  153.7232  140.5945  159.8871 C   0  0  0  0  0  0  0  0  0  0  0  0
  152.2376  141.1073  158.0219 C   0  0  0  0  0  0  0  0  0  0  0  0
  152.5384  140.0342  157.4912 O   0  0  0  0  0  0  0  0  0  0  0  0
  146.6066  137.5511  154.2052 C   0  0  0  0  0  0  0  0  0  0  0  0
  144.5696  134.8610  150.7288 H   0  0  0  0  0  0  0  0  0  0  0  0
  145.9467  134.0253  150.0157 H   0  0  0  0  0  0  0  0  0  0  0  0
  146.0808  135.7232  150.4512 H   0  0  0  0  0  0  0  0  0  0  0  0
  147.2285  134.2817  152.0997 H   0  0  0  0  0  0  0  0  0  0  0  0
  144.4925  133.0176  152.6322 H   0  0  0  0  0  0  0  0  0  0  0  0
  145.9766  132.6540  153.5096 H   0  0  0  0  0  0  0  0  0  0  0  0
  145.8398  132.2374  151.8100 H   0  0  0  0  0  0  0  0  0  0  0  0
  144.7045  135.6484  153.1875 H   0  0  0  0  0  0  0  0  0  0  0  0
  146.0152  135.0778  154.1869 H   0  0  0  0  0  0  0  0  0  0  0  0
  145.9562  136.9852  150.9278 H   0  0  0  0  0  0  0  0  0  0  0  0
  144.9130  137.8089  152.0718 H   0  0  0  0  0  0  0  0  0  0  0  0
  147.7941  138.6017  151.3422 H   0  0  0  0  0  0  0  0  0  0  0  0
  146.3322  139.4636  150.9036 H   0  0  0  0  0  0  0  0  0  0  0  0
  148.4462  138.5307  153.6310 H   0  0  0  0  0  0  0  0  0  0  0  0
  146.8335  140.5386  155.1432 H   0  0  0  0  0  0  0  0  0  0  0  0
  147.3043  139.1409  156.0813 H   0  0  0  0  0  0  0  0  0  0  0  0
  149.5981  139.8837  154.6832 H   0  0  0  0  0  0  0  0  0  0  0  0
  151.3193  140.8988  155.5873 H   0  0  0  0  0  0  0  0  0  0  0  0
  150.7632  142.5436  155.4523 H   0  0  0  0  0  0  0  0  0  0  0  0
  150.2870  143.8347  157.5479 H   0  0  0  0  0  0  0  0  0  0  0  0
  151.1865  144.4837  159.6673 H   0  0  0  0  0  0  0  0  0  0  0  0
  154.4020  140.2171  159.1199 H   0  0  0  0  0  0  0  0  0  0  0  0
  153.1355  139.7905  160.3327 H   0  0  0  0  0  0  0  0  0  0  0  0
  154.3163  141.1122  160.6411 H   0  0  0  0  0  0  0  0  0  0  0  0
  145.6077  137.8179  154.5550 H   0  0  0  0  0  0  0  0  0  0  0  0
  147.0767  136.9620  154.9936 H   0  0  0  0  0  0  0  0  0  0  0  0
  147.4476  136.4898  152.7163 H   0  0  0  0  0  0  0  0  0  0  0  0
  1  2  1  0  0  0  0
  1 25  1  0  0  0  0
  1 26  1  0  0  0  0
  1 27  1  0  0  0  0
  2  3  1  0  0  0  0
  2  4  1  0  0  0  0
  2 28  1  0  0  0  0
  3 29  1  0  0  0  0
  3 30  1  0  0  0  0
  3 31  1  0  0  0  0
  4  5  1  0  0  0  0
  4 32  1  0  0  0  0
  4 33  1  0  0  0  0
  5 24  1  0  0  0  0
  5  6  1  0  0  0  0
  5 51  1  0  0  0  0
  6  7  1  0  0  0  0
  6 34  1  0  0  0  0
  6 35  1  0  0  0  0
  7  8  1  0  0  0  0
  7 36  1  0  0  0  0
  7 37  1  0  0  0  0
  8  9  1  0  0  0  0
  9 10  1  0  0  0  0
  9 24  1  0  0  0  0
  9 38  1  0  0  0  0
 10 11  1  0  0  0  0
 10 39  1  0  0  0  0
 10 40  1  0  0  0  0
 11 12  1  0  0  0  0
 11 41  1  0  0  0  0
 12 13  2  0  0  0  0
 12 14  1  0  0  0  0
 14 15  1  0  0  0  0
 14 42  1  0  0  0  0
 14 43  1  0  0  0  0
 15 22  1  0  0  0  0
 15 16  1  0  0  0  0
 16 17  2  0  0  0  0
 16 44  1  0  0  0  0
 17 18  1  0  0  0  0
 17 45  1  0  0  0  0
 18 19  2  0  0  0  0
 18 20  1  0  0  0  0
 20 21  1  0  0  0  0
 20 22  1  0  0  0  0
 21 46  1  0  0  0  0
 21 47  1  0  0  0  0
 21 48  1  0  0  0  0
 22 23  2  0  0  0  0
 24 49  1  0  0  0  0
 24 50  1  0  0  0  0
M  CHG  1   5   1
M  END
> <s_m_source_file>
AV-unprocessed.smi

> <i_m_source_file_index>
2087

> <i_lp_mmshare_version>
43012

> <i_f3d_flags>
0

> <s_epik_input>
W0NIM11bQ0hdKFtDSDNdKVtDSDJdTjFbQ0gyXVtDSDJdT1tDQEhdKFtDSDJdMSlbQ0gyXVtOSF1DKD1PKVtDSDJdbjJbY0hdW2NIXWMoPU8pbihbQ0gzXSljMj1P

> <s_epik_cmdline>
J2VwaWtfcHl0aG9uJywgJy1waCcsICc3LjAnLCAnLXRuJywgJzgnLCAnLW1hJywgJzIwMCcsICctbWV0YWxfYmluZGluZycsICctaW1hZScsICc8aW5maWxlLm1hZT4nLCAnLW9tYWUnLCAnPG91dGZpbGUubWFlPic=

> <r_lp_tautomer_probability>
1

> <r_epik_Ionization_Penalty>
0.097593

> <r_epik_Ionization_Penalty_Charging>
0.097593

> <r_epik_Ionization_Penalty_Neutral>
6.27044e-08

> <r_epik_State_Penalty>
0.0877056

> <r_epik_Charging_Adjusted_Penalty>
0.185299

> <i_epik_Tot_Q>
1

> <i_epik_Tot_abs_Q>
1

> <r_epik_Metal_State_Penalty>
0.0877109

> <b_epik_Metal_Only>
0

> <s_lp_Force_Field>
OPLS_2005

> <r_lp_Energy>
25.8425

> <b_lp_Chiralities_Consistent>
1

> <s_lp_Variant>
AV-unprocessed.smi:2087-1

> <Gold.Version>
5.8.1

> <Gold.Id.Protein>
6NUR|6NUR_protein|mol2

> <Gold.PLP.Fitness>
47.8426

> <Gold.PLP.PLP>
-38.5451

> <Gold.PLP.part.hbond>
-2.0000

> <Gold.PLP.part.metal>
0.0000

> <Gold.PLP.part.buried>
-3.5094

> <Gold.PLP.part.nonpolar>
-33.1521

> <Gold.PLP.part.repulsive>
0.5066

> <Gold.PLP.ligand.clash>
0.0000

> <Gold.PLP.ligand.torsion>
1.4835

> <Gold.PLP.Chemscore.Hbond>
2.9913

> <Gold.PLP.Chemscore.CHOScore>
1.0000

> <Gold.PLP.Chemscore.Metal>
0.0000

> <Gold.Chemscore.Hbonds>
donor molecule, donor type, donor heavy atom, donor atom, acceptor molecule, acceptor atom, score
      L1  H     5    51       P1  7948  2.00
      P1  H  7997  8008       L1    23  1.00
      L1  C    16    44       P1  8028  1.00

> <Gold.PLP.Chemscore.Internal.Correction>
0.2906

> <Gold.Rescore>
     Score         DG    S(hbond)    S(metal)    S(lipo)     H(rot)  DE(clash)    DE(int)     intcor
     12.69     -14.84       1.65        0.00      81.44       2.22       0.44       1.72       ----

> <Gold.Chemscore.Fitness>
12.6863

> <Gold.Chemscore.DG>
-14.8402

> <Gold.Chemscore.ZeroCoef>
-5.4800

> <Gold.Chemscore.Hbond>
1.6548

> <Gold.Chemscore.Metal>
0.0000

> <Gold.Chemscore.Lipo>
81.4420

> <Gold.Chemscore.Internal_Hbond>
0.0000

> <Gold.Chemscore.DEClash>
0.4352

> <Gold.Chemscore.DEInternal>
1.7187

> <Gold.Chemscore.Rot>
2.2249

> <Gold.Chemscore.Internal.Correction>
   9.000000E+99

> <Gold.Chemscore.Hbonds>
donor molecule, donor type, donor heavy atom, donor atom, acceptor molecule, acceptor atom, score
      L1  H     5    51       P1  7948  1.00
      P1  H  7997  8008       L1    23  0.76

> <Gold.Chemscore.Hbond.Weighted>
-5.5272

> <Gold.Chemscore.Metal.Weighted>
-0.0000

> <Gold.Chemscore.Lipo.Weighted>
-9.5287

> <Gold.Chemscore.Internal_Hbond.Weighted>
0.0000

> <Gold.Chemscore.DEClash.Weighted>
0.4352

> <Gold.Chemscore.DEInternal.Weighted>
1.7187

> <Gold.Chemscore.Rot.Weighted>
5.6957

> <Gold.Chemscore.Internal.Correction.Weighted>
   9.000000E+99

> <Gold.Protein.RotatedTorsions>
[ 6907 6896 6895 6894 ] final  -52.78 input  -60.11 | X-H torsion
[ 7974 7965 7964 7962 ] final  -39.51 input  175.53 | X-H torsion
[ 8008 7997 7996 7995 ] final  -60.98 input   59.86 | X-H torsion
[ 10167 10162 10161 10158 ] final -147.01 input  -65.29 | X-H torsion
[ 10718 10713 10712 10709 ] final -168.75 input   66.30 | X-H torsion
[ 10763 10752 10751 10750 ] final -101.91 input  -60.55 | X-H torsion
[ 11005 11000 10999 10996 ] final   99.58 input  -57.11 | X-H torsion

> <Gold.Protein.ActiveResidues>
 VAL166  LYS551  ARG553  GLY616  TRP617  ASP618  TYR619  PRO620  LYS621  CYS622 
 ASP623  PHE694  ASN695  SER759  ASP760  ASP761  ALA762  ILE779  LEU786  VAL792 
 PHE793  MET794  SER795  GLU796  ALA797  LYS798  CYS799  TRP800  GLU811  SER814 

> <Gold.Protein.RotatedAtoms>
  150.8487  134.7804  159.6990 H   0  0  0  0  0  0  0  0  0  0  0  0  # atno 6907 bound_to 6896
  152.4557  134.5293  159.9816 H   0  0  0  0  0  0  0  0  0  0  0  0  # atno 6908 bound_to 6896
  151.5418  133.3393  159.2972 H   0  0  0  0  0  0  0  0  0  0  0  0  # atno 6909 bound_to 6896
  146.0390  140.6633  142.9096 H   0  0  0  0  0  0  0  0  0  0  0  0  # atno 7974 bound_to 7965
  154.4425  140.1027  156.6359 H   0  0  0  0  0  0  0  0  0  0  0  0  # atno 8008 bound_to 7997
  155.5554  140.3486  155.4460 H   0  0  0  0  0  0  0  0  0  0  0  0  # atno 8009 bound_to 7997
  156.0498  140.1301  157.0052 H   0  0  0  0  0  0  0  0  0  0  0  0  # atno 8010 bound_to 7997
  139.7661  143.8306  152.2616 H   0  0  0  0  0  0  0  0  0  0  0  0  # atno 10167 bound_to 10162
  156.7014  130.9198  151.3080 H   0  0  0  0  0  0  0  0  0  0  0  0  # atno 10718 bound_to 10713
  154.7694  135.4880  153.9619 H   0  0  0  0  0  0  0  0  0  0  0  0  # atno 10763 bound_to 10752
  153.1349  135.6760  153.9127 H   0  0  0  0  0  0  0  0  0  0  0  0  # atno 10764 bound_to 10752
  153.8819  135.3131  155.3424 H   0  0  0  0  0  0  0  0  0  0  0  0  # atno 10765 bound_to 10752
  139.8771  134.9102  156.4627 H   0  0  0  0  0  0  0  0  0  0  0  0  # atno 11005 bound_to 11000
  144.7065  140.3873  143.7114 LP  0  0  0  0  0  0  0  0  0  0  0  0  # atno 17320 bound_to 7965
  145.6916  139.1640  143.2644 LP  0  0  0  0  0  0  0  0  0  0  0  0  # atno 17321 bound_to 7965
  139.8327  144.7246  150.9431 LP  0  0  0  0  0  0  0  0  0  0  0  0  # atno 17342 bound_to 10162
  140.7811  143.4055  151.1077 LP  0  0  0  0  0  0  0  0  0  0  0  0  # atno 17343 bound_to 10162
  157.6971  130.9294  150.0677 LP  0  0  0  0  0  0  0  0  0  0  0  0  # atno 17370 bound_to 10713
  156.1726  130.3647  149.9144 LP  0  0  0  0  0  0  0  0  0  0  0  0  # atno 17371 bound_to 10713
  140.8852  133.7888  155.9511 LP  0  0  0  0  0  0  0  0  0  0  0  0  # atno 17394 bound_to 11000
  140.8812  134.2609  157.5143 LP  0  0  0  0  0  0  0  0  0  0  0  0  # atno 17395 bound_to 11000

$$$$
