AV-unprocessed.smi:2822|AV-procd|sdf|10868|dock7
  -GOLD-   2272015313D 1   1.00000     0.00000
 Structure written by MMmdl.
 40 42  0  0  0  0  0  0  0  0  2 V2000
  148.0841  133.1835  152.3524 Cl  0  0  0  0  0  0  0  0  0  0  0  0
  146.6451  133.5066  151.4491 C   0  0  0  0  0  0  0  0  0  0  0  0
  146.0761  132.4911  150.6536 C   0  0  0  0  0  0  0  0  0  0  0  0
  144.9574  132.6614  149.9185 N   0  0  0  0  0  0  0  0  0  0  0  0
  144.3603  133.8705  149.9544 C   0  0  0  0  0  0  0  0  0  0  0  0
  144.8447  134.9535  150.7152 C   0  0  0  0  0  0  0  0  0  0  0  0
  146.0179  134.7733  151.4854 C   0  0  0  0  0  0  0  0  0  0  0  0
  146.5691  135.7945  152.2742 N   0  0  0  0  0  0  0  0  0  0  0  0
  145.9142  137.0881  152.3929 C   0  0  0  0  0  0  0  0  0  0  0  0
  146.9327  138.2144  152.6178 C   0  0  2  0  0  0  0  0  0  0  0  0
  148.0392  137.7960  153.6034 C   0  0  0  0  0  0  0  0  0  0  0  0
  148.9676  138.9231  153.8534 N   0  3  2  0  0  0  0  0  0  0  0  0
  150.0766  138.5521  154.7686 C   0  0  0  0  0  0  0  0  0  0  0  0
  151.0717  139.7126  154.9309 C   0  0  0  0  0  0  0  0  0  0  0  0
  150.3574  140.9812  155.4147 C   0  0  0  0  0  0  0  0  0  0  0  0
  149.1994  141.3259  154.4684 C   0  0  0  0  0  0  0  0  0  0  0  0
  148.2335  140.1348  154.3095 C   0  0  1  0  0  0  0  0  0  0  0  0
  147.0962  140.4637  153.3229 C   0  0  0  0  0  0  0  0  0  0  0  0
  146.2470  139.3339  153.1686 O   0  0  0  0  0  0  0  0  0  0  0  0
  146.5329  131.5135  150.6058 H   0  0  0  0  0  0  0  0  0  0  0  0
  143.4665  133.9794  149.3579 H   0  0  0  0  0  0  0  0  0  0  0  0
  144.3115  135.8917  150.6945 H   0  0  0  0  0  0  0  0  0  0  0  0
  147.5274  135.7079  152.5827 H   0  0  0  0  0  0  0  0  0  0  0  0
  145.3222  137.2869  151.4986 H   0  0  0  0  0  0  0  0  0  0  0  0
  145.2257  137.0496  153.2378 H   0  0  0  0  0  0  0  0  0  0  0  0
  147.3825  138.4879  151.6609 H   0  0  0  0  0  0  0  0  0  0  0  0
  147.5993  137.4686  154.5470 H   0  0  0  0  0  0  0  0  0  0  0  0
  148.5961  136.9497  153.1990 H   0  0  0  0  0  0  0  0  0  0  0  0
  149.6696  138.2698  155.7408 H   0  0  0  0  0  0  0  0  0  0  0  0
  150.5974  137.6777  154.3763 H   0  0  0  0  0  0  0  0  0  0  0  0
  151.8566  139.4357  155.6354 H   0  0  0  0  0  0  0  0  0  0  0  0
  151.5653  139.9097  153.9784 H   0  0  0  0  0  0  0  0  0  0  0  0
  149.9758  140.8279  156.4251 H   0  0  0  0  0  0  0  0  0  0  0  0
  151.0604  141.8132  155.4689 H   0  0  0  0  0  0  0  0  0  0  0  0
  148.6620  142.1959  154.8478 H   0  0  0  0  0  0  0  0  0  0  0  0
  149.5995  141.6108  153.4942 H   0  0  0  0  0  0  0  0  0  0  0  0
  147.7893  139.9139  155.2818 H   0  0  0  0  0  0  0  0  0  0  0  0
  146.5014  141.2966  153.6988 H   0  0  0  0  0  0  0  0  0  0  0  0
  147.4908  140.7688  152.3521 H   0  0  0  0  0  0  0  0  0  0  0  0
  149.3889  139.1559  152.9654 H   0  0  0  0  0  0  0  0  0  0  0  0
  1  2  1  0  0  0  0
  2  7  1  0  0  0  0
  2  3  2  0  0  0  0
  3  4  1  0  0  0  0
  3 20  1  0  0  0  0
  4  5  2  0  0  0  0
  5  6  1  0  0  0  0
  5 21  1  0  0  0  0
  6  7  2  0  0  0  0
  6 22  1  0  0  0  0
  7  8  1  0  0  0  0
  8  9  1  0  0  0  0
  8 23  1  0  0  0  0
  9 10  1  0  0  0  0
  9 24  1  0  0  0  0
  9 25  1  0  0  0  0
 10 19  1  0  0  0  0
 10 11  1  0  0  0  0
 10 26  1  0  0  0  0
 11 12  1  0  0  0  0
 11 27  1  0  0  0  0
 11 28  1  0  0  0  0
 12 17  1  0  0  0  0
 12 13  1  0  0  0  0
 12 40  1  0  0  0  0
 13 14  1  0  0  0  0
 13 29  1  0  0  0  0
 13 30  1  0  0  0  0
 14 15  1  0  0  0  0
 14 31  1  0  0  0  0
 14 32  1  0  0  0  0
 15 16  1  0  0  0  0
 15 33  1  0  0  0  0
 15 34  1  0  0  0  0
 16 17  1  0  0  0  0
 16 35  1  0  0  0  0
 16 36  1  0  0  0  0
 17 18  1  0  0  0  0
 17 37  1  0  0  0  0
 18 19  1  0  0  0  0
 18 38  1  0  0  0  0
 18 39  1  0  0  0  0
M  CHG  1  12   1
M  END
> <s_m_source_file>
AV-unprocessed.smi

> <i_m_source_file_index>
2822

> <i_lp_mmshare_version>
43012

> <i_f3d_flags>
0

> <s_epik_input>
Q2xjMVtjSF1uW2NIXVtjSF1jMVtOSF1bQ0gyXVtDQEhdKFtDSDJdMilPW0NIMl1bQ0BASF0oTjIzKVtDSDJdW0NIMl1bQ0gyXVtDSDJdMw==

> <s_epik_cmdline>
J2VwaWtfcHl0aG9uJywgJy1waCcsICc3LjAnLCAnLXRuJywgJzgnLCAnLW1hJywgJzIwMCcsICctbWV0YWxfYmluZGluZycsICctaW1hZScsICc8aW5maWxlLm1hZT4nLCAnLW9tYWUnLCAnPG91dGZpbGUubWFlPic=

> <r_lp_tautomer_probability>
0.999999

> <r_epik_Ionization_Penalty>
0.88937

> <r_epik_Ionization_Penalty_Charging>
0.0803403

> <r_epik_Ionization_Penalty_Neutral>
0.80903

> <r_epik_State_Penalty>
0.931884

> <r_epik_Charging_Adjusted_Penalty>
1.01222

> <i_epik_Tot_Q>
1

> <i_epik_Tot_abs_Q>
1

> <r_epik_Metal_State_Penalty>
0.0782275

> <b_epik_Metal_Only>
0

> <s_lp_Force_Field>
OPLS_2005

> <r_lp_Energy>
28.742

> <b_lp_Chiralities_Consistent>
1

> <s_lp_Variant>
AV-unprocessed.smi:2822-9

> <Gold.Version>
5.8.1

> <Gold.Id.Protein>
6NUR|6NUR_protein|mol2

> <Gold.PLP.Fitness>
38.1105

> <Gold.PLP.PLP>
-28.6001

> <Gold.PLP.part.hbond>
-1.7747

> <Gold.PLP.part.metal>
0.0000

> <Gold.PLP.part.buried>
7.7551

> <Gold.PLP.part.nonpolar>
-34.6464

> <Gold.PLP.part.repulsive>
1.9547

> <Gold.PLP.ligand.clash>
0.0000

> <Gold.PLP.ligand.torsion>
0.3628

> <Gold.PLP.Chemscore.Hbond>
1.5440

> <Gold.PLP.Chemscore.CHOScore>
1.8679

> <Gold.PLP.Chemscore.Metal>
0.0000

> <Gold.Chemscore.Hbonds>
donor molecule, donor type, donor heavy atom, donor atom, acceptor molecule, acceptor atom, score
      L1  H     8    23       P1  7948  0.59
      L1  H    12    40       P1  7957  1.00
      L1  C     3    20       P1 10747  0.96
      L1  C     5    21       P1 10186  1.00

> <Gold.PLP.Chemscore.Internal.Correction>
0.0003

> <Gold.Rescore>
     Score         DG    S(hbond)    S(metal)    S(lipo)     H(rot)  DE(clash)    DE(int)     intcor
     15.23     -18.57       1.50        0.00      94.73       1.17       3.04       0.30       ----

> <Gold.Chemscore.Fitness>
15.2264

> <Gold.Chemscore.DG>
-18.5659

> <Gold.Chemscore.ZeroCoef>
-5.4800

> <Gold.Chemscore.Hbond>
1.4958

> <Gold.Chemscore.Metal>
0.0000

> <Gold.Chemscore.Lipo>
94.7290

> <Gold.Chemscore.Internal_Hbond>
0.0000

> <Gold.Chemscore.DEClash>
3.0437

> <Gold.Chemscore.DEInternal>
0.2959

> <Gold.Chemscore.Rot>
1.1693

> <Gold.Chemscore.Internal.Correction>
   9.000000E+99

> <Gold.Chemscore.Hbonds>
donor molecule, donor type, donor heavy atom, donor atom, acceptor molecule, acceptor atom, score
      L1  H     8    23       P1  7948  0.60
      L1  H    12    40       P1  7957  0.94

> <Gold.Chemscore.Hbond.Weighted>
-4.9960

> <Gold.Chemscore.Metal.Weighted>
-0.0000

> <Gold.Chemscore.Lipo.Weighted>
-11.0833

> <Gold.Chemscore.Internal_Hbond.Weighted>
0.0000

> <Gold.Chemscore.DEClash.Weighted>
3.0437

> <Gold.Chemscore.DEInternal.Weighted>
0.2959

> <Gold.Chemscore.Rot.Weighted>
2.9934

> <Gold.Chemscore.Internal.Correction.Weighted>
   9.000000E+99

> <Gold.Protein.RotatedTorsions>
[ 6907 6896 6895 6894 ] final -135.40 input  -60.11 | X-H torsion
[ 7974 7965 7964 7962 ] final  -97.49 input  175.53 | X-H torsion
[ 8008 7997 7996 7995 ] final  -35.28 input   59.86 | X-H torsion
[ 10167 10162 10161 10158 ] final -122.34 input  -65.29 | X-H torsion
[ 10718 10713 10712 10709 ] final  -27.42 input   66.30 | X-H torsion
[ 10763 10752 10751 10750 ] final  155.92 input  -60.55 | X-H torsion
[ 11005 11000 10999 10996 ] final  -43.94 input  -57.11 | X-H torsion

> <Gold.Protein.ActiveResidues>
 VAL166  LYS551  ARG553  GLY616  TRP617  ASP618  TYR619  PRO620  LYS621  CYS622 
 ASP623  PHE694  ASN695  SER759  ASP760  ASP761  ALA762  ILE779  LEU786  VAL792 
 PHE793  MET794  SER795  GLU796  ALA797  LYS798  CYS799  TRP800  GLU811  SER814 

> <Gold.Protein.RotatedAtoms>
  150.9974  133.6090  159.2699 H   0  0  0  0  0  0  0  0  0  0  0  0  # atno 6907 bound_to 6896
  151.3288  135.0836  159.9341 H   0  0  0  0  0  0  0  0  0  0  0  0  # atno 6908 bound_to 6896
  152.5264  133.9607  159.7770 H   0  0  0  0  0  0  0  0  0  0  0  0  # atno 6909 bound_to 6896
  145.3330  140.9445  143.2651 H   0  0  0  0  0  0  0  0  0  0  0  0  # atno 7974 bound_to 7965
  154.4099  140.1661  156.2187 H   0  0  0  0  0  0  0  0  0  0  0  0  # atno 8008 bound_to 7997
  155.9382  140.3410  155.6282 H   0  0  0  0  0  0  0  0  0  0  0  0  # atno 8009 bound_to 7997
  155.7022  140.0746  157.2396 H   0  0  0  0  0  0  0  0  0  0  0  0  # atno 8010 bound_to 7997
  140.0153  143.5399  152.2245 H   0  0  0  0  0  0  0  0  0  0  0  0  # atno 10167 bound_to 10162
  156.4384  130.4459  149.7070 H   0  0  0  0  0  0  0  0  0  0  0  0  # atno 10718 bound_to 10713
  154.1761  135.2802  155.3066 H   0  0  0  0  0  0  0  0  0  0  0  0  # atno 10763 bound_to 10752
  154.6038  135.5521  153.7405 H   0  0  0  0  0  0  0  0  0  0  0  0  # atno 10764 bound_to 10752
  153.0151  135.6398  154.1901 H   0  0  0  0  0  0  0  0  0  0  0  0  # atno 10765 bound_to 10752
  141.0417  133.6777  156.2803 H   0  0  0  0  0  0  0  0  0  0  0  0  # atno 11005 bound_to 11000
  144.8849  139.4853  143.6705 LP  0  0  0  0  0  0  0  0  0  0  0  0  # atno 17320 bound_to 7965
  146.3038  139.7512  142.9071 LP  0  0  0  0  0  0  0  0  0  0  0  0  # atno 17321 bound_to 7965
  139.6176  144.7623  151.2810 LP  0  0  0  0  0  0  0  0  0  0  0  0  # atno 17342 bound_to 10162
  140.7365  143.6707  150.8084 LP  0  0  0  0  0  0  0  0  0  0  0  0  # atno 17343 bound_to 10162
  156.3944  130.7643  151.2647 LP  0  0  0  0  0  0  0  0  0  0  0  0  # atno 17370 bound_to 10713
  157.7507  131.0258  150.3935 LP  0  0  0  0  0  0  0  0  0  0  0  0  # atno 17371 bound_to 10713
  140.6221  134.5350  157.5549 LP  0  0  0  0  0  0  0  0  0  0  0  0  # atno 17394 bound_to 11000
  139.9281  134.8017  156.1010 LP  0  0  0  0  0  0  0  0  0  0  0  0  # atno 17395 bound_to 11000

$$$$
