AV-unprocessed.smi:1049|AV-procd|sdf|4610|dock7
  -GOLD-   22720 3103D 1   1.00000     0.00000
 Structure written by MMmdl.
 41 42  0  0  0  0  0  0  0  0  2 V2000
  145.3304  138.4783  154.7721 C   0  0  0  0  0  0  0  0  0  0  0  0
  146.2123  139.7088  155.0247 C   0  0  2  0  0  0  0  0  0  0  0  0
  145.3644  140.9900  155.1845 C   0  0  0  0  0  0  0  0  0  0  0  0
  146.2383  142.2529  155.3049 C   0  0  0  0  0  0  0  0  0  0  0  0
  147.2810  142.3087  154.1743 C   0  0  0  0  0  0  0  0  0  0  0  0
  148.0828  141.0736  154.2134 N   0  0  0  0  0  0  0  0  0  0  0  0
  149.3449  140.9544  154.6976 C   0  0  0  0  0  0  0  0  0  0  0  0
  150.0941  140.0196  154.4118 O   0  0  0  0  0  0  0  0  0  0  0  0
  149.7267  141.9459  155.5200 N   0  0  0  0  0  0  0  0  0  0  0  0
  151.0111  142.0283  156.2088 C   0  0  0  0  0  0  0  0  0  0  0  0
  150.9026  141.8046  157.7325 C   0  0  0  0  0  0  0  0  0  0  0  0
  151.0553  143.0461  158.5626 C   0  0  0  0  0  0  0  0  0  0  0  0
  150.4954  144.2293  158.2813 N   0  3  0  0  0  0  0  0  0  0  0  0
  150.8396  145.1586  159.2234 C   0  0  0  0  0  0  0  0  0  0  0  0
  151.6449  144.5138  160.1247 C   0  0  0  0  0  0  0  0  0  0  0  0
  151.7623  143.2164  159.6940 N   0  0  0  0  0  0  0  0  0  0  0  0
  152.5207  142.1536  160.3621 C   0  0  0  0  0  0  0  0  0  0  0  0
  153.5553  141.7790  159.6099 F   0  0  0  0  0  0  0  0  0  0  0  0
  152.9385  142.5555  161.5613 F   0  0  0  0  0  0  0  0  0  0  0  0
  147.2583  139.8981  153.9050 C   0  0  0  0  0  0  0  0  0  0  0  0
  144.7676  138.5778  153.8433 H   0  0  0  0  0  0  0  0  0  0  0  0
  144.6143  138.3351  155.5818 H   0  0  0  0  0  0  0  0  0  0  0  0
  145.9325  137.5720  154.7000 H   0  0  0  0  0  0  0  0  0  0  0  0
  146.7491  139.5416  155.9600 H   0  0  0  0  0  0  0  0  0  0  0  0
  144.7091  141.0975  154.3187 H   0  0  0  0  0  0  0  0  0  0  0  0
  144.7115  140.9054  156.0539 H   0  0  0  0  0  0  0  0  0  0  0  0
  145.6102  143.1438  155.2818 H   0  0  0  0  0  0  0  0  0  0  0  0
  146.7455  142.2570  156.2700 H   0  0  0  0  0  0  0  0  0  0  0  0
  146.7776  142.3783  153.2087 H   0  0  0  0  0  0  0  0  0  0  0  0
  147.8686  143.2230  154.2565 H   0  0  0  0  0  0  0  0  0  0  0  0
  149.0688  142.6923  155.6926 H   0  0  0  0  0  0  0  0  0  0  0  0
  151.7201  141.3239  155.7712 H   0  0  0  0  0  0  0  0  0  0  0  0
  151.4113  143.0220  156.0115 H   0  0  0  0  0  0  0  0  0  0  0  0
  149.9262  141.3881  157.9832 H   0  0  0  0  0  0  0  0  0  0  0  0
  151.6441  141.0813  158.0700 H   0  0  0  0  0  0  0  0  0  0  0  0
  150.4928  146.1810  159.1834 H   0  0  0  0  0  0  0  0  0  0  0  0
  152.1298  144.8736  161.0205 H   0  0  0  0  0  0  0  0  0  0  0  0
  151.8782  141.2844  160.5065 H   0  0  0  0  0  0  0  0  0  0  0  0
  147.8551  138.9922  153.7874 H   0  0  0  0  0  0  0  0  0  0  0  0
  146.7622  140.0465  152.9446 H   0  0  0  0  0  0  0  0  0  0  0  0
  149.9018  144.4071  157.4807 H   0  0  0  0  0  0  0  0  0  0  0  0
  1  2  1  0  0  0  0
  1 21  1  0  0  0  0
  1 22  1  0  0  0  0
  1 23  1  0  0  0  0
  2 20  1  0  0  0  0
  2  3  1  0  0  0  0
  2 24  1  0  0  0  0
  3  4  1  0  0  0  0
  3 25  1  0  0  0  0
  3 26  1  0  0  0  0
  4  5  1  0  0  0  0
  4 27  1  0  0  0  0
  4 28  1  0  0  0  0
  5  6  1  0  0  0  0
  5 29  1  0  0  0  0
  5 30  1  0  0  0  0
  6  7  1  0  0  0  0
  6 20  1  0  0  0  0
  7  8  2  0  0  0  0
  7  9  1  0  0  0  0
  9 10  1  0  0  0  0
  9 31  1  0  0  0  0
 10 11  1  0  0  0  0
 10 32  1  0  0  0  0
 10 33  1  0  0  0  0
 11 12  1  0  0  0  0
 11 34  1  0  0  0  0
 11 35  1  0  0  0  0
 12 16  1  0  0  0  0
 12 13  2  0  0  0  0
 13 14  1  0  0  0  0
 13 41  1  0  0  0  0
 14 15  2  0  0  0  0
 14 36  1  0  0  0  0
 15 16  1  0  0  0  0
 15 37  1  0  0  0  0
 16 17  1  0  0  0  0
 17 18  1  0  0  0  0
 17 19  1  0  0  0  0
 17 38  1  0  0  0  0
 20 39  1  0  0  0  0
 20 40  1  0  0  0  0
M  CHG  1  13   1
M  END
> <s_m_source_file>
AV-unprocessed.smi

> <i_m_source_file_index>
1049

> <i_lp_mmshare_version>
43012

> <i_f3d_flags>
0

> <s_epik_input>
W0NIM11bQ0BASF0xW0NIMl1bQ0gyXVtDSDJdTihbQ0gyXTEpQyg9TylbTkhdW0NIMl1bQ0gyXWMybltjSF1bY0hdbjJbQ0hdKEYpRg==

> <s_epik_cmdline>
J2VwaWtfcHl0aG9uJywgJy1waCcsICc3LjAnLCAnLXRuJywgJzgnLCAnLW1hJywgJzIwMCcsICctbWV0YWxfYmluZGluZycsICctaW1hZScsICc8aW5maWxlLm1hZT4nLCAnLW9tYWUnLCAnPG91dGZpbGUubWFlPic=

> <r_lp_tautomer_probability>
1

> <r_epik_Ionization_Penalty>
1.09766

> <r_epik_Ionization_Penalty_Charging>
0

> <r_epik_Ionization_Penalty_Neutral>
1.09766

> <r_epik_State_Penalty>
1.15444

> <r_epik_Charging_Adjusted_Penalty>
1.15444

> <i_epik_Tot_Q>
1

> <i_epik_Tot_abs_Q>
1

> <r_epik_Metal_State_Penalty>
1.24204

> <b_epik_Metal_Only>
0

> <s_lp_Force_Field>
OPLS_2005

> <r_lp_Energy>
36.2432

> <b_lp_Chiralities_Consistent>
1

> <s_lp_Variant>
AV-unprocessed.smi:1049-3

> <Gold.Version>
5.8.1

> <Gold.Id.Protein>
6NUR|6NUR_protein|mol2

> <Gold.PLP.Fitness>
55.6266

> <Gold.PLP.PLP>
-45.6099

> <Gold.PLP.part.hbond>
-3.1738

> <Gold.PLP.part.metal>
0.0000

> <Gold.PLP.part.buried>
-6.1205

> <Gold.PLP.part.nonpolar>
-36.6497

> <Gold.PLP.part.repulsive>
0.3537

> <Gold.PLP.ligand.clash>
0.0000

> <Gold.PLP.ligand.torsion>
1.0171

> <Gold.PLP.Chemscore.Hbond>
3.9920

> <Gold.PLP.Chemscore.CHOScore>
0.0000

> <Gold.PLP.Chemscore.Metal>
0.0000

> <Gold.Chemscore.Hbonds>
donor molecule, donor type, donor heavy atom, donor atom, acceptor molecule, acceptor atom, score
      L1  H     9    31       P1  8028  0.84
      L1  H    13    41       P1  8028  1.79
      P1  H  7989  7998       L1     8  1.00

> <Gold.PLP.Chemscore.Internal.Correction>
0.0749

> <Gold.Rescore>
     Score         DG    S(hbond)    S(metal)    S(lipo)     H(rot)  DE(clash)    DE(int)     intcor
     14.07     -15.10       1.69        0.00      69.24       1.61       0.06       0.97       ----

> <Gold.Chemscore.Fitness>
14.0721

> <Gold.Chemscore.DG>
-15.1026

> <Gold.Chemscore.ZeroCoef>
-5.4800

> <Gold.Chemscore.Hbond>
1.6857

> <Gold.Chemscore.Metal>
0.0000

> <Gold.Chemscore.Lipo>
69.2427

> <Gold.Chemscore.Internal_Hbond>
0.0000

> <Gold.Chemscore.DEClash>
0.0590

> <Gold.Chemscore.DEInternal>
0.9715

> <Gold.Chemscore.Rot>
1.6051

> <Gold.Chemscore.Internal.Correction>
   9.000000E+99

> <Gold.Chemscore.Hbonds>
donor molecule, donor type, donor heavy atom, donor atom, acceptor molecule, acceptor atom, score
      L1  H     9    31       P1  8028  0.78
      L1  H    13    41       P1  8028  0.22
      P1  H  7989  7998       L1     8  0.43

> <Gold.Chemscore.Hbond.Weighted>
-5.6304

> <Gold.Chemscore.Metal.Weighted>
-0.0000

> <Gold.Chemscore.Lipo.Weighted>
-8.1014

> <Gold.Chemscore.Internal_Hbond.Weighted>
0.0000

> <Gold.Chemscore.DEClash.Weighted>
0.0590

> <Gold.Chemscore.DEInternal.Weighted>
0.9715

> <Gold.Chemscore.Rot.Weighted>
4.1092

> <Gold.Chemscore.Internal.Correction.Weighted>
   9.000000E+99

> <Gold.Protein.RotatedTorsions>
[ 6907 6896 6895 6894 ] final  -11.49 input  -60.11 | X-H torsion
[ 7974 7965 7964 7962 ] final  -75.50 input  175.53 | X-H torsion
[ 8008 7997 7996 7995 ] final  159.91 input   59.86 | X-H torsion
[ 10167 10162 10161 10158 ] final  -46.65 input  -65.29 | X-H torsion
[ 10718 10713 10712 10709 ] final   82.46 input   66.30 | X-H torsion
[ 10763 10752 10751 10750 ] final -110.61 input  -60.55 | X-H torsion
[ 11005 11000 10999 10996 ] final  -51.57 input  -57.11 | X-H torsion

> <Gold.Protein.ActiveResidues>
 VAL166  LYS551  ARG553  GLY616  TRP617  ASP618  TYR619  PRO620  LYS621  CYS622 
 ASP623  PHE694  ASN695  SER759  ASP760  ASP761  ALA762  ILE779  LEU786  VAL792 
 PHE793  MET794  SER795  GLU796  ALA797  LYS798  CYS799  TRP800  GLU811  SER814 

> <Gold.Protein.RotatedAtoms>
  151.3854  135.0947  159.9509 H   0  0  0  0  0  0  0  0  0  0  0  0  # atno 6907 bound_to 6896
  152.5096  133.9031  159.7461 H   0  0  0  0  0  0  0  0  0  0  0  0  # atno 6908 bound_to 6896
  150.9474  133.6533  159.2807 H   0  0  0  0  0  0  0  0  0  0  0  0  # atno 6909 bound_to 6896
  145.6252  140.9352  143.1116 H   0  0  0  0  0  0  0  0  0  0  0  0  # atno 7974 bound_to 7965
  156.2207  140.1818  156.7483 H   0  0  0  0  0  0  0  0  0  0  0  0  # atno 8008 bound_to 7997
  154.5861  140.0658  156.9202 H   0  0  0  0  0  0  0  0  0  0  0  0  # atno 8009 bound_to 7997
  155.2417  140.3322  155.4294 H   0  0  0  0  0  0  0  0  0  0  0  0  # atno 8010 bound_to 7997
  140.6808  143.2821  151.3813 H   0  0  0  0  0  0  0  0  0  0  0  0  # atno 10167 bound_to 10162
  157.6857  131.0048  150.2377 H   0  0  0  0  0  0  0  0  0  0  0  0  # atno 10718 bound_to 10713
  154.8257  135.4558  154.0912 H   0  0  0  0  0  0  0  0  0  0  0  0  # atno 10763 bound_to 10752
  153.2228  135.6896  153.7986 H   0  0  0  0  0  0  0  0  0  0  0  0  # atno 10764 bound_to 10752
  153.7397  135.3314  155.3278 H   0  0  0  0  0  0  0  0  0  0  0  0  # atno 10765 bound_to 10752
  141.0878  133.6639  156.3897 H   0  0  0  0  0  0  0  0  0  0  0  0  # atno 11005 bound_to 11000
  144.7215  139.8014  143.7380 LP  0  0  0  0  0  0  0  0  0  0  0  0  # atno 17320 bound_to 7965
  146.1400  139.4454  143.0115 LP  0  0  0  0  0  0  0  0  0  0  0  0  # atno 17321 bound_to 7965
  139.6130  144.1059  152.2318 LP  0  0  0  0  0  0  0  0  0  0  0  0  # atno 17342 bound_to 10162
  140.0479  144.5955  150.7359 LP  0  0  0  0  0  0  0  0  0  0  0  0  # atno 17343 bound_to 10162
  156.2998  130.3757  149.7761 LP  0  0  0  0  0  0  0  0  0  0  0  0  # atno 17370 bound_to 10713
  156.5395  130.8293  151.3264 LP  0  0  0  0  0  0  0  0  0  0  0  0  # atno 17371 bound_to 10713
  140.5322  134.6201  157.5353 LP  0  0  0  0  0  0  0  0  0  0  0  0  # atno 17394 bound_to 11000
  139.9699  134.7310  156.0063 LP  0  0  0  0  0  0  0  0  0  0  0  0  # atno 17395 bound_to 11000

$$$$
