AV-unprocessed.smi:577|AV-procd|sdf|2980|dock2
  -GOLD-   2262023493D 1   1.00000     0.00000
 Structure written by MMmdl.
 41 42  0  0  0  0  0  0  0  0  1 V2000
  147.7054  141.0149  153.6002 C   0  0  0  0  0  0  0  0  0  0  0  0
  146.8189  141.9531  154.4014 C   0  0  0  0  0  0  0  0  0  0  0  0
  145.9650  142.8435  153.8860 C   0  0  0  0  0  0  0  0  0  0  0  0
  145.0831  143.7224  155.1110 S   0  0  0  0  0  0  0  0  0  0  0  0
  145.9402  142.8030  156.3996 C   0  0  0  0  0  0  0  0  0  0  0  0
  145.7311  142.9829  157.5983 O   0  0  0  0  0  0  0  0  0  0  0  0
  146.8307  141.9109  155.8029 N   0  0  0  0  0  0  0  0  0  0  0  0
  147.7007  141.0192  156.5813 C   0  0  0  0  0  0  0  0  0  0  0  0
  149.1902  141.3715  156.4691 C   0  0  0  0  0  0  0  0  0  0  0  0
  149.7828  141.2883  155.3923 O   0  0  0  0  0  0  0  0  0  0  0  0
  149.7763  141.7754  157.6067 N   0  0  0  0  0  0  0  0  0  0  0  0
  151.1735  142.1764  157.7643 C   0  0  0  0  0  0  0  0  0  0  0  0
  151.7255  141.5605  159.0667 C   0  0  0  0  0  0  0  0  0  0  0  0
  153.1073  142.0916  159.4916 C   0  0  0  0  0  0  0  0  0  0  0  0
  153.1085  142.9003  160.8023 C   0  0  0  0  0  0  0  0  0  0  0  0
  151.9758  143.9304  160.9961 C   0  0  0  0  0  0  0  0  0  0  0  0
  151.7810  144.9537  159.8632 C   0  0  0  0  0  0  0  0  0  0  0  0
  150.7460  144.5608  158.7866 C   0  0  0  0  0  0  0  0  0  0  0  0
  151.2966  143.7123  157.6249 C   0  0  0  0  0  0  0  0  0  0  0  0
  147.3211  140.9085  152.5855 H   0  0  0  0  0  0  0  0  0  0  0  0
  147.7444  140.0176  154.0376 H   0  0  0  0  0  0  0  0  0  0  0  0
  148.7185  141.4121  153.5386 H   0  0  0  0  0  0  0  0  0  0  0  0
  145.7904  143.0306  152.8368 H   0  0  0  0  0  0  0  0  0  0  0  0
  147.4066  141.0114  157.6310 H   0  0  0  0  0  0  0  0  0  0  0  0
  147.5658  139.9919  156.2383 H   0  0  0  0  0  0  0  0  0  0  0  0
  149.2042  141.8138  158.4378 H   0  0  0  0  0  0  0  0  0  0  0  0
  151.7643  141.7561  156.9486 H   0  0  0  0  0  0  0  0  0  0  0  0
  151.0036  141.6686  159.8752 H   0  0  0  0  0  0  0  0  0  0  0  0
  151.8024  140.4823  158.9184 H   0  0  0  0  0  0  0  0  0  0  0  0
  153.7827  141.2451  159.6207 H   0  0  0  0  0  0  0  0  0  0  0  0
  153.5629  142.6789  158.6959 H   0  0  0  0  0  0  0  0  0  0  0  0
  153.0693  142.2022  161.6393 H   0  0  0  0  0  0  0  0  0  0  0  0
  154.0703  143.4069  160.8911 H   0  0  0  0  0  0  0  0  0  0  0  0
  151.0310  143.4345  161.2171 H   0  0  0  0  0  0  0  0  0  0  0  0
  152.2104  144.4836  161.9064 H   0  0  0  0  0  0  0  0  0  0  0  0
  151.4136  145.8696  160.3281 H   0  0  0  0  0  0  0  0  0  0  0  0
  152.7369  145.2269  159.4149 H   0  0  0  0  0  0  0  0  0  0  0  0
  149.8654  144.0985  159.2335 H   0  0  0  0  0  0  0  0  0  0  0  0
  150.3848  145.4921  158.3490 H   0  0  0  0  0  0  0  0  0  0  0  0
  152.3280  143.9978  157.4194 H   0  0  0  0  0  0  0  0  0  0  0  0
  150.7607  143.9980  156.7184 H   0  0  0  0  0  0  0  0  0  0  0  0
  1  2  1  0  0  0  0
  1 20  1  0  0  0  0
  1 21  1  0  0  0  0
  1 22  1  0  0  0  0
  2  7  1  0  0  0  0
  2  3  2  0  0  0  0
  3  4  1  0  0  0  0
  3 23  1  0  0  0  0
  4  5  1  0  0  0  0
  5  6  2  0  0  0  0
  5  7  1  0  0  0  0
  7  8  1  0  0  0  0
  8  9  1  0  0  0  0
  8 24  1  0  0  0  0
  8 25  1  0  0  0  0
  9 10  2  0  0  0  0
  9 11  1  0  0  0  0
 11 12  1  0  0  0  0
 11 26  1  0  0  0  0
 12 19  1  0  0  0  0
 12 13  1  0  0  0  0
 12 27  1  0  0  0  0
 13 14  1  0  0  0  0
 13 28  1  0  0  0  0
 13 29  1  0  0  0  0
 14 15  1  0  0  0  0
 14 30  1  0  0  0  0
 14 31  1  0  0  0  0
 15 16  1  0  0  0  0
 15 32  1  0  0  0  0
 15 33  1  0  0  0  0
 16 17  1  0  0  0  0
 16 34  1  0  0  0  0
 16 35  1  0  0  0  0
 17 18  1  0  0  0  0
 17 36  1  0  0  0  0
 17 37  1  0  0  0  0
 18 19  1  0  0  0  0
 18 38  1  0  0  0  0
 18 39  1  0  0  0  0
 19 40  1  0  0  0  0
 19 41  1  0  0  0  0
M  END
> <s_m_source_file>
AV-unprocessed.smi

> <i_m_source_file_index>
577

> <i_lp_mmshare_version>
43012

> <i_f3d_flags>
0

> <s_epik_input>
W0NIM11jMVtjSF1zYyg9TyluMVtDSDJdQyg9TylbTkhdW0NIXTJbQ0gyXVtDSDJdW0NIMl1bQ0gyXVtDSDJdW0NIMl1bQ0gyXTI=

> <s_epik_cmdline>
J2VwaWtfcHl0aG9uJywgJy1waCcsICc3LjAnLCAnLXRuJywgJzgnLCAnLW1hJywgJzIwMCcsICctbWV0YWxfYmluZGluZycsICctaW1hZScsICc8aW5maWxlLm1hZT4nLCAnLW9tYWUnLCAnPG91dGZpbGUubWFlPic=

> <r_lp_tautomer_probability>
1

> <r_epik_Ionization_Penalty>
1.32564e-06

> <r_epik_Ionization_Penalty_Charging>
1.22505e-06

> <r_epik_Ionization_Penalty_Neutral>
1.00582e-07

> <r_epik_State_Penalty>
-0

> <r_epik_Charging_Adjusted_Penalty>
1.22505e-06

> <i_epik_Tot_Q>
0

> <i_epik_Tot_abs_Q>
0

> <r_epik_Metal_State_Penalty>
-0

> <b_epik_Metal_Only>
0

> <s_lp_Force_Field>
OPLS_2005

> <r_lp_Energy>
25.6493

> <b_lp_Chiralities_Consistent>
1

> <s_lp_Variant>
AV-unprocessed.smi:577-1

> <Gold.Version>
5.8.1

> <Gold.Id.Protein>
6NUR|6NUR_protein|mol2

> <Gold.PLP.Fitness>
42.1204

> <Gold.PLP.PLP>
-42.8275

> <Gold.PLP.part.hbond>
-0.0822

> <Gold.PLP.part.metal>
0.0000

> <Gold.PLP.part.buried>
-6.3308

> <Gold.PLP.part.nonpolar>
-36.6577

> <Gold.PLP.part.repulsive>
0.3031

> <Gold.PLP.ligand.clash>
0.0000

> <Gold.PLP.ligand.torsion>
0.3720

> <Gold.PLP.Chemscore.Hbond>
0.0000

> <Gold.PLP.Chemscore.CHOScore>
0.0000

> <Gold.PLP.Chemscore.Metal>
0.0000

> <Gold.PLP.Chemscore.Internal.Correction>
0.0370

> <Gold.Rescore>
     Score         DG    S(hbond)    S(metal)    S(lipo)     H(rot)  DE(clash)    DE(int)     intcor
     13.52     -15.23       0.00        0.00     113.62       1.39       0.01       1.70       ----

> <Gold.Chemscore.Fitness>
13.5172

> <Gold.Chemscore.DG>
-15.2258

> <Gold.Chemscore.ZeroCoef>
-5.4800

> <Gold.Chemscore.Hbond>
0.0000

> <Gold.Chemscore.Metal>
0.0000

> <Gold.Chemscore.Lipo>
113.6187

> <Gold.Chemscore.Internal_Hbond>
0.0000

> <Gold.Chemscore.DEClash>
0.0063

> <Gold.Chemscore.DEInternal>
1.7023

> <Gold.Chemscore.Rot>
1.3858

> <Gold.Chemscore.Internal.Correction>
   9.000000E+99

> <Gold.Chemscore.Hbond.Weighted>
-0.0000

> <Gold.Chemscore.Metal.Weighted>
-0.0000

> <Gold.Chemscore.Lipo.Weighted>
-13.2934

> <Gold.Chemscore.Internal_Hbond.Weighted>
0.0000

> <Gold.Chemscore.DEClash.Weighted>
0.0063

> <Gold.Chemscore.DEInternal.Weighted>
1.7023

> <Gold.Chemscore.Rot.Weighted>
3.5476

> <Gold.Chemscore.Internal.Correction.Weighted>
   9.000000E+99

> <Gold.Protein.RotatedTorsions>
[ 6907 6896 6895 6894 ] final   -5.14 input  -60.11 | X-H torsion
[ 7974 7965 7964 7962 ] final -140.35 input  175.53 | X-H torsion
[ 8008 7997 7996 7995 ] final  -76.65 input   59.86 | X-H torsion
[ 10167 10162 10161 10158 ] final  -80.94 input  -65.29 | X-H torsion
[ 10718 10713 10712 10709 ] final  -66.31 input   66.30 | X-H torsion
[ 10763 10752 10751 10750 ] final  138.84 input  -60.55 | X-H torsion
[ 11005 11000 10999 10996 ] final -173.48 input  -57.11 | X-H torsion

> <Gold.Protein.ActiveResidues>
 VAL166  LYS551  ARG553  GLY616  TRP617  ASP618  TYR619  PRO620  LYS621  CYS622 
 ASP623  PHE694  ASN695  SER759  ASP760  ASP761  ALA762  ILE779  LEU786  VAL792 
 PHE793  MET794  SER795  GLU796  ALA797  LYS798  CYS799  TRP800  GLU811  SER814 

> <Gold.Protein.RotatedAtoms>
  151.4864  135.1055  159.9791 H   0  0  0  0  0  0  0  0  0  0  0  0  # atno 6907 bound_to 6896
  152.4758  133.8132  159.7025 H   0  0  0  0  0  0  0  0  0  0  0  0  # atno 6908 bound_to 6896
  150.8796  133.7329  159.2962 H   0  0  0  0  0  0  0  0  0  0  0  0  # atno 6909 bound_to 6896
  144.8604  140.6210  143.5332 H   0  0  0  0  0  0  0  0  0  0  0  0  # atno 7974 bound_to 7965
  154.5524  140.0723  156.8690 H   0  0  0  0  0  0  0  0  0  0  0  0  # atno 8008 bound_to 7997
  155.2967  140.3381  155.4231 H   0  0  0  0  0  0  0  0  0  0  0  0  # atno 8009 bound_to 7997
  156.1973  140.1708  156.7958 H   0  0  0  0  0  0  0  0  0  0  0  0  # atno 8010 bound_to 7997
  140.4457  143.2499  151.8562 H   0  0  0  0  0  0  0  0  0  0  0  0  # atno 10167 bound_to 10162
  156.0620  130.4260  150.1690 H   0  0  0  0  0  0  0  0  0  0  0  0  # atno 10718 bound_to 10713
  153.8963  135.3027  155.3448 H   0  0  0  0  0  0  0  0  0  0  0  0  # atno 10763 bound_to 10752
  154.7692  135.4894  153.9618 H   0  0  0  0  0  0  0  0  0  0  0  0  # atno 10764 bound_to 10752
  153.1270  135.6795  153.9341 H   0  0  0  0  0  0  0  0  0  0  0  0  # atno 10765 bound_to 10752
  140.4853  134.6037  157.4934 H   0  0  0  0  0  0  0  0  0  0  0  0  # atno 11005 bound_to 11000
  145.4324  139.1547  143.4015 LP  0  0  0  0  0  0  0  0  0  0  0  0  # atno 17320 bound_to 7965
  146.2856  140.4441  142.8759 LP  0  0  0  0  0  0  0  0  0  0  0  0  # atno 17321 bound_to 7965
  139.4792  144.5178  151.8843 LP  0  0  0  0  0  0  0  0  0  0  0  0  # atno 17342 bound_to 10162
  140.4266  144.2171  150.5887 LP  0  0  0  0  0  0  0  0  0  0  0  0  # atno 17343 bound_to 10162
  156.9756  130.9848  151.3449 LP  0  0  0  0  0  0  0  0  0  0  0  0  # atno 17370 bound_to 10713
  157.5635  130.8262  149.8297 LP  0  0  0  0  0  0  0  0  0  0  0  0  # atno 17371 bound_to 10713
  139.9802  134.7150  155.9874 LP  0  0  0  0  0  0  0  0  0  0  0  0  # atno 17394 bound_to 11000
  141.1511  133.6548  156.4017 LP  0  0  0  0  0  0  0  0  0  0  0  0  # atno 17395 bound_to 11000

$$$$
