AV-unprocessed.smi:2355|AV-procd|sdf|9392|dock9
  -GOLD-   2272013 23D 1   1.00000     0.00000
 Structure written by MMmdl.
 49 50  0  0  0  0  0  0  0  0  2 V2000
  153.8345  141.8567  161.8645 C   0  0  0  0  0  0  0  0  0  0  0  0
  152.9492  142.1691  160.6767 C   0  0  0  0  0  0  0  0  0  0  0  0
  152.3491  143.4351  160.5379 C   0  0  0  0  0  0  0  0  0  0  0  0
  151.5322  143.6641  159.4134 C   0  0  0  0  0  0  0  0  0  0  0  0
  150.8564  145.0022  159.2005 C   0  0  0  0  0  0  0  0  0  0  0  0
  151.2978  142.7267  158.4703 N   0  0  0  0  0  0  0  0  0  0  0  0
  151.8724  141.5042  158.5926 C   0  0  0  0  0  0  0  0  0  0  0  0
  151.6872  140.4512  157.6576 N   0  0  0  0  0  0  0  0  0  0  0  0
  150.7262  140.3339  156.7250 C   0  0  0  0  0  0  0  0  0  0  0  0
  149.8512  141.1698  156.4953 O   0  0  0  0  0  0  0  0  0  0  0  0
  150.8194  139.1665  156.0695 N   0  0  0  0  0  0  0  0  0  0  0  0
  149.9216  138.7073  155.0067 C   0  0  1  0  0  0  0  0  0  0  0  0
  150.7268  137.8975  153.9768 C   0  0  0  0  0  0  0  0  0  0  0  0
  148.6884  137.9405  155.5742 C   0  0  1  0  0  0  0  0  0  0  0  0
  147.9994  138.7351  156.7118 C   0  0  0  0  0  0  0  0  0  0  0  0
  147.7620  137.5487  154.4608 N   0  3  0  0  0  0  0  0  0  0  0  0
  146.7518  136.5417  154.8786 C   0  0  0  0  0  0  0  0  0  0  0  0
  145.9515  136.0430  153.6650 C   0  0  0  0  0  0  0  0  0  0  0  0
  145.3203  137.1468  153.0311 O   0  0  0  0  0  0  0  0  0  0  0  0
  146.2695  138.0866  152.5468 C   0  0  0  0  0  0  0  0  0  0  0  0
  147.0947  138.6502  153.7167 C   0  0  0  0  0  0  0  0  0  0  0  0
  152.7059  141.1925  159.6898 C   0  0  0  0  0  0  0  0  0  0  0  0
  154.1606  142.7701  162.3622 H   0  0  0  0  0  0  0  0  0  0  0  0
  154.7218  141.3084  161.5469 H   0  0  0  0  0  0  0  0  0  0  0  0
  153.2926  141.2461  162.5869 H   0  0  0  0  0  0  0  0  0  0  0  0
  152.5102  144.2097  161.2736 H   0  0  0  0  0  0  0  0  0  0  0  0
  151.2090  145.7417  159.9197 H   0  0  0  0  0  0  0  0  0  0  0  0
  149.7769  144.9025  159.3147 H   0  0  0  0  0  0  0  0  0  0  0  0
  151.0635  145.3788  158.1984 H   0  0  0  0  0  0  0  0  0  0  0  0
  152.3490  139.6919  157.7230 H   0  0  0  0  0  0  0  0  0  0  0  0
  151.5708  138.5417  156.3246 H   0  0  0  0  0  0  0  0  0  0  0  0
  149.5685  139.5827  154.4611 H   0  0  0  0  0  0  0  0  0  0  0  0
  150.0815  137.5172  153.1846 H   0  0  0  0  0  0  0  0  0  0  0  0
  151.2406  137.0490  154.4285 H   0  0  0  0  0  0  0  0  0  0  0  0
  151.4882  138.5201  153.5051 H   0  0  0  0  0  0  0  0  0  0  0  0
  149.0470  137.0160  156.0303 H   0  0  0  0  0  0  0  0  0  0  0  0
  148.6990  138.9821  157.5090 H   0  0  0  0  0  0  0  0  0  0  0  0
  147.2068  138.1573  157.1873 H   0  0  0  0  0  0  0  0  0  0  0  0
  147.5688  139.6707  156.3538 H   0  0  0  0  0  0  0  0  0  0  0  0
  147.2288  135.6900  155.3612 H   0  0  0  0  0  0  0  0  0  0  0  0
  146.0764  136.9837  155.6126 H   0  0  0  0  0  0  0  0  0  0  0  0
  146.5972  135.5180  152.9589 H   0  0  0  0  0  0  0  0  0  0  0  0
  145.1863  135.3356  153.9848 H   0  0  0  0  0  0  0  0  0  0  0  0
  146.9184  137.6167  151.8057 H   0  0  0  0  0  0  0  0  0  0  0  0
  145.7401  138.8924  152.0386 H   0  0  0  0  0  0  0  0  0  0  0  0
  146.4527  139.2177  154.3922 H   0  0  0  0  0  0  0  0  0  0  0  0
  147.8283  139.3392  153.2993 H   0  0  0  0  0  0  0  0  0  0  0  0
  153.1555  140.2139  159.7773 H   0  0  0  0  0  0  0  0  0  0  0  0
  148.3494  137.0891  153.7786 H   0  0  0  0  0  0  0  0  0  0  0  0
  1  2  1  0  0  0  0
  1 23  1  0  0  0  0
  1 24  1  0  0  0  0
  1 25  1  0  0  0  0
  2 22  1  0  0  0  0
  2  3  2  0  0  0  0
  3  4  1  0  0  0  0
  3 26  1  0  0  0  0
  4  5  1  0  0  0  0
  4  6  2  0  0  0  0
  5 27  1  0  0  0  0
  5 28  1  0  0  0  0
  5 29  1  0  0  0  0
  6  7  1  0  0  0  0
  7  8  1  0  0  0  0
  7 22  2  0  0  0  0
  8  9  1  0  0  0  0
  8 30  1  0  0  0  0
  9 10  2  0  0  0  0
  9 11  1  0  0  0  0
 11 12  1  0  0  0  0
 11 31  1  0  0  0  0
 12 13  1  0  0  0  0
 12 14  1  0  0  0  0
 12 32  1  0  0  0  0
 13 33  1  0  0  0  0
 13 34  1  0  0  0  0
 13 35  1  0  0  0  0
 14 15  1  0  0  0  0
 14 16  1  0  0  0  0
 14 36  1  0  0  0  0
 15 37  1  0  0  0  0
 15 38  1  0  0  0  0
 15 39  1  0  0  0  0
 16 21  1  0  0  0  0
 16 17  1  0  0  0  0
 16 49  1  0  0  0  0
 17 18  1  0  0  0  0
 17 40  1  0  0  0  0
 17 41  1  0  0  0  0
 18 19  1  0  0  0  0
 18 42  1  0  0  0  0
 18 43  1  0  0  0  0
 19 20  1  0  0  0  0
 20 21  1  0  0  0  0
 20 44  1  0  0  0  0
 20 45  1  0  0  0  0
 21 46  1  0  0  0  0
 21 47  1  0  0  0  0
 22 48  1  0  0  0  0
M  CHG  1  16   1
M  END
> <s_m_source_file>
AV-unprocessed.smi

> <i_m_source_file_index>
2355

> <i_lp_mmshare_version>
43012

> <i_f3d_flags>
0

> <s_epik_input>
W0NIM11jMVtjSF1jKFtDSDNdKW5jKFtjSF0xKVtOSF1DKD1PKVtOSF1bQ0BIXShbQ0gzXSlbQ0BIXShbQ0gzXSlOMltDSDJdW0NIMl1PW0NIMl1bQ0gyXTI=

> <s_epik_cmdline>
J2VwaWtfcHl0aG9uJywgJy1waCcsICc3LjAnLCAnLXRuJywgJzgnLCAnLW1hJywgJzIwMCcsICctbWV0YWxfYmluZGluZycsICctaW1hZScsICc8aW5maWxlLm1hZT4nLCAnLW9tYWUnLCAnPG91dGZpbGUubWFlPic=

> <r_epik_Ionization_Penalty>
0.602711

> <r_epik_Ionization_Penalty_Charging>
0.602531

> <r_epik_Ionization_Penalty_Neutral>
0.000180055

> <r_epik_State_Penalty>
0.617039

> <r_epik_Charging_Adjusted_Penalty>
1.21957

> <i_epik_Tot_Q>
1

> <i_epik_Tot_abs_Q>
1

> <r_epik_Metal_State_Penalty>
0.617075

> <b_epik_Metal_Only>
0

> <s_lp_Force_Field>
OPLS_2005

> <r_lp_Energy>
30.3549

> <b_lp_Chiralities_Consistent>
1

> <s_lp_Variant>
AV-unprocessed.smi:2355-8

> <Gold.Version>
5.8.1

> <Gold.Id.Protein>
6NUR|6NUR_protein|mol2

> <Gold.PLP.Fitness>
44.3056

> <Gold.PLP.PLP>
-39.3002

> <Gold.PLP.part.hbond>
-1.0000

> <Gold.PLP.part.metal>
0.0000

> <Gold.PLP.part.buried>
-2.3101

> <Gold.PLP.part.nonpolar>
-35.6654

> <Gold.PLP.part.repulsive>
0.5746

> <Gold.PLP.ligand.clash>
0.0000

> <Gold.PLP.ligand.torsion>
0.5394

> <Gold.PLP.Chemscore.Hbond>
1.9825

> <Gold.PLP.Chemscore.CHOScore>
0.0000

> <Gold.PLP.Chemscore.Metal>
0.0000

> <Gold.Chemscore.Hbonds>
donor molecule, donor type, donor heavy atom, donor atom, acceptor molecule, acceptor atom, score
      L1  H    16    49       P1  7948  1.27

> <Gold.PLP.Chemscore.Internal.Correction>
0.1367

> <Gold.Rescore>
     Score         DG    S(hbond)    S(metal)    S(lipo)     H(rot)  DE(clash)    DE(int)     intcor
     15.30     -17.24       0.94        0.00     105.32       1.45       0.17       1.76       ----

> <Gold.Chemscore.Fitness>
15.3014

> <Gold.Chemscore.DG>
-17.2353

> <Gold.Chemscore.ZeroCoef>
-5.4800

> <Gold.Chemscore.Hbond>
0.9388

> <Gold.Chemscore.Metal>
0.0000

> <Gold.Chemscore.Lipo>
105.3164

> <Gold.Chemscore.Internal_Hbond>
0.0000

> <Gold.Chemscore.DEClash>
0.1691

> <Gold.Chemscore.DEInternal>
1.7648

> <Gold.Chemscore.Rot>
1.4462

> <Gold.Chemscore.Internal.Correction>
   9.000000E+99

> <Gold.Chemscore.Hbonds>
donor molecule, donor type, donor heavy atom, donor atom, acceptor molecule, acceptor atom, score
      L1  H    16    49       P1  7948  0.62

> <Gold.Chemscore.Hbond.Weighted>
-3.1356

> <Gold.Chemscore.Metal.Weighted>
-0.0000

> <Gold.Chemscore.Lipo.Weighted>
-12.3220

> <Gold.Chemscore.Internal_Hbond.Weighted>
0.0000

> <Gold.Chemscore.DEClash.Weighted>
0.1691

> <Gold.Chemscore.DEInternal.Weighted>
1.7648

> <Gold.Chemscore.Rot.Weighted>
3.7023

> <Gold.Chemscore.Internal.Correction.Weighted>
   9.000000E+99

> <Gold.Protein.RotatedTorsions>
[ 6907 6896 6895 6894 ] final   42.95 input  -60.11 | X-H torsion
[ 7974 7965 7964 7962 ] final   45.92 input  175.53 | X-H torsion
[ 8008 7997 7996 7995 ] final  -33.79 input   59.86 | X-H torsion
[ 10167 10162 10161 10158 ] final -101.59 input  -65.29 | X-H torsion
[ 10718 10713 10712 10709 ] final   30.12 input   66.30 | X-H torsion
[ 10763 10752 10751 10750 ] final  -84.39 input  -60.55 | X-H torsion
[ 11005 11000 10999 10996 ] final   -0.90 input  -57.11 | X-H torsion

> <Gold.Protein.ActiveResidues>
 VAL166  LYS551  ARG553  GLY616  TRP617  ASP618  TYR619  PRO620  LYS621  CYS622 
 ASP623  PHE694  ASN695  SER759  ASP760  ASP761  ALA762  ILE779  LEU786  VAL792 
 PHE793  MET794  SER795  GLU796  ALA797  LYS798  CYS799  TRP800  GLU811  SER814 

> <Gold.Protein.RotatedAtoms>
  152.2142  134.8473  160.0493 H   0  0  0  0  0  0  0  0  0  0  0  0  # atno 6907 bound_to 6896
  151.9281  133.3598  159.3929 H   0  0  0  0  0  0  0  0  0  0  0  0  # atno 6908 bound_to 6896
  150.6983  134.4491  159.5372 H   0  0  0  0  0  0  0  0  0  0  0  0  # atno 6909 bound_to 6896
  146.0437  139.4912  142.9762 H   0  0  0  0  0  0  0  0  0  0  0  0  # atno 7974 bound_to 7965
  154.4139  140.1701  156.1945 H   0  0  0  0  0  0  0  0  0  0  0  0  # atno 8008 bound_to 7997
  155.9576  140.3396  155.6438 H   0  0  0  0  0  0  0  0  0  0  0  0  # atno 8009 bound_to 7997
  155.6790  140.0720  157.2482 H   0  0  0  0  0  0  0  0  0  0  0  0  # atno 8010 bound_to 7997
  140.2397  143.3548  152.0813 H   0  0  0  0  0  0  0  0  0  0  0  0  # atno 10167 bound_to 10162
  157.2555  130.7135  149.6427 H   0  0  0  0  0  0  0  0  0  0  0  0  # atno 10718 bound_to 10713
  154.5989  135.5522  153.7354 H   0  0  0  0  0  0  0  0  0  0  0  0  # atno 10763 bound_to 10752
  153.0146  135.6361  154.1743 H   0  0  0  0  0  0  0  0  0  0  0  0  # atno 10764 bound_to 10752
  154.1683  135.2893  155.3068 H   0  0  0  0  0  0  0  0  0  0  0  0  # atno 10765 bound_to 10752
  140.6414  133.9486  155.8328 H   0  0  0  0  0  0  0  0  0  0  0  0  # atno 11005 bound_to 11000
  145.6842  141.0182  143.1590 LP  0  0  0  0  0  0  0  0  0  0  0  0  # atno 17320 bound_to 7965
  144.7087  139.8457  143.7421 LP  0  0  0  0  0  0  0  0  0  0  0  0  # atno 17321 bound_to 7965
  139.5081  144.6845  151.5924 LP  0  0  0  0  0  0  0  0  0  0  0  0  # atno 17342 bound_to 10162
  140.6123  143.9413  150.6462 LP  0  0  0  0  0  0  0  0  0  0  0  0  # atno 17343 bound_to 10162
  155.9665  130.4414  150.5339 LP  0  0  0  0  0  0  0  0  0  0  0  0  # atno 17370 bound_to 10713
  157.3232  131.0686  151.1916 LP  0  0  0  0  0  0  0  0  0  0  0  0  # atno 17371 bound_to 10713
  141.0604  134.0354  157.3666 LP  0  0  0  0  0  0  0  0  0  0  0  0  # atno 17394 bound_to 11000
  139.9079  135.0184  156.7566 LP  0  0  0  0  0  0  0  0  0  0  0  0  # atno 17395 bound_to 11000

$$$$
