AV-unprocessed.smi:2140|AV-procd|sdf|8715|dock6
  -GOLD-   2272011483D 1   1.00000     0.00000
 Structure written by MMmdl.
 39 40  0  0  0  0  0  0  0  0  1 V2000
  153.0442  143.3606  159.9013 C   0  0  0  0  0  0  0  0  0  0  0  0
  151.5000  143.2543  159.8151 C   0  0  1  0  0  0  0  0  0  0  0  0
  150.9069  144.6827  159.6366 C   0  0  0  0  0  0  0  0  0  0  0  0
  149.4673  144.6892  159.3906 N   0  0  0  0  0  0  0  0  0  0  0  0
  148.5338  144.3131  160.2758 C   0  0  0  0  0  0  0  0  0  0  0  0
  148.7965  143.9076  161.4079 O   0  0  0  0  0  0  0  0  0  0  0  0
  147.2978  144.4614  159.7695 N   0  0  0  0  0  0  0  0  0  0  0  0
  146.0504  144.1792  160.3886 C   0  0  0  0  0  0  0  0  0  0  0  0
  145.9103  143.6825  161.7071 C   0  0  0  0  0  0  0  0  0  0  0  0
  144.6174  143.4237  162.2019 C   0  0  0  0  0  0  0  0  0  0  0  0
  143.5143  143.6636  161.3598 C   0  0  0  0  0  0  0  0  0  0  0  0
  143.6340  144.1233  160.0964 N   0  0  0  0  0  0  0  0  0  0  0  0
  144.8766  144.3679  159.6287 C   0  0  0  0  0  0  0  0  0  0  0  0
  151.0481  142.3010  158.7748 N   0  0  0  0  0  0  0  0  0  0  0  0
  151.4034  142.7354  157.4187 C   0  0  0  0  0  0  0  0  0  0  0  0
  150.9562  141.7378  156.3364 C   0  0  0  0  0  0  0  0  0  0  0  0
  151.5249  140.4627  156.5987 O   0  0  0  0  0  0  0  0  0  0  0  0
  151.1473  139.9640  157.8743 C   0  0  0  0  0  0  0  0  0  0  0  0
  151.5874  140.9500  158.9709 C   0  0  0  0  0  0  0  0  0  0  0  0
  153.3717  144.0998  160.6313 H   0  0  0  0  0  0  0  0  0  0  0  0
  153.4748  143.6379  158.9386 H   0  0  0  0  0  0  0  0  0  0  0  0
  153.5049  142.4269  160.2207 H   0  0  0  0  0  0  0  0  0  0  0  0
  151.1545  142.8803  160.7802 H   0  0  0  0  0  0  0  0  0  0  0  0
  151.0995  145.2774  160.5300 H   0  0  0  0  0  0  0  0  0  0  0  0
  151.3674  145.2174  158.8069 H   0  0  0  0  0  0  0  0  0  0  0  0
  149.1630  145.0133  158.4844 H   0  0  0  0  0  0  0  0  0  0  0  0
  147.2407  144.8856  158.8552 H   0  0  0  0  0  0  0  0  0  0  0  0
  146.7616  143.4821  162.3390 H   0  0  0  0  0  0  0  0  0  0  0  0
  144.4750  143.0453  163.2033 H   0  0  0  0  0  0  0  0  0  0  0  0
  142.5095  143.4757  161.7083 H   0  0  0  0  0  0  0  0  0  0  0  0
  144.9340  144.7323  158.6133 H   0  0  0  0  0  0  0  0  0  0  0  0
  150.9334  143.6889  157.1849 H   0  0  0  0  0  0  0  0  0  0  0  0
  152.4817  142.8870  157.3487 H   0  0  0  0  0  0  0  0  0  0  0  0
  149.8679  141.6621  156.3061 H   0  0  0  0  0  0  0  0  0  0  0  0
  151.2806  142.0763  155.3524 H   0  0  0  0  0  0  0  0  0  0  0  0
  150.0682  139.8058  157.9072 H   0  0  0  0  0  0  0  0  0  0  0  0
  151.6173  138.9926  158.0286 H   0  0  0  0  0  0  0  0  0  0  0  0
  152.6772  140.9886  159.0074 H   0  0  0  0  0  0  0  0  0  0  0  0
  151.2529  140.5336  159.9185 H   0  0  0  0  0  0  0  0  0  0  0  0
  1  2  1  0  0  0  0
  1 20  1  0  0  0  0
  1 21  1  0  0  0  0
  1 22  1  0  0  0  0
  2  3  1  0  0  0  0
  2 14  1  0  0  0  0
  2 23  1  0  0  0  0
  3  4  1  0  0  0  0
  3 24  1  0  0  0  0
  3 25  1  0  0  0  0
  4  5  1  0  0  0  0
  4 26  1  0  0  0  0
  5  6  2  0  0  0  0
  5  7  1  0  0  0  0
  7  8  1  0  0  0  0
  7 27  1  0  0  0  0
  8 13  1  0  0  0  0
  8  9  2  0  0  0  0
  9 10  1  0  0  0  0
  9 28  1  0  0  0  0
 10 11  2  0  0  0  0
 10 29  1  0  0  0  0
 11 12  1  0  0  0  0
 11 30  1  0  0  0  0
 12 13  2  0  0  0  0
 13 31  1  0  0  0  0
 14 19  1  0  0  0  0
 14 15  1  0  0  0  0
 15 16  1  0  0  0  0
 15 32  1  0  0  0  0
 15 33  1  0  0  0  0
 16 17  1  0  0  0  0
 16 34  1  0  0  0  0
 16 35  1  0  0  0  0
 17 18  1  0  0  0  0
 18 19  1  0  0  0  0
 18 36  1  0  0  0  0
 18 37  1  0  0  0  0
 19 38  1  0  0  0  0
 19 39  1  0  0  0  0
M  END
> <s_m_source_file>
AV-unprocessed.smi

> <i_m_source_file_index>
2140

> <i_lp_mmshare_version>
43012

> <i_f3d_flags>
0

> <s_epik_input>
W0NIMl0xW0NIMl1PW0NIMl1bQ0gyXU4xW0NASF0oW0NIM10pW0NIMl1bTkhdQyg9TylbTkhdYzJbY0hdW2NIXVtjSF1uW2NIXTI=

> <s_epik_cmdline>
J2VwaWtfcHl0aG9uJywgJy1waCcsICc3LjAnLCAnLXRuJywgJzgnLCAnLW1hJywgJzIwMCcsICctbWV0YWxfYmluZGluZycsICctaW1hZScsICc8aW5maWxlLm1hZT4nLCAnLW9tYWUnLCAnPG91dGZpbGUubWFlPic=

> <r_epik_Ionization_Penalty>
0.270748

> <r_epik_Ionization_Penalty_Charging>
0

> <r_epik_Ionization_Penalty_Neutral>
0.270748

> <r_epik_State_Penalty>
0.268258

> <r_epik_Charging_Adjusted_Penalty>
0.268258

> <i_epik_Tot_Q>
0

> <i_epik_Tot_abs_Q>
0

> <r_epik_Metal_State_Penalty>
0.264828

> <b_epik_Metal_Only>
0

> <s_lp_Force_Field>
OPLS_2005

> <r_lp_Energy>
31.3995

> <b_lp_Chiralities_Consistent>
1

> <s_lp_Variant>
AV-unprocessed.smi:2140-2

> <Gold.Version>
5.8.1

> <Gold.Id.Protein>
6NUR|6NUR_protein|mol2

> <Gold.PLP.Fitness>
45.1826

> <Gold.PLP.PLP>
-37.3825

> <Gold.PLP.part.hbond>
-3.0000

> <Gold.PLP.part.metal>
0.0000

> <Gold.PLP.part.buried>
-7.8196

> <Gold.PLP.part.nonpolar>
-27.4441

> <Gold.PLP.part.repulsive>
0.6450

> <Gold.PLP.ligand.clash>
0.0000

> <Gold.PLP.ligand.torsion>
0.0844

> <Gold.PLP.Chemscore.Hbond>
2.6480

> <Gold.PLP.Chemscore.CHOScore>
0.0000

> <Gold.PLP.Chemscore.Metal>
0.0000

> <Gold.Chemscore.Hbonds>
donor molecule, donor type, donor heavy atom, donor atom, acceptor molecule, acceptor atom, score
      L1  H     4    26       P1  8029  1.00
      L1  H     7    27       P1  8029  1.00
      P1  H  6933  6944       L1     6  0.66

> <Gold.PLP.Chemscore.Internal.Correction>
0.0248

> <Gold.Rescore>
     Score         DG    S(hbond)    S(metal)    S(lipo)     H(rot)  DE(clash)    DE(int)     intcor
     19.62     -20.94       2.64        0.00      89.10       1.47       0.01       1.31       ----

> <Gold.Chemscore.Fitness>
19.6219

> <Gold.Chemscore.DG>
-20.9431

> <Gold.Chemscore.ZeroCoef>
-5.4800

> <Gold.Chemscore.Hbond>
2.6366

> <Gold.Chemscore.Metal>
0.0000

> <Gold.Chemscore.Lipo>
89.1009

> <Gold.Chemscore.Internal_Hbond>
0.0000

> <Gold.Chemscore.DEClash>
0.0073

> <Gold.Chemscore.DEInternal>
1.3138

> <Gold.Chemscore.Rot>
1.4719

> <Gold.Chemscore.Internal.Correction>
   9.000000E+99

> <Gold.Chemscore.Hbonds>
donor molecule, donor type, donor heavy atom, donor atom, acceptor molecule, acceptor atom, score
      L1  H     4    26       P1  8029  0.78
      L1  H     7    27       P1  8029  0.95
      P1  H  6933  6944       L1     6  0.44

> <Gold.Chemscore.Hbond.Weighted>
-8.8063

> <Gold.Chemscore.Metal.Weighted>
-0.0000

> <Gold.Chemscore.Lipo.Weighted>
-10.4248

> <Gold.Chemscore.Internal_Hbond.Weighted>
0.0000

> <Gold.Chemscore.DEClash.Weighted>
0.0073

> <Gold.Chemscore.DEInternal.Weighted>
1.3138

> <Gold.Chemscore.Rot.Weighted>
3.7681

> <Gold.Chemscore.Internal.Correction.Weighted>
   9.000000E+99

> <Gold.Protein.RotatedTorsions>
[ 6907 6896 6895 6894 ] final  120.61 input  -60.11 | X-H torsion
[ 7974 7965 7964 7962 ] final   51.18 input  175.53 | X-H torsion
[ 8008 7997 7996 7995 ] final -162.87 input   59.86 | X-H torsion
[ 10167 10162 10161 10158 ] final  115.00 input  -65.29 | X-H torsion
[ 10718 10713 10712 10709 ] final  -42.65 input   66.30 | X-H torsion
[ 10763 10752 10751 10750 ] final  164.89 input  -60.55 | X-H torsion
[ 11005 11000 10999 10996 ] final  -11.15 input  -57.11 | X-H torsion

> <Gold.Protein.ActiveResidues>
 VAL166  LYS551  ARG553  GLY616  TRP617  ASP618  TYR619  PRO620  LYS621  CYS622 
 ASP623  PHE694  ASN695  SER759  ASP760  ASP761  ALA762  ILE779  LEU786  VAL792 
 PHE793  MET794  SER795  GLU796  ALA797  LYS798  CYS799  TRP800  GLU811  SER814 

> <Gold.Protein.RotatedAtoms>
  152.4385  133.7404  159.6637 H   0  0  0  0  0  0  0  0  0  0  0  0  # atno 6907 bound_to 6896
  150.8272  133.8142  159.3120 H   0  0  0  0  0  0  0  0  0  0  0  0  # atno 6908 bound_to 6896
  151.5806  135.1061  160.0068 H   0  0  0  0  0  0  0  0  0  0  0  0  # atno 6909 bound_to 6896
  145.9939  139.4368  143.0056 H   0  0  0  0  0  0  0  0  0  0  0  0  # atno 7974 bound_to 7965
  155.8130  140.0908  157.1893 H   0  0  0  0  0  0  0  0  0  0  0  0  # atno 8008 bound_to 7997
  154.3979  140.1451  156.3469 H   0  0  0  0  0  0  0  0  0  0  0  0  # atno 8009 bound_to 7997
  155.8345  140.3441  155.5595 H   0  0  0  0  0  0  0  0  0  0  0  0  # atno 8010 bound_to 7997
  139.6348  144.7119  151.2357 H   0  0  0  0  0  0  0  0  0  0  0  0  # atno 10167 bound_to 10162
  156.2573  130.4193  149.8582 H   0  0  0  0  0  0  0  0  0  0  0  0  # atno 10718 bound_to 10713
  154.3157  135.2756  155.2544 H   0  0  0  0  0  0  0  0  0  0  0  0  # atno 10763 bound_to 10752
  154.4919  135.5831  153.6469 H   0  0  0  0  0  0  0  0  0  0  0  0  # atno 10764 bound_to 10752
  152.9882  135.6137  154.3338 H   0  0  0  0  0  0  0  0  0  0  0  0  # atno 10765 bound_to 10752
  140.7522  133.8583  155.9054 H   0  0  0  0  0  0  0  0  0  0  0  0  # atno 11005 bound_to 11000
  145.7589  140.9943  143.1210 LP  0  0  0  0  0  0  0  0  0  0  0  0  # atno 17320 bound_to 7965
  144.6897  139.9306  143.7471 LP  0  0  0  0  0  0  0  0  0  0  0  0  # atno 17321 bound_to 7965
  140.7459  143.6415  150.8331 LP  0  0  0  0  0  0  0  0  0  0  0  0  # atno 17342 bound_to 10162
  140.0045  143.5709  152.2863 LP  0  0  0  0  0  0  0  0  0  0  0  0  # atno 17343 bound_to 10162
  156.6109  130.8586  151.3454 LP  0  0  0  0  0  0  0  0  0  0  0  0  # atno 17370 bound_to 10713
  157.7237  130.9593  150.1545 LP  0  0  0  0  0  0  0  0  0  0  0  0  # atno 17371 bound_to 10713
  140.9740  134.1493  157.4552 LP  0  0  0  0  0  0  0  0  0  0  0  0  # atno 17394 bound_to 11000
  139.8785  134.9988  156.5921 LP  0  0  0  0  0  0  0  0  0  0  0  0  # atno 17395 bound_to 11000

$$$$
