#       Name:                AV-unprocessed.smi:592
#       Creating user name   scv26
#       Creation time:       Thu Mar 26 23:51:55 2020


#       File generated by GOLD software.
#

@<TRIPOS>MOLECULE
AV-unprocessed.smi:592
    32    33     1
SMALL
NO_CHARGES


@<TRIPOS>ATOM
      1 ****        -1.9939   1.3135   0.1182 O.2            1 S1                 0.0000
      2 ****        -1.1955   0.3797   0.0548 C.2            1 S1                 0.0000
      3 ****         0.3226   0.6174  -0.0073 C.3            1 S1                 0.0000
      4 ****         0.6865   2.0445  -0.0579 N.am           1 S1                 0.0000
      5 ****         1.0235   2.6632   1.1628 C.2            1 S1                 0.0000
      6 ****         1.3724   3.9576   1.2309 C.2            1 S1                 0.0000
      7 ****         1.3980   4.7230   0.0070 C.2            1 S1                 0.0000
      8 ****         1.0724   4.1431  -1.1653 C.2            1 S1                 0.0000
      9 ****         0.6864   2.7294  -1.2437 C.2            1 S1                 0.0000
     10 ****         0.3797   2.1929  -2.3087 O.2            1 S1                 0.0000
     11 ****        -1.7294  -0.9607   0.0277 N.am           1 S1                 0.0000
     12 ****        -3.0039  -1.4241   0.0695 C.2            1 S1                 0.0000
     13 ****        -3.3251  -2.7256   0.0400 N.pl3          1 S1                 1.0000
     14 ****        -4.7444  -3.1105   0.0770 C.3            1 S1                 0.0000
     15 ****        -5.6095  -1.8426   0.1618 C.3            1 S1                 0.0000
     16 ****        -4.4912  -0.4276   0.1524 S.3            1 S1                 0.0000
     17 ****         0.7858   0.1603   0.8670 H              1 S1                 0.0000
     18 ****         0.7323   0.1123  -0.8825 H              1 S1                 0.0000
     19 ****         0.9746   2.0249   2.0331 H              1 S1                 0.0000
     20 ****         1.6240   4.4152   2.1763 H              1 S1                 0.0000
     21 ****         1.6787   5.7657   0.0316 H              1 S1                 0.0000
     22 ****         1.0961   4.7321  -2.0704 H              1 S1                 0.0000
     23 ****        -1.0808  -1.7304  -0.0525 H              1 S1                 0.0000
     24 ****        -4.9850  -3.6813  -0.8202 H              1 S1                 0.0000
     25 ****        -4.9221  -3.7588   0.9352 H              1 S1                 0.0000
     26 ****        -6.2936  -1.7755  -0.6844 H              1 S1                 0.0000
     27 ****        -6.2043  -1.8327   1.0756 H              1 S1                 0.0000
     28 ****        -2.6170  -3.4442  -0.0133 H              1 S1                 0.0000
     29 ****        -1.6607   2.2563   0.1304 LP             1 S1                 0.0000
     30 ****        -2.9760   1.1298   0.1575 LP             1 S1                 0.0000
     31 ****         0.1201   1.2274  -2.3256 LP             1 S1                 0.0000
     32 ****         0.3903   2.7228  -3.1568 LP             1 S1                 0.0000
@<TRIPOS>BOND
    1    1    2 2     
    2    2    3 1     
    3    2   11 am    
    4    3    4 1     
    5    3   17 1     
    6    3   18 1     
    7    4    9 am    
    8    4    5 1     
    9    5    6 2     
   10    5   19 1     
   11    6    7 1     
   12    6   20 1     
   13    7    8 2     
   14    7   21 1     
   15    8    9 1     
   16    8   22 1     
   17    9   10 2     
   18   11   12 1     
   19   11   23 1     
   20   12   16 1     
   21   12   13 2     
   22   13   14 1     
   23   13   28 1     
   24   14   15 1     
   25   14   24 1     
   26   14   25 1     
   27   15   16 1     
   28   15   26 1     
   29   15   27 1     
   30    1   29 1     
   31    1   30 1     
   32   10   31 1     
   33   10   32 1     
@<TRIPOS>SUBSTRUCTURE
      1 S1             1
@<TRIPOS>SET
LONE_PAIRS      STATIC     ATOMS    <user>   **** ""
4 29 30 31 32
DONOR_HYDROGENS      STATIC     ATOMS    <user>   **** ""
2 23 28
ATOM$BLUE        STATIC     ATOMS    COLORGROUP SYSTEM
4 29 30 31 32
ATOM$RED        STATIC     ATOMS    COLORGROUP SYSTEM
2 23 28
