AV-unprocessed.smi:613|AV-procd|sdf|3066|dock10
  -GOLD-   2262023593D 1   1.00000     0.00000
 Structure written by MMmdl.
 39 40  0  0  0  0  0  0  0  0  2 V2000
  151.0515  142.9023  157.2735 C   0  0  0  0  0  0  0  0  0  0  0  0
  151.6700  141.7293  157.8799 N   0  0  0  0  0  0  0  0  0  0  0  0
  151.9295  140.5606  157.0381 C   0  0  0  0  0  0  0  0  0  0  0  0
  150.6458  139.9771  156.4197 C   0  0  2  0  0  0  0  0  0  0  0  0
  150.6383  138.4359  156.4690 C   0  0  0  0  0  0  0  0  0  0  0  0
  149.4555  137.8729  155.8110 N   0  0  0  0  0  0  0  0  0  0  0  0
  149.3903  136.4058  155.8487 C   0  0  0  0  0  0  0  0  0  0  0  0
  150.5351  135.6978  155.1124 C   0  0  0  0  0  0  0  0  0  0  0  0
  150.2012  134.7430  154.2407 N   0  0  0  0  0  0  0  0  0  0  0  0
  151.7046  136.0123  155.3244 O   0  0  0  0  0  0  0  0  0  0  0  0
  149.3667  138.3785  154.4445 C   0  0  0  0  0  0  0  0  0  0  0  0
  149.3939  139.9149  154.4000 C   0  0  0  0  0  0  0  0  0  0  0  0
  150.5653  140.3860  155.0565 O   0  0  0  0  0  0  0  0  0  0  0  0
  152.3159  141.8697  159.1308 C   0  0  0  0  0  0  0  0  0  0  0  0
  152.0289  142.9262  160.0299 C   0  0  0  0  0  0  0  0  0  0  0  0
  152.7232  142.9865  161.2499 C   0  0  0  0  0  0  0  0  0  0  0  0
  153.6701  141.9819  161.5098 C   0  0  0  0  0  0  0  0  0  0  0  0
  153.9341  140.9760  160.6485 N   0  0  0  0  0  0  0  0  0  0  0  0
  153.2513  140.9484  159.4913 N   0  3  0  0  0  0  0  0  0  0  0  0
  150.2208  143.2580  157.8836 H   0  0  0  0  0  0  0  0  0  0  0  0
  150.6589  142.6693  156.2833 H   0  0  0  0  0  0  0  0  0  0  0  0
  151.7772  143.7086  157.1621 H   0  0  0  0  0  0  0  0  0  0  0  0
  152.6680  140.7755  156.2655 H   0  0  0  0  0  0  0  0  0  0  0  0
  152.3921  139.8033  157.6722 H   0  0  0  0  0  0  0  0  0  0  0  0
  149.7758  140.3528  156.9620 H   0  0  0  0  0  0  0  0  0  0  0  0
  151.5429  138.0492  155.9962 H   0  0  0  0  0  0  0  0  0  0  0  0
  150.6799  138.1294  157.5143 H   0  0  0  0  0  0  0  0  0  0  0  0
  149.4209  136.0653  156.8847 H   0  0  0  0  0  0  0  0  0  0  0  0
  148.4336  136.0680  155.4453 H   0  0  0  0  0  0  0  0  0  0  0  0
  150.9193  134.2521  153.7283 H   0  0  0  0  0  0  0  0  0  0  0  0
  149.2276  134.5186  154.0935 H   0  0  0  0  0  0  0  0  0  0  0  0
  150.1924  137.9870  153.8477 H   0  0  0  0  0  0  0  0  0  0  0  0
  148.4486  138.0246  153.9739 H   0  0  0  0  0  0  0  0  0  0  0  0
  149.3987  140.2652  153.3676 H   0  0  0  0  0  0  0  0  0  0  0  0
  148.5065  140.3335  154.8772 H   0  0  0  0  0  0  0  0  0  0  0  0
  151.2951  143.6859  159.8063 H   0  0  0  0  0  0  0  0  0  0  0  0
  152.5366  143.7763  161.9625 H   0  0  0  0  0  0  0  0  0  0  0  0
  154.2314  141.9830  162.4327 H   0  0  0  0  0  0  0  0  0  0  0  0
  153.4519  140.1935  158.8348 H   0  0  0  0  0  0  0  0  0  0  0  0
  1  2  1  0  0  0  0
  1 20  1  0  0  0  0
  1 21  1  0  0  0  0
  1 22  1  0  0  0  0
  2  3  1  0  0  0  0
  2 14  1  0  0  0  0
  3  4  1  0  0  0  0
  3 23  1  0  0  0  0
  3 24  1  0  0  0  0
  4 13  1  0  0  0  0
  4  5  1  0  0  0  0
  4 25  1  0  0  0  0
  5  6  1  0  0  0  0
  5 26  1  0  0  0  0
  5 27  1  0  0  0  0
  6  7  1  0  0  0  0
  6 11  1  0  0  0  0
  7  8  1  0  0  0  0
  7 28  1  0  0  0  0
  7 29  1  0  0  0  0
  8  9  1  0  0  0  0
  8 10  2  0  0  0  0
  9 30  1  0  0  0  0
  9 31  1  0  0  0  0
 11 12  1  0  0  0  0
 11 32  1  0  0  0  0
 11 33  1  0  0  0  0
 12 13  1  0  0  0  0
 12 34  1  0  0  0  0
 12 35  1  0  0  0  0
 14 19  1  0  0  0  0
 14 15  2  0  0  0  0
 15 16  1  0  0  0  0
 15 36  1  0  0  0  0
 16 17  2  0  0  0  0
 16 37  1  0  0  0  0
 17 18  1  0  0  0  0
 17 38  1  0  0  0  0
 18 19  2  0  0  0  0
 19 39  1  0  0  0  0
M  CHG  1  19   1
M  END
> <s_m_source_file>
AV-unprocessed.smi

> <i_m_source_file_index>
613

> <i_lp_mmshare_version>
43012

> <i_f3d_flags>
0

> <s_epik_input>
bjFuW2NIXVtjSF1bY0hdYzFOKFtDSDNdKVtDSDJdW0NAQEhdMltDSDJdTihbQ0gyXVtDSDJdTzIpW0NIMl1DKD1PKVtOSDJd

> <s_epik_cmdline>
J2VwaWtfcHl0aG9uJywgJy1waCcsICc3LjAnLCAnLXRuJywgJzgnLCAnLW1hJywgJzIwMCcsICctbWV0YWxfYmluZGluZycsICctaW1hZScsICc8aW5maWxlLm1hZT4nLCAnLW9tYWUnLCAnPG91dGZpbGUubWFlPic=

> <r_lp_tautomer_probability>
0.966961

> <r_epik_Ionization_Penalty>
1.86301

> <r_epik_Ionization_Penalty_Charging>
1.86058

> <r_epik_Ionization_Penalty_Neutral>
0.00243207

> <r_epik_State_Penalty>
1.48112

> <r_epik_Charging_Adjusted_Penalty>
3.3417

> <i_epik_Tot_Q>
1

> <i_epik_Tot_abs_Q>
1

> <r_epik_Metal_State_Penalty>
1.50193

> <b_epik_Metal_Only>
0

> <s_lp_Force_Field>
OPLS_2005

> <r_lp_Energy>
27.1625

> <b_lp_Chiralities_Consistent>
1

> <s_lp_Variant>
AV-unprocessed.smi:613-3

> <Gold.Version>
5.8.1

> <Gold.Id.Protein>
6NUR|6NUR_protein|mol2

> <Gold.PLP.Fitness>
36.3950

> <Gold.PLP.PLP>
-32.1549

> <Gold.PLP.part.hbond>
-3.0000

> <Gold.PLP.part.metal>
0.0000

> <Gold.PLP.part.buried>
-5.6004

> <Gold.PLP.part.nonpolar>
-24.1844

> <Gold.PLP.part.repulsive>
0.3276

> <Gold.PLP.ligand.clash>
0.0000

> <Gold.PLP.ligand.torsion>
0.9139

> <Gold.PLP.Chemscore.Hbond>
1.9500

> <Gold.PLP.Chemscore.CHOScore>
0.0000

> <Gold.PLP.Chemscore.Metal>
0.0000

> <Gold.Chemscore.Hbonds>
donor molecule, donor type, donor heavy atom, donor atom, acceptor molecule, acceptor atom, score
      P1  H  7989  7998       L1    13  1.00
      P1  H 10752 10765       L1    10  0.83

> <Gold.PLP.Chemscore.Internal.Correction>
0.2178

> <Gold.Rescore>
     Score         DG    S(hbond)    S(metal)    S(lipo)     H(rot)  DE(clash)    DE(int)     intcor
     11.04     -13.65       1.63        0.00      72.11       2.23       0.30       2.32       ----

> <Gold.Chemscore.Fitness>
11.0372

> <Gold.Chemscore.DG>
-13.6510

> <Gold.Chemscore.ZeroCoef>
-5.4800

> <Gold.Chemscore.Hbond>
1.6334

> <Gold.Chemscore.Metal>
0.0000

> <Gold.Chemscore.Lipo>
72.1067

> <Gold.Chemscore.Internal_Hbond>
0.0000

> <Gold.Chemscore.DEClash>
0.2959

> <Gold.Chemscore.DEInternal>
2.3179

> <Gold.Chemscore.Rot>
2.2348

> <Gold.Chemscore.Internal.Correction>
   9.000000E+99

> <Gold.Chemscore.Hbonds>
donor molecule, donor type, donor heavy atom, donor atom, acceptor molecule, acceptor atom, score
      P1  H  7989  7998       L1    13  0.25
      P1  H 10752 10765       L1    10  0.82

> <Gold.Chemscore.Hbond.Weighted>
-5.4557

> <Gold.Chemscore.Metal.Weighted>
-0.0000

> <Gold.Chemscore.Lipo.Weighted>
-8.4365

> <Gold.Chemscore.Internal_Hbond.Weighted>
0.0000

> <Gold.Chemscore.DEClash.Weighted>
0.2959

> <Gold.Chemscore.DEInternal.Weighted>
2.3179

> <Gold.Chemscore.Rot.Weighted>
5.7211

> <Gold.Chemscore.Internal.Correction.Weighted>
   9.000000E+99

> <Gold.Protein.RotatedTorsions>
[ 6907 6896 6895 6894 ] final -150.01 input  -60.11 | X-H torsion
[ 7974 7965 7964 7962 ] final  140.52 input  175.53 | X-H torsion
[ 8008 7997 7996 7995 ] final   65.63 input   59.86 | X-H torsion
[ 10167 10162 10161 10158 ] final  147.28 input  -65.29 | X-H torsion
[ 10718 10713 10712 10709 ] final  -85.01 input   66.30 | X-H torsion
[ 10763 10752 10751 10750 ] final -171.80 input  -60.55 | X-H torsion
[ 11005 11000 10999 10996 ] final  -14.27 input  -57.11 | X-H torsion

> <Gold.Protein.ActiveResidues>
 VAL166  LYS551  ARG553  GLY616  TRP617  ASP618  TYR619  PRO620  LYS621  CYS622 
 ASP623  PHE694  ASN695  SER759  ASP760  ASP761  ALA762  ILE779  LEU786  VAL792 
 PHE793  MET794  SER795  GLU796  ALA797  LYS798  CYS799  TRP800  GLU811  SER814 

> <Gold.Protein.RotatedAtoms>
  151.1924  133.4659  159.2594 H   0  0  0  0  0  0  0  0  0  0  0  0  # atno 6907 bound_to 6896
  151.1150  135.0048  159.8522 H   0  0  0  0  0  0  0  0  0  0  0  0  # atno 6908 bound_to 6896
  152.5453  134.1840  159.8700 H   0  0  0  0  0  0  0  0  0  0  0  0  # atno 6909 bound_to 6896
  144.9179  139.5206  143.5677 H   0  0  0  0  0  0  0  0  0  0  0  0  # atno 7974 bound_to 7965
  155.6648  140.3497  155.4796 H   0  0  0  0  0  0  0  0  0  0  0  0  # atno 8008 bound_to 7997
  155.9738  140.1161  157.0811 H   0  0  0  0  0  0  0  0  0  0  0  0  # atno 8009 bound_to 7997
  154.4173  140.1152  156.5328 H   0  0  0  0  0  0  0  0  0  0  0  0  # atno 8010 bound_to 7997
  139.4892  144.5767  151.6952 H   0  0  0  0  0  0  0  0  0  0  0  0  # atno 10167 bound_to 10162
  156.0000  130.4717  150.4497 H   0  0  0  0  0  0  0  0  0  0  0  0  # atno 10718 bound_to 10713
  154.6265  135.2881  155.0266 H   0  0  0  0  0  0  0  0  0  0  0  0  # atno 10763 bound_to 10752
  154.1442  135.6513  153.4953 H   0  0  0  0  0  0  0  0  0  0  0  0  # atno 10764 bound_to 10752
  153.0259  135.5340  154.7075 H   0  0  0  0  0  0  0  0  0  0  0  0  # atno 10765 bound_to 10752
  140.7847  133.8335  155.9324 H   0  0  0  0  0  0  0  0  0  0  0  0  # atno 11005 bound_to 11000
  146.3191  139.8036  142.8960 LP  0  0  0  0  0  0  0  0  0  0  0  0  # atno 17320 bound_to 7965
  145.3345  141.0274  143.3427 LP  0  0  0  0  0  0  0  0  0  0  0  0  # atno 17321 bound_to 7965
  140.5364  144.0648  150.6072 LP  0  0  0  0  0  0  0  0  0  0  0  0  # atno 17342 bound_to 10162
  140.3656  143.2883  152.0335 LP  0  0  0  0  0  0  0  0  0  0  0  0  # atno 17343 bound_to 10162
  157.2531  131.0551  151.2367 LP  0  0  0  0  0  0  0  0  0  0  0  0  # atno 17370 bound_to 10713
  157.3508  130.7081  149.6440 LP  0  0  0  0  0  0  0  0  0  0  0  0  # atno 17371 bound_to 10713
  140.9448  134.1855  157.4771 LP  0  0  0  0  0  0  0  0  0  0  0  0  # atno 17394 bound_to 11000
  139.8738  134.9886  156.5419 LP  0  0  0  0  0  0  0  0  0  0  0  0  # atno 17395 bound_to 11000

$$$$
