AV-unprocessed.smi:3260|AV-procd|sdf|12476|dock10
  -GOLD-   2272018373D 1   1.00000     0.00000
 Structure written by MMmdl.
 38 39  0  0  0  0  0  0  0  0  1 V2000
  143.0030  144.2465  156.6735 C   0  0  0  0  0  0  0  0  0  0  0  0
  144.2188  143.6495  156.1638 N   0  0  0  0  0  0  0  0  0  0  0  0
  144.5936  143.4486  154.8534 C   0  0  0  0  0  0  0  0  0  0  0  0
  145.8172  142.8399  154.8647 C   0  0  0  0  0  0  0  0  0  0  0  0
  146.6485  142.3875  153.6917 C   0  0  0  0  0  0  0  0  0  0  0  0
  147.8419  141.4965  154.1000 C   0  0  0  0  0  0  0  0  0  0  0  0
  148.7835  142.1607  154.9979 N   0  0  0  0  0  0  0  0  0  0  0  0
  149.8914  141.6061  155.5076 C   0  0  0  0  0  0  0  0  0  0  0  0
  150.2920  140.4765  155.2267 O   0  0  0  0  0  0  0  0  0  0  0  0
  150.4824  142.4138  156.3980 N   0  0  0  0  0  0  0  0  0  0  0  0
  151.6067  142.0350  157.2459 C   0  0  0  0  0  0  0  0  0  0  0  0
  151.8138  143.0418  158.3916 C   0  0  2  0  0  0  0  0  0  0  0  0
  150.5244  143.5550  159.0305 C   0  0  0  0  0  0  0  0  0  0  0  0
  151.0030  144.8336  159.6784 C   0  0  0  0  0  0  0  0  0  0  0  0
  152.0154  145.3527  158.6579 C   0  0  0  0  0  0  0  0  0  0  0  0
  152.4614  144.2171  157.9182 O   0  0  0  0  0  0  0  0  0  0  0  0
  146.1131  142.7192  156.2522 C   0  0  0  0  0  0  0  0  0  0  0  0
  145.1540  143.2011  157.0264 N   0  0  0  0  0  0  0  0  0  0  0  0
  142.4376  144.6966  155.8572 H   0  0  0  0  0  0  0  0  0  0  0  0
  143.2456  145.0188  157.4040 H   0  0  0  0  0  0  0  0  0  0  0  0
  142.3898  143.4810  157.1498 H   0  0  0  0  0  0  0  0  0  0  0  0
  143.9607  143.7404  154.0281 H   0  0  0  0  0  0  0  0  0  0  0  0
  146.0264  141.8387  152.9837 H   0  0  0  0  0  0  0  0  0  0  0  0
  147.0241  143.2455  153.1335 H   0  0  0  0  0  0  0  0  0  0  0  0
  147.4905  140.5640  154.5438 H   0  0  0  0  0  0  0  0  0  0  0  0
  148.4024  141.2209  153.2062 H   0  0  0  0  0  0  0  0  0  0  0  0
  148.5408  143.0936  155.2974 H   0  0  0  0  0  0  0  0  0  0  0  0
  150.0798  143.3258  156.5560 H   0  0  0  0  0  0  0  0  0  0  0  0
  151.4563  141.0308  157.6452 H   0  0  0  0  0  0  0  0  0  0  0  0
  152.5008  141.9903  156.6238 H   0  0  0  0  0  0  0  0  0  0  0  0
  152.4478  142.6060  159.1659 H   0  0  0  0  0  0  0  0  0  0  0  0
  149.7780  143.7779  158.2669 H   0  0  0  0  0  0  0  0  0  0  0  0
  150.0899  142.8514  159.7402 H   0  0  0  0  0  0  0  0  0  0  0  0
  150.1979  145.5404  159.8805 H   0  0  0  0  0  0  0  0  0  0  0  0
  151.5029  144.6065  160.6211 H   0  0  0  0  0  0  0  0  0  0  0  0
  151.5424  146.0515  157.9669 H   0  0  0  0  0  0  0  0  0  0  0  0
  152.8507  145.8642  159.1366 H   0  0  0  0  0  0  0  0  0  0  0  0
  146.9887  142.2899  156.7165 H   0  0  0  0  0  0  0  0  0  0  0  0
  1  2  1  0  0  0  0
  1 19  1  0  0  0  0
  1 20  1  0  0  0  0
  1 21  1  0  0  0  0
  2 18  1  0  0  0  0
  2  3  1  0  0  0  0
  3  4  2  0  0  0  0
  3 22  1  0  0  0  0
  4  5  1  0  0  0  0
  4 17  1  0  0  0  0
  5  6  1  0  0  0  0
  5 23  1  0  0  0  0
  5 24  1  0  0  0  0
  6  7  1  0  0  0  0
  6 25  1  0  0  0  0
  6 26  1  0  0  0  0
  7  8  1  0  0  0  0
  7 27  1  0  0  0  0
  8  9  2  0  0  0  0
  8 10  1  0  0  0  0
 10 11  1  0  0  0  0
 10 28  1  0  0  0  0
 11 12  1  0  0  0  0
 11 29  1  0  0  0  0
 11 30  1  0  0  0  0
 12 16  1  0  0  0  0
 12 13  1  0  0  0  0
 12 31  1  0  0  0  0
 13 14  1  0  0  0  0
 13 32  1  0  0  0  0
 13 33  1  0  0  0  0
 14 15  1  0  0  0  0
 14 34  1  0  0  0  0
 14 35  1  0  0  0  0
 15 16  1  0  0  0  0
 15 36  1  0  0  0  0
 15 37  1  0  0  0  0
 17 18  2  0  0  0  0
 17 38  1  0  0  0  0
M  END
> <s_m_source_file>
AV-unprocessed.smi

> <i_m_source_file_index>
3260

> <i_lp_mmshare_version>
43012

> <i_f3d_flags>
0

> <s_epik_input>
W0NIM11uMVtjSF1jKFtjSF1uMSlbQ0gyXVtDSDJdW05IXUMoPU8pW05IXVtDSDJdW0NAQEhdMltDSDJdW0NIMl1bQ0gyXU8y

> <s_epik_cmdline>
J2VwaWtfcHl0aG9uJywgJy1waCcsICc3LjAnLCAnLXRuJywgJzgnLCAnLW1hJywgJzIwMCcsICctbWV0YWxfYmluZGluZycsICctaW1hZScsICc8aW5maWxlLm1hZT4nLCAnLW9tYWUnLCAnPG91dGZpbGUubWFlPic=

> <r_lp_tautomer_probability>
1

> <r_epik_Ionization_Penalty>
0.000550106

> <r_epik_Ionization_Penalty_Charging>
0

> <r_epik_Ionization_Penalty_Neutral>
0.000550106

> <r_epik_State_Penalty>
-0

> <r_epik_Charging_Adjusted_Penalty>
0

> <i_epik_Tot_Q>
0

> <i_epik_Tot_abs_Q>
0

> <r_epik_Metal_State_Penalty>
-0

> <b_epik_Metal_Only>
0

> <s_lp_Force_Field>
OPLS_2005

> <r_lp_Energy>
10.4749

> <b_lp_Chiralities_Consistent>
1

> <s_lp_Variant>
AV-unprocessed.smi:3260-1

> <Gold.Version>
5.8.1

> <Gold.Id.Protein>
6NUR|6NUR_protein|mol2

> <Gold.PLP.Fitness>
43.8740

> <Gold.PLP.PLP>
-33.2205

> <Gold.PLP.part.hbond>
-3.0000

> <Gold.PLP.part.metal>
0.0000

> <Gold.PLP.part.buried>
-7.1452

> <Gold.PLP.part.nonpolar>
-22.5868

> <Gold.PLP.part.repulsive>
0.5295

> <Gold.PLP.ligand.clash>
0.0000

> <Gold.PLP.ligand.torsion>
0.3677

> <Gold.PLP.Chemscore.Hbond>
2.7836

> <Gold.PLP.Chemscore.CHOScore>
1.0000

> <Gold.PLP.Chemscore.Metal>
0.0000

> <Gold.Chemscore.Hbonds>
donor molecule, donor type, donor heavy atom, donor atom, acceptor molecule, acceptor atom, score
      L1  H     7    27       P1  8028  1.00
      L1  H    10    28       P1  8028  0.81
      P1  H  7989  7998       L1     9  0.53
      L1  C     3    22       P1 10174  0.81

> <Gold.PLP.Chemscore.Internal.Correction>
0.0381

> <Gold.Rescore>
     Score         DG    S(hbond)    S(metal)    S(lipo)     H(rot)  DE(clash)    DE(int)     intcor
     15.83     -17.84       2.28        0.00      81.20       1.85       1.78       0.23       ----

> <Gold.Chemscore.Fitness>
15.8260

> <Gold.Chemscore.DG>
-17.8379

> <Gold.Chemscore.ZeroCoef>
-5.4800

> <Gold.Chemscore.Hbond>
2.2756

> <Gold.Chemscore.Metal>
0.0000

> <Gold.Chemscore.Lipo>
81.2025

> <Gold.Chemscore.Internal_Hbond>
0.0000

> <Gold.Chemscore.DEClash>
1.7774

> <Gold.Chemscore.DEInternal>
0.2345

> <Gold.Chemscore.Rot>
1.8528

> <Gold.Chemscore.Internal.Correction>
   9.000000E+99

> <Gold.Chemscore.Hbonds>
donor molecule, donor type, donor heavy atom, donor atom, acceptor molecule, acceptor atom, score
      L1  H     7    27       P1  8028  0.98
      L1  H    10    28       P1  8028  0.77
      P1  H  7989  7998       L1     9  0.18

> <Gold.Chemscore.Hbond.Weighted>
-7.6005

> <Gold.Chemscore.Metal.Weighted>
-0.0000

> <Gold.Chemscore.Lipo.Weighted>
-9.5007

> <Gold.Chemscore.Internal_Hbond.Weighted>
0.0000

> <Gold.Chemscore.DEClash.Weighted>
1.7774

> <Gold.Chemscore.DEInternal.Weighted>
0.2345

> <Gold.Chemscore.Rot.Weighted>
4.7433

> <Gold.Chemscore.Internal.Correction.Weighted>
   9.000000E+99

> <Gold.Protein.RotatedTorsions>
[ 6907 6896 6895 6894 ] final  -52.33 input  -60.11 | X-H torsion
[ 7974 7965 7964 7962 ] final  -37.87 input  175.53 | X-H torsion
[ 8008 7997 7996 7995 ] final  -60.36 input   59.86 | X-H torsion
[ 10167 10162 10161 10158 ] final   44.27 input  -65.29 | X-H torsion
[ 10718 10713 10712 10709 ] final -172.65 input   66.30 | X-H torsion
[ 10763 10752 10751 10750 ] final  -94.13 input  -60.55 | X-H torsion
[ 11005 11000 10999 10996 ] final  161.46 input  -57.11 | X-H torsion

> <Gold.Protein.ActiveResidues>
 VAL166  LYS551  ARG553  GLY616  TRP617  ASP618  TYR619  PRO620  LYS621  CYS622 
 ASP623  PHE694  ASN695  SER759  ASP760  ASP761  ALA762  ILE779  LEU786  VAL792 
 PHE793  MET794  SER795  GLU796  ALA797  LYS798  CYS799  TRP800  GLU811  SER814 

> <Gold.Protein.RotatedAtoms>
  150.8528  134.7857  159.7021 H   0  0  0  0  0  0  0  0  0  0  0  0  # atno 6907 bound_to 6896
  152.4588  134.5228  159.9797 H   0  0  0  0  0  0  0  0  0  0  0  0  # atno 6908 bound_to 6896
  151.5346  133.3405  159.2960 H   0  0  0  0  0  0  0  0  0  0  0  0  # atno 6909 bound_to 6896
  146.0537  140.6446  142.9030 H   0  0  0  0  0  0  0  0  0  0  0  0  # atno 7974 bound_to 7965
  154.4395  140.1041  156.6262 H   0  0  0  0  0  0  0  0  0  0  0  0  # atno 8008 bound_to 7997
  155.5654  140.3488  155.4483 H   0  0  0  0  0  0  0  0  0  0  0  0  # atno 8009 bound_to 7997
  156.0429  140.1286  157.0125 H   0  0  0  0  0  0  0  0  0  0  0  0  # atno 8010 bound_to 7997
  140.3360  144.2530  150.6161 H   0  0  0  0  0  0  0  0  0  0  0  0  # atno 10167 bound_to 10162
  156.7586  130.9405  151.3117 H   0  0  0  0  0  0  0  0  0  0  0  0  # atno 10718 bound_to 10713
  154.7026  135.5169  153.8548 H   0  0  0  0  0  0  0  0  0  0  0  0  # atno 10763 bound_to 10752
  153.0715  135.6603  154.0245 H   0  0  0  0  0  0  0  0  0  0  0  0  # atno 10764 bound_to 10752
  154.0102  135.3003  155.3373 H   0  0  0  0  0  0  0  0  0  0  0  0  # atno 10765 bound_to 10752
  140.2160  134.8232  157.3170 H   0  0  0  0  0  0  0  0  0  0  0  0  # atno 11005 bound_to 11000
  144.7136  140.4129  143.7061 LP  0  0  0  0  0  0  0  0  0  0  0  0  # atno 17320 bound_to 7965
  145.6681  139.1594  143.2770 LP  0  0  0  0  0  0  0  0  0  0  0  0  # atno 17321 bound_to 7965
  140.5353  143.2234  151.8172 LP  0  0  0  0  0  0  0  0  0  0  0  0  # atno 17342 bound_to 10162
  139.4848  144.4668  151.9473 LP  0  0  0  0  0  0  0  0  0  0  0  0  # atno 17343 bound_to 10162
  157.6745  130.9081  150.0117 LP  0  0  0  0  0  0  0  0  0  0  0  0  # atno 17370 bound_to 10713
  156.1354  130.3643  149.9666 LP  0  0  0  0  0  0  0  0  0  0  0  0  # atno 17371 bound_to 10713
  140.1900  134.4383  155.7721 LP  0  0  0  0  0  0  0  0  0  0  0  0  # atno 17394 bound_to 11000
  141.2225  133.7023  156.8011 LP  0  0  0  0  0  0  0  0  0  0  0  0  # atno 17395 bound_to 11000

$$$$
