#       Name:                AV-unprocessed.smi:1897
#       Creating user name   scv26
#       Creation time:       Fri Mar 27 09:43:20 2020


#       File generated by GOLD software.
#

@<TRIPOS>MOLECULE
AV-unprocessed.smi:1897
    43    45     1
SMALL
NO_CHARGES


@<TRIPOS>ATOM
      1 ****        -4.0259   3.8666   0.3449 C.3            1 S1                 0.0000
      2 ****        -2.6359   3.8065  -0.1892 C.2            1 S1                 0.0000
      3 ****        -2.3659   3.7636  -1.4960 N.2            1 S1                 0.0000
      4 ****        -1.0024   3.7179  -1.7469 N.2            1 S1                 0.0000
      5 ****        -0.2619   3.7133  -0.6295 C.2            1 S1                 0.0000
      6 ****         1.0833   3.6666  -0.6544 N.pl3          1 S1                -1.0000
      7 ****         1.7777   2.5024  -0.5682 C.2            1 S1                 0.0000
      8 ****         3.0062   2.4429  -0.5916 O.2            1 S1                 0.0000
      9 ****         1.0745   1.3606  -0.4514 N.am           1 S1                 0.0000
     10 ****         1.6350   0.0197  -0.3424 C.3            1 S1                 0.0000
     11 ****         2.0921  -0.5770  -1.6871 C.3            1 S1                 0.0000
     12 ****         1.6885  -2.0635  -1.6310 C.3            1 S1                 0.0000
     13 ****         1.1606  -2.2715  -0.2691 N.4            1 S1                 1.0000
     14 ****         0.2279  -3.4019  -0.0700 C.3            1 S1                 0.0000
     15 ****        -0.1431  -3.4968   1.4239 C.3            1 S1                 0.0000
     16 ****        -0.6768  -2.1553   1.9681 C.3            1 S1                 0.0000
     17 ****         0.2910  -0.9997   1.6474 C.3            1 S1                 0.0000
     18 ****         0.5874  -0.9810   0.1391 C.3            1 S1                 0.0000
     19 ****        -1.2205   3.7802   0.8491 S.3            1 S1                 0.0000
     20 ****        -4.4619   2.8677   0.3618 H              1 S1                 0.0000
     21 ****        -4.6443   4.5104  -0.2814 H              1 S1                 0.0000
     22 ****        -4.0244   4.2664   1.3590 H              1 S1                 0.0000
     23 ****         0.0680   1.4376  -0.4397 H              1 S1                 0.0000
     24 ****         2.4735   0.0197   0.3572 H              1 S1                 0.0000
     25 ****         1.5975  -0.0902  -2.5290 H              1 S1                 0.0000
     26 ****         3.1669  -0.4526  -1.8227 H              1 S1                 0.0000
     27 ****         0.9110  -2.2672  -2.3689 H              1 S1                 0.0000
     28 ****         2.5275  -2.7310  -1.8289 H              1 S1                 0.0000
     29 ****        -0.6667  -3.2575  -0.6777 H              1 S1                 0.0000
     30 ****         0.6987  -4.3279  -0.4013 H              1 S1                 0.0000
     31 ****        -0.8827  -4.2833   1.5766 H              1 S1                 0.0000
     32 ****         0.7387  -3.7899   1.9952 H              1 S1                 0.0000
     33 ****        -1.6507  -1.9463   1.5235 H              1 S1                 0.0000
     34 ****        -0.8365  -2.2237   3.0446 H              1 S1                 0.0000
     35 ****        -0.1416  -0.0485   1.9595 H              1 S1                 0.0000
     36 ****         1.2166  -1.1238   2.2113 H              1 S1                 0.0000
     37 ****        -0.3426  -0.8231  -0.4132 H              1 S1                 0.0000
     38 ****         1.9599  -2.4288   0.3278 H              1 S1                 0.0000
     39 ****        -3.0652   3.7643  -2.2108 LP             1 S1                 0.0000
     40 ****        -0.6118   3.6911  -2.6671 LP             1 S1                 0.0000
     41 ****         1.5918   4.5234  -0.7398 LP             1 S1                 0.0000
     42 ****         3.5458   3.2804  -0.6778 LP             1 S1                 0.0000
     43 ****         3.4653   1.5570  -0.5244 LP             1 S1                 0.0000
@<TRIPOS>BOND
    1    1    2 1     
    2    1   20 1     
    3    1   21 1     
    4    1   22 1     
    5    2   19 1     
    6    2    3 2     
    7    3    4 1     
    8    4    5 2     
    9    5    6 1     
   10    5   19 1     
   11    6    7 1     
   12    7    8 2     
   13    7    9 am    
   14    9   10 1     
   15    9   23 1     
   16   10   18 1     
   17   10   11 1     
   18   10   24 1     
   19   11   12 1     
   20   11   25 1     
   21   11   26 1     
   22   12   13 1     
   23   12   27 1     
   24   12   28 1     
   25   13   18 1     
   26   13   14 1     
   27   13   38 1     
   28   14   15 1     
   29   14   29 1     
   30   14   30 1     
   31   15   16 1     
   32   15   31 1     
   33   15   32 1     
   34   16   17 1     
   35   16   33 1     
   36   16   34 1     
   37   17   18 1     
   38   17   35 1     
   39   17   36 1     
   40   18   37 1     
   41    3   39 1     
   42    4   40 1     
   43    6   41 1     
   44    8   42 1     
   45    8   43 1     
@<TRIPOS>SUBSTRUCTURE
      1 S1             1
@<TRIPOS>SET
LONE_PAIRS      STATIC     ATOMS    <user>   **** ""
5 39 40 41 42 43
DONOR_HYDROGENS      STATIC     ATOMS    <user>   **** ""
2 23 38
ATOM$BLUE        STATIC     ATOMS    COLORGROUP SYSTEM
5 39 40 41 42 43
ATOM$RED        STATIC     ATOMS    COLORGROUP SYSTEM
2 23 38
