AV-unprocessed.smi:3307|AV-procd|sdf|12707|dock8
  -GOLD-   2272019 43D 1   1.00000     0.00000
 Structure written by MMmdl.
 31 32  0  0  0  0  0  0  0  0  2 V2000
  153.8139  141.0477  160.9032 C   0  0  0  0  0  0  0  0  0  0  0  0
  153.0466  142.1818  160.2902 C   0  0  0  0  0  0  0  0  0  0  0  0
  152.7386  143.4484  160.8606 C   0  0  0  0  0  0  0  0  0  0  0  0
  152.0286  144.0934  159.8876 C   0  0  0  0  0  0  0  0  0  0  0  0
  151.4238  145.4588  159.8832 C   0  0  0  0  0  0  0  0  0  0  0  0
  151.9425  143.2265  158.8130 N   0  0  0  0  0  0  0  0  0  0  0  0
  151.3014  143.4244  157.5230 C   0  0  0  0  0  0  0  0  0  0  0  0
  150.7966  142.1054  156.9088 C   0  0  1  0  0  0  0  0  0  0  0  0
  149.8075  141.3174  157.7743 C   0  0  0  0  0  0  0  0  0  0  0  0
  149.0676  140.4658  156.7502 C   0  0  0  0  0  0  0  0  0  0  0  0
  148.9678  141.3869  155.5321 C   0  0  0  0  0  0  0  0  0  0  0  0
  150.1040  142.3265  155.6237 N   0  3  0  0  0  0  0  0  0  0  0  0
  152.5663  142.0555  159.0643 N   0  0  0  0  0  0  0  0  0  0  0  0
  154.1235  141.2856  161.9209 H   0  0  0  0  0  0  0  0  0  0  0  0
  154.7123  140.8246  160.3274 H   0  0  0  0  0  0  0  0  0  0  0  0
  153.2093  140.1413  160.9446 H   0  0  0  0  0  0  0  0  0  0  0  0
  152.9996  143.8261  161.8383 H   0  0  0  0  0  0  0  0  0  0  0  0
  151.6090  145.9686  160.8288 H   0  0  0  0  0  0  0  0  0  0  0  0
  150.3445  145.4060  159.7393 H   0  0  0  0  0  0  0  0  0  0  0  0
  151.8454  146.0702  159.0860 H   0  0  0  0  0  0  0  0  0  0  0  0
  150.4728  144.1233  157.6494 H   0  0  0  0  0  0  0  0  0  0  0  0
  152.0110  143.9088  156.8515 H   0  0  0  0  0  0  0  0  0  0  0  0
  151.6486  141.4580  156.6969 H   0  0  0  0  0  0  0  0  0  0  0  0
  150.2986  140.7225  158.5453 H   0  0  0  0  0  0  0  0  0  0  0  0
  149.1072  141.9949  158.2654 H   0  0  0  0  0  0  0  0  0  0  0  0
  149.6640  139.5866  156.5026 H   0  0  0  0  0  0  0  0  0  0  0  0
  148.0948  140.1238  157.1045 H   0  0  0  0  0  0  0  0  0  0  0  0
  148.9838  140.8332  154.5932 H   0  0  0  0  0  0  0  0  0  0  0  0
  148.0426  141.9629  155.5680 H   0  0  0  0  0  0  0  0  0  0  0  0
  149.7431  143.2693  155.5944 H   0  0  0  0  0  0  0  0  0  0  0  0
  150.7470  142.1856  154.8576 H   0  0  0  0  0  0  0  0  0  0  0  0
  1  2  1  0  0  0  0
  1 14  1  0  0  0  0
  1 15  1  0  0  0  0
  1 16  1  0  0  0  0
  2 13  2  0  0  0  0
  2  3  1  0  0  0  0
  3  4  2  0  0  0  0
  3 17  1  0  0  0  0
  4  5  1  0  0  0  0
  4  6  1  0  0  0  0
  5 18  1  0  0  0  0
  5 19  1  0  0  0  0
  5 20  1  0  0  0  0
  6  7  1  0  0  0  0
  6 13  1  0  0  0  0
  7  8  1  0  0  0  0
  7 21  1  0  0  0  0
  7 22  1  0  0  0  0
  8 12  1  0  0  0  0
  8  9  1  0  0  0  0
  8 23  1  0  0  0  0
  9 10  1  0  0  0  0
  9 24  1  0  0  0  0
  9 25  1  0  0  0  0
 10 11  1  0  0  0  0
 10 26  1  0  0  0  0
 10 27  1  0  0  0  0
 11 12  1  0  0  0  0
 11 28  1  0  0  0  0
 11 29  1  0  0  0  0
 12 30  1  0  0  0  0
 12 31  1  0  0  0  0
M  CHG  1  12   1
M  END
> <s_m_source_file>
AV-unprocessed.smi

> <i_m_source_file_index>
3307

> <i_lp_mmshare_version>
43012

> <i_f3d_flags>
0

> <s_epik_input>
W0NIM11jMVtjSF1jKFtDSDNdKW4objEpW0NIMl1bQ0BASF0yW0NIMl1bQ0gyXVtDSDJdW05IXTI=

> <s_epik_cmdline>
J2VwaWtfcHl0aG9uJywgJy1waCcsICc3LjAnLCAnLXRuJywgJzgnLCAnLW1hJywgJzIwMCcsICctbWV0YWxfYmluZGluZycsICctaW1hZScsICc8aW5maWxlLm1hZT4nLCAnLW9tYWUnLCAnPG91dGZpbGUubWFlPic=

> <r_lp_tautomer_probability>
1

> <r_epik_Ionization_Penalty>
0.000974324

> <r_epik_Ionization_Penalty_Charging>
0.000863359

> <r_epik_Ionization_Penalty_Neutral>
0.000110964

> <r_epik_State_Penalty>
-0

> <r_epik_Charging_Adjusted_Penalty>
0.000863359

> <i_epik_Tot_Q>
1

> <i_epik_Tot_abs_Q>
1

> <r_epik_Metal_State_Penalty>
-0

> <b_epik_Metal_Only>
0

> <s_lp_Force_Field>
OPLS_2005

> <r_lp_Energy>
22.7328

> <b_lp_Chiralities_Consistent>
1

> <s_lp_Variant>
AV-unprocessed.smi:3307-2

> <Gold.Version>
5.8.1

> <Gold.Id.Protein>
6NUR|6NUR_protein|mol2

> <Gold.PLP.Fitness>
38.0205

> <Gold.PLP.PLP>
-32.7753

> <Gold.PLP.part.hbond>
-1.0000

> <Gold.PLP.part.metal>
0.0000

> <Gold.PLP.part.buried>
-4.0722

> <Gold.PLP.part.nonpolar>
-27.9739

> <Gold.PLP.part.repulsive>
0.1762

> <Gold.PLP.ligand.clash>
0.0000

> <Gold.PLP.ligand.torsion>
0.3775

> <Gold.PLP.Chemscore.Hbond>
2.0000

> <Gold.PLP.Chemscore.CHOScore>
0.0000

> <Gold.PLP.Chemscore.Metal>
0.0000

> <Gold.Chemscore.Hbonds>
donor molecule, donor type, donor heavy atom, donor atom, acceptor molecule, acceptor atom, score
      L1  H    12    30       P1  8028  2.00

> <Gold.PLP.Chemscore.Internal.Correction>
0.0001

> <Gold.Rescore>
     Score         DG    S(hbond)    S(metal)    S(lipo)     H(rot)  DE(clash)    DE(int)     intcor
     15.55     -15.93       1.00        0.00      86.25       1.16       0.01       0.37       ----

> <Gold.Chemscore.Fitness>
15.5520

> <Gold.Chemscore.DG>
-15.9328

> <Gold.Chemscore.ZeroCoef>
-5.4800

> <Gold.Chemscore.Hbond>
0.9994

> <Gold.Chemscore.Metal>
0.0000

> <Gold.Chemscore.Lipo>
86.2519

> <Gold.Chemscore.Internal_Hbond>
0.0000

> <Gold.Chemscore.DEClash>
0.0126

> <Gold.Chemscore.DEInternal>
0.3682

> <Gold.Chemscore.Rot>
1.1628

> <Gold.Chemscore.Internal.Correction>
   9.000000E+99

> <Gold.Chemscore.Hbonds>
donor molecule, donor type, donor heavy atom, donor atom, acceptor molecule, acceptor atom, score
      L1  H    12    30       P1  8028  1.00

> <Gold.Chemscore.Hbond.Weighted>
-3.3381

> <Gold.Chemscore.Metal.Weighted>
-0.0000

> <Gold.Chemscore.Lipo.Weighted>
-10.0915

> <Gold.Chemscore.Internal_Hbond.Weighted>
0.0000

> <Gold.Chemscore.DEClash.Weighted>
0.0126

> <Gold.Chemscore.DEInternal.Weighted>
0.3682

> <Gold.Chemscore.Rot.Weighted>
2.9768

> <Gold.Chemscore.Internal.Correction.Weighted>
   9.000000E+99

> <Gold.Protein.RotatedTorsions>
[ 6907 6896 6895 6894 ] final -121.61 input  -60.11 | X-H torsion
[ 7974 7965 7964 7962 ] final  100.27 input  175.53 | X-H torsion
[ 8008 7997 7996 7995 ] final  150.47 input   59.86 | X-H torsion
[ 10167 10162 10161 10158 ] final   85.05 input  -65.29 | X-H torsion
[ 10718 10713 10712 10709 ] final  105.35 input   66.30 | X-H torsion
[ 10763 10752 10751 10750 ] final -124.76 input  -60.55 | X-H torsion
[ 11005 11000 10999 10996 ] final -107.35 input  -57.11 | X-H torsion

> <Gold.Protein.ActiveResidues>
 VAL166  LYS551  ARG553  GLY616  TRP617  ASP618  TYR619  PRO620  LYS621  CYS622 
 ASP623  PHE694  ASN695  SER759  ASP760  ASP761  ALA762  ILE779  LEU786  VAL792 
 PHE793  MET794  SER795  GLU796  ALA797  LYS798  CYS799  TRP800  GLU811  SER814 

> <Gold.Protein.RotatedAtoms>
  150.8499  133.7803  159.3028 H   0  0  0  0  0  0  0  0  0  0  0  0  # atno 6907 bound_to 6896
  151.5478  135.1066  159.9952 H   0  0  0  0  0  0  0  0  0  0  0  0  # atno 6908 bound_to 6896
  152.4544  133.7651  159.6824 H   0  0  0  0  0  0  0  0  0  0  0  0  # atno 6909 bound_to 6896
  145.3878  139.2368  143.3368 H   0  0  0  0  0  0  0  0  0  0  0  0  # atno 7974 bound_to 7965
  156.2714  140.2074  156.6023 H   0  0  0  0  0  0  0  0  0  0  0  0  # atno 8008 bound_to 7997
  154.6897  140.0531  157.0374 H   0  0  0  0  0  0  0  0  0  0  0  0  # atno 8009 bound_to 7997
  155.0884  140.3194  155.4584 H   0  0  0  0  0  0  0  0  0  0  0  0  # atno 8010 bound_to 7997
  139.9017  144.6325  150.8630 H   0  0  0  0  0  0  0  0  0  0  0  0  # atno 10167 bound_to 10162
  157.6708  131.0826  150.5844 H   0  0  0  0  0  0  0  0  0  0  0  0  # atno 10718 bound_to 10713
  154.8727  135.4053  154.3158 H   0  0  0  0  0  0  0  0  0  0  0  0  # atno 10763 bound_to 10752
  153.3994  135.7017  153.6442 H   0  0  0  0  0  0  0  0  0  0  0  0  # atno 10764 bound_to 10752
  153.5191  135.3691  155.2594 H   0  0  0  0  0  0  0  0  0  0  0  0  # atno 10765 bound_to 10752
  141.0958  133.8973  157.1966 H   0  0  0  0  0  0  0  0  0  0  0  0  # atno 11005 bound_to 11000
  146.2812  140.4556  142.8775 LP  0  0  0  0  0  0  0  0  0  0  0  0  # atno 17320 bound_to 7965
  144.8462  140.6932  143.6198 LP  0  0  0  0  0  0  0  0  0  0  0  0  # atno 17321 bound_to 7965
  140.7705  143.3432  151.2165 LP  0  0  0  0  0  0  0  0  0  0  0  0  # atno 17342 bound_to 10162
  139.7020  143.9518  152.2909 LP  0  0  0  0  0  0  0  0  0  0  0  0  # atno 17343 bound_to 10162
  156.6144  130.4389  149.5846 LP  0  0  0  0  0  0  0  0  0  0  0  0  # atno 17370 bound_to 10713
  156.2405  130.6848  151.1551 LP  0  0  0  0  0  0  0  0  0  0  0  0  # atno 17371 bound_to 10713
  139.9795  135.0103  156.9713 LP  0  0  0  0  0  0  0  0  0  0  0  0  # atno 17394 bound_to 11000
  140.5143  134.0971  155.7277 LP  0  0  0  0  0  0  0  0  0  0  0  0  # atno 17395 bound_to 11000

$$$$
