#       Name:                AV-unprocessed.smi:513
#       Creating user name   scv26
#       Creation time:       Thu Mar 26 23:24:05 2020


#       File generated by GOLD software.
#

@<TRIPOS>MOLECULE
AV-unprocessed.smi:513
    50    52     1
SMALL
NO_CHARGES


@<TRIPOS>ATOM
      1 ****        -3.0932   1.4627  -2.9975 C.3            1 S1                 0.0000
      2 ****        -1.9161   1.9085  -2.3475 O.3            1 S1                 0.0000
      3 ****        -1.6136   1.1472  -1.1916 C.3            1 S1                 0.0000
      4 ****        -0.3196   1.6862  -0.5715 C.3            1 S1                 0.0000
      5 ****         0.0986   0.8832   0.5745 N.pl3          1 S1                 0.0000
      6 ****         0.7996  -0.2846   0.5838 C.2            1 S1                 0.0000
      7 ****         1.2570  -0.8925  -0.5872 N.pl3          1 S1                 0.0000
      8 ****         1.0988  -2.3169  -0.8712 C.3            1 S1                 0.0000
      9 ****         0.5124  -2.5467  -2.2768 C.3            1 S1                 0.0000
     10 ****         1.3449  -1.8885  -3.3054 N.4            1 S1                 1.0000
     11 ****         1.5975  -0.4634  -3.0073 C.3            1 S1                 0.0000
     12 ****         2.1548  -0.3048  -1.5806 C.3            1 S1                 0.0000
     13 ****         0.9608  -0.8266   1.7937 N.2            1 S1                 0.0000
     14 ****         0.3316   0.0807   2.6319 C.2            1 S1                 0.0000
     15 ****        -0.2057   1.1039   1.9199 C.2            1 S1                 0.0000
     16 ****        -0.9808   2.1797   2.5549 C.2            1 S1                 0.0000
     17 ****        -1.4982   3.1038   1.9317 O.2            1 S1                 0.0000
     18 ****        -1.0800   2.0421   3.8995 N.am           1 S1                 0.0000
     19 ****        -0.5591   1.0426   4.6744 C.2            1 S1                 0.0000
     20 ****        -0.7466   1.0473   5.8909 O.2            1 S1                 0.0000
     21 ****         0.1593   0.0580   4.0452 N.am           1 S1                 0.0000
     22 ****         0.7377  -1.0427   4.8184 C.3            1 S1                 0.0000
     23 ****        -1.6052   2.7549   4.3847 H              1 S1                 0.0000
     24 ****        -3.2882   2.0869  -3.8695 H              1 S1                 0.0000
     25 ****        -3.9584   1.5280  -2.3365 H              1 S1                 0.0000
     26 ****        -2.9894   0.4315  -3.3377 H              1 S1                 0.0000
     27 ****        -2.4311   1.2107  -0.4716 H              1 S1                 0.0000
     28 ****        -1.4920   0.0973  -1.4630 H              1 S1                 0.0000
     29 ****         0.4684   1.7099  -1.3173 H              1 S1                 0.0000
     30 ****        -0.4437   2.7245  -0.2707 H              1 S1                 0.0000
     31 ****         2.0662  -2.8123  -0.7763 H              1 S1                 0.0000
     32 ****         0.4439  -2.7696  -0.1258 H              1 S1                 0.0000
     33 ****         0.4467  -3.6126  -2.4948 H              1 S1                 0.0000
     34 ****        -0.5007  -2.1456  -2.3304 H              1 S1                 0.0000
     35 ****         2.2349  -2.3648  -3.3393 H              1 S1                 0.0000
     36 ****         2.2988  -0.0619  -3.7387 H              1 S1                 0.0000
     37 ****         0.6659   0.0931  -3.1174 H              1 S1                 0.0000
     38 ****         2.3516   0.7417  -1.3511 H              1 S1                 0.0000
     39 ****         3.1227  -0.8033  -1.5088 H              1 S1                 0.0000
     40 ****         1.2279  -0.6790   5.7230 H              1 S1                 0.0000
     41 ****         1.4884  -1.5944   4.2525 H              1 S1                 0.0000
     42 ****        -0.0428  -1.7457   5.1122 H              1 S1                 0.0000
     43 ****         0.8951  -1.9704  -4.2060 H              1 S1                 0.0000
     44 ****        -2.0401   2.8638  -2.0790 LP             1 S1                 0.0000
     45 ****        -1.1505   1.8387  -2.9870 LP             1 S1                 0.0000
     46 ****         1.4231  -1.6795   2.0361 LP             1 S1                 0.0000
     47 ****        -1.4028   3.1516   0.9374 LP             1 S1                 0.0000
     48 ****        -2.0146   3.8081   2.4189 LP             1 S1                 0.0000
     49 ****        -1.2793   1.7815   6.3119 LP             1 S1                 0.0000
     50 ****        -0.3661   0.3170   6.4583 LP             1 S1                 0.0000
@<TRIPOS>BOND
    1    1    2 1     
    2    1   24 1     
    3    1   25 1     
    4    1   26 1     
    5    2    3 1     
    6    3    4 1     
    7    3   27 1     
    8    3   28 1     
    9    4    5 1     
   10    4   29 1     
   11    4   30 1     
   12    5   15 1     
   13    5    6 1     
   14    6    7 1     
   15    6   13 2     
   16    7   12 1     
   17    7    8 1     
   18    8    9 1     
   19    8   31 1     
   20    8   32 1     
   21    9   10 1     
   22    9   33 1     
   23    9   34 1     
   24   10   11 1     
   25   10   35 1     
   26   10   43 1     
   27   11   12 1     
   28   11   36 1     
   29   11   37 1     
   30   12   38 1     
   31   12   39 1     
   32   13   14 1     
   33   14   21 1     
   34   14   15 2     
   35   15   16 1     
   36   16   17 2     
   37   16   18 1     
   38   18   23 1     
   39   18   19 1     
   40   19   20 2     
   41   19   21 1     
   42   21   22 1     
   43   22   40 1     
   44   22   41 1     
   45   22   42 1     
   46    2   44 1     
   47    2   45 1     
   48   13   46 1     
   49   17   47 1     
   50   17   48 1     
   51   20   49 1     
   52   20   50 1     
@<TRIPOS>SUBSTRUCTURE
      1 S1             1
@<TRIPOS>SET
LONE_PAIRS      STATIC     ATOMS    <user>   **** ""
7 44 45 46 47 48 49 50
DONOR_HYDROGENS      STATIC     ATOMS    <user>   **** ""
3 35 43 23
ATOM$BLUE        STATIC     ATOMS    COLORGROUP SYSTEM
7 44 45 46 47 48 49 50
ATOM$RED        STATIC     ATOMS    COLORGROUP SYSTEM
3 35 43 23
