#       Name:                AV-unprocessed.smi:3330
#       Creating user name   scv26
#       Creation time:       Fri Mar 27 19:18:00 2020


#       File generated by GOLD software.
#

@<TRIPOS>MOLECULE
AV-unprocessed.smi:3330
    44    45     1
SMALL
NO_CHARGES


@<TRIPOS>ATOM
      1 ****        -1.4094  -1.6295  -1.6905 C.3            1 S1                 0.0000
      2 ****        -0.8980  -0.7929  -0.5032 C.3            1 S1                 0.0000
      3 ****         0.5803  -0.7420  -0.5610 N.4            1 S1                 1.0000
      4 ****         1.1594   0.6146  -0.5012 C.3            1 S1                 0.0000
      5 ****         2.6931   0.5534  -0.4874 C.3            1 S1                 0.0000
      6 ****         3.2733   1.8963  -0.4078 N.am           1 S1                 0.0000
      7 ****         3.6276   2.6291  -1.4675 C.2            1 S1                 0.0000
      8 ****         3.5463   2.3241  -2.6574 O.2            1 S1                 0.0000
      9 ****         4.1515   3.9495  -0.9526 C.3            1 S1                 0.0000
     10 ****         4.0062   3.8015   0.4782 N.pl3          1 S1                -1.0000
     11 ****         3.4830   2.5800   0.7330 C.2            1 S1                 0.0000
     12 ****         3.2080   2.1110   1.8371 O.2            1 S1                 0.0000
     13 ****        -1.3728  -1.3374   0.8722 C.3            1 S1                 0.0000
     14 ****        -0.9753  -0.4299   2.0522 C.3            1 S1                 0.0000
     15 ****        -2.8091  -1.5845   0.8976 N.pl3          1 S1                 0.0000
     16 ****        -3.4659  -2.7820   1.0948 C.2            1 S1                 0.0000
     17 ****        -4.8061  -2.5276   1.0363 C.2            1 S1                 0.0000
     18 ****        -4.8745  -1.1264   0.8004 C.2            1 S1                 0.0000
     19 ****        -3.6793  -0.5647   0.7190 N.2            1 S1                 0.0000
     20 ****        -2.4966  -1.6054  -1.7661 H              1 S1                 0.0000
     21 ****        -1.1047  -2.6727  -1.6015 H              1 S1                 0.0000
     22 ****        -1.0178  -1.2482  -2.6341 H              1 S1                 0.0000
     23 ****        -1.2923   0.2166  -0.6347 H              1 S1                 0.0000
     24 ****         0.9506  -1.2884   0.2033 H              1 S1                 0.0000
     25 ****         0.8143   1.1879  -1.3629 H              1 S1                 0.0000
     26 ****         0.7981   1.1274   0.3907 H              1 S1                 0.0000
     27 ****         3.0374  -0.0478   0.3562 H              1 S1                 0.0000
     28 ****         3.0541   0.0423  -1.3817 H              1 S1                 0.0000
     29 ****         5.1859   4.0876  -1.2690 H              1 S1                 0.0000
     30 ****         3.5609   4.7693  -1.3629 H              1 S1                 0.0000
     31 ****        -0.8916  -2.3038   1.0303 H              1 S1                 0.0000
     32 ****         0.1073  -0.3666   2.1613 H              1 S1                 0.0000
     33 ****        -1.3688  -0.8164   2.9929 H              1 S1                 0.0000
     34 ****        -1.3569   0.5837   1.9246 H              1 S1                 0.0000
     35 ****        -2.9313  -3.7065   1.2572 H              1 S1                 0.0000
     36 ****        -5.6148  -3.2349   1.1471 H              1 S1                 0.0000
     37 ****        -5.7507  -0.5051   0.6870 H              1 S1                 0.0000
     38 ****         0.8773  -1.1631  -1.4296 H              1 S1                 0.0000
     39 ****         3.1782   1.4325  -2.9210 LP             1 S1                 0.0000
     40 ****         3.8484   2.9680  -3.3604 LP             1 S1                 0.0000
     41 ****         4.2512   4.4867   1.1642 LP             1 S1                 0.0000
     42 ****         2.8155   1.1940   1.9071 LP             1 S1                 0.0000
     43 ****         3.3771   2.6470   2.6642 LP             1 S1                 0.0000
     44 ****        -3.4666   0.3996   0.5606 LP             1 S1                 0.0000
@<TRIPOS>BOND
    1    1    2 1     
    2    1   20 1     
    3    1   21 1     
    4    1   22 1     
    5    2    3 1     
    6    2   13 1     
    7    2   23 1     
    8    3    4 1     
    9    3   24 1     
   10    3   38 1     
   11    4    5 1     
   12    4   25 1     
   13    4   26 1     
   14    5    6 1     
   15    5   27 1     
   16    5   28 1     
   17    6   11 am    
   18    6    7 am    
   19    7    8 2     
   20    7    9 1     
   21    9   10 1     
   22    9   29 1     
   23    9   30 1     
   24   10   11 1     
   25   11   12 2     
   26   13   14 1     
   27   13   15 1     
   28   13   31 1     
   29   14   32 1     
   30   14   33 1     
   31   14   34 1     
   32   15   19 1     
   33   15   16 1     
   34   16   17 2     
   35   16   35 1     
   36   17   18 1     
   37   17   36 1     
   38   18   19 2     
   39   18   37 1     
   40    8   39 1     
   41    8   40 1     
   42   10   41 1     
   43   12   42 1     
   44   12   43 1     
   45   19   44 1     
@<TRIPOS>SUBSTRUCTURE
      1 S1             1
@<TRIPOS>SET
LONE_PAIRS      STATIC     ATOMS    <user>   **** ""
6 39 40 41 42 43 44
DONOR_HYDROGENS      STATIC     ATOMS    <user>   **** ""
2 24 38
ATOM$BLUE        STATIC     ATOMS    COLORGROUP SYSTEM
6 39 40 41 42 43 44
ATOM$RED        STATIC     ATOMS    COLORGROUP SYSTEM
2 24 38
