AV-unprocessed.smi:1572|AV-procd|sdf|6332|dock2
  -GOLD-   22720 6543D 1   1.00000     0.00000
 Structure written by MMmdl.
 41 42  0  0  0  0  0  0  0  0  2 V2000
  152.3298  145.0156  159.2307 C   0  0  0  0  0  0  0  0  0  0  0  0
  151.8457  143.6479  159.1224 N   0  0  0  0  0  0  0  0  0  0  0  0
  151.3983  143.3440  157.7664 C   0  0  0  0  0  0  0  0  0  0  0  0
  150.8764  141.8999  157.6540 C   0  0  0  0  0  0  0  0  0  0  0  0
  151.9051  140.9186  158.0339 N   0  0  0  0  0  0  0  0  0  0  0  0
  151.5264  139.4944  157.8169 C   0  0  0  0  0  0  0  0  0  0  0  0
  151.3381  139.1393  156.3225 C   0  0  0  0  0  0  0  0  0  0  0  0
  152.6070  138.5397  158.3852 C   0  0  0  0  0  0  0  0  0  0  0  0
  150.2005  139.1346  158.5463 C   0  0  0  0  0  0  0  0  0  0  0  0
  149.9975  137.6919  158.6468 N   0  0  0  0  0  0  0  0  0  0  0  0
  148.9368  137.0966  159.2064 C   0  0  0  0  0  0  0  0  0  0  0  0
  148.0294  137.7823  159.6831 O   0  0  0  0  0  0  0  0  0  0  0  0
  148.9933  135.7454  159.1814 N   0  5  0  0  0  0  0  0  0  0  0  0
  148.2716  135.0270  160.0572 C   0  0  0  0  0  0  0  0  0  0  0  0
  147.7193  133.8463  159.7347 N   0  0  0  0  0  0  0  0  0  0  0  0
  147.0201  133.2656  160.7842 N   0  0  0  0  0  0  0  0  0  0  0  0
  147.0698  134.0237  161.8793 C   0  0  0  0  0  0  0  0  0  0  0  0
  147.9771  135.5137  161.7292 S   0  0  0  0  0  0  0  0  0  0  0  0
  152.3589  141.2373  159.3975 C   0  0  0  0  0  0  0  0  0  0  0  0
  152.8743  142.6840  159.5029 C   0  0  0  0  0  0  0  0  0  0  0  0
  151.5460  145.7247  158.9629 H   0  0  0  0  0  0  0  0  0  0  0  0
  153.1820  145.1856  158.5714 H   0  0  0  0  0  0  0  0  0  0  0  0
  152.6414  145.2350  160.2523 H   0  0  0  0  0  0  0  0  0  0  0  0
  150.6071  144.0363  157.4764 H   0  0  0  0  0  0  0  0  0  0  0  0
  152.2168  143.4918  157.0598 H   0  0  0  0  0  0  0  0  0  0  0  0
  149.9923  141.7888  158.2820 H   0  0  0  0  0  0  0  0  0  0  0  0
  150.5556  141.7466  156.6255 H   0  0  0  0  0  0  0  0  0  0  0  0
  151.0676  138.0897  156.2025 H   0  0  0  0  0  0  0  0  0  0  0  0
  152.2475  139.2970  155.7435 H   0  0  0  0  0  0  0  0  0  0  0  0
  150.5432  139.7230  155.8587 H   0  0  0  0  0  0  0  0  0  0  0  0
  152.2644  137.5042  158.3882 H   0  0  0  0  0  0  0  0  0  0  0  0
  152.8707  138.7962  159.4119 H   0  0  0  0  0  0  0  0  0  0  0  0
  153.5235  138.5533  157.7957 H   0  0  0  0  0  0  0  0  0  0  0  0
  150.1667  139.5719  159.5447 H   0  0  0  0  0  0  0  0  0  0  0  0
  149.3508  139.5677  158.0154 H   0  0  0  0  0  0  0  0  0  0  0  0
  150.7248  137.1011  158.2709 H   0  0  0  0  0  0  0  0  0  0  0  0
  146.5717  133.7024  162.7818 H   0  0  0  0  0  0  0  0  0  0  0  0
  151.5491  141.0921  160.1128 H   0  0  0  0  0  0  0  0  0  0  0  0
  153.1702  140.5782  159.7004 H   0  0  0  0  0  0  0  0  0  0  0  0
  153.7546  142.8043  158.8692 H   0  0  0  0  0  0  0  0  0  0  0  0
  153.1985  142.8767  160.5261 H   0  0  0  0  0  0  0  0  0  0  0  0
  1  2  1  0  0  0  0
  1 21  1  0  0  0  0
  1 22  1  0  0  0  0
  1 23  1  0  0  0  0
  2 20  1  0  0  0  0
  2  3  1  0  0  0  0
  3  4  1  0  0  0  0
  3 24  1  0  0  0  0
  3 25  1  0  0  0  0
  4  5  1  0  0  0  0
  4 26  1  0  0  0  0
  4 27  1  0  0  0  0
  5  6  1  0  0  0  0
  5 19  1  0  0  0  0
  6  7  1  0  0  0  0
  6  8  1  0  0  0  0
  6  9  1  0  0  0  0
  7 28  1  0  0  0  0
  7 29  1  0  0  0  0
  7 30  1  0  0  0  0
  8 31  1  0  0  0  0
  8 32  1  0  0  0  0
  8 33  1  0  0  0  0
  9 10  1  0  0  0  0
  9 34  1  0  0  0  0
  9 35  1  0  0  0  0
 10 11  1  0  0  0  0
 10 36  1  0  0  0  0
 11 12  2  0  0  0  0
 11 13  1  0  0  0  0
 13 14  1  0  0  0  0
 14 18  1  0  0  0  0
 14 15  2  0  0  0  0
 15 16  1  0  0  0  0
 16 17  2  0  0  0  0
 17 18  1  0  0  0  0
 17 37  1  0  0  0  0
 19 20  1  0  0  0  0
 19 38  1  0  0  0  0
 19 39  1  0  0  0  0
 20 40  1  0  0  0  0
 20 41  1  0  0  0  0
M  CHG  1  13  -1
M  END
> <s_m_source_file>
AV-unprocessed.smi

> <i_m_source_file_index>
1572

> <i_lp_mmshare_version>
43012

> <i_f3d_flags>
0

> <s_epik_input>
W0NIM11OMVtDSDJdW0NIMl1OKFtDSDJdW0NIMl0xKUMoW0NIM10pKFtDSDNdKVtDSDJdW05IXUMoPU8pW05IXWMybm5bY0hdczI=

> <s_epik_cmdline>
J2VwaWtfcHl0aG9uJywgJy1waCcsICc3LjAnLCAnLXRuJywgJzgnLCAnLW1hJywgJzIwMCcsICctbWV0YWxfYmluZGluZycsICctaW1hZScsICc8aW5maWxlLm1hZT4nLCAnLW9tYWUnLCAnPG91dGZpbGUubWFlPic=

> <r_lp_tautomer_probability>
1

> <r_epik_Ionization_Penalty>
6.61874

> <r_epik_Ionization_Penalty_Charging>
3.54798

> <r_epik_Ionization_Penalty_Neutral>
3.07076

> <r_epik_State_Penalty>
5.68339

> <r_epik_Charging_Adjusted_Penalty>
9.23137

> <i_epik_Tot_Q>
-1

> <i_epik_Tot_abs_Q>
1

> <r_epik_Metal_State_Penalty>
2.66763

> <b_epik_Metal_Only>
1

> <s_lp_Force_Field>
OPLS_2005

> <r_lp_Energy>
47.6706

> <b_lp_Chiralities_Consistent>
1

> <s_lp_Variant>
AV-unprocessed.smi:1572-6

> <Gold.Version>
5.8.1

> <Gold.Id.Protein>
6NUR|6NUR_protein|mol2

> <Gold.PLP.Fitness>
41.0931

> <Gold.PLP.PLP>
-34.9944

> <Gold.PLP.part.hbond>
-2.6762

> <Gold.PLP.part.metal>
0.0000

> <Gold.PLP.part.buried>
-5.9801

> <Gold.PLP.part.nonpolar>
-26.8806

> <Gold.PLP.part.repulsive>
0.2242

> <Gold.PLP.ligand.clash>
0.0000

> <Gold.PLP.ligand.torsion>
0.6383

> <Gold.PLP.Chemscore.Hbond>
2.4160

> <Gold.PLP.Chemscore.CHOScore>
0.0000

> <Gold.PLP.Chemscore.Metal>
0.0000

> <Gold.Chemscore.Hbonds>
donor molecule, donor type, donor heavy atom, donor atom, acceptor molecule, acceptor atom, score
      P1  H  6896  6907       L1    13  1.18
      P1  H  6934  6947       L1    12  0.48

> <Gold.PLP.Chemscore.Internal.Correction>
0.1272

> <Gold.Rescore>
     Score         DG    S(hbond)    S(metal)    S(lipo)     H(rot)  DE(clash)    DE(int)     intcor
     14.07     -15.93       1.42        0.00      84.59       1.63       0.01       1.85       ----

> <Gold.Chemscore.Fitness>
14.0738

> <Gold.Chemscore.DG>
-15.9346

> <Gold.Chemscore.ZeroCoef>
-5.4800

> <Gold.Chemscore.Hbond>
1.4184

> <Gold.Chemscore.Metal>
0.0000

> <Gold.Chemscore.Lipo>
84.5896

> <Gold.Chemscore.Internal_Hbond>
0.0000

> <Gold.Chemscore.DEClash>
0.0111

> <Gold.Chemscore.DEInternal>
1.8497

> <Gold.Chemscore.Rot>
1.6328

> <Gold.Chemscore.Internal.Correction>
   9.000000E+99

> <Gold.Chemscore.Hbonds>
donor molecule, donor type, donor heavy atom, donor atom, acceptor molecule, acceptor atom, score
      P1  H  6896  6907       L1    13  0.05
      P1  H  6934  6947       L1    12  0.48

> <Gold.Chemscore.Hbond.Weighted>
-4.7375

> <Gold.Chemscore.Metal.Weighted>
-0.0000

> <Gold.Chemscore.Lipo.Weighted>
-9.8970

> <Gold.Chemscore.Internal_Hbond.Weighted>
0.0000

> <Gold.Chemscore.DEClash.Weighted>
0.0111

> <Gold.Chemscore.DEInternal.Weighted>
1.8497

> <Gold.Chemscore.Rot.Weighted>
4.1800

> <Gold.Chemscore.Internal.Correction.Weighted>
   9.000000E+99

> <Gold.Protein.RotatedTorsions>
[ 6907 6896 6895 6894 ] final  -58.79 input  -60.11 | X-H torsion
[ 7974 7965 7964 7962 ] final  -80.34 input  175.53 | X-H torsion
[ 8008 7997 7996 7995 ] final   70.20 input   59.86 | X-H torsion
[ 10167 10162 10161 10158 ] final   51.64 input  -65.29 | X-H torsion
[ 10718 10713 10712 10709 ] final   49.20 input   66.30 | X-H torsion
[ 10763 10752 10751 10750 ] final  138.74 input  -60.55 | X-H torsion
[ 11005 11000 10999 10996 ] final  147.44 input  -57.11 | X-H torsion

> <Gold.Protein.ActiveResidues>
 VAL166  LYS551  ARG553  GLY616  TRP617  ASP618  TYR619  PRO620  LYS621  CYS622 
 ASP623  PHE694  ASN695  SER759  ASP760  ASP761  ALA762  ILE779  LEU786  VAL792 
 PHE793  MET794  SER795  GLU796  ALA797  LYS798  CYS799  TRP800  GLU811  SER814 

> <Gold.Protein.RotatedAtoms>
  150.7980  134.7053  159.6572 H   0  0  0  0  0  0  0  0  0  0  0  0  # atno 6907 bound_to 6896
  152.4094  134.6147  160.0045 H   0  0  0  0  0  0  0  0  0  0  0  0  # atno 6908 bound_to 6896
  151.6395  133.3290  159.3163 H   0  0  0  0  0  0  0  0  0  0  0  0  # atno 6909 bound_to 6896
  145.5613  140.9481  143.1446 H   0  0  0  0  0  0  0  0  0  0  0  0  # atno 7974 bound_to 7965
  155.7352  140.3491  155.5078 H   0  0  0  0  0  0  0  0  0  0  0  0  # atno 8008 bound_to 7997
  155.9145  140.1056  157.1275 H   0  0  0  0  0  0  0  0  0  0  0  0  # atno 8009 bound_to 7997
  154.4060  140.1261  156.4587 H   0  0  0  0  0  0  0  0  0  0  0  0  # atno 8010 bound_to 7997
  140.2598  144.3386  150.6322 H   0  0  0  0  0  0  0  0  0  0  0  0  # atno 10167 bound_to 10162
  157.4763  130.8287  149.8043 H   0  0  0  0  0  0  0  0  0  0  0  0  # atno 10718 bound_to 10713
  153.8946  135.3029  155.3448 H   0  0  0  0  0  0  0  0  0  0  0  0  # atno 10763 bound_to 10752
  154.7700  135.4891  153.9632 H   0  0  0  0  0  0  0  0  0  0  0  0  # atno 10764 bound_to 10752
  153.1278  135.6797  153.9327 H   0  0  0  0  0  0  0  0  0  0  0  0  # atno 10765 bound_to 10752
  140.0876  134.9060  157.1600 H   0  0  0  0  0  0  0  0  0  0  0  0  # atno 11005 bound_to 11000
  144.7482  139.7265  143.7284 LP  0  0  0  0  0  0  0  0  0  0  0  0  # atno 17320 bound_to 7965
  146.1849  139.5060  142.9842 LP  0  0  0  0  0  0  0  0  0  0  0  0  # atno 17321 bound_to 7965
  140.5975  143.2167  151.7136 LP  0  0  0  0  0  0  0  0  0  0  0  0  # atno 17342 bound_to 10162
  139.5020  144.3844  152.0343 LP  0  0  0  0  0  0  0  0  0  0  0  0  # atno 17343 bound_to 10162
  156.0098  130.3838  150.2302 LP  0  0  0  0  0  0  0  0  0  0  0  0  # atno 17370 bound_to 10713
  157.0487  131.0056  151.3260 LP  0  0  0  0  0  0  0  0  0  0  0  0  # atno 17371 bound_to 10713
  140.3398  134.2717  155.7214 LP  0  0  0  0  0  0  0  0  0  0  0  0  # atno 17394 bound_to 11000
  141.2067  133.7824  157.0158 LP  0  0  0  0  0  0  0  0  0  0  0  0  # atno 17395 bound_to 11000

$$$$
