AV-unprocessed.smi:1535|AV-procd|sdf|6174|dock5
  -GOLD-   22720 6323D 1   1.00000     0.00000
 Structure written by MMmdl.
 47 48  0  0  0  0  0  0  0  0  2 V2000
  152.5661  143.4187  161.6218 C   0  0  0  0  0  0  0  0  0  0  0  0
  152.3088  142.7058  160.3051 C   0  0  0  0  0  0  0  0  0  0  0  0
  151.4075  143.2889  159.3870 C   0  0  0  0  0  0  0  0  0  0  0  0
  151.1935  142.6135  158.1915 C   0  0  0  0  0  0  0  0  0  0  0  0
  150.3840  142.9317  157.1003 N   0  3  0  0  0  0  0  0  0  0  0  0
  150.5060  141.9672  156.1483 C   0  0  0  0  0  0  0  0  0  0  0  0
  151.3677  141.0246  156.6215 N   0  0  0  0  0  0  0  0  0  0  0  0
  151.8636  139.7990  155.9708 C   0  0  0  0  0  0  0  0  0  0  0  0
  150.7382  138.9600  155.3346 C   0  0  2  0  0  0  0  0  0  0  0  0
  150.3538  139.5675  154.1156 O   0  0  0  0  0  0  0  0  0  0  0  0
  149.5132  138.8666  156.2647 C   0  0  0  0  0  0  0  0  0  0  0  0
  149.4771  137.7538  157.2231 N   0  0  0  0  0  0  0  0  0  0  0  0
  150.1507  136.6013  156.6367 C   0  0  0  0  0  0  0  0  0  0  0  0
  148.1194  137.3893  157.6429 C   0  0  0  0  0  0  0  0  0  0  0  0
  148.0206  136.0850  158.4590 C   0  0  2  0  0  0  0  0  0  0  0  0
  146.7419  135.3033  158.1279 C   0  0  0  0  0  0  0  0  0  0  0  0
  148.0925  136.3701  159.9004 C   0  0  0  0  0  0  0  0  0  0  0  0
  148.1506  136.5941  161.0339 N   0  0  0  0  0  0  0  0  0  0  0  0
  151.8365  141.3957  157.8899 C   0  0  0  0  0  0  0  0  0  0  0  0
  152.7311  140.8108  158.7857 C   0  0  0  0  0  0  0  0  0  0  0  0
  152.9621  141.4822  160.0077 C   0  0  0  0  0  0  0  0  0  0  0  0
  153.9273  140.8618  161.0039 C   0  0  0  0  0  0  0  0  0  0  0  0
  151.9853  144.3382  161.6978 H   0  0  0  0  0  0  0  0  0  0  0  0
  153.6200  143.6821  161.7150 H   0  0  0  0  0  0  0  0  0  0  0  0
  152.2921  142.7808  162.4623 H   0  0  0  0  0  0  0  0  0  0  0  0
  150.9074  144.2214  159.6049 H   0  0  0  0  0  0  0  0  0  0  0  0
  150.0053  141.9524  155.1908 H   0  0  0  0  0  0  0  0  0  0  0  0
  152.5822  140.1074  155.2105 H   0  0  0  0  0  0  0  0  0  0  0  0
  152.4067  139.1893  156.6911 H   0  0  0  0  0  0  0  0  0  0  0  0
  151.1311  137.9641  155.1357 H   0  0  0  0  0  0  0  0  0  0  0  0
  150.1776  138.8876  153.4832 H   0  0  0  0  0  0  0  0  0  0  0  0
  149.4245  139.8063  156.8124 H   0  0  0  0  0  0  0  0  0  0  0  0
  148.6239  138.8134  155.6348 H   0  0  0  0  0  0  0  0  0  0  0  0
  150.2023  135.7777  157.3498 H   0  0  0  0  0  0  0  0  0  0  0  0
  151.1742  136.8506  156.3546 H   0  0  0  0  0  0  0  0  0  0  0  0
  149.6283  136.2486  155.7461 H   0  0  0  0  0  0  0  0  0  0  0  0
  147.6781  138.2141  158.2048 H   0  0  0  0  0  0  0  0  0  0  0  0
  147.4757  137.2687  156.7698 H   0  0  0  0  0  0  0  0  0  0  0  0
  148.8673  135.4352  158.2546 H   0  0  0  0  0  0  0  0  0  0  0  0
  146.6835  134.3858  158.7140 H   0  0  0  0  0  0  0  0  0  0  0  0
  146.7130  135.0236  157.0744 H   0  0  0  0  0  0  0  0  0  0  0  0
  145.8498  135.8925  158.3425 H   0  0  0  0  0  0  0  0  0  0  0  0
  153.2341  139.8802  158.5710 H   0  0  0  0  0  0  0  0  0  0  0  0
  154.3621  139.9393  160.6177 H   0  0  0  0  0  0  0  0  0  0  0  0
  153.4134  140.6232  161.9353 H   0  0  0  0  0  0  0  0  0  0  0  0
  154.7455  141.5477  161.2248 H   0  0  0  0  0  0  0  0  0  0  0  0
  149.7950  143.7491  157.0067 H   0  0  0  0  0  0  0  0  0  0  0  0
  1  2  1  0  0  0  0
  1 23  1  0  0  0  0
  1 24  1  0  0  0  0
  1 25  1  0  0  0  0
  2 21  1  0  0  0  0
  2  3  2  0  0  0  0
  3  4  1  0  0  0  0
  3 26  1  0  0  0  0
  4 19  2  0  0  0  0
  4  5  1  0  0  0  0
  5  6  2  0  0  0  0
  5 47  1  0  0  0  0
  6  7  1  0  0  0  0
  6 27  1  0  0  0  0
  7  8  1  0  0  0  0
  7 19  1  0  0  0  0
  8  9  1  0  0  0  0
  8 28  1  0  0  0  0
  8 29  1  0  0  0  0
  9 10  1  0  0  0  0
  9 11  1  0  0  0  0
  9 30  1  0  0  0  0
 10 31  1  0  0  0  0
 11 12  1  0  0  0  0
 11 32  1  0  0  0  0
 11 33  1  0  0  0  0
 12 13  1  0  0  0  0
 12 14  1  0  0  0  0
 13 34  1  0  0  0  0
 13 35  1  0  0  0  0
 13 36  1  0  0  0  0
 14 15  1  0  0  0  0
 14 37  1  0  0  0  0
 14 38  1  0  0  0  0
 15 16  1  0  0  0  0
 15 17  1  0  0  0  0
 15 39  1  0  0  0  0
 16 40  1  0  0  0  0
 16 41  1  0  0  0  0
 16 42  1  0  0  0  0
 17 18  3  0  0  0  0
 19 20  1  0  0  0  0
 20 21  2  0  0  0  0
 20 43  1  0  0  0  0
 21 22  1  0  0  0  0
 22 44  1  0  0  0  0
 22 45  1  0  0  0  0
 22 46  1  0  0  0  0
M  CHG  1   5   1
M  END
> <s_m_source_file>
AV-unprocessed.smi

> <i_m_source_file_index>
1535

> <i_lp_mmshare_version>
43012

> <i_f3d_flags>
0

> <s_epik_input>
W0NIM11jKFtjSF0xKWMoW0NIM10pW2NIXWMoYzEyKW4oW2NIXW4yKVtDSDJdW0NASF0oW09IXSlbQ0gyXU4oW0NIM10pW0NIMl1bQ0BIXShbQ0gzXSlDI04=

> <s_epik_cmdline>
J2VwaWtfcHl0aG9uJywgJy1waCcsICc3LjAnLCAnLXRuJywgJzgnLCAnLW1hJywgJzIwMCcsICctbWV0YWxfYmluZGluZycsICctaW1hZScsICc8aW5maWxlLm1hZT4nLCAnLW9tYWUnLCAnPG91dGZpbGUubWFlPic=

> <r_epik_Ionization_Penalty>
1.22846

> <r_epik_Ionization_Penalty_Charging>
1.21333

> <r_epik_Ionization_Penalty_Neutral>
0.0151341

> <r_epik_State_Penalty>
1.27012

> <r_epik_Charging_Adjusted_Penalty>
2.48344

> <i_epik_Tot_Q>
1

> <i_epik_Tot_abs_Q>
1

> <r_epik_Metal_State_Penalty>
5.28751

> <b_epik_Metal_Only>
0

> <s_lp_Force_Field>
OPLS_2005

> <r_lp_Energy>
32.9236

> <b_lp_Chiralities_Consistent>
1

> <s_lp_Variant>
AV-unprocessed.smi:1535-5

> <Gold.Version>
5.8.1

> <Gold.Id.Protein>
6NUR|6NUR_protein|mol2

> <Gold.PLP.Fitness>
51.5221

> <Gold.PLP.PLP>
-39.8574

> <Gold.PLP.part.hbond>
-4.8680

> <Gold.PLP.part.metal>
0.0000

> <Gold.PLP.part.buried>
-5.1385

> <Gold.PLP.part.nonpolar>
-29.2783

> <Gold.PLP.part.repulsive>
0.0333

> <Gold.PLP.ligand.clash>
0.0000

> <Gold.PLP.ligand.torsion>
1.4934

> <Gold.PLP.Chemscore.Hbond>
4.8080

> <Gold.PLP.Chemscore.CHOScore>
0.0000

> <Gold.PLP.Chemscore.Metal>
0.0000

> <Gold.Chemscore.Hbonds>
donor molecule, donor type, donor heavy atom, donor atom, acceptor molecule, acceptor atom, score
      L1  H     5    47       P1  8028  1.63
      P1  H  6931  6943       L1    18  0.91
      P1  H  7989  7998       L1    10  1.00

> <Gold.PLP.Chemscore.Internal.Correction>
0.2276

> <Gold.Rescore>
     Score         DG    S(hbond)    S(metal)    S(lipo)     H(rot)  DE(clash)    DE(int)     intcor
     19.75     -21.54       3.32        0.00      99.36       2.59       0.30       1.49       ----

> <Gold.Chemscore.Fitness>
19.7532

> <Gold.Chemscore.DG>
-21.5433

> <Gold.Chemscore.ZeroCoef>
-5.4800

> <Gold.Chemscore.Hbond>
3.3155

> <Gold.Chemscore.Metal>
0.0000

> <Gold.Chemscore.Lipo>
99.3573

> <Gold.Chemscore.Internal_Hbond>
0.0000

> <Gold.Chemscore.DEClash>
0.3030

> <Gold.Chemscore.DEInternal>
1.4871

> <Gold.Chemscore.Rot>
2.5918

> <Gold.Chemscore.Internal.Correction>
   9.000000E+99

> <Gold.Chemscore.Hbonds>
donor molecule, donor type, donor heavy atom, donor atom, acceptor molecule, acceptor atom, score
      L1  H     5    47       P1  8028  0.78
      P1  H  6931  6943       L1    18  0.87
      P1  H  7989  7998       L1    10  0.72

> <Gold.Chemscore.Hbond.Weighted>
-11.0736

> <Gold.Chemscore.Metal.Weighted>
-0.0000

> <Gold.Chemscore.Lipo.Weighted>
-11.6248

> <Gold.Chemscore.Internal_Hbond.Weighted>
0.0000

> <Gold.Chemscore.DEClash.Weighted>
0.3030

> <Gold.Chemscore.DEInternal.Weighted>
1.4871

> <Gold.Chemscore.Rot.Weighted>
6.6351

> <Gold.Chemscore.Internal.Correction.Weighted>
   9.000000E+99

> <Gold.Protein.RotatedTorsions>
[ 6907 6896 6895 6894 ] final -153.75 input  -60.11 | X-H torsion
[ 7974 7965 7964 7962 ] final -164.58 input  175.53 | X-H torsion
[ 8008 7997 7996 7995 ] final -101.01 input   59.86 | X-H torsion
[ 10167 10162 10161 10158 ] final -115.55 input  -65.29 | X-H torsion
[ 10718 10713 10712 10709 ] final   47.64 input   66.30 | X-H torsion
[ 10763 10752 10751 10750 ] final -153.93 input  -60.55 | X-H torsion
[ 11005 11000 10999 10996 ] final -121.60 input  -57.11 | X-H torsion

> <Gold.Protein.ActiveResidues>
 VAL166  LYS551  ARG553  GLY616  TRP617  ASP618  TYR619  PRO620  LYS621  CYS622 
 ASP623  PHE694  ASN695  SER759  ASP760  ASP761  ALA762  ILE779  LEU786  VAL792 
 PHE793  MET794  SER795  GLU796  ALA797  LYS798  CYS799  TRP800  GLU811  SER814 

> <Gold.Protein.RotatedAtoms>
  151.2473  133.4368  159.2609 H   0  0  0  0  0  0  0  0  0  0  0  0  # atno 6907 bound_to 6896
  151.0650  134.9761  159.8290 H   0  0  0  0  0  0  0  0  0  0  0  0  # atno 6908 bound_to 6896
  152.5404  134.2421  159.8919 H   0  0  0  0  0  0  0  0  0  0  0  0  # atno 6909 bound_to 6896
  144.7293  140.2940  143.6215 H   0  0  0  0  0  0  0  0  0  0  0  0  # atno 7974 bound_to 7965
  154.8366  140.0437  157.1513 H   0  0  0  0  0  0  0  0  0  0  0  0  # atno 8008 bound_to 7997
  154.9093  140.3011  155.5255 H   0  0  0  0  0  0  0  0  0  0  0  0  # atno 8009 bound_to 7997
  156.2990  140.2361  156.4130 H   0  0  0  0  0  0  0  0  0  0  0  0  # atno 8010 bound_to 7997
  140.0888  143.4718  152.1882 H   0  0  0  0  0  0  0  0  0  0  0  0  # atno 10167 bound_to 10162
  157.4606  130.8194  149.7882 H   0  0  0  0  0  0  0  0  0  0  0  0  # atno 10718 bound_to 10713
  154.7894  135.3201  154.7812 H   0  0  0  0  0  0  0  0  0  0  0  0  # atno 10763 bound_to 10752
  153.8505  135.6862  153.4797 H   0  0  0  0  0  0  0  0  0  0  0  0  # atno 10764 bound_to 10752
  153.1558  135.4681  154.9642 H   0  0  0  0  0  0  0  0  0  0  0  0  # atno 10765 bound_to 10752
  141.0058  134.0336  157.3479 H   0  0  0  0  0  0  0  0  0  0  0  0  # atno 11005 bound_to 11000
  145.7826  139.1897  143.2149 LP  0  0  0  0  0  0  0  0  0  0  0  0  # atno 17320 bound_to 7965
  146.0821  140.7752  142.9636 LP  0  0  0  0  0  0  0  0  0  0  0  0  # atno 17321 bound_to 7965
  139.5736  144.7476  151.3824 LP  0  0  0  0  0  0  0  0  0  0  0  0  # atno 17342 bound_to 10162
  140.7039  143.7563  150.7449 LP  0  0  0  0  0  0  0  0  0  0  0  0  # atno 17343 bound_to 10162
  156.0027  130.3871  150.2546 LP  0  0  0  0  0  0  0  0  0  0  0  0  # atno 17370 bound_to 10713
  157.0723  131.0120  151.3186 LP  0  0  0  0  0  0  0  0  0  0  0  0  # atno 17371 bound_to 10713
  139.9063  135.0180  156.7498 LP  0  0  0  0  0  0  0  0  0  0  0  0  # atno 17394 bound_to 11000
  140.6815  133.9470  155.7913 LP  0  0  0  0  0  0  0  0  0  0  0  0  # atno 17395 bound_to 11000

$$$$
