#       Name:                AV-unprocessed.smi:1703
#       Creating user name   scv26
#       Creation time:       Fri Mar 27 08:07:11 2020


#       File generated by GOLD software.
#

@<TRIPOS>MOLECULE
AV-unprocessed.smi:1703
    56    58     1
SMALL
NO_CHARGES


@<TRIPOS>ATOM
      1 ****        -3.7937   3.1221   3.5072 C.3            1 S1                 0.0000
      2 ****        -3.0619   2.7620   2.2100 C.3            1 S1                 0.0000
      3 ****        -2.1694   1.5190   2.3743 C.3            1 S1                 0.0000
      4 ****        -1.5352   1.1309   1.1204 N.3            1 S1                 0.0000
      5 ****        -0.6584  -0.0249   1.3170 C.3            1 S1                 0.0000
      6 ****         0.2738  -0.3594   0.1359 C.3            1 S1                 0.0000
      7 ****         1.2154   0.6866   0.0014 O.3            1 S1                 0.0000
      8 ****         1.0131  -1.6927   0.3610 C.3            1 S1                 0.0000
      9 ****         1.8797  -2.0660  -0.7699 N.pl3          1 S1                 0.0000
     10 ****         1.5781  -2.7177  -1.9306 C.2            1 S1                 0.0000
     11 ****         0.2403  -3.2270  -2.3569 C.3            1 S1                 0.0000
     12 ****        -0.5550  -2.2218  -2.9456 O.3            1 S1                 0.0000
     13 ****         2.7312  -2.8153  -2.6503 N.pl3          1 S1                 1.0000
     14 ****         3.7796  -2.2213  -1.9474 C.ar           1 S1                 0.0000
     15 ****         5.1248  -2.0748  -2.2719 C.ar           1 S1                 0.0000
     16 ****         5.9343  -1.4081  -1.3290 C.ar           1 S1                 0.0000
     17 ****         5.3996  -0.9159  -0.1208 C.ar           1 S1                 0.0000
     18 ****         4.0345  -1.0723   0.1977 C.ar           1 S1                 0.0000
     19 ****         3.2404  -1.7350  -0.7386 C.ar           1 S1                 0.0000
     20 ****        -2.5748   0.8889   0.1207 C.3            1 S1                 0.0000
     21 ****        -3.5214   2.0928  -0.0593 C.3            1 S1                 0.0000
     22 ****        -2.8803   3.2617  -0.8269 C.3            1 S1                 0.0000
     23 ****        -4.0410   2.5099   1.2041 O.3            1 S1                 0.0000
     24 ****        -3.0876   3.3346   4.3103 H              1 S1                 0.0000
     25 ****        -4.4392   2.3070   3.8354 H              1 S1                 0.0000
     26 ****        -4.4167   4.0062   3.3701 H              1 S1                 0.0000
     27 ****        -2.4491   3.6142   1.9146 H              1 S1                 0.0000
     28 ****        -1.4054   1.7259   3.1248 H              1 S1                 0.0000
     29 ****        -2.7655   0.6895   2.7584 H              1 S1                 0.0000
     30 ****        -0.0359   0.1406   2.1977 H              1 S1                 0.0000
     31 ****        -1.2702  -0.8978   1.5501 H              1 S1                 0.0000
     32 ****        -0.2897  -0.4339  -0.7925 H              1 S1                 0.0000
     33 ****         0.7422   1.4970  -0.1148 H              1 S1                 0.0000
     34 ****         1.6028  -1.6691   1.2775 H              1 S1                 0.0000
     35 ****         0.2904  -2.4979   0.4936 H              1 S1                 0.0000
     36 ****         0.3737  -4.0370  -3.0746 H              1 S1                 0.0000
     37 ****        -0.2856  -3.6453  -1.4987 H              1 S1                 0.0000
     38 ****        -1.3849  -2.6006  -3.1933 H              1 S1                 0.0000
     39 ****         5.5358  -2.4479  -3.1985 H              1 S1                 0.0000
     40 ****         6.9853  -1.2694  -1.5376 H              1 S1                 0.0000
     41 ****         6.0487  -0.4062   0.5765 H              1 S1                 0.0000
     42 ****         3.6358  -0.6843   1.1232 H              1 S1                 0.0000
     43 ****        -2.1348   0.6452  -0.8451 H              1 S1                 0.0000
     44 ****        -3.1649   0.0203   0.4172 H              1 S1                 0.0000
     45 ****        -4.3777   1.7597  -0.6463 H              1 S1                 0.0000
     46 ****        -2.5976   2.9545  -1.8339 H              1 S1                 0.0000
     47 ****        -1.9806   3.6308  -0.3353 H              1 S1                 0.0000
     48 ****        -3.5770   4.0949  -0.9196 H              1 S1                 0.0000
     49 ****         2.7919  -3.2541  -3.5600 H              1 S1                 0.0000
     50 ****        -0.9488   1.8692   0.7871 LP             1 S1                 0.0000
     51 ****         1.7978   0.5177  -0.7938 LP             1 S1                 0.0000
     52 ****         1.7817   0.7402   0.8239 LP             1 S1                 0.0000
     53 ****        -0.0947  -1.8594  -3.7561 LP             1 S1                 0.0000
     54 ****        -0.7045  -1.4827  -2.2889 LP             1 S1                 0.0000
     55 ****        -4.5620   3.3515   1.0617 LP             1 S1                 0.0000
     56 ****        -4.6516   1.7926   1.5395 LP             1 S1                 0.0000
@<TRIPOS>BOND
    1    1    2 1     
    2    1   24 1     
    3    1   25 1     
    4    1   26 1     
    5    2   23 1     
    6    2    3 1     
    7    2   27 1     
    8    3    4 1     
    9    3   28 1     
   10    3   29 1     
   11    4    5 1     
   12    4   20 1     
   13    5    6 1     
   14    5   30 1     
   15    5   31 1     
   16    6    7 1     
   17    6    8 1     
   18    6   32 1     
   19    7   33 1     
   20    8    9 1     
   21    8   34 1     
   22    8   35 1     
   23    9   19 1     
   24    9   10 1     
   25   10   11 1     
   26   10   13 2     
   27   11   12 1     
   28   11   36 1     
   29   11   37 1     
   30   12   38 1     
   31   13   14 1     
   32   13   49 1     
   33   14   19 ar    
   34   14   15 ar    
   35   15   16 ar    
   36   15   39 1     
   37   16   17 ar    
   38   16   40 1     
   39   17   18 ar    
   40   17   41 1     
   41   18   19 ar    
   42   18   42 1     
   43   20   21 1     
   44   20   43 1     
   45   20   44 1     
   46   21   22 1     
   47   21   23 1     
   48   21   45 1     
   49   22   46 1     
   50   22   47 1     
   51   22   48 1     
   52    4   50 1     
   53    7   51 1     
   54    7   52 1     
   55   12   53 1     
   56   12   54 1     
   57   23   55 1     
   58   23   56 1     
@<TRIPOS>SUBSTRUCTURE
      1 S1             1
@<TRIPOS>SET
LONE_PAIRS      STATIC     ATOMS    <user>   **** ""
7 50 51 52 53 54 55 56
DONOR_HYDROGENS      STATIC     ATOMS    <user>   **** ""
3 33 38 49
ATOM$BLUE        STATIC     ATOMS    COLORGROUP SYSTEM
7 50 51 52 53 54 55 56
ATOM$RED        STATIC     ATOMS    COLORGROUP SYSTEM
3 33 38 49
