AV-unprocessed.smi:1632|AV-procd|sdf|6529|dock2
  -GOLD-   22720 7213D 1   1.00000     0.00000
 Structure written by MMmdl.
 42 44  0  0  0  0  0  0  0  0  1 V2000
  154.6425  136.0770  157.1132 O   0  0  0  0  0  0  0  0  0  0  0  0
  153.6576  136.3905  158.0733 C   0  0  0  0  0  0  0  0  0  0  0  0
  153.5846  137.9124  158.2652 C   0  0  0  0  0  0  0  0  0  0  0  0
  152.2109  138.4177  158.7431 C   0  0  0  0  0  0  0  0  0  0  0  0
  152.1212  139.9153  158.8546 C   0  0  0  0  0  0  0  0  0  0  0  0
  152.9580  140.5999  159.6362 N   0  0  0  0  0  0  0  0  0  0  0  0
  152.5589  141.9074  159.4465 C   0  0  0  0  0  0  0  0  0  0  0  0
  153.0462  143.1072  160.0123 C   0  0  0  0  0  0  0  0  0  0  0  0
  152.4732  144.3467  159.6599 C   0  0  0  0  0  0  0  0  0  0  0  0
  151.4079  144.4035  158.7383 C   0  0  0  0  0  0  0  0  0  0  0  0
  150.9087  143.2194  158.1622 C   0  0  0  0  0  0  0  0  0  0  0  0
  151.4832  141.9842  158.5184 C   0  0  0  0  0  0  0  0  0  0  0  0
  151.2381  140.6657  158.1439 N   0  0  0  0  0  0  0  0  0  0  0  0
  150.2382  140.2294  157.1768 C   0  0  0  0  0  0  0  0  0  0  0  0
  150.5161  140.7409  155.7501 C   0  0  1  0  0  0  0  0  0  0  0  0
  151.6747  140.1165  155.2296 O   0  0  0  0  0  0  0  0  0  0  0  0
  149.3012  140.5525  154.8523 C   0  0  0  0  0  0  0  0  0  0  0  0
  148.5660  141.6721  154.4023 C   0  0  0  0  0  0  0  0  0  0  0  0
  147.4467  141.4998  153.5653 C   0  0  0  0  0  0  0  0  0  0  0  0
  147.0563  140.2069  153.1690 C   0  0  0  0  0  0  0  0  0  0  0  0
  147.7888  139.0872  153.6069 C   0  0  0  0  0  0  0  0  0  0  0  0
  148.9094  139.2571  154.4436 C   0  0  0  0  0  0  0  0  0  0  0  0
  149.6075  138.1685  154.8480 F   0  0  0  0  0  0  0  0  0  0  0  0
  155.4880  136.0883  157.5353 H   0  0  0  0  0  0  0  0  0  0  0  0
  152.7003  136.0015  157.7274 H   0  0  0  0  0  0  0  0  0  0  0  0
  153.9035  135.8865  159.0084 H   0  0  0  0  0  0  0  0  0  0  0  0
  154.3526  138.2290  158.9723 H   0  0  0  0  0  0  0  0  0  0  0  0
  153.8273  138.3997  157.3201 H   0  0  0  0  0  0  0  0  0  0  0  0
  151.4423  138.0884  158.0432 H   0  0  0  0  0  0  0  0  0  0  0  0
  151.9744  137.9416  159.6927 H   0  0  0  0  0  0  0  0  0  0  0  0
  153.8621  143.0732  160.7188 H   0  0  0  0  0  0  0  0  0  0  0  0
  152.8528  145.2575  160.0990 H   0  0  0  0  0  0  0  0  0  0  0  0
  150.9736  145.3564  158.4738 H   0  0  0  0  0  0  0  0  0  0  0  0
  150.0912  143.2606  157.4580 H   0  0  0  0  0  0  0  0  0  0  0  0
  150.2060  139.1394  157.1808 H   0  0  0  0  0  0  0  0  0  0  0  0
  149.2540  140.5501  157.5180 H   0  0  0  0  0  0  0  0  0  0  0  0
  150.7450  141.8033  155.7968 H   0  0  0  0  0  0  0  0  0  0  0  0
  152.4117  140.3521  155.7721 H   0  0  0  0  0  0  0  0  0  0  0  0
  148.8600  142.6694  154.6956 H   0  0  0  0  0  0  0  0  0  0  0  0
  146.8886  142.3601  153.2265 H   0  0  0  0  0  0  0  0  0  0  0  0
  146.1978  140.0741  152.5270 H   0  0  0  0  0  0  0  0  0  0  0  0
  147.4916  138.0956  153.2990 H   0  0  0  0  0  0  0  0  0  0  0  0
  1  2  1  0  0  0  0
  1 24  1  0  0  0  0
  2  3  1  0  0  0  0
  2 25  1  0  0  0  0
  2 26  1  0  0  0  0
  3  4  1  0  0  0  0
  3 27  1  0  0  0  0
  3 28  1  0  0  0  0
  4  5  1  0  0  0  0
  4 29  1  0  0  0  0
  4 30  1  0  0  0  0
  5 13  1  0  0  0  0
  5  6  2  0  0  0  0
  6  7  1  0  0  0  0
  7 12  2  0  0  0  0
  7  8  1  0  0  0  0
  8  9  2  0  0  0  0
  8 31  1  0  0  0  0
  9 10  1  0  0  0  0
  9 32  1  0  0  0  0
 10 11  2  0  0  0  0
 10 33  1  0  0  0  0
 11 12  1  0  0  0  0
 11 34  1  0  0  0  0
 12 13  1  0  0  0  0
 13 14  1  0  0  0  0
 14 15  1  0  0  0  0
 14 35  1  0  0  0  0
 14 36  1  0  0  0  0
 15 16  1  0  0  0  0
 15 17  1  0  0  0  0
 15 37  1  0  0  0  0
 16 38  1  0  0  0  0
 17 22  1  0  0  0  0
 17 18  2  0  0  0  0
 18 19  1  0  0  0  0
 18 39  1  0  0  0  0
 19 20  2  0  0  0  0
 19 40  1  0  0  0  0
 20 21  1  0  0  0  0
 20 41  1  0  0  0  0
 21 22  2  0  0  0  0
 21 42  1  0  0  0  0
 22 23  1  0  0  0  0
M  END
> <s_m_source_file>
AV-unprocessed.smi

> <i_m_source_file_index>
1632

> <i_lp_mmshare_version>
43012

> <i_f3d_flags>
0

> <s_epik_input>
W09IXVtDSDJdW0NIMl1bQ0gyXWMobjEpbihjKGMxMilbY0hdW2NIXVtjSF1bY0hdMilbQ0gyXVtDQEhdKFtPSF0pYzNbY0hdW2NIXVtjSF1bY0hdYzNG

> <s_epik_cmdline>
J2VwaWtfcHl0aG9uJywgJy1waCcsICc3LjAnLCAnLXRuJywgJzgnLCAnLW1hJywgJzIwMCcsICctbWV0YWxfYmluZGluZycsICctaW1hZScsICc8aW5maWxlLm1hZT4nLCAnLW9tYWUnLCAnPG91dGZpbGUubWFlPic=

> <r_epik_Ionization_Penalty>
0.182561

> <r_epik_Ionization_Penalty_Charging>
0

> <r_epik_Ionization_Penalty_Neutral>
0.182561

> <r_epik_State_Penalty>
0.172086

> <r_epik_Charging_Adjusted_Penalty>
0.172086

> <i_epik_Tot_Q>
0

> <i_epik_Tot_abs_Q>
0

> <r_epik_Metal_State_Penalty>
0.000199649

> <b_epik_Metal_Only>
0

> <s_lp_Force_Field>
OPLS_2005

> <r_lp_Energy>
11.8421

> <b_lp_Chiralities_Consistent>
1

> <s_lp_Variant>
AV-unprocessed.smi:1632-2

> <Gold.Version>
5.8.1

> <Gold.Id.Protein>
6NUR|6NUR_protein|mol2

> <Gold.PLP.Fitness>
53.0697

> <Gold.PLP.PLP>
-47.9233

> <Gold.PLP.part.hbond>
-2.0000

> <Gold.PLP.part.metal>
0.0000

> <Gold.PLP.part.buried>
-4.9041

> <Gold.PLP.part.nonpolar>
-40.6513

> <Gold.PLP.part.repulsive>
0.0000

> <Gold.PLP.ligand.clash>
0.0000

> <Gold.PLP.ligand.torsion>
0.3734

> <Gold.PLP.Chemscore.Hbond>
1.9120

> <Gold.PLP.Chemscore.CHOScore>
0.0000

> <Gold.PLP.Chemscore.Metal>
0.0000

> <Gold.Chemscore.Hbonds>
donor molecule, donor type, donor heavy atom, donor atom, acceptor molecule, acceptor atom, score
      P1  H  7989  7998       L1    16  0.90
      P1  H 10752 10765       L1     1  1.00

> <Gold.PLP.Chemscore.Internal.Correction>
0.1571

> <Gold.Rescore>
     Score         DG    S(hbond)    S(metal)    S(lipo)     H(rot)  DE(clash)    DE(int)     intcor
     15.96     -17.51       1.71        0.00     121.19       3.07       0.02       1.52       ----

> <Gold.Chemscore.Fitness>
15.9650

> <Gold.Chemscore.DG>
-17.5054

> <Gold.Chemscore.ZeroCoef>
-5.4800

> <Gold.Chemscore.Hbond>
1.7114

> <Gold.Chemscore.Metal>
0.0000

> <Gold.Chemscore.Lipo>
121.1894

> <Gold.Chemscore.Internal_Hbond>
0.0000

> <Gold.Chemscore.DEClash>
0.0174

> <Gold.Chemscore.DEInternal>
1.5230

> <Gold.Chemscore.Rot>
3.0741

> <Gold.Chemscore.Internal.Correction>
   9.000000E+99

> <Gold.Chemscore.Hbonds>
donor molecule, donor type, donor heavy atom, donor atom, acceptor molecule, acceptor atom, score
      P1  H  7989  7998       L1    16  0.18
      P1  H 10752 10765       L1     1  0.95

> <Gold.Chemscore.Hbond.Weighted>
-5.7160

> <Gold.Chemscore.Metal.Weighted>
-0.0000

> <Gold.Chemscore.Lipo.Weighted>
-14.1792

> <Gold.Chemscore.Internal_Hbond.Weighted>
0.0000

> <Gold.Chemscore.DEClash.Weighted>
0.0174

> <Gold.Chemscore.DEInternal.Weighted>
1.5230

> <Gold.Chemscore.Rot.Weighted>
7.8698

> <Gold.Chemscore.Internal.Correction.Weighted>
   9.000000E+99

> <Gold.Protein.RotatedTorsions>
[ 6907 6896 6895 6894 ] final   18.06 input  -60.11 | X-H torsion
[ 7974 7965 7964 7962 ] final   51.29 input  175.53 | X-H torsion
[ 8008 7997 7996 7995 ] final   16.86 input   59.86 | X-H torsion
[ 10167 10162 10161 10158 ] final   78.19 input  -65.29 | X-H torsion
[ 10718 10713 10712 10709 ] final  -99.05 input   66.30 | X-H torsion
[ 10763 10752 10751 10750 ] final  -72.52 input  -60.55 | X-H torsion
[ 11005 11000 10999 10996 ] final -133.58 input  -57.11 | X-H torsion

> <Gold.Protein.ActiveResidues>
 VAL166  LYS551  ARG553  GLY616  TRP617  ASP618  TYR619  PRO620  LYS621  CYS622 
 ASP623  PHE694  ASN695  SER759  ASP760  ASP761  ALA762  ILE779  LEU786  VAL792 
 PHE793  MET794  SER795  GLU796  ALA797  LYS798  CYS799  TRP800  GLU811  SER814 

> <Gold.Protein.RotatedAtoms>
  151.8594  135.0529  160.0467 H   0  0  0  0  0  0  0  0  0  0  0  0  # atno 6907 bound_to 6896
  152.2675  133.5348  159.5427 H   0  0  0  0  0  0  0  0  0  0  0  0  # atno 6908 bound_to 6896
  150.7139  134.0660  159.3890 H   0  0  0  0  0  0  0  0  0  0  0  0  # atno 6909 bound_to 6896
  145.9928  139.4357  143.0063 H   0  0  0  0  0  0  0  0  0  0  0  0  # atno 7974 bound_to 7965
  154.8831  140.2976  155.5414 H   0  0  0  0  0  0  0  0  0  0  0  0  # atno 8008 bound_to 7997
  156.3022  140.2438  156.3770 H   0  0  0  0  0  0  0  0  0  0  0  0  # atno 8009 bound_to 7997
  154.8696  140.0402  157.1705 H   0  0  0  0  0  0  0  0  0  0  0  0  # atno 8010 bound_to 7997
  139.9736  144.5877  150.7963 H   0  0  0  0  0  0  0  0  0  0  0  0  # atno 10167 bound_to 10162
  156.0123  130.5265  150.6613 H   0  0  0  0  0  0  0  0  0  0  0  0  # atno 10718 bound_to 10713
  154.4468  135.5927  153.6165 H   0  0  0  0  0  0  0  0  0  0  0  0  # atno 10763 bound_to 10752
  152.9810  135.6011  154.3654 H   0  0  0  0  0  0  0  0  0  0  0  0  # atno 10764 bound_to 10752
  154.3511  135.2841  155.2350 H   0  0  0  0  0  0  0  0  0  0  0  0  # atno 10765 bound_to 10752
  140.9068  134.1620  157.4420 H   0  0  0  0  0  0  0  0  0  0  0  0  # atno 11005 bound_to 11000
  145.7604  140.9937  143.1203 LP  0  0  0  0  0  0  0  0  0  0  0  0  # atno 17320 bound_to 7965
  144.6894  139.9323  143.7472 LP  0  0  0  0  0  0  0  0  0  0  0  0  # atno 17321 bound_to 7965
  140.7513  143.2971  151.3177 LP  0  0  0  0  0  0  0  0  0  0  0  0  # atno 17342 bound_to 10162
  139.6462  144.0446  152.2593 LP  0  0  0  0  0  0  0  0  0  0  0  0  # atno 17343 bound_to 10162
  157.4354  131.0854  151.0996 LP  0  0  0  0  0  0  0  0  0  0  0  0  # atno 17370 bound_to 10713
  157.1556  130.6203  149.5595 LP  0  0  0  0  0  0  0  0  0  0  0  0  # atno 17371 bound_to 10713
  139.8751  134.9920  156.5575 LP  0  0  0  0  0  0  0  0  0  0  0  0  # atno 17394 bound_to 11000
  140.8161  133.8391  155.8853 LP  0  0  0  0  0  0  0  0  0  0  0  0  # atno 17395 bound_to 11000

$$$$
