AV-unprocessed.smi:1120|AV-procd|sdf|4825|dock8
  -GOLD-   22720 3383D 1   1.00000     0.00000
 Structure written by MMmdl.
 48 49  0  0  0  0  0  0  0  0  3 V2000
  151.7961  143.9376  159.4030 C   0  0  0  0  0  0  0  0  0  0  0  0
  151.6092  142.4221  159.2457 C   0  0  2  0  0  0  0  0  0  0  0  0
  152.9621  141.6746  159.2302 C   0  0  0  0  0  0  0  0  0  0  0  0
  152.8089  140.1450  159.0214 C   0  0  0  0  0  0  0  0  0  0  0  0
  151.9972  139.7526  157.7621 C   0  0  2  0  0  0  0  0  0  0  0  0
  152.7706  140.0484  156.5638 N   0  5  0  0  0  0  0  0  0  0  0  0
  152.5840  139.1503  155.2257 S   0  0  0  0  0  0  0  0  0  0  0  0
  151.2874  139.3948  154.5739 O   0  0  0  0  0  0  0  0  0  0  0  0
  153.7761  139.1463  154.3608 O   0  0  0  0  0  0  0  0  0  0  0  0
  152.4624  137.4583  155.9633 C   0  0  0  0  0  0  0  0  0  0  0  0
  151.2565  136.7052  155.3995 C   0  0  0  0  0  0  0  0  0  0  0  0
  150.1264  137.1797  155.5164 O   0  0  0  0  0  0  0  0  0  0  0  0
  151.5081  135.5391  154.7828 N   0  0  0  0  0  0  0  0  0  0  0  0
  150.5024  134.6316  154.2370 C   0  0  0  0  0  0  0  0  0  0  0  0
  151.0834  133.6356  153.2139 C   0  0  0  0  0  0  0  0  0  0  0  0
  150.0505  132.6947  152.6195 C   0  0  0  0  0  0  0  0  0  0  0  0
  150.2090  131.2917  152.6385 C   0  0  0  0  0  0  0  0  0  0  0  0
  149.2210  130.4792  152.0444 C   0  0  0  0  0  0  0  0  0  0  0  0
  148.0957  131.0849  151.4478 C   0  0  0  0  0  0  0  0  0  0  0  0
  147.9868  132.4904  151.4607 C   0  0  0  0  0  0  0  0  0  0  0  0
  148.9536  133.2344  152.0404 N   0  3  0  0  0  0  0  0  0  0  0  0
  150.6610  140.5393  157.7580 C   0  0  0  0  0  0  0  0  0  0  0  0
  150.8238  142.0679  157.9622 C   0  0  0  0  0  0  0  0  0  0  0  0
  152.3644  144.3553  158.5713 H   0  0  0  0  0  0  0  0  0  0  0  0
  152.3317  144.1725  160.3231 H   0  0  0  0  0  0  0  0  0  0  0  0
  150.8345  144.4499  159.4404 H   0  0  0  0  0  0  0  0  0  0  0  0
  151.0356  142.0659  160.1025 H   0  0  0  0  0  0  0  0  0  0  0  0
  153.6032  142.0947  158.4524 H   0  0  0  0  0  0  0  0  0  0  0  0
  153.4854  141.8536  160.1700 H   0  0  0  0  0  0  0  0  0  0  0  0
  153.7930  139.6754  158.9945 H   0  0  0  0  0  0  0  0  0  0  0  0
  152.3088  139.7288  159.8967 H   0  0  0  0  0  0  0  0  0  0  0  0
  151.7741  138.6870  157.8256 H   0  0  0  0  0  0  0  0  0  0  0  0
  153.3895  136.9210  155.7637 H   0  0  0  0  0  0  0  0  0  0  0  0
  152.3658  137.5666  157.0435 H   0  0  0  0  0  0  0  0  0  0  0  0
  152.4685  135.2286  154.7415 H   0  0  0  0  0  0  0  0  0  0  0  0
  150.0688  134.0792  155.0708 H   0  0  0  0  0  0  0  0  0  0  0  0
  149.6818  135.1972  153.7925 H   0  0  0  0  0  0  0  0  0  0  0  0
  151.5730  134.1831  152.4075 H   0  0  0  0  0  0  0  0  0  0  0  0
  151.8629  133.0390  153.6892 H   0  0  0  0  0  0  0  0  0  0  0  0
  151.0811  130.8427  153.0912 H   0  0  0  0  0  0  0  0  0  0  0  0
  149.3273  129.4044  152.0431 H   0  0  0  0  0  0  0  0  0  0  0  0
  147.3299  130.4807  150.9837 H   0  0  0  0  0  0  0  0  0  0  0  0
  147.1648  133.0383  151.0238 H   0  0  0  0  0  0  0  0  0  0  0  0
  150.1062  140.3479  156.8395 H   0  0  0  0  0  0  0  0  0  0  0  0
  150.0337  140.1528  158.5619 H   0  0  0  0  0  0  0  0  0  0  0  0
  149.8358  142.5271  158.0035 H   0  0  0  0  0  0  0  0  0  0  0  0
  151.3175  142.5102  157.0939 H   0  0  0  0  0  0  0  0  0  0  0  0
  148.8595  134.2502  152.0281 H   0  0  0  0  0  0  0  0  0  0  0  0
  1  2  1  0  0  0  0
  1 24  1  0  0  0  0
  1 25  1  0  0  0  0
  1 26  1  0  0  0  0
  2 23  1  0  0  0  0
  2  3  1  0  0  0  0
  2 27  1  0  0  0  0
  3  4  1  0  0  0  0
  3 28  1  0  0  0  0
  3 29  1  0  0  0  0
  4  5  1  0  0  0  0
  4 30  1  0  0  0  0
  4 31  1  0  0  0  0
  5  6  1  0  0  0  0
  5 22  1  0  0  0  0
  5 32  1  0  0  0  0
  6  7  1  0  0  0  0
  7  8  2  0  0  0  0
  7  9  2  0  0  0  0
  7 10  1  0  0  0  0
 10 11  1  0  0  0  0
 10 33  1  0  0  0  0
 10 34  1  0  0  0  0
 11 12  2  0  0  0  0
 11 13  1  0  0  0  0
 13 14  1  0  0  0  0
 13 35  1  0  0  0  0
 14 15  1  0  0  0  0
 14 36  1  0  0  0  0
 14 37  1  0  0  0  0
 15 16  1  0  0  0  0
 15 38  1  0  0  0  0
 15 39  1  0  0  0  0
 16 21  1  0  0  0  0
 16 17  2  0  0  0  0
 17 18  1  0  0  0  0
 17 40  1  0  0  0  0
 18 19  2  0  0  0  0
 18 41  1  0  0  0  0
 19 20  1  0  0  0  0
 19 42  1  0  0  0  0
 20 21  2  0  0  0  0
 20 43  1  0  0  0  0
 21 48  1  0  0  0  0
 22 23  1  0  0  0  0
 22 44  1  0  0  0  0
 22 45  1  0  0  0  0
 23 46  1  0  0  0  0
 23 47  1  0  0  0  0
M  CHG  1   6  -1
M  CHG  1  21   1
M  END
> <s_m_source_file>
AV-unprocessed.smi

> <i_m_source_file_index>
1120

> <i_lp_mmshare_version>
43012

> <i_f3d_flags>
0

> <s_epik_input>
W0NIM11bQ0BASF0xW0NIMl1bQ0gyXVtDQEhdKFtDSDJdW0NIMl0xKVtOSF1TKD1PKSg9TylbQ0gyXUMoPU8pW05IXVtDSDJdW0NIMl1jMltjSF1bY0hdW2NIXVtjSF1uMg==

> <s_epik_cmdline>
J2VwaWtfcHl0aG9uJywgJy1waCcsICc3LjAnLCAnLXRuJywgJzgnLCAnLW1hJywgJzIwMCcsICctbWV0YWxfYmluZGluZycsICctaW1hZScsICc8aW5maWxlLm1hZT4nLCAnLW9tYWUnLCAnPG91dGZpbGUubWFlPic=

> <r_epik_Ionization_Penalty>
7.48373

> <r_epik_Ionization_Penalty_Charging>
7.48373

> <r_epik_Ionization_Penalty_Neutral>
1.58512e-08

> <r_epik_State_Penalty>
7.71683

> <r_epik_Charging_Adjusted_Penalty>
15.2006

> <i_epik_Tot_Q>
0

> <i_epik_Tot_abs_Q>
2

> <r_epik_Metal_State_Penalty>
3.7254

> <b_epik_Metal_Only>
1

> <s_lp_Force_Field>
OPLS_2005

> <r_lp_Energy>
13.616

> <b_lp_Chiralities_Consistent>
1

> <s_lp_Variant>
AV-unprocessed.smi:1120-8

> <Gold.Version>
5.8.1

> <Gold.Id.Protein>
6NUR|6NUR_protein|mol2

> <Gold.PLP.Fitness>
56.6657

> <Gold.PLP.PLP>
-43.1405

> <Gold.PLP.part.hbond>
-4.7063

> <Gold.PLP.part.metal>
0.0000

> <Gold.PLP.part.buried>
-4.8412

> <Gold.PLP.part.nonpolar>
-34.1519

> <Gold.PLP.part.repulsive>
0.2365

> <Gold.PLP.ligand.clash>
0.0000

> <Gold.PLP.ligand.torsion>
1.2936

> <Gold.PLP.Chemscore.Hbond>
5.0000

> <Gold.PLP.Chemscore.CHOScore>
0.0000

> <Gold.PLP.Chemscore.Metal>
0.0000

> <Gold.Chemscore.Hbonds>
donor molecule, donor type, donor heavy atom, donor atom, acceptor molecule, acceptor atom, score
      P1  H  7989  7998       L1     8  1.00
      P1  H  7997  8009       L1     6  1.63
      P1  H  7997  8010       L1     9  0.23

> <Gold.PLP.Chemscore.Internal.Correction>
1.1124

> <Gold.Rescore>
     Score         DG    S(hbond)    S(metal)    S(lipo)     H(rot)  DE(clash)    DE(int)     intcor
     18.12     -21.35       2.72        0.00     101.22       1.98       0.25       2.97       ----

> <Gold.Chemscore.Fitness>
18.1238

> <Gold.Chemscore.DG>
-21.3467

> <Gold.Chemscore.ZeroCoef>
-5.4800

> <Gold.Chemscore.Hbond>
2.7249

> <Gold.Chemscore.Metal>
0.0000

> <Gold.Chemscore.Lipo>
101.2174

> <Gold.Chemscore.Internal_Hbond>
0.0000

> <Gold.Chemscore.DEClash>
0.2497

> <Gold.Chemscore.DEInternal>
2.9731

> <Gold.Chemscore.Rot>
1.9832

> <Gold.Chemscore.Internal.Correction>
   9.000000E+99

> <Gold.Chemscore.Hbonds>
donor molecule, donor type, donor heavy atom, donor atom, acceptor molecule, acceptor atom, score
      P1  H  7989  7998       L1     8  0.40
      P1  H  7997  8009       L1     6  0.29
      P1  H  7997  8010       L1     9  0.14

> <Gold.Chemscore.Hbond.Weighted>
-9.1011

> <Gold.Chemscore.Metal.Weighted>
-0.0000

> <Gold.Chemscore.Lipo.Weighted>
-11.8424

> <Gold.Chemscore.Internal_Hbond.Weighted>
0.0000

> <Gold.Chemscore.DEClash.Weighted>
0.2497

> <Gold.Chemscore.DEInternal.Weighted>
2.9731

> <Gold.Chemscore.Rot.Weighted>
5.0769

> <Gold.Chemscore.Internal.Correction.Weighted>
   9.000000E+99

> <Gold.Protein.RotatedTorsions>
[ 6907 6896 6895 6894 ] final   89.42 input  -60.11 | X-H torsion
[ 7974 7965 7964 7962 ] final   86.35 input  175.53 | X-H torsion
[ 8008 7997 7996 7995 ] final  169.28 input   59.86 | X-H torsion
[ 10167 10162 10161 10158 ] final  147.04 input  -65.29 | X-H torsion
[ 10718 10713 10712 10709 ] final  -28.92 input   66.30 | X-H torsion
[ 10763 10752 10751 10750 ] final  176.85 input  -60.55 | X-H torsion
[ 11005 11000 10999 10996 ] final  144.66 input  -57.11 | X-H torsion

> <Gold.Protein.ActiveResidues>
 VAL166  LYS551  ARG553  GLY616  TRP617  ASP618  TYR619  PRO620  LYS621  CYS622 
 ASP623  PHE694  ASN695  SER759  ASP760  ASP761  ALA762  ILE779  LEU786  VAL792 
 PHE793  MET794  SER795  GLU796  ALA797  LYS798  CYS799  TRP800  GLU811  SER814 

> <Gold.Protein.RotatedAtoms>
  152.5436  134.1970  159.8696 H   0  0  0  0  0  0  0  0  0  0  0  0  # atno 6907 bound_to 6896
  151.1961  133.4631  159.2603 H   0  0  0  0  0  0  0  0  0  0  0  0  # atno 6908 bound_to 6896
  151.1035  134.9998  159.8515 H   0  0  0  0  0  0  0  0  0  0  0  0  # atno 6909 bound_to 6896
  145.5734  139.2316  143.2393 H   0  0  0  0  0  0  0  0  0  0  0  0  # atno 7974 bound_to 7965
  156.1471  140.1568  156.8829 H   0  0  0  0  0  0  0  0  0  0  0  0  # atno 8008 bound_to 7997
  154.5038  140.0818  156.7889 H   0  0  0  0  0  0  0  0  0  0  0  0  # atno 8009 bound_to 7997
  155.3968  140.3412  155.4257 H   0  0  0  0  0  0  0  0  0  0  0  0  # atno 8010 bound_to 7997
  139.4896  144.5785  151.6919 H   0  0  0  0  0  0  0  0  0  0  0  0  # atno 10167 bound_to 10162
  156.4191  130.4423  149.7197 H   0  0  0  0  0  0  0  0  0  0  0  0  # atno 10718 bound_to 10713
  154.4867  135.2777  155.1529 H   0  0  0  0  0  0  0  0  0  0  0  0  # atno 10763 bound_to 10752
  154.3217  135.6208  153.5514 H   0  0  0  0  0  0  0  0  0  0  0  0  # atno 10764 bound_to 10752
  152.9882  135.5744  154.5279 H   0  0  0  0  0  0  0  0  0  0  0  0  # atno 10765 bound_to 10752
  140.0650  134.9184  157.1248 H   0  0  0  0  0  0  0  0  0  0  0  0  # atno 11005 bound_to 11000
  146.1768  140.6561  142.9208 LP  0  0  0  0  0  0  0  0  0  0  0  0  # atno 17320 bound_to 7965
  144.7427  140.4985  143.6858 LP  0  0  0  0  0  0  0  0  0  0  0  0  # atno 17321 bound_to 7965
  140.5386  144.0616  150.6079 LP  0  0  0  0  0  0  0  0  0  0  0  0  # atno 17342 bound_to 10162
  140.3630  143.2897  152.0362 LP  0  0  0  0  0  0  0  0  0  0  0  0  # atno 17343 bound_to 10162
  156.4145  130.7738  151.2753 LP  0  0  0  0  0  0  0  0  0  0  0  0  # atno 17370 bound_to 10713
  157.7508  131.0201  150.3696 LP  0  0  0  0  0  0  0  0  0  0  0  0  # atno 17371 bound_to 10713
  140.3713  134.2387  155.7178 LP  0  0  0  0  0  0  0  0  0  0  0  0  # atno 17394 bound_to 11000
  141.1989  133.8025  157.0562 LP  0  0  0  0  0  0  0  0  0  0  0  0  # atno 17395 bound_to 11000

$$$$
