AV-unprocessed.smi:158|AV-procd|sdf|1337|dock10
  -GOLD-   2262019 33D 1   1.00000     0.00000
 Structure written by MMmdl.
 31 33  0  0  0  0  0  0  0  0  1 V2000
  155.4908  141.0348  160.7863 N   0  0  0  0  0  0  0  0  0  0  0  0
  154.3176  141.3089  160.1991 C   0  0  0  0  0  0  0  0  0  0  0  0
  153.6630  142.4362  160.5638 N   0  0  0  0  0  0  0  0  0  0  0  0
  152.4882  142.7476  160.0016 C   0  0  0  0  0  0  0  0  0  0  0  0
  151.7417  144.2054  160.5407 Cl  0  0  0  0  0  0  0  0  0  0  0  0
  151.8267  142.0545  159.0691 N   0  0  0  0  0  0  0  0  0  0  0  0
  152.4835  140.9168  158.7008 C   0  0  0  0  0  0  0  0  0  0  0  0
  153.7308  140.4752  159.2162 C   0  0  0  0  0  0  0  0  0  0  0  0
  154.0975  139.2811  158.6096 N   0  0  0  0  0  0  0  0  0  0  0  0
  153.1175  139.0360  157.7807 C   0  0  0  0  0  0  0  0  0  0  0  0
  152.1010  139.9659  157.7780 N   0  0  0  0  0  0  0  0  0  0  0  0
  150.8616  139.9718  156.9469 C   0  0  2  0  0  0  0  0  0  0  0  0
  151.0132  140.9370  155.9566 O   0  0  0  0  0  0  0  0  0  0  0  0
  149.7478  141.5042  155.6364 C   0  0  1  0  0  0  0  0  0  0  0  0
  149.0768  140.6579  154.5358 C   0  0  0  0  0  0  0  0  0  0  0  0
  149.4689  141.1225  153.2619 O   0  0  0  0  0  0  0  0  0  0  0  0
  148.9804  141.4670  156.9677 C   0  0  2  0  0  0  0  0  0  0  0  0
  149.0928  142.7055  157.6407 O   0  0  0  0  0  0  0  0  0  0  0  0
  149.6313  140.3520  157.7793 C   0  0  1  0  0  0  0  0  0  0  0  0
  148.8169  139.2988  157.8573 F   0  0  0  0  0  0  0  0  0  0  0  0
  150.8006  138.9747  156.5085 H   0  0  0  0  0  0  0  0  0  0  0  0
  149.8687  142.5302  155.2840 H   0  0  0  0  0  0  0  0  0  0  0  0
  147.9159  141.2841  156.8150 H   0  0  0  0  0  0  0  0  0  0  0  0
  149.8956  140.6516  158.7950 H   0  0  0  0  0  0  0  0  0  0  0  0
  155.9978  140.1994  160.5312 H   0  0  0  0  0  0  0  0  0  0  0  0
  155.8652  141.6630  161.4826 H   0  0  0  0  0  0  0  0  0  0  0  0
  153.1086  138.1619  157.1458 H   0  0  0  0  0  0  0  0  0  0  0  0
  149.3049  139.5968  154.6374 H   0  0  0  0  0  0  0  0  0  0  0  0
  147.9927  140.7587  154.5915 H   0  0  0  0  0  0  0  0  0  0  0  0
  149.2888  140.4473  152.6258 H   0  0  0  0  0  0  0  0  0  0  0  0
  149.0314  143.4014  157.0043 H   0  0  0  0  0  0  0  0  0  0  0  0
  1  2  1  0  0  0  0
  1 25  1  0  0  0  0
  1 26  1  0  0  0  0
  2  8  1  0  0  0  0
  2  3  2  0  0  0  0
  3  4  1  0  0  0  0
  4  5  1  0  0  0  0
  4  6  2  0  0  0  0
  6  7  1  0  0  0  0
  7 11  1  0  0  0  0
  7  8  2  0  0  0  0
  8  9  1  0  0  0  0
  9 10  2  0  0  0  0
 10 11  1  0  0  0  0
 10 27  1  0  0  0  0
 11 12  1  0  0  0  0
 12 21  1  0  0  0  0
 12 19  1  0  0  0  0
 12 13  1  0  0  0  0
 13 14  1  0  0  0  0
 14 22  1  0  0  0  0
 14 15  1  0  0  0  0
 14 17  1  0  0  0  0
 15 16  1  0  0  0  0
 15 28  1  0  0  0  0
 15 29  1  0  0  0  0
 16 30  1  0  0  0  0
 17 23  1  0  0  0  0
 17 18  1  0  0  0  0
 17 19  1  0  0  0  0
 18 31  1  0  0  0  0
 19 24  1  0  0  0  0
 19 20  1  0  0  0  0
M  END
> <s_m_source_file>
AV-unprocessed.smi

> <i_m_source_file_index>
158

> <i_lp_mmshare_version>
43012

> <i_f3d_flags>
0

> <s_epik_input>
Q2xjKG4xKW5jKFtOSDJdKWMoYzEyKW5bY0hdbjJbQ0BASF0zT1tDQEhdKFtDSDJdW09IXSlbQ0BASF0oW09IXSlbQ0BASF0zRg==

> <s_epik_cmdline>
J2VwaWtfcHl0aG9uJywgJy1waCcsICc3LjAnLCAnLXRuJywgJzgnLCAnLW1hJywgJzIwMCcsICctbWV0YWxfYmluZGluZycsICctaW1hZScsICc8aW5maWxlLm1hZT4nLCAnLW9tYWUnLCAnPG91dGZpbGUubWFlPic=

> <r_lp_tautomer_probability>
1

> <r_epik_Ionization_Penalty>
6.51543e-05

> <r_epik_Ionization_Penalty_Charging>
0

> <r_epik_Ionization_Penalty_Neutral>
6.51543e-05

> <r_epik_State_Penalty>
-0

> <r_epik_Charging_Adjusted_Penalty>
0

> <i_epik_Tot_Q>
0

> <i_epik_Tot_abs_Q>
0

> <r_epik_Metal_State_Penalty>
-0

> <b_epik_Metal_Only>
0

> <s_epik_Chemistry_Notes>
This compound contains an acetal/aminal-like group ( X-CH(R)-Y where X, Y are N, S, or O) that may be acid/base labile, releasing an aldehyde.

> <s_lp_Force_Field>
OPLS_2005

> <r_lp_Energy>
33.5879

> <b_lp_Chiralities_Consistent>
1

> <s_lp_Variant>
AV-unprocessed.smi:158-15

> <Gold.Version>
5.8.1

> <Gold.Id.Protein>
6NUR|6NUR_protein|mol2

> <Gold.PLP.Fitness>
42.2770

> <Gold.PLP.PLP>
-33.3572

> <Gold.PLP.part.hbond>
-5.4076

> <Gold.PLP.part.metal>
0.0000

> <Gold.PLP.part.buried>
-4.5128

> <Gold.PLP.part.nonpolar>
-23.1754

> <Gold.PLP.part.repulsive>
0.0579

> <Gold.PLP.ligand.clash>
0.0000

> <Gold.PLP.ligand.torsion>
0.6714

> <Gold.PLP.Chemscore.Hbond>
3.4166

> <Gold.PLP.Chemscore.CHOScore>
0.0000

> <Gold.PLP.Chemscore.Metal>
0.0000

> <Gold.Chemscore.Hbonds>
donor molecule, donor type, donor heavy atom, donor atom, acceptor molecule, acceptor atom, score
      L1  H    16    30       P1  7957  0.82
      L1  H    18    31       P1  8028  1.00
      P1  H  7989  7998       L1    16  0.09
      P1  H  7997  8009       L1     9  0.63
      P1  H  8011  8017       L1    16  1.00

> <Gold.PLP.Chemscore.Internal.Correction>
0.0128

> <Gold.Rescore>
     Score         DG    S(hbond)    S(metal)    S(lipo)     H(rot)  DE(clash)    DE(int)     intcor
     10.28     -10.59       2.44        0.00      42.22       3.12       0.02       0.28       ----

> <Gold.Chemscore.Fitness>
10.2838

> <Gold.Chemscore.DG>
-10.5882

> <Gold.Chemscore.ZeroCoef>
-5.4800

> <Gold.Chemscore.Hbond>
2.4442

> <Gold.Chemscore.Metal>
0.0000

> <Gold.Chemscore.Lipo>
42.2188

> <Gold.Chemscore.Internal_Hbond>
0.0000

> <Gold.Chemscore.DEClash>
0.0196

> <Gold.Chemscore.DEInternal>
0.2849

> <Gold.Chemscore.Rot>
3.1230

> <Gold.Chemscore.Internal.Correction>
   9.000000E+99

> <Gold.Chemscore.Hbonds>
donor molecule, donor type, donor heavy atom, donor atom, acceptor molecule, acceptor atom, score
      L1  H    16    30       P1  7957  0.78
      L1  H    18    31       P1  8028  0.74
      P1  H  7989  7998       L1    16  0.01
      P1  H  7997  8009       L1     9  0.01
      P1  H  8011  8017       L1    16  0.34

> <Gold.Chemscore.Hbond.Weighted>
-8.1636

> <Gold.Chemscore.Metal.Weighted>
-0.0000

> <Gold.Chemscore.Lipo.Weighted>
-4.9396

> <Gold.Chemscore.Internal_Hbond.Weighted>
0.0000

> <Gold.Chemscore.DEClash.Weighted>
0.0196

> <Gold.Chemscore.DEInternal.Weighted>
0.2849

> <Gold.Chemscore.Rot.Weighted>
7.9950

> <Gold.Chemscore.Internal.Correction.Weighted>
   9.000000E+99

> <Gold.Protein.RotatedTorsions>
[ 6907 6896 6895 6894 ] final  -87.56 input  -60.11 | X-H torsion
[ 7974 7965 7964 7962 ] final  178.18 input  175.53 | X-H torsion
[ 8008 7997 7996 7995 ] final  114.44 input   59.86 | X-H torsion
[ 10167 10162 10161 10158 ] final  141.82 input  -65.29 | X-H torsion
[ 10718 10713 10712 10709 ] final  142.36 input   66.30 | X-H torsion
[ 10763 10752 10751 10750 ] final  -91.21 input  -60.55 | X-H torsion
[ 11005 11000 10999 10996 ] final -141.20 input  -57.11 | X-H torsion

> <Gold.Protein.ActiveResidues>
 VAL166  LYS551  ARG553  GLY616  TRP617  ASP618  TYR619  PRO620  LYS621  CYS622 
 ASP623  PHE694  ASN695  SER759  ASP760  ASP761  ALA762  ILE779  LEU786  VAL792 
 PHE793  MET794  SER795  GLU796  ALA797  LYS798  CYS799  TRP800  GLU811  SER814 

> <Gold.Protein.RotatedAtoms>
  150.6866  134.2877  159.4653 H   0  0  0  0  0  0  0  0  0  0  0  0  # atno 6907 bound_to 6896
  152.0785  134.9484  160.0583 H   0  0  0  0  0  0  0  0  0  0  0  0  # atno 6908 bound_to 6896
  152.0846  133.4135  159.4553 H   0  0  0  0  0  0  0  0  0  0  0  0  # atno 6909 bound_to 6896
  144.7159  140.0359  143.6438 H   0  0  0  0  0  0  0  0  0  0  0  0  # atno 7974 bound_to 7965
  156.2321  140.2959  156.0216 H   0  0  0  0  0  0  0  0  0  0  0  0  # atno 8008 bound_to 7997
  155.2195  140.0415  157.2963 H   0  0  0  0  0  0  0  0  0  0  0  0  # atno 8009 bound_to 7997
  154.6014  140.2428  155.7795 H   0  0  0  0  0  0  0  0  0  0  0  0  # atno 8010 bound_to 7997
  139.5010  144.6147  151.6191 H   0  0  0  0  0  0  0  0  0  0  0  0  # atno 10167 bound_to 10162
  157.3815  131.0993  151.0734 H   0  0  0  0  0  0  0  0  0  0  0  0  # atno 10718 bound_to 10713
  154.6737  135.5276  153.8172 H   0  0  0  0  0  0  0  0  0  0  0  0  # atno 10763 bound_to 10752
  153.0518  135.6535  154.0684 H   0  0  0  0  0  0  0  0  0  0  0  0  # atno 10764 bound_to 10752
  154.0580  135.2964  155.3309 H   0  0  0  0  0  0  0  0  0  0  0  0  # atno 10765 bound_to 10752
  140.8348  134.2474  157.4839 H   0  0  0  0  0  0  0  0  0  0  0  0  # atno 11005 bound_to 11000
  146.0064  139.3133  143.0897 LP  0  0  0  0  0  0  0  0  0  0  0  0  # atno 17320 bound_to 7965
  145.8733  140.9407  143.0639 LP  0  0  0  0  0  0  0  0  0  0  0  0  # atno 17321 bound_to 7965
  140.5832  143.9910  150.6280 LP  0  0  0  0  0  0  0  0  0  0  0  0  # atno 17342 bound_to 10162
  140.3066  143.3225  152.0920 LP  0  0  0  0  0  0  0  0  0  0  0  0  # atno 17343 bound_to 10162
  157.1801  130.6306  149.5669 LP  0  0  0  0  0  0  0  0  0  0  0  0  # atno 17370 bound_to 10713
  155.9777  130.4756  150.6608 LP  0  0  0  0  0  0  0  0  0  0  0  0  # atno 17371 bound_to 10713
  139.8704  134.9605  156.4365 LP  0  0  0  0  0  0  0  0  0  0  0  0  # atno 17394 bound_to 11000
  140.8959  133.7814  155.9625 LP  0  0  0  0  0  0  0  0  0  0  0  0  # atno 17395 bound_to 11000

$$$$
