AV-unprocessed.smi:1670|AV-procd|sdf|6694|dock10
  -GOLD-   22720 7423D 1   1.00000     0.00000
 Structure written by MMmdl.
 41 42  0  0  0  0  0  0  0  0  1 V2000
  150.0773  132.5776  155.0184 C   0  0  0  0  0  0  0  0  0  0  0  0
  149.6070  134.0382  154.9915 C   0  0  1  0  0  0  0  0  0  0  0  0
  150.8031  135.0145  155.0141 C   0  0  0  0  0  0  0  0  0  0  0  0
  150.3904  136.4034  155.1185 N   0  0  0  0  0  0  0  0  0  0  0  0
  150.7909  137.4747  154.3483 C   0  0  0  0  0  0  0  0  0  0  0  0
  150.1533  138.5820  154.8294 C   0  0  0  0  0  0  0  0  0  0  0  0
  149.3724  138.0804  155.9081 C   0  0  0  0  0  0  0  0  0  0  0  0
  149.5118  136.7753  156.0753 N   0  0  0  0  0  0  0  0  0  0  0  0
  148.7824  134.2508  153.8024 N   0  0  0  0  0  0  0  0  0  0  0  0
  147.6853  133.5504  153.4796 C   0  0  0  0  0  0  0  0  0  0  0  0
  147.2580  132.6001  154.1353 O   0  0  0  0  0  0  0  0  0  0  0  0
  147.1027  134.0307  152.3701 N   0  0  0  0  0  0  0  0  0  0  0  0
  145.8586  133.5707  151.7510 C   0  0  2  0  0  0  0  0  0  0  0  0
  145.9389  132.1012  151.2828 C   0  0  0  0  0  0  0  0  0  0  0  0
  144.5902  131.6326  150.7128 C   0  0  0  0  0  0  0  0  0  0  0  0
  144.1168  132.5584  149.5776 C   0  0  1  0  0  0  0  0  0  0  0  0
  142.8476  132.1364  149.1254 O   0  0  0  0  0  0  0  0  0  0  0  0
  144.0333  134.0224  150.0474 C   0  0  0  0  0  0  0  0  0  0  0  0
  145.3802  134.4993  150.6141 C   0  0  0  0  0  0  0  0  0  0  0  0
  150.6713  132.3743  155.9099 H   0  0  0  0  0  0  0  0  0  0  0  0
  150.6909  132.3404  154.1485 H   0  0  0  0  0  0  0  0  0  0  0  0
  149.2297  131.8917  155.0262 H   0  0  0  0  0  0  0  0  0  0  0  0
  149.0082  134.1988  155.8899 H   0  0  0  0  0  0  0  0  0  0  0  0
  151.4456  134.7966  155.8677 H   0  0  0  0  0  0  0  0  0  0  0  0
  151.4201  134.8880  154.1227 H   0  0  0  0  0  0  0  0  0  0  0  0
  151.4937  137.3613  153.5360 H   0  0  0  0  0  0  0  0  0  0  0  0
  150.2351  139.5962  154.4679 H   0  0  0  0  0  0  0  0  0  0  0  0
  148.7118  138.6217  156.5693 H   0  0  0  0  0  0  0  0  0  0  0  0
  149.0480  135.0159  153.1999 H   0  0  0  0  0  0  0  0  0  0  0  0
  147.5516  134.8152  151.9206 H   0  0  0  0  0  0  0  0  0  0  0  0
  145.1133  133.6186  152.5460 H   0  0  0  0  0  0  0  0  0  0  0  0
  146.7067  131.9834  150.5175 H   0  0  0  0  0  0  0  0  0  0  0  0
  146.2306  131.4577  152.1138 H   0  0  0  0  0  0  0  0  0  0  0  0
  144.6796  130.6083  150.3492 H   0  0  0  0  0  0  0  0  0  0  0  0
  143.8471  131.6144  151.5115 H   0  0  0  0  0  0  0  0  0  0  0  0
  144.8119  132.4874  148.7398 H   0  0  0  0  0  0  0  0  0  0  0  0
  142.2231  132.8238  149.3001 H   0  0  0  0  0  0  0  0  0  0  0  0
  143.7333  134.6660  149.2196 H   0  0  0  0  0  0  0  0  0  0  0  0
  143.2629  134.1230  150.8136 H   0  0  0  0  0  0  0  0  0  0  0  0
  145.2835  135.5220  150.9803 H   0  0  0  0  0  0  0  0  0  0  0  0
  146.1130  134.5274  149.8074 H   0  0  0  0  0  0  0  0  0  0  0  0
  1  2  1  0  0  0  0
  1 20  1  0  0  0  0
  1 21  1  0  0  0  0
  1 22  1  0  0  0  0
  2  3  1  0  0  0  0
  2  9  1  0  0  0  0
  2 23  1  0  0  0  0
  3  4  1  0  0  0  0
  3 24  1  0  0  0  0
  3 25  1  0  0  0  0
  4  8  1  0  0  0  0
  4  5  1  0  0  0  0
  5  6  2  0  0  0  0
  5 26  1  0  0  0  0
  6  7  1  0  0  0  0
  6 27  1  0  0  0  0
  7  8  2  0  0  0  0
  7 28  1  0  0  0  0
  9 10  1  0  0  0  0
  9 29  1  0  0  0  0
 10 11  2  0  0  0  0
 10 12  1  0  0  0  0
 12 13  1  0  0  0  0
 12 30  1  0  0  0  0
 13 19  1  0  0  0  0
 13 14  1  0  0  0  0
 13 31  1  0  0  0  0
 14 15  1  0  0  0  0
 14 32  1  0  0  0  0
 14 33  1  0  0  0  0
 15 16  1  0  0  0  0
 15 34  1  0  0  0  0
 15 35  1  0  0  0  0
 16 17  1  0  0  0  0
 16 18  1  0  0  0  0
 16 36  1  0  0  0  0
 17 37  1  0  0  0  0
 18 19  1  0  0  0  0
 18 38  1  0  0  0  0
 18 39  1  0  0  0  0
 19 40  1  0  0  0  0
 19 41  1  0  0  0  0
M  END
> <s_m_source_file>
AV-unprocessed.smi

> <i_m_source_file_index>
1670

> <i_lp_mmshare_version>
43012

> <i_f3d_flags>
0

> <s_epik_input>
bjFbY0hdW2NIXVtjSF1uMVtDSDJdW0NAQEhdKFtDSDNdKVtOSF1DKD1PKVtOSF1bQ0BASF0yW0NIMl1bQ0gyXVtDQEBIXShbT0hdKVtDSDJdW0NIMl0y

> <s_epik_cmdline>
J2VwaWtfcHl0aG9uJywgJy1waCcsICc3LjAnLCAnLXRuJywgJzgnLCAnLW1hJywgJzIwMCcsICctbWV0YWxfYmluZGluZycsICctaW1hZScsICc8aW5maWxlLm1hZT4nLCAnLW9tYWUnLCAnPG91dGZpbGUubWFlPic=

> <r_lp_tautomer_probability>
1

> <r_epik_Ionization_Penalty>
7.33369e-05

> <r_epik_Ionization_Penalty_Charging>
0

> <r_epik_Ionization_Penalty_Neutral>
7.33369e-05

> <r_epik_State_Penalty>
-0

> <r_epik_Charging_Adjusted_Penalty>
0

> <i_epik_Tot_Q>
0

> <i_epik_Tot_abs_Q>
0

> <r_epik_Metal_State_Penalty>
-0

> <b_epik_Metal_Only>
0

> <s_lp_Force_Field>
OPLS_2005

> <r_lp_Energy>
5.2693

> <b_lp_Chiralities_Consistent>
1

> <s_lp_Variant>
AV-unprocessed.smi:1670-2

> <Gold.Version>
5.8.1

> <Gold.Id.Protein>
6NUR|6NUR_protein|mol2

> <Gold.PLP.Fitness>
48.8020

> <Gold.PLP.PLP>
-34.3153

> <Gold.PLP.part.hbond>
-5.0000

> <Gold.PLP.part.metal>
0.0000

> <Gold.PLP.part.buried>
-2.4264

> <Gold.PLP.part.nonpolar>
-26.9458

> <Gold.PLP.part.repulsive>
0.1017

> <Gold.PLP.ligand.clash>
0.0000

> <Gold.PLP.ligand.torsion>
0.1576

> <Gold.PLP.Chemscore.Hbond>
3.9750

> <Gold.PLP.Chemscore.CHOScore>
0.9427

> <Gold.PLP.Chemscore.Metal>
0.0000

> <Gold.Chemscore.Hbonds>
donor molecule, donor type, donor heavy atom, donor atom, acceptor molecule, acceptor atom, score
      L1  H     9    29       P1  7948  0.90
      L1  H    12    30       P1  7948  1.00
      L1  H    17    37       P1 10186  1.00
      P1  H 10785 10796       L1    17  0.93
      L1  C     5    26       P1  7949  0.93

> <Gold.PLP.Chemscore.Internal.Correction>
0.0487

> <Gold.Rescore>
     Score         DG    S(hbond)    S(metal)    S(lipo)     H(rot)  DE(clash)    DE(int)     intcor
     17.74     -18.99       3.32        0.00      69.38       2.22       0.20       1.05       ----

> <Gold.Chemscore.Fitness>
17.7395

> <Gold.Chemscore.DG>
-18.9897

> <Gold.Chemscore.ZeroCoef>
-5.4800

> <Gold.Chemscore.Hbond>
3.3177

> <Gold.Chemscore.Metal>
0.0000

> <Gold.Chemscore.Lipo>
69.3835

> <Gold.Chemscore.Internal_Hbond>
0.0000

> <Gold.Chemscore.DEClash>
0.2047

> <Gold.Chemscore.DEInternal>
1.0456

> <Gold.Chemscore.Rot>
2.2224

> <Gold.Chemscore.Internal.Correction>
   9.000000E+99

> <Gold.Chemscore.Hbonds>
donor molecule, donor type, donor heavy atom, donor atom, acceptor molecule, acceptor atom, score
      L1  H     9    29       P1  7948  0.18
      L1  H    12    30       P1  7948  0.67
      L1  H    17    37       P1 10186  0.95
      P1  H 10785 10796       L1    17  0.31

> <Gold.Chemscore.Hbond.Weighted>
-11.0812

> <Gold.Chemscore.Metal.Weighted>
-0.0000

> <Gold.Chemscore.Lipo.Weighted>
-8.1179

> <Gold.Chemscore.Internal_Hbond.Weighted>
0.0000

> <Gold.Chemscore.DEClash.Weighted>
0.2047

> <Gold.Chemscore.DEInternal.Weighted>
1.0456

> <Gold.Chemscore.Rot.Weighted>
5.6893

> <Gold.Chemscore.Internal.Correction.Weighted>
   9.000000E+99

> <Gold.Protein.RotatedTorsions>
[ 6907 6896 6895 6894 ] final  -14.97 input  -60.11 | X-H torsion
[ 7974 7965 7964 7962 ] final  -33.31 input  175.53 | X-H torsion
[ 8008 7997 7996 7995 ] final  120.40 input   59.86 | X-H torsion
[ 10167 10162 10161 10158 ] final   60.53 input  -65.29 | X-H torsion
[ 10718 10713 10712 10709 ] final  -78.75 input   66.30 | X-H torsion
[ 10763 10752 10751 10750 ] final  -32.93 input  -60.55 | X-H torsion
[ 11005 11000 10999 10996 ] final -143.54 input  -57.11 | X-H torsion

> <Gold.Protein.ActiveResidues>
 VAL166  LYS551  ARG553  GLY616  TRP617  ASP618  TYR619  PRO620  LYS621  CYS622 
 ASP623  PHE694  ASN695  SER759  ASP760  ASP761  ALA762  ILE779  LEU786  VAL792 
 PHE793  MET794  SER795  GLU796  ALA797  LYS798  CYS799  TRP800  GLU811  SER814 

> <Gold.Protein.RotatedAtoms>
  151.3312  135.0842  159.9339 H   0  0  0  0  0  0  0  0  0  0  0  0  # atno 6907 bound_to 6896
  152.5234  133.9541  159.7696 H   0  0  0  0  0  0  0  0  0  0  0  0  # atno 6908 bound_to 6896
  150.9880  133.6125  159.2742 H   0  0  0  0  0  0  0  0  0  0  0  0  # atno 6909 bound_to 6896
  146.0921  140.5900  142.8859 H   0  0  0  0  0  0  0  0  0  0  0  0  # atno 7974 bound_to 7965
  156.2641  140.2831  156.1143 H   0  0  0  0  0  0  0  0  0  0  0  0  # atno 8008 bound_to 7997
  155.1223  140.0392  157.2771 H   0  0  0  0  0  0  0  0  0  0  0  0  # atno 8009 bound_to 7997
  154.6661  140.2577  155.7063 H   0  0  0  0  0  0  0  0  0  0  0  0  # atno 8010 bound_to 7997
  140.1646  144.4337  150.6692 H   0  0  0  0  0  0  0  0  0  0  0  0  # atno 10167 bound_to 10162
  156.0109  130.4527  150.3544 H   0  0  0  0  0  0  0  0  0  0  0  0  # atno 10718 bound_to 10713
  153.8219  135.6873  153.4826 H   0  0  0  0  0  0  0  0  0  0  0  0  # atno 10763 bound_to 10752
  153.1564  135.4597  154.9708 H   0  0  0  0  0  0  0  0  0  0  0  0  # atno 10764 bound_to 10752
  154.7924  135.3306  154.7690 H   0  0  0  0  0  0  0  0  0  0  0  0  # atno 10765 bound_to 10752
  140.8115  134.2739  157.4939 H   0  0  0  0  0  0  0  0  0  0  0  0  # atno 11005 bound_to 11000
  144.7368  140.4830  143.6898 LP  0  0  0  0  0  0  0  0  0  0  0  0  # atno 17320 bound_to 7965
  145.6019  139.1504  143.3124 LP  0  0  0  0  0  0  0  0  0  0  0  0  # atno 17321 bound_to 7965
  140.6621  143.2255  151.5831 LP  0  0  0  0  0  0  0  0  0  0  0  0  # atno 17342 bound_to 10162
  139.5365  144.2766  152.1263 LP  0  0  0  0  0  0  0  0  0  0  0  0  # atno 17343 bound_to 10162
  157.1635  131.0351  151.2829 LP  0  0  0  0  0  0  0  0  0  0  0  0  # atno 17370 bound_to 10713
  157.4290  130.7480  149.6975 LP  0  0  0  0  0  0  0  0  0  0  0  0  # atno 17371 bound_to 10713
  139.8714  134.9486  156.4000 LP  0  0  0  0  0  0  0  0  0  0  0  0  # atno 17394 bound_to 11000
  140.9193  133.7656  155.9886 LP  0  0  0  0  0  0  0  0  0  0  0  0  # atno 17395 bound_to 11000

$$$$
