AV-unprocessed.smi:1047|AV-procd|sdf|4575|dock3
  -GOLD-   22720 3 33D 1   1.00000     0.00000
 Structure written by MMmdl.
 56 58  0  0  0  0  0  0  0  0  2 V2000
  141.1899  146.2093  155.1078 C   0  0  0  0  0  0  0  0  0  0  0  0
  142.5677  146.5783  155.6755 C   0  0  0  0  0  0  0  0  0  0  0  0
  143.6531  145.7198  155.1392 N   0  3  2  0  0  0  0  0  0  0  0  0
  143.7280  145.7641  153.6594 C   0  0  0  0  0  0  0  0  0  0  0  0
  144.9092  144.9194  153.1540 C   0  0  0  0  0  0  0  0  0  0  0  0
  144.7762  143.5810  153.6153 O   0  0  0  0  0  0  0  0  0  0  0  0
  144.7654  143.4975  155.0369 C   0  0  2  0  0  0  0  0  0  0  0  0
  144.7514  142.0155  155.4477 C   0  0  0  0  0  0  0  0  0  0  0  0
  145.6182  141.2083  154.5945 N   0  0  0  0  0  0  0  0  0  0  0  0
  146.9115  141.8288  154.3178 C   0  0  0  0  0  0  0  0  0  0  0  0
  148.0847  140.9302  154.7491 C   0  0  2  0  0  0  0  0  0  0  0  0
  147.8125  140.3948  156.0302 O   0  0  0  0  0  0  0  0  0  0  0  0
  149.4614  141.6262  154.7063 C   0  0  0  0  0  0  0  0  0  0  0  0
  150.4027  141.0416  155.6440 N   0  0  0  0  0  0  0  0  0  0  0  0
  150.9052  139.7925  155.6173 C   0  0  0  0  0  0  0  0  0  0  0  0
  151.7532  139.4570  156.5853 N   0  0  0  0  0  0  0  0  0  0  0  0
  151.8088  140.6255  157.3256 C   0  0  0  0  0  0  0  0  0  0  0  0
  152.5320  140.9355  158.4982 C   0  0  0  0  0  0  0  0  0  0  0  0
  152.4336  142.2130  159.0944 C   0  0  0  0  0  0  0  0  0  0  0  0
  153.2261  142.5020  160.3572 C   0  0  0  0  0  0  0  0  0  0  0  0
  151.6021  143.2051  158.5152 C   0  0  0  0  0  0  0  0  0  0  0  0
  151.4822  144.5855  159.1364 C   0  0  0  0  0  0  0  0  0  0  0  0
  150.8714  142.9116  157.3450 C   0  0  0  0  0  0  0  0  0  0  0  0
  150.9771  141.6367  156.7619 C   0  0  0  0  0  0  0  0  0  0  0  0
  143.5867  144.3140  155.6092 C   0  0  0  0  0  0  0  0  0  0  0  0
  140.4075  146.7930  155.5936 H   0  0  0  0  0  0  0  0  0  0  0  0
  140.9643  145.1552  155.2720 H   0  0  0  0  0  0  0  0  0  0  0  0
  141.1217  146.4073  154.0385 H   0  0  0  0  0  0  0  0  0  0  0  0
  142.7924  147.6294  155.4883 H   0  0  0  0  0  0  0  0  0  0  0  0
  142.5241  146.4598  156.7592 H   0  0  0  0  0  0  0  0  0  0  0  0
  142.7936  145.3943  153.2338 H   0  0  0  0  0  0  0  0  0  0  0  0
  143.8481  146.7949  153.3240 H   0  0  0  0  0  0  0  0  0  0  0  0
  144.9286  144.9153  152.0641 H   0  0  0  0  0  0  0  0  0  0  0  0
  145.8595  145.3395  153.4869 H   0  0  0  0  0  0  0  0  0  0  0  0
  145.6979  143.9267  155.4078 H   0  0  0  0  0  0  0  0  0  0  0  0
  145.0695  141.9293  156.4875 H   0  0  0  0  0  0  0  0  0  0  0  0
  143.7301  141.6355  155.4034 H   0  0  0  0  0  0  0  0  0  0  0  0
  145.1464  141.0147  153.7161 H   0  0  0  0  0  0  0  0  0  0  0  0
  147.0005  142.0552  153.2544 H   0  0  0  0  0  0  0  0  0  0  0  0
  146.9776  142.7829  154.8419 H   0  0  0  0  0  0  0  0  0  0  0  0
  148.1142  140.0809  154.0654 H   0  0  0  0  0  0  0  0  0  0  0  0
  148.2413  140.9341  156.6773 H   0  0  0  0  0  0  0  0  0  0  0  0
  149.8859  141.5565  153.7041 H   0  0  0  0  0  0  0  0  0  0  0  0
  149.3703  142.6891  154.9317 H   0  0  0  0  0  0  0  0  0  0  0  0
  150.6296  139.0887  154.8455 H   0  0  0  0  0  0  0  0  0  0  0  0
  153.1651  140.1794  158.9390 H   0  0  0  0  0  0  0  0  0  0  0  0
  153.9237  143.3231  160.1910 H   0  0  0  0  0  0  0  0  0  0  0  0
  153.8026  141.6324  160.6737 H   0  0  0  0  0  0  0  0  0  0  0  0
  152.5576  142.7745  161.1740 H   0  0  0  0  0  0  0  0  0  0  0  0
  150.8153  145.2258  158.5581 H   0  0  0  0  0  0  0  0  0  0  0  0
  152.4573  145.0711  159.1792 H   0  0  0  0  0  0  0  0  0  0  0  0
  151.0842  144.5157  160.1489 H   0  0  0  0  0  0  0  0  0  0  0  0
  150.2308  143.6562  156.8961 H   0  0  0  0  0  0  0  0  0  0  0  0
  143.6189  144.2758  156.6976 H   0  0  0  0  0  0  0  0  0  0  0  0
  142.6335  143.8807  155.3025 H   0  0  0  0  0  0  0  0  0  0  0  0
  144.5226  146.1059  155.4789 H   0  0  0  0  0  0  0  0  0  0  0  0
  1  2  1  0  0  0  0
  1 26  1  0  0  0  0
  1 27  1  0  0  0  0
  1 28  1  0  0  0  0
  2  3  1  0  0  0  0
  2 29  1  0  0  0  0
  2 30  1  0  0  0  0
  3 25  1  0  0  0  0
  3  4  1  0  0  0  0
  3 56  1  0  0  0  0
  4  5  1  0  0  0  0
  4 31  1  0  0  0  0
  4 32  1  0  0  0  0
  5  6  1  0  0  0  0
  5 33  1  0  0  0  0
  5 34  1  0  0  0  0
  6  7  1  0  0  0  0
  7  8  1  0  0  0  0
  7 25  1  0  0  0  0
  7 35  1  0  0  0  0
  8  9  1  0  0  0  0
  8 36  1  0  0  0  0
  8 37  1  0  0  0  0
  9 10  1  0  0  0  0
  9 38  1  0  0  0  0
 10 11  1  0  0  0  0
 10 39  1  0  0  0  0
 10 40  1  0  0  0  0
 11 12  1  0  0  0  0
 11 13  1  0  0  0  0
 11 41  1  0  0  0  0
 12 42  1  0  0  0  0
 13 14  1  0  0  0  0
 13 43  1  0  0  0  0
 13 44  1  0  0  0  0
 14 24  1  0  0  0  0
 14 15  1  0  0  0  0
 15 16  2  0  0  0  0
 15 45  1  0  0  0  0
 16 17  1  0  0  0  0
 17 24  2  0  0  0  0
 17 18  1  0  0  0  0
 18 19  2  0  0  0  0
 18 46  1  0  0  0  0
 19 20  1  0  0  0  0
 19 21  1  0  0  0  0
 20 47  1  0  0  0  0
 20 48  1  0  0  0  0
 20 49  1  0  0  0  0
 21 22  1  0  0  0  0
 21 23  2  0  0  0  0
 22 50  1  0  0  0  0
 22 51  1  0  0  0  0
 22 52  1  0  0  0  0
 23 24  1  0  0  0  0
 23 53  1  0  0  0  0
 25 54  1  0  0  0  0
 25 55  1  0  0  0  0
M  CHG  1   3   1
M  END
> <s_m_source_file>
AV-unprocessed.smi

> <i_m_source_file_index>
1047

> <i_lp_mmshare_version>
43012

> <i_f3d_flags>
0

> <s_epik_input>
W0NIM11bQ0gyXU4xW0NIMl1bQ0gyXU9bQ0BIXShbQ0gyXTEpW0NIMl1bTkhdW0NIMl1bQ0BIXShbT0hdKVtDSDJdbihbY0hdbjIpYyhjMjMpW2NIXWMoW0NIM10pYyhbY0hdMylbQ0gzXQ==

> <s_epik_cmdline>
J2VwaWtfcHl0aG9uJywgJy1waCcsICc3LjAnLCAnLXRuJywgJzgnLCAnLW1hJywgJzIwMCcsICctbWV0YWxfYmluZGluZycsICctaW1hZScsICc8aW5maWxlLm1hZT4nLCAnLW9tYWUnLCAnPG91dGZpbGUubWFlPic=

> <r_epik_Ionization_Penalty>
1.19246

> <r_epik_Ionization_Penalty_Charging>
0.210041

> <r_epik_Ionization_Penalty_Neutral>
0.982415

> <r_epik_State_Penalty>
1.57595

> <r_epik_Charging_Adjusted_Penalty>
1.78599

> <i_epik_Tot_Q>
1

> <i_epik_Tot_abs_Q>
1

> <r_epik_Metal_State_Penalty>
1.46172

> <b_epik_Metal_Only>
0

> <s_lp_Force_Field>
OPLS_2005

> <r_lp_Energy>
33.3518

> <b_lp_Chiralities_Consistent>
1

> <s_lp_Variant>
AV-unprocessed.smi:1047-16

> <Gold.Version>
5.8.1

> <Gold.Id.Protein>
6NUR|6NUR_protein|mol2

> <Gold.PLP.Fitness>
49.6876

> <Gold.PLP.PLP>
-48.8089

> <Gold.PLP.part.hbond>
-0.9220

> <Gold.PLP.part.metal>
0.0000

> <Gold.PLP.part.buried>
-3.5489

> <Gold.PLP.part.nonpolar>
-45.1585

> <Gold.PLP.part.repulsive>
1.4486

> <Gold.PLP.ligand.clash>
0.0000

> <Gold.PLP.ligand.torsion>
1.0823

> <Gold.PLP.Chemscore.Hbond>
0.9100

> <Gold.PLP.Chemscore.CHOScore>
0.0000

> <Gold.PLP.Chemscore.Metal>
0.0000

> <Gold.Chemscore.Hbonds>
donor molecule, donor type, donor heavy atom, donor atom, acceptor molecule, acceptor atom, score
      L1  H     9    38       P1 10175  1.00

> <Gold.PLP.Chemscore.Internal.Correction>
0.3133

> <Gold.Rescore>
     Score         DG    S(hbond)    S(metal)    S(lipo)     H(rot)  DE(clash)    DE(int)     intcor
     13.91     -16.90       0.65        0.00     136.30       2.62       0.53       2.46       ----

> <Gold.Chemscore.Fitness>
13.9135

> <Gold.Chemscore.DG>
-16.9000

> <Gold.Chemscore.ZeroCoef>
-5.4800

> <Gold.Chemscore.Hbond>
0.6534

> <Gold.Chemscore.Metal>
0.0000

> <Gold.Chemscore.Lipo>
136.3024

> <Gold.Chemscore.Internal_Hbond>
0.0000

> <Gold.Chemscore.DEClash>
0.5310

> <Gold.Chemscore.DEInternal>
2.4555

> <Gold.Chemscore.Rot>
2.6209

> <Gold.Chemscore.Internal.Correction>
   9.000000E+99

> <Gold.Chemscore.Hbonds>
donor molecule, donor type, donor heavy atom, donor atom, acceptor molecule, acceptor atom, score
      L1  H     9    38       P1 10175  0.72

> <Gold.Chemscore.Hbond.Weighted>
-2.1822

> <Gold.Chemscore.Metal.Weighted>
-0.0000

> <Gold.Chemscore.Lipo.Weighted>
-15.9474

> <Gold.Chemscore.Internal_Hbond.Weighted>
0.0000

> <Gold.Chemscore.DEClash.Weighted>
0.5310

> <Gold.Chemscore.DEInternal.Weighted>
2.4555

> <Gold.Chemscore.Rot.Weighted>
6.7096

> <Gold.Chemscore.Internal.Correction.Weighted>
   9.000000E+99

> <Gold.Protein.RotatedTorsions>
[ 6907 6896 6895 6894 ] final  -40.14 input  -60.11 | X-H torsion
[ 7974 7965 7964 7962 ] final -121.40 input  175.53 | X-H torsion
[ 8008 7997 7996 7995 ] final   24.33 input   59.86 | X-H torsion
[ 10167 10162 10161 10158 ] final  -13.76 input  -65.29 | X-H torsion
[ 10718 10713 10712 10709 ] final   89.60 input   66.30 | X-H torsion
[ 10763 10752 10751 10750 ] final   26.82 input  -60.55 | X-H torsion
[ 11005 11000 10999 10996 ] final  -51.48 input  -57.11 | X-H torsion

> <Gold.Protein.ActiveResidues>
 VAL166  LYS551  ARG553  GLY616  TRP617  ASP618  TYR619  PRO620  LYS621  CYS622 
 ASP623  PHE694  ASN695  SER759  ASP760  ASP761  ALA762  ILE779  LEU786  VAL792 
 PHE793  MET794  SER795  GLU796  ALA797  LYS798  CYS799  TRP800  GLU811  SER814 

> <Gold.Protein.RotatedAtoms>
  150.9820  134.9173  159.7849 H   0  0  0  0  0  0  0  0  0  0  0  0  # atno 6907 bound_to 6896
  152.5225  134.3397  159.9222 H   0  0  0  0  0  0  0  0  0  0  0  0  # atno 6908 bound_to 6896
  151.3404  133.3923  159.2705 H   0  0  0  0  0  0  0  0  0  0  0  0  # atno 6909 bound_to 6896
  145.0408  140.8142  143.4268 H   0  0  0  0  0  0  0  0  0  0  0  0  # atno 7974 bound_to 7965
  154.9946  140.3118  155.4892 H   0  0  0  0  0  0  0  0  0  0  0  0  # atno 8008 bound_to 7997
  156.2934  140.2243  156.4994 H   0  0  0  0  0  0  0  0  0  0  0  0  # atno 8009 bound_to 7997
  154.7672  140.0455  157.1010 H   0  0  0  0  0  0  0  0  0  0  0  0  # atno 8010 bound_to 7997
  140.7188  143.5393  150.9428 H   0  0  0  0  0  0  0  0  0  0  0  0  # atno 10167 bound_to 10162
  157.6956  131.0339  150.3450 H   0  0  0  0  0  0  0  0  0  0  0  0  # atno 10718 bound_to 10713
  153.0597  135.6551  154.0493 H   0  0  0  0  0  0  0  0  0  0  0  0  # atno 10763 bound_to 10752
  154.0163  135.2924  155.3388 H   0  0  0  0  0  0  0  0  0  0  0  0  # atno 10764 bound_to 10752
  154.6929  135.5275  153.8485 H   0  0  0  0  0  0  0  0  0  0  0  0  # atno 10765 bound_to 10752
  141.0873  133.6640  156.3884 H   0  0  0  0  0  0  0  0  0  0  0  0  # atno 11005 bound_to 11000
  145.1651  139.2436  143.5371 LP  0  0  0  0  0  0  0  0  0  0  0  0  # atno 17320 bound_to 7965
  146.3509  140.1387  142.8595 LP  0  0  0  0  0  0  0  0  0  0  0  0  # atno 17321 bound_to 7965
  139.9115  143.6715  152.3114 LP  0  0  0  0  0  0  0  0  0  0  0  0  # atno 17342 bound_to 10162
  139.7099  144.7622  151.1129 LP  0  0  0  0  0  0  0  0  0  0  0  0  # atno 17343 bound_to 10162
  156.3905  130.3897  149.7033 LP  0  0  0  0  0  0  0  0  0  0  0  0  # atno 17370 bound_to 10713
  156.4384  130.7849  151.2870 LP  0  0  0  0  0  0  0  0  0  0  0  0  # atno 17371 bound_to 10713
  140.5333  134.6191  157.5357 LP  0  0  0  0  0  0  0  0  0  0  0  0  # atno 17394 bound_to 11000
  139.9693  134.7319  156.0073 LP  0  0  0  0  0  0  0  0  0  0  0  0  # atno 17395 bound_to 11000

$$$$
