AV-unprocessed.smi:1150|AV-procd|sdf|4893|dock1
  -GOLD-   22720 3463D 1   1.00000     0.00000
 Structure written by MMmdl.
 50 51  0  0  0  0  0  0  0  0  1 V2000
  150.6164  137.9504  158.8741 C   0  0  0  0  0  0  0  0  0  0  0  0
  151.5961  139.1278  158.7661 C   0  0  0  0  0  0  0  0  0  0  0  0
  150.9976  140.3637  158.0629 C   0  0  2  0  0  0  0  0  0  0  0  0
  150.6952  140.0491  156.6674 N   0  0  0  0  0  0  0  0  0  0  0  0
  151.5662  139.6254  155.7382 C   0  0  0  0  0  0  0  0  0  0  0  0
  152.7863  139.6162  155.8963 O   0  0  0  0  0  0  0  0  0  0  0  0
  150.9537  139.0739  154.4502 C   0  0  0  0  0  0  0  0  0  0  0  0
  149.7549  138.2238  154.7996 C   0  0  0  0  0  0  0  0  0  0  0  0
  148.3870  138.4841  154.4920 C   0  0  0  0  0  0  0  0  0  0  0  0
  147.8121  139.6451  153.7326 C   0  0  0  0  0  0  0  0  0  0  0  0
  147.5743  137.5637  154.9836 N   0  0  0  0  0  0  0  0  0  0  0  0
  148.3847  136.6921  155.6163 N   0  0  0  0  0  0  0  0  0  0  0  0
  147.8086  135.5452  156.2904 C   0  0  0  0  0  0  0  0  0  0  0  0
  149.7123  137.0583  155.5176 C   0  0  0  0  0  0  0  0  0  0  0  0
  150.8075  136.2586  156.1458 C   0  0  0  0  0  0  0  0  0  0  0  0
  151.9151  141.6150  158.1490 C   0  0  0  0  0  0  0  0  0  0  0  0
  152.3855  141.8833  159.5979 C   0  0  0  0  0  0  0  0  0  0  0  0
  153.3270  143.0942  159.6857 C   0  0  0  0  0  0  0  0  0  0  0  0
  152.6652  144.3501  159.1014 C   0  0  0  0  0  0  0  0  0  0  0  0
  152.2166  144.1067  157.6536 C   0  0  0  0  0  0  0  0  0  0  0  0
  151.2738  142.8968  157.5594 C   0  0  0  0  0  0  0  0  0  0  0  0
  151.0695  137.1185  159.4135 H   0  0  0  0  0  0  0  0  0  0  0  0
  150.3206  137.5829  157.8912 H   0  0  0  0  0  0  0  0  0  0  0  0
  149.7114  138.2393  159.4095 H   0  0  0  0  0  0  0  0  0  0  0  0
  151.9149  139.4050  159.7716 H   0  0  0  0  0  0  0  0  0  0  0  0
  152.4927  138.7925  158.2446 H   0  0  0  0  0  0  0  0  0  0  0  0
  150.0735  140.6022  158.5925 H   0  0  0  0  0  0  0  0  0  0  0  0
  149.7164  140.0268  156.4219 H   0  0  0  0  0  0  0  0  0  0  0  0
  150.6834  139.9084  153.8029 H   0  0  0  0  0  0  0  0  0  0  0  0
  151.7046  138.4978  153.9087 H   0  0  0  0  0  0  0  0  0  0  0  0
  148.0629  140.5889  154.2167 H   0  0  0  0  0  0  0  0  0  0  0  0
  146.7251  139.5876  153.6657 H   0  0  0  0  0  0  0  0  0  0  0  0
  148.2046  139.6780  152.7164 H   0  0  0  0  0  0  0  0  0  0  0  0
  148.1019  134.6318  155.7726 H   0  0  0  0  0  0  0  0  0  0  0  0
  146.7200  135.6117  156.3034 H   0  0  0  0  0  0  0  0  0  0  0  0
  148.1695  135.5046  157.3185 H   0  0  0  0  0  0  0  0  0  0  0  0
  151.7883  136.6235  155.8413 H   0  0  0  0  0  0  0  0  0  0  0  0
  150.7381  135.2092  155.8590 H   0  0  0  0  0  0  0  0  0  0  0  0
  150.7517  136.3176  157.2328 H   0  0  0  0  0  0  0  0  0  0  0  0
  152.8105  141.3981  157.5643 H   0  0  0  0  0  0  0  0  0  0  0  0
  151.5272  142.0645  160.2438 H   0  0  0  0  0  0  0  0  0  0  0  0
  152.8883  141.0018  159.9968 H   0  0  0  0  0  0  0  0  0  0  0  0
  153.6066  143.2714  160.7246 H   0  0  0  0  0  0  0  0  0  0  0  0
  154.2512  142.8809  159.1472 H   0  0  0  0  0  0  0  0  0  0  0  0
  151.8037  144.6285  159.7100 H   0  0  0  0  0  0  0  0  0  0  0  0
  153.3587  145.1902  159.1415 H   0  0  0  0  0  0  0  0  0  0  0  0
  151.7184  144.9957  157.2657 H   0  0  0  0  0  0  0  0  0  0  0  0
  153.0900  143.9406  157.0217 H   0  0  0  0  0  0  0  0  0  0  0  0
  151.0023  142.7417  156.5158 H   0  0  0  0  0  0  0  0  0  0  0  0
  150.3492  143.1352  158.0856 H   0  0  0  0  0  0  0  0  0  0  0  0
  1  2  1  0  0  0  0
  1 22  1  0  0  0  0
  1 23  1  0  0  0  0
  1 24  1  0  0  0  0
  2  3  1  0  0  0  0
  2 25  1  0  0  0  0
  2 26  1  0  0  0  0
  3  4  1  0  0  0  0
  3 16  1  0  0  0  0
  3 27  1  0  0  0  0
  4  5  1  0  0  0  0
  4 28  1  0  0  0  0
  5  6  2  0  0  0  0
  5  7  1  0  0  0  0
  7  8  1  0  0  0  0
  7 29  1  0  0  0  0
  7 30  1  0  0  0  0
  8 14  2  0  0  0  0
  8  9  1  0  0  0  0
  9 10  1  0  0  0  0
  9 11  2  0  0  0  0
 10 31  1  0  0  0  0
 10 32  1  0  0  0  0
 10 33  1  0  0  0  0
 11 12  1  0  0  0  0
 12 13  1  0  0  0  0
 12 14  1  0  0  0  0
 13 34  1  0  0  0  0
 13 35  1  0  0  0  0
 13 36  1  0  0  0  0
 14 15  1  0  0  0  0
 15 37  1  0  0  0  0
 15 38  1  0  0  0  0
 15 39  1  0  0  0  0
 16 21  1  0  0  0  0
 16 17  1  0  0  0  0
 16 40  1  0  0  0  0
 17 18  1  0  0  0  0
 17 41  1  0  0  0  0
 17 42  1  0  0  0  0
 18 19  1  0  0  0  0
 18 43  1  0  0  0  0
 18 44  1  0  0  0  0
 19 20  1  0  0  0  0
 19 45  1  0  0  0  0
 19 46  1  0  0  0  0
 20 21  1  0  0  0  0
 20 47  1  0  0  0  0
 20 48  1  0  0  0  0
 21 49  1  0  0  0  0
 21 50  1  0  0  0  0
M  END
> <s_m_source_file>
AV-unprocessed.smi

> <i_m_source_file_index>
1150

> <i_lp_mmshare_version>
43012

> <i_f3d_flags>
0

> <s_epik_input>
W0NIMl0xW0NIMl1bQ0gyXVtDSDJdW0NIMl1bQ0hdMVtDQEhdKFtDSDJdW0NIM10pW05IXUMoPU8pW0NIMl1jMmMoW0NIM10pbm4oW0NIM10pYzJbQ0gzXQ==

> <s_epik_cmdline>
J2VwaWtfcHl0aG9uJywgJy1waCcsICc3LjAnLCAnLXRuJywgJzgnLCAnLW1hJywgJzIwMCcsICctbWV0YWxfYmluZGluZycsICctaW1hZScsICc8aW5maWxlLm1hZT4nLCAnLW9tYWUnLCAnPG91dGZpbGUubWFlPic=

> <r_lp_tautomer_probability>
1

> <r_epik_Ionization_Penalty>
0.00328092

> <r_epik_Ionization_Penalty_Charging>
0

> <r_epik_Ionization_Penalty_Neutral>
0.00328092

> <r_epik_State_Penalty>
0.00231765

> <r_epik_Charging_Adjusted_Penalty>
0.00231765

> <i_epik_Tot_Q>
0

> <i_epik_Tot_abs_Q>
0

> <r_epik_Metal_State_Penalty>
-0

> <b_epik_Metal_Only>
0

> <s_lp_Force_Field>
OPLS_2005

> <r_lp_Energy>
6.65813

> <b_lp_Chiralities_Consistent>
1

> <s_lp_Variant>
AV-unprocessed.smi:1150-1

> <Gold.Version>
5.8.1

> <Gold.Id.Protein>
6NUR|6NUR_protein|mol2

> <Gold.PLP.Fitness>
40.7888

> <Gold.PLP.PLP>
-38.4125

> <Gold.PLP.part.hbond>
-1.0000

> <Gold.PLP.part.metal>
0.0000

> <Gold.PLP.part.buried>
-4.2981

> <Gold.PLP.part.nonpolar>
-33.9285

> <Gold.PLP.part.repulsive>
0.1270

> <Gold.PLP.ligand.clash>
0.0000

> <Gold.PLP.ligand.torsion>
0.3546

> <Gold.PLP.Chemscore.Hbond>
1.0000

> <Gold.PLP.Chemscore.CHOScore>
0.0000

> <Gold.PLP.Chemscore.Metal>
0.0000

> <Gold.Chemscore.Hbonds>
donor molecule, donor type, donor heavy atom, donor atom, acceptor molecule, acceptor atom, score
      P1  H  7997  8009       L1     6  1.00

> <Gold.PLP.Chemscore.Internal.Correction>
0.0855

> <Gold.Rescore>
     Score         DG    S(hbond)    S(metal)    S(lipo)     H(rot)  DE(clash)    DE(int)     intcor
     17.58     -18.10       1.00        0.00     110.30       1.42       0.01       0.51       ----

> <Gold.Chemscore.Fitness>
17.5756

> <Gold.Chemscore.DG>
-18.0964

> <Gold.Chemscore.ZeroCoef>
-5.4800

> <Gold.Chemscore.Hbond>
1.0000

> <Gold.Chemscore.Metal>
0.0000

> <Gold.Chemscore.Lipo>
110.2987

> <Gold.Chemscore.Internal_Hbond>
0.0000

> <Gold.Chemscore.DEClash>
0.0127

> <Gold.Chemscore.DEInternal>
0.5081

> <Gold.Chemscore.Rot>
1.4174

> <Gold.Chemscore.Internal.Correction>
   9.000000E+99

> <Gold.Chemscore.Hbonds>
donor molecule, donor type, donor heavy atom, donor atom, acceptor molecule, acceptor atom, score
      P1  H  7997  8009       L1     6  1.00

> <Gold.Chemscore.Hbond.Weighted>
-3.3400

> <Gold.Chemscore.Metal.Weighted>
-0.0000

> <Gold.Chemscore.Lipo.Weighted>
-12.9049

> <Gold.Chemscore.Internal_Hbond.Weighted>
0.0000

> <Gold.Chemscore.DEClash.Weighted>
0.0127

> <Gold.Chemscore.DEInternal.Weighted>
0.5081

> <Gold.Chemscore.Rot.Weighted>
3.6286

> <Gold.Chemscore.Internal.Correction.Weighted>
   9.000000E+99

> <Gold.Protein.RotatedTorsions>
[ 6907 6896 6895 6894 ] final  168.99 input  -60.11 | X-H torsion
[ 7974 7965 7964 7962 ] final   25.13 input  175.53 | X-H torsion
[ 8008 7997 7996 7995 ] final -161.99 input   59.86 | X-H torsion
[ 10167 10162 10161 10158 ] final -178.45 input  -65.29 | X-H torsion
[ 10718 10713 10712 10709 ] final -131.61 input   66.30 | X-H torsion
[ 10763 10752 10751 10750 ] final  -74.34 input  -60.55 | X-H torsion
[ 11005 11000 10999 10996 ] final  100.56 input  -57.11 | X-H torsion

> <Gold.Protein.ActiveResidues>
 VAL166  LYS551  ARG553  GLY616  TRP617  ASP618  TYR619  PRO620  LYS621  CYS622 
 ASP623  PHE694  ASN695  SER759  ASP760  ASP761  ALA762  ILE779  LEU786  VAL792 
 PHE793  MET794  SER795  GLU796  ALA797  LYS798  CYS799  TRP800  GLU811  SER814 

> <Gold.Protein.RotatedAtoms>
  151.8389  133.3420  159.3636 H   0  0  0  0  0  0  0  0  0  0  0  0  # atno 6907 bound_to 6896
  150.7241  134.5411  159.5757 H   0  0  0  0  0  0  0  0  0  0  0  0  # atno 6908 bound_to 6896
  152.2880  134.7755  160.0434 H   0  0  0  0  0  0  0  0  0  0  0  0  # atno 6909 bound_to 6896
  146.1904  139.7508  142.8836 H   0  0  0  0  0  0  0  0  0  0  0  0  # atno 7974 bound_to 7965
  155.8002  140.0891  157.1961 H   0  0  0  0  0  0  0  0  0  0  0  0  # atno 8008 bound_to 7997
  154.3982  140.1473  156.3325 H   0  0  0  0  0  0  0  0  0  0  0  0  # atno 8009 bound_to 7997
  155.8470  140.3436  155.5671 H   0  0  0  0  0  0  0  0  0  0  0  0  # atno 8010 bound_to 7997
  139.5432  144.2307  152.0936 H   0  0  0  0  0  0  0  0  0  0  0  0  # atno 10167 bound_to 10162
  156.2261  130.7009  151.0809 H   0  0  0  0  0  0  0  0  0  0  0  0  # atno 10718 bound_to 10713
  154.4717  135.5868  153.6326 H   0  0  0  0  0  0  0  0  0  0  0  0  # atno 10763 bound_to 10752
  152.9835  135.6068  154.3358 H   0  0  0  0  0  0  0  0  0  0  0  0  # atno 10764 bound_to 10752
  154.3241  135.2843  155.2484 H   0  0  0  0  0  0  0  0  0  0  0  0  # atno 10765 bound_to 10752
  139.8771  134.9145  156.4774 H   0  0  0  0  0  0  0  0  0  0  0  0  # atno 11005 bound_to 11000
  145.3811  141.0358  143.3177 LP  0  0  0  0  0  0  0  0  0  0  0  0  # atno 17320 bound_to 7965
  144.8475  139.5374  143.6872 LP  0  0  0  0  0  0  0  0  0  0  0  0  # atno 17321 bound_to 7965
  140.1789  144.4863  150.6539 LP  0  0  0  0  0  0  0  0  0  0  0  0  # atno 17342 bound_to 10162
  140.6670  143.2271  151.5719 LP  0  0  0  0  0  0  0  0  0  0  0  0  # atno 17343 bound_to 10162
  157.7111  131.0733  150.6496 LP  0  0  0  0  0  0  0  0  0  0  0  0  # atno 17370 bound_to 10713
  156.6562  130.4499  149.5703 LP  0  0  0  0  0  0  0  0  0  0  0  0  # atno 17371 bound_to 10713
  140.8752  133.7959  155.9407 LP  0  0  0  0  0  0  0  0  0  0  0  0  # atno 17394 bound_to 11000
  140.8911  134.2493  157.5093 LP  0  0  0  0  0  0  0  0  0  0  0  0  # atno 17395 bound_to 11000

$$$$
