AV-unprocessed.smi:151|AV-procd|sdf|1245|dock2
  -GOLD-   2262018463D 1   1.00000     0.00000
 Structure written by MMmdl.
 56 59  0  0  0  0  0  0  0  0  1 V2000
  147.0822  142.3362  154.0694 C   0  0  0  0  0  0  0  0  0  0  0  0
  146.1680  141.2523  154.6567 C   0  0  0  0  0  0  0  0  0  0  0  0
  146.9000  140.2173  155.5517 C   0  0  1  0  0  0  0  0  0  0  0  0
  146.8136  140.6141  157.0428 C   0  0  0  0  0  0  0  0  0  0  0  0
  147.4245  139.6338  157.8779 O   0  0  0  0  0  0  0  0  0  0  0  0
  146.8987  138.3114  157.7530 C   0  0  0  0  0  0  0  0  0  0  0  0
  147.8059  137.4253  158.6207 C   0  0  0  0  0  0  0  0  0  0  0  0
  145.4501  138.2274  158.2801 C   0  0  0  0  0  0  0  0  0  0  0  0
  147.0053  137.8847  156.2752 C   0  0  0  0  0  0  0  0  0  0  0  0
  146.3684  138.8586  155.3939 N   0  0  0  0  0  0  0  0  0  0  0  0
  146.2924  138.4054  154.1221 C   0  0  0  0  0  0  0  0  0  0  0  0
  146.8956  139.0915  153.1158 N   0  0  0  0  0  0  0  0  0  0  0  0
  146.7977  138.6494  151.8586 C   0  0  0  0  0  0  0  0  0  0  0  0
  146.1552  137.5731  151.3996 N   0  0  0  0  0  0  0  0  0  0  0  0
  145.5462  136.8856  152.4094 C   0  0  0  0  0  0  0  0  0  0  0  0
  145.5694  137.2305  153.7895 C   0  0  0  0  0  0  0  0  0  0  0  0
  144.8419  136.3070  154.5274 N   0  0  0  0  0  0  0  0  0  0  0  0
  144.4096  135.4605  153.6324 C   0  0  0  0  0  0  0  0  0  0  0  0
  144.7815  135.7320  152.3337 N   0  0  0  0  0  0  0  0  0  0  0  0
  144.4370  134.9659  151.1685 C   0  0  0  0  0  0  0  0  0  0  0  0
  143.8225  133.5703  151.2944 C   0  0  0  0  0  0  0  0  0  0  0  0
  144.6425  133.0831  150.0785 C   0  0  0  0  0  0  0  0  0  0  0  0
  145.3858  131.7550  150.2886 C   0  0  0  0  0  0  0  0  0  0  0  0
  146.5106  131.6543  149.4390 O   0  0  0  0  0  0  0  0  0  0  0  0
  143.9025  132.9842  148.7268 C   0  0  0  0  0  0  0  0  0  0  0  0
  143.5930  134.2469  148.1720 O   0  0  0  0  0  0  0  0  0  0  0  0
  145.5175  134.3411  150.2818 C   0  0  0  0  0  0  0  0  0  0  0  0
  146.5298  142.9674  153.3730 H   0  0  0  0  0  0  0  0  0  0  0  0
  147.9163  141.8942  153.5242 H   0  0  0  0  0  0  0  0  0  0  0  0
  147.4884  142.9881  154.8421 H   0  0  0  0  0  0  0  0  0  0  0  0
  145.3610  141.7227  155.2200 H   0  0  0  0  0  0  0  0  0  0  0  0
  145.6930  140.7519  153.8128 H   0  0  0  0  0  0  0  0  0  0  0  0
  147.9528  140.1949  155.2655 H   0  0  0  0  0  0  0  0  0  0  0  0
  147.3378  141.5530  157.2173 H   0  0  0  0  0  0  0  0  0  0  0  0
  145.7797  140.7809  157.3453 H   0  0  0  0  0  0  0  0  0  0  0  0
  147.5008  136.3794  158.5750 H   0  0  0  0  0  0  0  0  0  0  0  0
  147.7757  137.7343  159.6662 H   0  0  0  0  0  0  0  0  0  0  0  0
  148.8445  137.4814  158.2929 H   0  0  0  0  0  0  0  0  0  0  0  0
  145.0988  137.1952  158.2885 H   0  0  0  0  0  0  0  0  0  0  0  0
  144.7495  138.7940  157.6673 H   0  0  0  0  0  0  0  0  0  0  0  0
  145.3807  138.6075  159.2996 H   0  0  0  0  0  0  0  0  0  0  0  0
  148.0566  137.7902  155.9984 H   0  0  0  0  0  0  0  0  0  0  0  0
  146.5524  136.9015  156.1363 H   0  0  0  0  0  0  0  0  0  0  0  0
  147.3031  139.2448  151.1128 H   0  0  0  0  0  0  0  0  0  0  0  0
  143.8003  134.6091  153.8996 H   0  0  0  0  0  0  0  0  0  0  0  0
  143.7866  135.6003  150.5645 H   0  0  0  0  0  0  0  0  0  0  0  0
  144.1015  133.0677  152.2214 H   0  0  0  0  0  0  0  0  0  0  0  0
  142.7416  133.5452  151.1528 H   0  0  0  0  0  0  0  0  0  0  0  0
  145.7130  131.6433  151.3230 H   0  0  0  0  0  0  0  0  0  0  0  0
  144.7340  130.9063  150.0776 H   0  0  0  0  0  0  0  0  0  0  0  0
  147.2873  131.6039  149.9753 H   0  0  0  0  0  0  0  0  0  0  0  0
  144.5029  132.4393  147.9973 H   0  0  0  0  0  0  0  0  0  0  0  0
  142.9657  132.4362  148.8313 H   0  0  0  0  0  0  0  0  0  0  0  0
  144.3976  134.7293  148.0575 H   0  0  0  0  0  0  0  0  0  0  0  0
  145.7259  134.9050  149.3719 H   0  0  0  0  0  0  0  0  0  0  0  0
  146.4422  134.1347  150.8217 H   0  0  0  0  0  0  0  0  0  0  0  0
  1  2  1  0  0  0  0
  1 28  1  0  0  0  0
  1 29  1  0  0  0  0
  1 30  1  0  0  0  0
  2  3  1  0  0  0  0
  2 31  1  0  0  0  0
  2 32  1  0  0  0  0
  3 10  1  0  0  0  0
  3  4  1  0  0  0  0
  3 33  1  0  0  0  0
  4  5  1  0  0  0  0
  4 34  1  0  0  0  0
  4 35  1  0  0  0  0
  5  6  1  0  0  0  0
  6  7  1  0  0  0  0
  6  8  1  0  0  0  0
  6  9  1  0  0  0  0
  7 36  1  0  0  0  0
  7 37  1  0  0  0  0
  7 38  1  0  0  0  0
  8 39  1  0  0  0  0
  8 40  1  0  0  0  0
  8 41  1  0  0  0  0
  9 10  1  0  0  0  0
  9 42  1  0  0  0  0
  9 43  1  0  0  0  0
 10 11  1  0  0  0  0
 11 16  1  0  0  0  0
 11 12  2  0  0  0  0
 12 13  1  0  0  0  0
 13 14  2  0  0  0  0
 13 44  1  0  0  0  0
 14 15  1  0  0  0  0
 15 19  1  0  0  0  0
 15 16  2  0  0  0  0
 16 17  1  0  0  0  0
 17 18  2  0  0  0  0
 18 19  1  0  0  0  0
 18 45  1  0  0  0  0
 19 20  1  0  0  0  0
 20 27  1  0  0  0  0
 20 21  1  0  0  0  0
 20 46  1  0  0  0  0
 21 22  1  0  0  0  0
 21 47  1  0  0  0  0
 21 48  1  0  0  0  0
 22 23  1  0  0  0  0
 22 25  1  0  0  0  0
 22 27  1  0  0  0  0
 23 24  1  0  0  0  0
 23 49  1  0  0  0  0
 23 50  1  0  0  0  0
 24 51  1  0  0  0  0
 25 26  1  0  0  0  0
 25 52  1  0  0  0  0
 25 53  1  0  0  0  0
 26 54  1  0  0  0  0
 27 55  1  0  0  0  0
 27 56  1  0  0  0  0
M  END
> <s_m_source_file>
AV-unprocessed.smi

> <i_m_source_file_index>
151

> <i_lp_mmshare_version>
43012

> <i_f3d_flags>
0

> <s_epik_input>
W0NIM11DMShbQ0gzXSlPW0NIMl1bQ0BASF0oW0NIMl1bQ0gzXSlOKFtDSDJdMSljKG5bY0hdbjIpYyhjMjMpbltjSF1uM1tDSF0oW0NIMl00KVtDSDJdQzQoW0NIMl1bT0hdKVtDSDJdW09IXQ==

> <s_epik_cmdline>
J2VwaWtfcHl0aG9uJywgJy1waCcsICc3LjAnLCAnLXRuJywgJzgnLCAnLW1hJywgJzIwMCcsICctbWV0YWxfYmluZGluZycsICctaW1hZScsICc8aW5maWxlLm1hZT4nLCAnLW9tYWUnLCAnPG91dGZpbGUubWFlPic=

> <r_lp_tautomer_probability>
1

> <r_epik_Ionization_Penalty>
0.000102837

> <r_epik_Ionization_Penalty_Charging>
0

> <r_epik_Ionization_Penalty_Neutral>
0.000102837

> <r_epik_State_Penalty>
-0

> <r_epik_Charging_Adjusted_Penalty>
0

> <i_epik_Tot_Q>
0

> <i_epik_Tot_abs_Q>
0

> <r_epik_Metal_State_Penalty>
-0

> <b_epik_Metal_Only>
0

> <s_lp_Force_Field>
OPLS_2005

> <r_lp_Energy>
49.3626

> <b_lp_Chiralities_Consistent>
1

> <s_lp_Variant>
AV-unprocessed.smi:151-2

> <Gold.Version>
5.8.1

> <Gold.Id.Protein>
6NUR|6NUR_protein|mol2

> <Gold.PLP.Fitness>
45.6902

> <Gold.PLP.PLP>
-35.8945

> <Gold.PLP.part.hbond>
-4.5653

> <Gold.PLP.part.metal>
0.0000

> <Gold.PLP.part.buried>
-4.3360

> <Gold.PLP.part.nonpolar>
-28.6544

> <Gold.PLP.part.repulsive>
1.7774

> <Gold.PLP.ligand.clash>
0.0000

> <Gold.PLP.ligand.torsion>
1.2793

> <Gold.PLP.Chemscore.Hbond>
2.9913

> <Gold.PLP.Chemscore.CHOScore>
0.9442

> <Gold.PLP.Chemscore.Metal>
0.0000

> <Gold.Chemscore.Hbonds>
donor molecule, donor type, donor heavy atom, donor atom, acceptor molecule, acceptor atom, score
      L1  H    24    51       P1 10747  0.94
      L1  H    26    54       P1  7921  1.00
      P1  H 10192 10197       L1    26  0.86
      L1  C    13    44       P1  7957  0.98

> <Gold.PLP.Chemscore.Internal.Correction>
0.5477

> <Gold.Rescore>
     Score         DG    S(hbond)    S(metal)    S(lipo)     H(rot)  DE(clash)    DE(int)     intcor
     10.01     -14.45       2.82        0.00      67.36       3.26       1.72       2.72       ----

> <Gold.Chemscore.Fitness>
10.0106

> <Gold.Chemscore.DG>
-14.4455

> <Gold.Chemscore.ZeroCoef>
-5.4800

> <Gold.Chemscore.Hbond>
2.8232

> <Gold.Chemscore.Metal>
0.0000

> <Gold.Chemscore.Lipo>
67.3573

> <Gold.Chemscore.Internal_Hbond>
0.0000

> <Gold.Chemscore.DEClash>
1.7174

> <Gold.Chemscore.DEInternal>
2.7175

> <Gold.Chemscore.Rot>
3.2596

> <Gold.Chemscore.Internal.Correction>
   9.000000E+99

> <Gold.Chemscore.Hbonds>
donor molecule, donor type, donor heavy atom, donor atom, acceptor molecule, acceptor atom, score
      L1  H    24    51       P1 10747  0.92
      L1  H    26    54       P1  7921  0.95
      P1  H 10192 10197       L1    26  0.66

> <Gold.Chemscore.Hbond.Weighted>
-9.4294

> <Gold.Chemscore.Metal.Weighted>
-0.0000

> <Gold.Chemscore.Lipo.Weighted>
-7.8808

> <Gold.Chemscore.Internal_Hbond.Weighted>
0.0000

> <Gold.Chemscore.DEClash.Weighted>
1.7174

> <Gold.Chemscore.DEInternal.Weighted>
2.7175

> <Gold.Chemscore.Rot.Weighted>
8.3447

> <Gold.Chemscore.Internal.Correction.Weighted>
   9.000000E+99

> <Gold.Protein.RotatedTorsions>
[ 6907 6896 6895 6894 ] final  -51.89 input  -60.11 | X-H torsion
[ 7974 7965 7964 7962 ] final  118.99 input  175.53 | X-H torsion
[ 8008 7997 7996 7995 ] final -173.76 input   59.86 | X-H torsion
[ 10167 10162 10161 10158 ] final  -98.84 input  -65.29 | X-H torsion
[ 10718 10713 10712 10709 ] final -166.54 input   66.30 | X-H torsion
[ 10763 10752 10751 10750 ] final  104.54 input  -60.55 | X-H torsion
[ 11005 11000 10999 10996 ] final   -9.04 input  -57.11 | X-H torsion

> <Gold.Protein.ActiveResidues>
 VAL166  LYS551  ARG553  GLY616  TRP617  ASP618  TYR619  PRO620  LYS621  CYS622 
 ASP623  PHE694  ASN695  SER759  ASP760  ASP761  ALA762  ILE779  LEU786  VAL792 
 PHE793  MET794  SER795  GLU796  ALA797  LYS798  CYS799  TRP800  GLU811  SER814 

> <Gold.Protein.RotatedAtoms>
  150.8569  134.7910  159.7052 H   0  0  0  0  0  0  0  0  0  0  0  0  # atno 6907 bound_to 6896
  152.4618  134.5164  159.9779 H   0  0  0  0  0  0  0  0  0  0  0  0  # atno 6908 bound_to 6896
  151.5275  133.3417  159.2948 H   0  0  0  0  0  0  0  0  0  0  0  0  # atno 6909 bound_to 6896
  145.1485  139.3225  143.4579 H   0  0  0  0  0  0  0  0  0  0  0  0  # atno 7974 bound_to 7965
  155.9616  140.1145  157.0891 H   0  0  0  0  0  0  0  0  0  0  0  0  # atno 8008 bound_to 7997
  154.4133  140.1181  156.5253 H   0  0  0  0  0  0  0  0  0  0  0  0  # atno 8009 bound_to 7997
  155.6713  140.3473  155.4822 H   0  0  0  0  0  0  0  0  0  0  0  0  # atno 8010 bound_to 7997
  140.2688  143.3358  152.0555 H   0  0  0  0  0  0  0  0  0  0  0  0  # atno 10167 bound_to 10162
  156.6694  130.9078  151.3041 H   0  0  0  0  0  0  0  0  0  0  0  0  # atno 10718 bound_to 10713
  153.3673  135.3940  155.1762 H   0  0  0  0  0  0  0  0  0  0  0  0  # atno 10763 bound_to 10752
  154.8689  135.3694  154.5023 H   0  0  0  0  0  0  0  0  0  0  0  0  # atno 10764 bound_to 10752
  153.5488  135.7083  153.5662 H   0  0  0  0  0  0  0  0  0  0  0  0  # atno 10765 bound_to 10752
  140.7299  133.8758  155.8885 H   0  0  0  0  0  0  0  0  0  0  0  0  # atno 11005 bound_to 11000
  146.3497  140.1550  142.8591 LP  0  0  0  0  0  0  0  0  0  0  0  0  # atno 17320 bound_to 7965
  145.0456  140.8979  143.5026 LP  0  0  0  0  0  0  0  0  0  0  0  0  # atno 17321 bound_to 7965
  139.4995  144.6670  151.6332 LP  0  0  0  0  0  0  0  0  0  0  0  0  # atno 17342 bound_to 10162
  140.5907  143.9785  150.6323 LP  0  0  0  0  0  0  0  0  0  0  0  0  # atno 17343 bound_to 10162
  157.7082  130.9410  150.1001 LP  0  0  0  0  0  0  0  0  0  0  0  0  # atno 17370 bound_to 10713
  156.1950  130.3657  149.8861 LP  0  0  0  0  0  0  0  0  0  0  0  0  # atno 17371 bound_to 10713
  140.9930  134.1253  157.4390 LP  0  0  0  0  0  0  0  0  0  0  0  0  # atno 17394 bound_to 11000
  139.8828  135.0046  156.6260 LP  0  0  0  0  0  0  0  0  0  0  0  0  # atno 17395 bound_to 11000

$$$$
