AV-unprocessed.smi:36|AV-procd|sdf|297|dock3
  -GOLD-   2262016 93D 1   1.00000     0.00000
 Structure written by MMmdl.
 63 66  0  0  0  0  0  0  0  0  2 V2000
  146.7917  135.8772  160.6123 C   0  0  0  0  0  0  0  0  0  0  0  0
  148.0033  135.0398  161.0537 C   0  0  0  0  0  0  0  0  0  0  0  0
  149.2711  135.5429  160.3440 C   0  0  0  0  0  0  0  0  0  0  0  0
  148.1869  135.1445  162.5773 C   0  0  0  0  0  0  0  0  0  0  0  0
  147.7162  133.2088  160.5890 Si  0  0  0  0  0  0  0  0  0  0  0  0
  149.0336  132.0859  161.3734 C   0  0  0  0  0  0  0  0  0  0  0  0
  145.9838  132.6303  161.1116 C   0  0  0  0  0  0  0  0  0  0  0  0
  147.8334  133.0810  158.9071 O   0  0  0  0  0  0  0  0  0  0  0  0
  149.0180  133.3354  158.1831 C   0  0  0  0  0  0  0  0  0  0  0  0
  148.6510  133.6512  156.7279 C   0  0  2  0  0  0  0  0  0  0  0  0
  149.8254  133.8205  155.9296 O   0  0  0  0  0  0  0  0  0  0  0  0
  149.7040  134.9481  155.1109 C   0  0  2  0  0  0  0  0  0  0  0  0
  150.5302  136.0519  155.6975 N   0  0  0  0  0  0  0  0  0  0  0  0
  151.4537  136.0062  156.6813 C   0  0  0  0  0  0  0  0  0  0  0  0
  152.0575  137.1466  157.0104 N   0  0  0  0  0  0  0  0  0  0  0  0
  151.4698  138.0400  156.1272 C   0  0  0  0  0  0  0  0  0  0  0  0
  151.6419  139.4353  155.9164 C   0  0  0  0  0  0  0  0  0  0  0  0
  152.5061  140.1742  156.6280 N   0  5  0  0  0  0  0  0  0  0  0  0
  152.4583  140.1520  157.9841 C   0  0  0  0  0  0  0  0  0  0  0  0
  152.4911  139.1689  158.7273 O   0  0  0  0  0  0  0  0  0  0  0  0
  152.2751  141.5162  158.5932 C   0  0  0  0  0  0  0  0  0  0  0  0
  152.9033  141.8247  159.8214 C   0  0  0  0  0  0  0  0  0  0  0  0
  152.7627  143.1027  160.3966 C   0  0  0  0  0  0  0  0  0  0  0  0
  152.0005  144.0896  159.7441 C   0  0  0  0  0  0  0  0  0  0  0  0
  151.3816  143.7985  158.5140 C   0  0  0  0  0  0  0  0  0  0  0  0
  151.5211  142.5205  157.9384 C   0  0  0  0  0  0  0  0  0  0  0  0
  150.9010  140.0046  154.9311 N   0  0  0  0  0  0  0  0  0  0  0  0
  150.0445  139.2658  154.2160 C   0  0  0  0  0  0  0  0  0  0  0  0
  149.7778  137.9594  154.3120 N   0  0  0  0  0  0  0  0  0  0  0  0
  150.5230  137.3758  155.2953 C   0  0  0  0  0  0  0  0  0  0  0  0
  148.2254  135.3360  155.1346 C   0  0  0  0  0  0  0  0  0  0  0  0
  147.8325  134.9337  156.5409 C   0  0  1  0  0  0  0  0  0  0  0  0
  146.4411  134.7076  156.6322 O   0  0  0  0  0  0  0  0  0  0  0  0
  146.9266  136.9300  160.8622 H   0  0  0  0  0  0  0  0  0  0  0  0
  145.8757  135.5393  161.0976 H   0  0  0  0  0  0  0  0  0  0  0  0
  146.6366  135.8135  159.5350 H   0  0  0  0  0  0  0  0  0  0  0  0
  149.1687  135.4877  159.2599 H   0  0  0  0  0  0  0  0  0  0  0  0
  150.1428  134.9497  160.6226 H   0  0  0  0  0  0  0  0  0  0  0  0
  149.4837  136.5813  160.6004 H   0  0  0  0  0  0  0  0  0  0  0  0
  148.3784  136.1732  162.8842 H   0  0  0  0  0  0  0  0  0  0  0  0
  149.0266  134.5371  162.9176 H   0  0  0  0  0  0  0  0  0  0  0  0
  147.2987  134.8042  163.1099 H   0  0  0  0  0  0  0  0  0  0  0  0
  149.0302  132.1635  162.4604 H   0  0  0  0  0  0  0  0  0  0  0  0
  150.0355  132.3441  161.0310 H   0  0  0  0  0  0  0  0  0  0  0  0
  148.8668  131.0382  161.1237 H   0  0  0  0  0  0  0  0  0  0  0  0
  145.8444  132.7060  162.1897 H   0  0  0  0  0  0  0  0  0  0  0  0
  145.8094  131.5908  160.8350 H   0  0  0  0  0  0  0  0  0  0  0  0
  145.2030  133.2264  160.6399 H   0  0  0  0  0  0  0  0  0  0  0  0
  149.5702  134.1564  158.6400 H   0  0  0  0  0  0  0  0  0  0  0  0
  149.6517  132.4491  158.2264 H   0  0  0  0  0  0  0  0  0  0  0  0
  148.1145  132.8052  156.2949 H   0  0  0  0  0  0  0  0  0  0  0  0
  150.1189  134.7906  154.1147 H   0  0  0  0  0  0  0  0  0  0  0  0
  151.7041  135.0865  157.1871 H   0  0  0  0  0  0  0  0  0  0  0  0
  153.4929  141.0785  160.3340 H   0  0  0  0  0  0  0  0  0  0  0  0
  153.2418  143.3253  161.3386 H   0  0  0  0  0  0  0  0  0  0  0  0
  151.8934  145.0696  160.1849 H   0  0  0  0  0  0  0  0  0  0  0  0
  150.8011  144.5561  158.0088 H   0  0  0  0  0  0  0  0  0  0  0  0
  151.0468  142.3204  156.9884 H   0  0  0  0  0  0  0  0  0  0  0  0
  149.4933  139.7990  153.4558 H   0  0  0  0  0  0  0  0  0  0  0  0
  148.0649  136.3913  154.9117 H   0  0  0  0  0  0  0  0  0  0  0  0
  147.7020  134.7341  154.3901 H   0  0  0  0  0  0  0  0  0  0  0  0
  148.1358  135.7025  157.2532 H   0  0  0  0  0  0  0  0  0  0  0  0
  145.9988  135.5415  156.5934 H   0  0  0  0  0  0  0  0  0  0  0  0
  1  2  1  0  0  0  0
  1 34  1  0  0  0  0
  1 35  1  0  0  0  0
  1 36  1  0  0  0  0
  2  3  1  0  0  0  0
  2  4  1  0  0  0  0
  2  5  1  0  0  0  0
  3 37  1  0  0  0  0
  3 38  1  0  0  0  0
  3 39  1  0  0  0  0
  4 40  1  0  0  0  0
  4 41  1  0  0  0  0
  4 42  1  0  0  0  0
  5  6  1  0  0  0  0
  5  7  1  0  0  0  0
  5  8  1  0  0  0  0
  6 43  1  0  0  0  0
  6 44  1  0  0  0  0
  6 45  1  0  0  0  0
  7 46  1  0  0  0  0
  7 47  1  0  0  0  0
  7 48  1  0  0  0  0
  8  9  1  0  0  0  0
  9 10  1  0  0  0  0
  9 49  1  0  0  0  0
  9 50  1  0  0  0  0
 10 32  1  0  0  0  0
 10 11  1  0  0  0  0
 10 51  1  0  0  0  0
 11 12  1  0  0  0  0
 12 13  1  0  0  0  0
 12 31  1  0  0  0  0
 12 52  1  0  0  0  0
 13 30  1  0  0  0  0
 13 14  1  0  0  0  0
 14 15  2  0  0  0  0
 14 53  1  0  0  0  0
 15 16  1  0  0  0  0
 16 30  2  0  0  0  0
 16 17  1  0  0  0  0
 17 18  1  0  0  0  0
 17 27  2  0  0  0  0
 18 19  1  0  0  0  0
 19 20  2  0  0  0  0
 19 21  1  0  0  0  0
 21 26  1  0  0  0  0
 21 22  2  0  0  0  0
 22 23  1  0  0  0  0
 22 54  1  0  0  0  0
 23 24  2  0  0  0  0
 23 55  1  0  0  0  0
 24 25  1  0  0  0  0
 24 56  1  0  0  0  0
 25 26  2  0  0  0  0
 25 57  1  0  0  0  0
 26 58  1  0  0  0  0
 27 28  1  0  0  0  0
 28 29  2  0  0  0  0
 28 59  1  0  0  0  0
 29 30  1  0  0  0  0
 31 32  1  0  0  0  0
 31 60  1  0  0  0  0
 31 61  1  0  0  0  0
 32 33  1  0  0  0  0
 32 62  1  0  0  0  0
 33 63  1  0  0  0  0
M  CHG  1  18  -1
M  END
> <s_m_source_file>
AV-unprocessed.smi

> <i_m_source_file_index>
36

> <i_lp_mmshare_version>
43012

> <i_f3d_flags>
0

> <s_epik_input>
W0NIM11DKFtDSDNdKShbQ0gzXSlbU2ldKFtDSDNdKShbQ0gzXSlPW0NIMl1bQ0BASF0xT1tDQEhdKFtDSDJdW0NASF0xW09IXSluKFtjSF1uMiljKGMyMyluW2NIXW5jM1tOSF1DKD1PKWM0W2NIXVtjSF1bY0hdW2NIXVtjSF00

> <s_epik_cmdline>
J2VwaWtfcHl0aG9uJywgJy1waCcsICc3LjAnLCAnLXRuJywgJzgnLCAnLW1hJywgJzIwMCcsICctbWV0YWxfYmluZGluZycsICctaW1hZScsICc8aW5maWxlLm1hZT4nLCAnLW9tYWUnLCAnPG91dGZpbGUubWFlPic=

> <r_lp_tautomer_probability>
1

> <r_epik_Ionization_Penalty>
4.75685

> <r_epik_Ionization_Penalty_Charging>
3.55822

> <r_epik_Ionization_Penalty_Neutral>
1.19863

> <r_epik_State_Penalty>
3.564

> <r_epik_Charging_Adjusted_Penalty>
7.12222

> <i_epik_Tot_Q>
-1

> <i_epik_Tot_abs_Q>
1

> <r_epik_Metal_State_Penalty>
0.523258

> <b_epik_Metal_Only>
1

> <s_epik_Chemistry_Notes>
This compound contains an acetal/aminal-like group ( X-CH(R)-Y where X, Y are N, S, or O) that may be acid/base labile, releasing an aldehyde.

> <s_lp_Force_Field>
OPLS_2005

> <r_lp_Energy>
31.8386

> <b_lp_Chiralities_Consistent>
1

> <s_lp_Variant>
AV-unprocessed.smi:36-19

> <Gold.Version>
5.8.1

> <Gold.Id.Protein>
6NUR|6NUR_protein|mol2

> <Gold.PLP.Fitness>
57.5973

> <Gold.PLP.PLP>
-49.1640

> <Gold.PLP.part.hbond>
-2.0000

> <Gold.PLP.part.metal>
0.0000

> <Gold.PLP.part.buried>
-6.1090

> <Gold.PLP.part.nonpolar>
-41.1602

> <Gold.PLP.part.repulsive>
0.3765

> <Gold.PLP.ligand.clash>
0.0000

> <Gold.PLP.ligand.torsion>
2.0500

> <Gold.PLP.Chemscore.Hbond>
2.9500

> <Gold.PLP.Chemscore.CHOScore>
1.0000

> <Gold.PLP.Chemscore.Metal>
0.0000

> <Gold.Chemscore.Hbonds>
donor molecule, donor type, donor heavy atom, donor atom, acceptor molecule, acceptor atom, score
      P1  H  7989  7998       L1    27  0.80
      P1  H  7997  8008       L1    18  2.00
      L1  C    28    59       P1  7957  1.00

> <Gold.PLP.Chemscore.Internal.Correction>
0.6833

> <Gold.Rescore>
     Score         DG    S(hbond)    S(metal)    S(lipo)     H(rot)  DE(clash)    DE(int)     intcor
     10.80     -15.16       0.89        0.00     115.84       2.67       0.04       4.32       ----

> <Gold.Chemscore.Fitness>
10.7962

> <Gold.Chemscore.DG>
-15.1587

> <Gold.Chemscore.ZeroCoef>
-5.4800

> <Gold.Chemscore.Hbond>
0.8867

> <Gold.Chemscore.Metal>
0.0000

> <Gold.Chemscore.Lipo>
115.8366

> <Gold.Chemscore.Internal_Hbond>
0.0000

> <Gold.Chemscore.DEClash>
0.0396

> <Gold.Chemscore.DEInternal>
4.3230

> <Gold.Chemscore.Rot>
2.6702

> <Gold.Chemscore.Internal.Correction>
   9.000000E+99

> <Gold.Chemscore.Hbonds>
donor molecule, donor type, donor heavy atom, donor atom, acceptor molecule, acceptor atom, score
      P1  H  7989  7998       L1    27  0.12
      P1  H  7997  8008       L1    18  0.29

> <Gold.Chemscore.Hbond.Weighted>
-2.9616

> <Gold.Chemscore.Metal.Weighted>
-0.0000

> <Gold.Chemscore.Lipo.Weighted>
-13.5529

> <Gold.Chemscore.Internal_Hbond.Weighted>
0.0000

> <Gold.Chemscore.DEClash.Weighted>
0.0396

> <Gold.Chemscore.DEInternal.Weighted>
4.3230

> <Gold.Chemscore.Rot.Weighted>
6.8358

> <Gold.Chemscore.Internal.Correction.Weighted>
   9.000000E+99

> <Gold.Protein.RotatedTorsions>
[ 6907 6896 6895 6894 ] final  179.72 input  -60.11 | X-H torsion
[ 7974 7965 7964 7962 ] final  -93.61 input  175.53 | X-H torsion
[ 8008 7997 7996 7995 ] final  -42.23 input   59.86 | X-H torsion
[ 10167 10162 10161 10158 ] final -152.41 input  -65.29 | X-H torsion
[ 10718 10713 10712 10709 ] final   98.16 input   66.30 | X-H torsion
[ 10763 10752 10751 10750 ] final   91.14 input  -60.55 | X-H torsion
[ 11005 11000 10999 10996 ] final   -5.42 input  -57.11 | X-H torsion

> <Gold.Protein.ActiveResidues>
 VAL166  LYS551  ARG553  GLY616  TRP617  ASP618  TYR619  PRO620  LYS621  CYS622 
 ASP623  PHE694  ASN695  SER759  ASP760  ASP761  ALA762  ILE779  LEU786  VAL792 
 PHE793  MET794  SER795  GLU796  ALA797  LYS798  CYS799  TRP800  GLU811  SER814 

> <Gold.Protein.RotatedAtoms>
  151.6671  133.3315  159.3187 H   0  0  0  0  0  0  0  0  0  0  0  0  # atno 6907 bound_to 6896
  150.7886  134.6894  159.6498 H   0  0  0  0  0  0  0  0  0  0  0  0  # atno 6908 bound_to 6896
  152.3961  134.6367  160.0141 H   0  0  0  0  0  0  0  0  0  0  0  0  # atno 6909 bound_to 6896
  145.3843  140.9521  143.2376 H   0  0  0  0  0  0  0  0  0  0  0  0  # atno 7974 bound_to 7965
  154.4000  140.1479  156.3321 H   0  0  0  0  0  0  0  0  0  0  0  0  # atno 8008 bound_to 7997
  155.8433  140.3461  155.5625 H   0  0  0  0  0  0  0  0  0  0  0  0  # atno 8009 bound_to 7997
  155.8063  140.0877  157.1919 H   0  0  0  0  0  0  0  0  0  0  0  0  # atno 8010 bound_to 7997
  139.7184  143.8997  152.2494 H   0  0  0  0  0  0  0  0  0  0  0  0  # atno 10167 bound_to 10162
  157.6900  131.0631  150.4754 H   0  0  0  0  0  0  0  0  0  0  0  0  # atno 10718 bound_to 10713
  153.2050  135.4408  155.0312 H   0  0  0  0  0  0  0  0  0  0  0  0  # atno 10763 bound_to 10752
  154.8169  135.3319  154.7154 H   0  0  0  0  0  0  0  0  0  0  0  0  # atno 10764 bound_to 10752
  153.7596  135.6992  153.4984 H   0  0  0  0  0  0  0  0  0  0  0  0  # atno 10765 bound_to 10752
  140.6909  133.9072  155.8617 H   0  0  0  0  0  0  0  0  0  0  0  0  # atno 11005 bound_to 11000
  144.8485  139.5359  143.6867 LP  0  0  0  0  0  0  0  0  0  0  0  0  # atno 17320 bound_to 7965
  146.2827  139.6921  142.9217 LP  0  0  0  0  0  0  0  0  0  0  0  0  # atno 17321 bound_to 7965
  139.8886  144.6978  150.8796 LP  0  0  0  0  0  0  0  0  0  0  0  0  # atno 17342 bound_to 10162
  140.7748  143.3604  151.1839 LP  0  0  0  0  0  0  0  0  0  0  0  0  # atno 17343 bound_to 10162
  156.5089  130.4134  149.6312 LP  0  0  0  0  0  0  0  0  0  0  0  0  # atno 17370 bound_to 10713
  156.3259  130.7305  151.2226 LP  0  0  0  0  0  0  0  0  0  0  0  0  # atno 17371 bound_to 10713
  141.0242  134.0847  157.4087 LP  0  0  0  0  0  0  0  0  0  0  0  0  # atno 17394 bound_to 11000
  139.8924  135.0124  156.6842 LP  0  0  0  0  0  0  0  0  0  0  0  0  # atno 17395 bound_to 11000

$$$$
