AV-unprocessed.smi:2380|AV-procd|sdf|9456|dock2
  -GOLD-   2272013 83D 1   1.00000     0.00000
 Structure written by MMmdl.
 42 43  0  0  0  0  0  0  0  0  2 V2000
  152.5038  144.1041  160.8601 C   0  0  0  0  0  0  0  0  0  0  0  0
  152.1496  142.9799  159.9097 C   0  0  0  0  0  0  0  0  0  0  0  0
  152.7517  141.7137  160.0361 C   0  0  0  0  0  0  0  0  0  0  0  0
  152.3839  140.7082  159.1206 C   0  0  0  0  0  0  0  0  0  0  0  0
  152.9918  139.3237  159.1980 C   0  0  0  0  0  0  0  0  0  0  0  0
  151.4866  140.9051  158.1312 N   0  0  0  0  0  0  0  0  0  0  0  0
  150.9012  142.1209  157.9992 C   0  0  0  0  0  0  0  0  0  0  0  0
  149.9491  142.4309  156.9920 N   0  0  0  0  0  0  0  0  0  0  0  0
  149.4665  141.6250  156.0298 C   0  0  0  0  0  0  0  0  0  0  0  0
  149.7666  140.4413  155.8732 O   0  0  0  0  0  0  0  0  0  0  0  0
  148.5992  142.2761  155.2406 N   0  0  0  0  0  0  0  0  0  0  0  0
  147.8815  141.6895  154.1089 C   0  0  2  0  0  0  0  0  0  0  0  0
  146.6786  142.5535  153.6770 C   0  0  0  0  0  0  0  0  0  0  0  0
  145.5405  142.5151  154.7118 C   0  0  0  0  0  0  0  0  0  0  0  0
  145.1168  141.1194  154.9852 N   0  3  2  0  0  0  0  0  0  0  0  0
  143.9418  141.0533  155.8803 C   0  0  0  0  0  0  0  0  0  0  0  0
  146.2415  140.2798  155.4671 C   0  0  0  0  0  0  0  0  0  0  0  0
  147.4018  140.2684  154.4547 C   0  0  0  0  0  0  0  0  0  0  0  0
  151.2135  143.1842  158.8758 C   0  0  0  0  0  0  0  0  0  0  0  0
  152.9064  143.7141  161.7953 H   0  0  0  0  0  0  0  0  0  0  0  0
  151.6226  144.7019  161.0946 H   0  0  0  0  0  0  0  0  0  0  0  0
  153.2521  144.7556  160.4088 H   0  0  0  0  0  0  0  0  0  0  0  0
  153.4763  141.5190  160.8133 H   0  0  0  0  0  0  0  0  0  0  0  0
  153.5974  139.2075  160.0973 H   0  0  0  0  0  0  0  0  0  0  0  0
  153.6284  139.1425  158.3317 H   0  0  0  0  0  0  0  0  0  0  0  0
  152.2098  138.5640  159.2155 H   0  0  0  0  0  0  0  0  0  0  0  0
  149.5994  143.3773  157.0045 H   0  0  0  0  0  0  0  0  0  0  0  0
  148.4087  143.2455  155.4484 H   0  0  0  0  0  0  0  0  0  0  0  0
  148.5804  141.6162  153.2735 H   0  0  0  0  0  0  0  0  0  0  0  0
  146.9865  143.5842  153.4978 H   0  0  0  0  0  0  0  0  0  0  0  0
  146.3013  142.1849  152.7223 H   0  0  0  0  0  0  0  0  0  0  0  0
  145.8563  142.9928  155.6408 H   0  0  0  0  0  0  0  0  0  0  0  0
  144.6911  143.0870  154.3361 H   0  0  0  0  0  0  0  0  0  0  0  0
  144.1761  141.4608  156.8645 H   0  0  0  0  0  0  0  0  0  0  0  0
  143.6111  140.0219  156.0063 H   0  0  0  0  0  0  0  0  0  0  0  0
  143.1079  141.6200  155.4647 H   0  0  0  0  0  0  0  0  0  0  0  0
  146.5855  140.6495  156.4344 H   0  0  0  0  0  0  0  0  0  0  0  0
  145.8909  139.2594  155.6265 H   0  0  0  0  0  0  0  0  0  0  0  0
  147.0710  139.7716  153.5416 H   0  0  0  0  0  0  0  0  0  0  0  0
  148.2301  139.6719  154.8395 H   0  0  0  0  0  0  0  0  0  0  0  0
  150.7407  144.1488  158.7591 H   0  0  0  0  0  0  0  0  0  0  0  0
  144.8247  140.7290  154.1005 H   0  0  0  0  0  0  0  0  0  0  0  0
  1  2  1  0  0  0  0
  1 20  1  0  0  0  0
  1 21  1  0  0  0  0
  1 22  1  0  0  0  0
  2 19  1  0  0  0  0
  2  3  2  0  0  0  0
  3  4  1  0  0  0  0
  3 23  1  0  0  0  0
  4  5  1  0  0  0  0
  4  6  2  0  0  0  0
  5 24  1  0  0  0  0
  5 25  1  0  0  0  0
  5 26  1  0  0  0  0
  6  7  1  0  0  0  0
  7  8  1  0  0  0  0
  7 19  2  0  0  0  0
  8  9  1  0  0  0  0
  8 27  1  0  0  0  0
  9 10  2  0  0  0  0
  9 11  1  0  0  0  0
 11 12  1  0  0  0  0
 11 28  1  0  0  0  0
 12 18  1  0  0  0  0
 12 13  1  0  0  0  0
 12 29  1  0  0  0  0
 13 14  1  0  0  0  0
 13 30  1  0  0  0  0
 13 31  1  0  0  0  0
 14 15  1  0  0  0  0
 14 32  1  0  0  0  0
 14 33  1  0  0  0  0
 15 16  1  0  0  0  0
 15 17  1  0  0  0  0
 15 42  1  0  0  0  0
 16 34  1  0  0  0  0
 16 35  1  0  0  0  0
 16 36  1  0  0  0  0
 17 18  1  0  0  0  0
 17 37  1  0  0  0  0
 17 38  1  0  0  0  0
 18 39  1  0  0  0  0
 18 40  1  0  0  0  0
 19 41  1  0  0  0  0
M  CHG  1  15   1
M  END
> <s_m_source_file>
AV-unprocessed.smi

> <i_m_source_file_index>
2380

> <i_lp_mmshare_version>
43012

> <i_f3d_flags>
0

> <s_epik_input>
W0NIM11jMVtjSF1jKFtDSDNdKW5jKFtjSF0xKVtOSF1DKD1PKVtOSF1bQ0hdMltDSDJdW0NIMl1OKFtDSDNdKVtDSDJdW0NIMl0y

> <s_epik_cmdline>
J2VwaWtfcHl0aG9uJywgJy1waCcsICc3LjAnLCAnLXRuJywgJzgnLCAnLW1hJywgJzIwMCcsICctbWV0YWxfYmluZGluZycsICctaW1hZScsICc8aW5maWxlLm1hZT4nLCAnLW9tYWUnLCAnPG91dGZpbGUubWFlPic=

> <r_epik_Ionization_Penalty>
0.00385557

> <r_epik_Ionization_Penalty_Charging>
0.00366825

> <r_epik_Ionization_Penalty_Neutral>
0.000187322

> <r_epik_State_Penalty>
0.00261101

> <r_epik_Charging_Adjusted_Penalty>
0.00627926

> <i_epik_Tot_Q>
1

> <i_epik_Tot_abs_Q>
1

> <r_epik_Metal_State_Penalty>
-0

> <b_epik_Metal_Only>
0

> <s_lp_Force_Field>
OPLS_2005

> <r_lp_Energy>
16.4741

> <b_lp_Chiralities_Consistent>
1

> <s_lp_Variant>
AV-unprocessed.smi:2380-2

> <Gold.Version>
5.8.1

> <Gold.Id.Protein>
6NUR|6NUR_protein|mol2

> <Gold.PLP.Fitness>
44.2638

> <Gold.PLP.PLP>
-33.4506

> <Gold.PLP.part.hbond>
-2.8399

> <Gold.PLP.part.metal>
0.0000

> <Gold.PLP.part.buried>
-6.1556

> <Gold.PLP.part.nonpolar>
-23.9124

> <Gold.PLP.part.repulsive>
0.2225

> <Gold.PLP.ligand.clash>
0.0000

> <Gold.PLP.ligand.torsion>
0.2472

> <Gold.PLP.Chemscore.Hbond>
3.7680

> <Gold.PLP.Chemscore.CHOScore>
0.0000

> <Gold.PLP.Chemscore.Metal>
0.0000

> <Gold.Chemscore.Hbonds>
donor molecule, donor type, donor heavy atom, donor atom, acceptor molecule, acceptor atom, score
      L1  H     8    27       P1  8028  0.77
      L1  H    11    28       P1  8028  1.00
      L1  H    15    42       P1 10175  2.00

> <Gold.PLP.Chemscore.Internal.Correction>
0.0037

> <Gold.Rescore>
     Score         DG    S(hbond)    S(metal)    S(lipo)     H(rot)  DE(clash)    DE(int)     intcor
     18.42     -21.77       2.78        0.00      81.74       1.00       0.37       2.98       ----

> <Gold.Chemscore.Fitness>
18.4185

> <Gold.Chemscore.DG>
-21.7695

> <Gold.Chemscore.ZeroCoef>
-5.4800

> <Gold.Chemscore.Hbond>
2.7803

> <Gold.Chemscore.Metal>
0.0000

> <Gold.Chemscore.Lipo>
81.7371

> <Gold.Chemscore.Internal_Hbond>
0.0000

> <Gold.Chemscore.DEClash>
0.3708

> <Gold.Chemscore.DEInternal>
2.9802

> <Gold.Chemscore.Rot>
1.0000

> <Gold.Chemscore.Internal.Correction>
   9.000000E+99

> <Gold.Chemscore.Hbonds>
donor molecule, donor type, donor heavy atom, donor atom, acceptor molecule, acceptor atom, score
      L1  H     8    27       P1  8028  0.70
      L1  H    11    28       P1  8028  0.90
      L1  H    15    42       P1 10175  0.94

> <Gold.Chemscore.Hbond.Weighted>
-9.2863

> <Gold.Chemscore.Metal.Weighted>
-0.0000

> <Gold.Chemscore.Lipo.Weighted>
-9.5632

> <Gold.Chemscore.Internal_Hbond.Weighted>
0.0000

> <Gold.Chemscore.DEClash.Weighted>
0.3708

> <Gold.Chemscore.DEInternal.Weighted>
2.9802

> <Gold.Chemscore.Rot.Weighted>
2.5600

> <Gold.Chemscore.Internal.Correction.Weighted>
   9.000000E+99

> <Gold.Protein.RotatedTorsions>
[ 6907 6896 6895 6894 ] final -119.15 input  -60.11 | X-H torsion
[ 7974 7965 7964 7962 ] final  -39.59 input  175.53 | X-H torsion
[ 8008 7997 7996 7995 ] final  -93.86 input   59.86 | X-H torsion
[ 10167 10162 10161 10158 ] final  143.21 input  -65.29 | X-H torsion
[ 10718 10713 10712 10709 ] final  -36.28 input   66.30 | X-H torsion
[ 10763 10752 10751 10750 ] final   89.29 input  -60.55 | X-H torsion
[ 11005 11000 10999 10996 ] final  -81.25 input  -57.11 | X-H torsion

> <Gold.Protein.ActiveResidues>
 VAL166  LYS551  ARG553  GLY616  TRP617  ASP618  TYR619  PRO620  LYS621  CYS622 
 ASP623  PHE694  ASN695  SER759  ASP760  ASP761  ALA762  ILE779  LEU786  VAL792 
 PHE793  MET794  SER795  GLU796  ALA797  LYS798  CYS799  TRP800  GLU811  SER814 

> <Gold.Protein.RotatedAtoms>
  150.8280  133.8139  159.3110 H   0  0  0  0  0  0  0  0  0  0  0  0  # atno 6907 bound_to 6896
  151.5877  135.1053  160.0041 H   0  0  0  0  0  0  0  0  0  0  0  0  # atno 6908 bound_to 6896
  152.4363  133.7325  159.6652 H   0  0  0  0  0  0  0  0  0  0  0  0  # atno 6909 bound_to 6896
  146.0382  140.6643  142.9100 H   0  0  0  0  0  0  0  0  0  0  0  0  # atno 7974 bound_to 7965
  154.7410  140.0495  157.0811 H   0  0  0  0  0  0  0  0  0  0  0  0  # atno 8008 bound_to 7997
  155.0178  140.3143  155.4785 H   0  0  0  0  0  0  0  0  0  0  0  0  # atno 8009 bound_to 7997
  156.2864  140.2172  156.5295 H   0  0  0  0  0  0  0  0  0  0  0  0  # atno 8010 bound_to 7997
  139.4975  144.6055  151.6387 H   0  0  0  0  0  0  0  0  0  0  0  0  # atno 10167 bound_to 10162
  156.3286  130.4276  149.7893 H   0  0  0  0  0  0  0  0  0  0  0  0  # atno 10718 bound_to 10713
  153.1856  135.4475  155.0084 H   0  0  0  0  0  0  0  0  0  0  0  0  # atno 10763 bound_to 10752
  154.8058  135.3274  154.7437 H   0  0  0  0  0  0  0  0  0  0  0  0  # atno 10764 bound_to 10752
  153.7896  135.6971  153.4929 H   0  0  0  0  0  0  0  0  0  0  0  0  # atno 10765 bound_to 10752
  141.1667  133.7188  156.8394 H   0  0  0  0  0  0  0  0  0  0  0  0  # atno 11005 bound_to 11000
  144.7062  140.3859  143.7116 LP  0  0  0  0  0  0  0  0  0  0  0  0  # atno 17320 bound_to 7965
  145.6928  139.1643  143.2637 LP  0  0  0  0  0  0  0  0  0  0  0  0  # atno 17321 bound_to 7965
  140.5716  144.0099  150.6220 LP  0  0  0  0  0  0  0  0  0  0  0  0  # atno 17342 bound_to 10162
  140.3218  143.3132  152.0776 LP  0  0  0  0  0  0  0  0  0  0  0  0  # atno 17343 bound_to 10162
  156.5174  130.8199  151.3191 LP  0  0  0  0  0  0  0  0  0  0  0  0  # atno 17370 bound_to 10713
  157.7426  130.9894  150.2529 LP  0  0  0  0  0  0  0  0  0  0  0  0  # atno 17371 bound_to 10713
  140.1994  134.8908  157.3151 LP  0  0  0  0  0  0  0  0  0  0  0  0  # atno 17394 bound_to 11000
  140.2204  134.4030  155.7569 LP  0  0  0  0  0  0  0  0  0  0  0  0  # atno 17395 bound_to 11000

$$$$
