AV-unprocessed.smi:1774|AV-procd|sdf|7170|dock8
  -GOLD-   22720 8413D 1   1.00000     0.00000
 Structure written by MMmdl.
 46 47  0  0  0  0  0  0  0  0  2 V2000
  151.3079  137.9273  154.2860 C   0  0  0  0  0  0  0  0  0  0  0  0
  150.8151  139.2118  154.9327 C   0  0  0  0  0  0  0  0  0  0  0  0
  151.6305  139.8638  155.8824 C   0  0  0  0  0  0  0  0  0  0  0  0
  151.1736  141.0516  156.4786 C   0  0  0  0  0  0  0  0  0  0  0  0
  149.9123  141.5403  156.0976 C   0  0  0  0  0  0  0  0  0  0  0  0
  149.1263  140.9235  155.1915 N   0  0  0  0  0  0  0  0  0  0  0  0
  149.5530  139.7765  154.6057 C   0  0  0  0  0  0  0  0  0  0  0  0
  148.7750  139.0702  153.6453 N   0  0  0  0  0  0  0  0  0  0  0  0
  147.4507  139.1451  153.4243 C   0  0  0  0  0  0  0  0  0  0  0  0
  146.6666  139.8845  154.0203 O   0  0  0  0  0  0  0  0  0  0  0  0
  147.0702  138.3025  152.4528 N   0  0  0  0  0  0  0  0  0  0  0  0
  145.7034  138.1607  151.9642 C   0  0  0  0  0  0  0  0  0  0  0  0
  145.5469  136.9184  151.0651 C   0  0  0  0  0  0  0  0  0  0  0  0
  145.6310  135.6473  151.8320 N   0  3  1  0  0  0  0  0  0  0  0  0
  144.7932  135.6385  153.0561 C   0  0  0  0  0  0  0  0  0  0  0  0
  143.3058  135.4112  152.7164 C   0  0  2  0  0  0  0  0  0  0  0  0
  142.4372  135.3114  153.9748 C   0  0  0  0  0  0  0  0  0  0  0  0
  143.1796  134.1905  151.9951 O   0  0  0  0  0  0  0  0  0  0  0  0
  143.8838  134.2035  150.7578 C   0  0  2  0  0  0  0  0  0  0  0  0
  143.6156  132.8737  150.0448 C   0  0  0  0  0  0  0  0  0  0  0  0
  145.3878  134.4185  151.0327 C   0  0  0  0  0  0  0  0  0  0  0  0
  152.3020  137.6580  154.6439 H   0  0  0  0  0  0  0  0  0  0  0  0
  151.3615  138.0412  153.2028 H   0  0  0  0  0  0  0  0  0  0  0  0
  150.6335  137.1018  154.5157 H   0  0  0  0  0  0  0  0  0  0  0  0
  152.5956  139.4611  156.1530 H   0  0  0  0  0  0  0  0  0  0  0  0
  151.7740  141.5744  157.2084 H   0  0  0  0  0  0  0  0  0  0  0  0
  149.5230  142.4495  156.5311 H   0  0  0  0  0  0  0  0  0  0  0  0
  149.2918  138.4313  153.0594 H   0  0  0  0  0  0  0  0  0  0  0  0
  147.7762  137.7310  152.0115 H   0  0  0  0  0  0  0  0  0  0  0  0
  145.0274  138.1269  152.8189 H   0  0  0  0  0  0  0  0  0  0  0  0
  145.4486  139.0599  151.4030 H   0  0  0  0  0  0  0  0  0  0  0  0
  144.5702  136.9772  150.5823 H   0  0  0  0  0  0  0  0  0  0  0  0
  146.2817  136.9236  150.2605 H   0  0  0  0  0  0  0  0  0  0  0  0
  145.1449  134.8337  153.7033 H   0  0  0  0  0  0  0  0  0  0  0  0
  144.9283  136.5626  153.6193 H   0  0  0  0  0  0  0  0  0  0  0  0
  142.9296  136.2326  152.1044 H   0  0  0  0  0  0  0  0  0  0  0  0
  142.4890  136.2286  154.5620 H   0  0  0  0  0  0  0  0  0  0  0  0
  142.7580  134.4869  154.6122 H   0  0  0  0  0  0  0  0  0  0  0  0
  141.3919  135.1430  153.7140 H   0  0  0  0  0  0  0  0  0  0  0  0
  143.4937  135.0071  150.1316 H   0  0  0  0  0  0  0  0  0  0  0  0
  144.1271  132.8343  149.0827 H   0  0  0  0  0  0  0  0  0  0  0  0
  142.5495  132.7391  149.8593 H   0  0  0  0  0  0  0  0  0  0  0  0
  143.9589  132.0279  150.6415 H   0  0  0  0  0  0  0  0  0  0  0  0
  145.9501  134.4352  150.1001 H   0  0  0  0  0  0  0  0  0  0  0  0
  145.7743  133.5708  151.6003 H   0  0  0  0  0  0  0  0  0  0  0  0
  146.5874  135.5973  152.1528 H   0  0  0  0  0  0  0  0  0  0  0  0
  1  2  1  0  0  0  0
  1 22  1  0  0  0  0
  1 23  1  0  0  0  0
  1 24  1  0  0  0  0
  2  7  1  0  0  0  0
  2  3  2  0  0  0  0
  3  4  1  0  0  0  0
  3 25  1  0  0  0  0
  4  5  2  0  0  0  0
  4 26  1  0  0  0  0
  5  6  1  0  0  0  0
  5 27  1  0  0  0  0
  6  7  2  0  0  0  0
  7  8  1  0  0  0  0
  8  9  1  0  0  0  0
  8 28  1  0  0  0  0
  9 10  2  0  0  0  0
  9 11  1  0  0  0  0
 11 12  1  0  0  0  0
 11 29  1  0  0  0  0
 12 13  1  0  0  0  0
 12 30  1  0  0  0  0
 12 31  1  0  0  0  0
 13 14  1  0  0  0  0
 13 32  1  0  0  0  0
 13 33  1  0  0  0  0
 14 21  1  0  0  0  0
 14 15  1  0  0  0  0
 14 46  1  0  0  0  0
 15 16  1  0  0  0  0
 15 34  1  0  0  0  0
 15 35  1  0  0  0  0
 16 17  1  0  0  0  0
 16 18  1  0  0  0  0
 16 36  1  0  0  0  0
 17 37  1  0  0  0  0
 17 38  1  0  0  0  0
 17 39  1  0  0  0  0
 18 19  1  0  0  0  0
 19 20  1  0  0  0  0
 19 21  1  0  0  0  0
 19 40  1  0  0  0  0
 20 41  1  0  0  0  0
 20 42  1  0  0  0  0
 20 43  1  0  0  0  0
 21 44  1  0  0  0  0
 21 45  1  0  0  0  0
M  CHG  1  14   1
M  END
> <s_m_source_file>
AV-unprocessed.smi

> <i_m_source_file_index>
1774

> <i_lp_mmshare_version>
43012

> <i_f3d_flags>
0

> <s_epik_input>
W0NIM11jMVtjSF1bY0hdW2NIXW5jMVtOSF1DKD1PKVtOSF1bQ0gyXVtDSDJdTjJbQ0gyXVtDQEBIXShbQ0gzXSlPW0NAQEhdKFtDSDNdKVtDSDJdMg==

> <s_epik_cmdline>
J2VwaWtfcHl0aG9uJywgJy1waCcsICc3LjAnLCAnLXRuJywgJzgnLCAnLW1hJywgJzIwMCcsICctbWV0YWxfYmluZGluZycsICctaW1hZScsICc8aW5maWxlLm1hZT4nLCAnLW9tYWUnLCAnPG91dGZpbGUubWFlPic=

> <r_epik_Ionization_Penalty>
0.602573

> <r_epik_Ionization_Penalty_Charging>
0.602531

> <r_epik_Ionization_Penalty_Neutral>
4.21996e-05

> <r_epik_State_Penalty>
0.617039

> <r_epik_Charging_Adjusted_Penalty>
1.21957

> <i_epik_Tot_Q>
1

> <i_epik_Tot_abs_Q>
1

> <r_epik_Metal_State_Penalty>
0.617042

> <b_epik_Metal_Only>
0

> <s_lp_Force_Field>
OPLS_2005

> <r_lp_Energy>
17.7689

> <b_lp_Chiralities_Consistent>
1

> <s_lp_Variant>
AV-unprocessed.smi:1774-7

> <Gold.Version>
5.8.1

> <Gold.Id.Protein>
6NUR|6NUR_protein|mol2

> <Gold.PLP.Fitness>
50.5178

> <Gold.PLP.PLP>
-39.3867

> <Gold.PLP.part.hbond>
-4.1242

> <Gold.PLP.part.metal>
0.0000

> <Gold.PLP.part.buried>
1.9152

> <Gold.PLP.part.nonpolar>
-37.0230

> <Gold.PLP.part.repulsive>
0.7290

> <Gold.PLP.ligand.clash>
0.0000

> <Gold.PLP.ligand.torsion>
0.2237

> <Gold.PLP.Chemscore.Hbond>
2.8480

> <Gold.PLP.Chemscore.CHOScore>
1.0000

> <Gold.PLP.Chemscore.Metal>
0.0000

> <Gold.Chemscore.Hbonds>
donor molecule, donor type, donor heavy atom, donor atom, acceptor molecule, acceptor atom, score
      L1  H    11    29       P1  7948  1.00
      L1  C     5    27       P1  8028  1.00

> <Gold.PLP.Chemscore.Internal.Correction>
0.0345

> <Gold.Rescore>
     Score         DG    S(hbond)    S(metal)    S(lipo)     H(rot)  DE(clash)    DE(int)     intcor
     14.24     -18.31       1.79        0.00      91.36       1.49       2.58       1.50       ----

> <Gold.Chemscore.Fitness>
14.2366

> <Gold.Chemscore.DG>
-18.3101

> <Gold.Chemscore.ZeroCoef>
-5.4800

> <Gold.Chemscore.Hbond>
1.7865

> <Gold.Chemscore.Metal>
0.0000

> <Gold.Chemscore.Lipo>
91.3613

> <Gold.Chemscore.Internal_Hbond>
0.0000

> <Gold.Chemscore.DEClash>
2.5761

> <Gold.Chemscore.DEInternal>
1.4974

> <Gold.Chemscore.Rot>
1.4946

> <Gold.Chemscore.Internal.Correction>
   9.000000E+99

> <Gold.Chemscore.Hbonds>
donor molecule, donor type, donor heavy atom, donor atom, acceptor molecule, acceptor atom, score
      L1  H     8    28       P1  7948  0.01
      L1  H    11    29       P1  7948  0.99
      L1  H    14    46       P1  7948  0.05

> <Gold.Chemscore.Hbond.Weighted>
-5.9668

> <Gold.Chemscore.Metal.Weighted>
-0.0000

> <Gold.Chemscore.Lipo.Weighted>
-10.6893

> <Gold.Chemscore.Internal_Hbond.Weighted>
0.0000

> <Gold.Chemscore.DEClash.Weighted>
2.5761

> <Gold.Chemscore.DEInternal.Weighted>
1.4974

> <Gold.Chemscore.Rot.Weighted>
3.8261

> <Gold.Chemscore.Internal.Correction.Weighted>
   9.000000E+99

> <Gold.Protein.RotatedTorsions>
[ 6907 6896 6895 6894 ] final  125.84 input  -60.11 | X-H torsion
[ 7974 7965 7964 7962 ] final  -15.97 input  175.53 | X-H torsion
[ 8008 7997 7996 7995 ] final   25.22 input   59.86 | X-H torsion
[ 10167 10162 10161 10158 ] final  -71.69 input  -65.29 | X-H torsion
[ 10718 10713 10712 10709 ] final  148.21 input   66.30 | X-H torsion
[ 10763 10752 10751 10750 ] final   94.81 input  -60.55 | X-H torsion
[ 11005 11000 10999 10996 ] final  -45.56 input  -57.11 | X-H torsion

> <Gold.Protein.ActiveResidues>
 VAL166  LYS551  ARG553  GLY616  TRP617  ASP618  TYR619  PRO620  LYS621  CYS622 
 ASP623  PHE694  ASN695  SER759  ASP760  ASP761  ALA762  ILE779  LEU786  VAL792 
 PHE793  MET794  SER795  GLU796  ALA797  LYS798  CYS799  TRP800  GLU811  SER814 

> <Gold.Protein.RotatedAtoms>
  152.3956  133.6743  159.6273 H   0  0  0  0  0  0  0  0  0  0  0  0  # atno 6907 bound_to 6896
  150.7856  133.8879  159.3313 H   0  0  0  0  0  0  0  0  0  0  0  0  # atno 6908 bound_to 6896
  151.6656  135.0985  160.0239 H   0  0  0  0  0  0  0  0  0  0  0  0  # atno 6909 bound_to 6896
  146.2008  140.3569  142.8424 H   0  0  0  0  0  0  0  0  0  0  0  0  # atno 7974 bound_to 7965
  155.0083  140.3133  155.4840 H   0  0  0  0  0  0  0  0  0  0  0  0  # atno 8008 bound_to 7997
  156.2913  140.2219  156.5138 H   0  0  0  0  0  0  0  0  0  0  0  0  # atno 8009 bound_to 7997
  154.7557  140.0463  157.0919 H   0  0  0  0  0  0  0  0  0  0  0  0  # atno 8010 bound_to 7997
  140.5253  143.2327  151.7358 H   0  0  0  0  0  0  0  0  0  0  0  0  # atno 10167 bound_to 10162
  157.3115  131.0888  151.1313 H   0  0  0  0  0  0  0  0  0  0  0  0  # atno 10718 bound_to 10713
  153.2459  135.4276  155.0747 H   0  0  0  0  0  0  0  0  0  0  0  0  # atno 10763 bound_to 10752
  154.8361  135.3414  154.6582 H   0  0  0  0  0  0  0  0  0  0  0  0  # atno 10764 bound_to 10752
  153.7005  135.7028  153.5121 H   0  0  0  0  0  0  0  0  0  0  0  0  # atno 10765 bound_to 10752
  141.0523  133.6738  156.3031 H   0  0  0  0  0  0  0  0  0  0  0  0  # atno 11005 bound_to 11000
  144.8680  140.7233  143.6065 LP  0  0  0  0  0  0  0  0  0  0  0  0  # atno 17320 bound_to 7965
  145.3489  139.1711  143.4445 LP  0  0  0  0  0  0  0  0  0  0  0  0  # atno 17321 bound_to 7965
  139.4936  144.4195  151.9993 LP  0  0  0  0  0  0  0  0  0  0  0  0  # atno 17342 bound_to 10162
  140.3294  144.3334  150.5991 LP  0  0  0  0  0  0  0  0  0  0  0  0  # atno 17343 bound_to 10162
  157.2633  130.6669  149.5985 LP  0  0  0  0  0  0  0  0  0  0  0  0  # atno 17370 bound_to 10713
  155.9678  130.4502  150.5687 LP  0  0  0  0  0  0  0  0  0  0  0  0  # atno 17371 bound_to 10713
  140.6031  134.5535  157.5521 LP  0  0  0  0  0  0  0  0  0  0  0  0  # atno 17394 bound_to 11000
  139.9361  134.7873  156.0800 LP  0  0  0  0  0  0  0  0  0  0  0  0  # atno 17395 bound_to 11000

$$$$
