AV-unprocessed.smi:2925|AV-procd|sdf|11224|dock3
  -GOLD-   2272016113D 1   1.00000     0.00000
 Structure written by MMmdl.
 44 45  0  0  0  0  0  0  0  0  1 V2000
  147.2601  142.3657  154.0672 C   0  0  0  0  0  0  0  0  0  0  0  0
  148.1501  141.1401  153.8125 C   0  0  0  0  0  0  0  0  0  0  0  0
  148.6721  140.4655  155.0983 C   0  0  2  0  0  0  0  0  0  0  0  0
  149.7579  141.2593  155.6745 N   0  0  0  0  0  0  0  0  0  0  0  0
  150.3411  141.0485  156.8630 C   0  0  0  0  0  0  0  0  0  0  0  0
  150.0269  140.1402  157.6329 O   0  0  0  0  0  0  0  0  0  0  0  0
  151.2821  141.9757  157.1143 N   0  0  0  0  0  0  0  0  0  0  0  0
  152.0229  142.0985  158.2998 C   0  0  0  0  0  0  0  0  0  0  0  0
  152.0942  143.3118  158.9079 C   0  0  0  0  0  0  0  0  0  0  0  0
  151.3649  144.5275  158.3576 C   0  0  0  0  0  0  0  0  0  0  0  0
  152.8633  143.4434  160.1277 C   0  0  0  0  0  0  0  0  0  0  0  0
  153.4923  142.3718  160.6289 C   0  0  0  0  0  0  0  0  0  0  0  0
  153.4419  141.1231  159.9923 N   0  0  0  0  0  0  0  0  0  0  0  0
  154.1799  140.0179  160.6096 C   0  0  0  0  0  0  0  0  0  0  0  0
  152.7697  140.9282  158.8215 C   0  0  0  0  0  0  0  0  0  0  0  0
  152.8112  139.8402  158.2423 O   0  0  0  0  0  0  0  0  0  0  0  0
  149.1702  139.0305  154.8339 C   0  0  1  0  0  0  0  0  0  0  0  0
  150.5563  138.9435  154.1908 C   0  0  0  0  0  0  0  0  0  0  0  0
  150.9873  137.5501  154.5860 C   0  0  0  0  0  0  0  0  0  0  0  0
  150.4339  137.4415  156.0038 C   0  0  0  0  0  0  0  0  0  0  0  0
  149.3022  138.3070  156.0554 O   0  0  0  0  0  0  0  0  0  0  0  0
  146.8718  142.7622  153.1291 H   0  0  0  0  0  0  0  0  0  0  0  0
  147.8102  143.1681  154.5588 H   0  0  0  0  0  0  0  0  0  0  0  0
  146.4079  142.1084  154.6970 H   0  0  0  0  0  0  0  0  0  0  0  0
  147.5745  140.4159  153.2351 H   0  0  0  0  0  0  0  0  0  0  0  0
  148.9901  141.4304  153.1801 H   0  0  0  0  0  0  0  0  0  0  0  0
  147.8419  140.3987  155.8039 H   0  0  0  0  0  0  0  0  0  0  0  0
  150.0846  142.0384  155.1220 H   0  0  0  0  0  0  0  0  0  0  0  0
  151.3688  142.7385  156.4592 H   0  0  0  0  0  0  0  0  0  0  0  0
  151.5281  145.4039  158.9852 H   0  0  0  0  0  0  0  0  0  0  0  0
  150.2911  144.3417  158.3135 H   0  0  0  0  0  0  0  0  0  0  0  0
  151.7178  144.7641  157.3533 H   0  0  0  0  0  0  0  0  0  0  0  0
  152.9255  144.3932  160.6389 H   0  0  0  0  0  0  0  0  0  0  0  0
  154.0769  142.4076  161.5365 H   0  0  0  0  0  0  0  0  0  0  0  0
  153.5437  139.1381  160.7196 H   0  0  0  0  0  0  0  0  0  0  0  0
  154.5544  140.2667  161.6032 H   0  0  0  0  0  0  0  0  0  0  0  0
  155.0369  139.7434  159.9929 H   0  0  0  0  0  0  0  0  0  0  0  0
  148.4561  138.4941  154.2065 H   0  0  0  0  0  0  0  0  0  0  0  0
  150.5375  139.0943  153.1111 H   0  0  0  0  0  0  0  0  0  0  0  0
  151.2312  139.6812  154.6280 H   0  0  0  0  0  0  0  0  0  0  0  0
  150.5092  136.8142  153.9379 H   0  0  0  0  0  0  0  0  0  0  0  0
  152.0664  137.4016  154.5356 H   0  0  0  0  0  0  0  0  0  0  0  0
  150.1630  136.4179  156.2633 H   0  0  0  0  0  0  0  0  0  0  0  0
  151.1687  137.7917  156.7297 H   0  0  0  0  0  0  0  0  0  0  0  0
  1  2  1  0  0  0  0
  1 22  1  0  0  0  0
  1 23  1  0  0  0  0
  1 24  1  0  0  0  0
  2  3  1  0  0  0  0
  2 25  1  0  0  0  0
  2 26  1  0  0  0  0
  3  4  1  0  0  0  0
  3 17  1  0  0  0  0
  3 27  1  0  0  0  0
  4  5  1  0  0  0  0
  4 28  1  0  0  0  0
  5  6  2  0  0  0  0
  5  7  1  0  0  0  0
  7  8  1  0  0  0  0
  7 29  1  0  0  0  0
  8 15  1  0  0  0  0
  8  9  2  0  0  0  0
  9 10  1  0  0  0  0
  9 11  1  0  0  0  0
 10 30  1  0  0  0  0
 10 31  1  0  0  0  0
 10 32  1  0  0  0  0
 11 12  2  0  0  0  0
 11 33  1  0  0  0  0
 12 13  1  0  0  0  0
 12 34  1  0  0  0  0
 13 14  1  0  0  0  0
 13 15  1  0  0  0  0
 14 35  1  0  0  0  0
 14 36  1  0  0  0  0
 14 37  1  0  0  0  0
 15 16  2  0  0  0  0
 17 21  1  0  0  0  0
 17 18  1  0  0  0  0
 17 38  1  0  0  0  0
 18 19  1  0  0  0  0
 18 39  1  0  0  0  0
 18 40  1  0  0  0  0
 19 20  1  0  0  0  0
 19 41  1  0  0  0  0
 19 42  1  0  0  0  0
 20 21  1  0  0  0  0
 20 43  1  0  0  0  0
 20 44  1  0  0  0  0
M  END
> <s_m_source_file>
AV-unprocessed.smi

> <i_m_source_file_index>
2925

> <i_lp_mmshare_version>
43012

> <i_f3d_flags>
0

> <s_epik_input>
TzFbQ0gyXVtDSDJdW0NIMl1bQ0BIXTFbQ0BIXShbQ0gyXVtDSDNdKVtOSF1DKD1PKVtOSF1jMmMoW0NIM10pW2NIXVtjSF1uKFtDSDNdKWMyPU8=

> <s_epik_cmdline>
J2VwaWtfcHl0aG9uJywgJy1waCcsICc3LjAnLCAnLXRuJywgJzgnLCAnLW1hJywgJzIwMCcsICctbWV0YWxfYmluZGluZycsICctaW1hZScsICc8aW5maWxlLm1hZT4nLCAnLW9tYWUnLCAnPG91dGZpbGUubWFlPic=

> <r_lp_tautomer_probability>
1

> <r_epik_Ionization_Penalty>
2.58789e-05

> <r_epik_Ionization_Penalty_Charging>
6.72534e-06

> <r_epik_Ionization_Penalty_Neutral>
1.91535e-05

> <r_epik_State_Penalty>
-0

> <r_epik_Charging_Adjusted_Penalty>
6.72534e-06

> <i_epik_Tot_Q>
0

> <i_epik_Tot_abs_Q>
0

> <r_epik_Metal_State_Penalty>
-0

> <b_epik_Metal_Only>
0

> <s_lp_Force_Field>
OPLS_2005

> <r_lp_Energy>
34.9681

> <b_lp_Chiralities_Consistent>
1

> <s_lp_Variant>
AV-unprocessed.smi:2925-3

> <Gold.Version>
5.8.1

> <Gold.Id.Protein>
6NUR|6NUR_protein|mol2

> <Gold.PLP.Fitness>
44.2782

> <Gold.PLP.PLP>
-42.3805

> <Gold.PLP.part.hbond>
-1.0000

> <Gold.PLP.part.metal>
0.0000

> <Gold.PLP.part.buried>
-3.8283

> <Gold.PLP.part.nonpolar>
-36.5502

> <Gold.PLP.part.repulsive>
0.2058

> <Gold.PLP.ligand.clash>
0.0000

> <Gold.PLP.ligand.torsion>
0.8855

> <Gold.PLP.Chemscore.Hbond>
1.0000

> <Gold.PLP.Chemscore.CHOScore>
0.0000

> <Gold.PLP.Chemscore.Metal>
0.0000

> <Gold.Chemscore.Hbonds>
donor molecule, donor type, donor heavy atom, donor atom, acceptor molecule, acceptor atom, score
      P1  H  7997  8010       L1    16  0.68

> <Gold.PLP.Chemscore.Internal.Correction>
0.6689

> <Gold.Rescore>
     Score         DG    S(hbond)    S(metal)    S(lipo)     H(rot)  DE(clash)    DE(int)     intcor
     13.93     -17.42       0.95        0.00     104.74       1.36       0.02       3.47       ----

> <Gold.Chemscore.Fitness>
13.9305

> <Gold.Chemscore.DG>
-17.4196

> <Gold.Chemscore.ZeroCoef>
-5.4800

> <Gold.Chemscore.Hbond>
0.9465

> <Gold.Chemscore.Metal>
0.0000

> <Gold.Chemscore.Lipo>
104.7400

> <Gold.Chemscore.Internal_Hbond>
0.0000

> <Gold.Chemscore.DEClash>
0.0192

> <Gold.Chemscore.DEInternal>
3.4699

> <Gold.Chemscore.Rot>
1.3579

> <Gold.Chemscore.Internal.Correction>
   9.000000E+99

> <Gold.Chemscore.Hbonds>
donor molecule, donor type, donor heavy atom, donor atom, acceptor molecule, acceptor atom, score
      P1  H  7997  8010       L1    16  0.27

> <Gold.Chemscore.Hbond.Weighted>
-3.1613

> <Gold.Chemscore.Metal.Weighted>
-0.0000

> <Gold.Chemscore.Lipo.Weighted>
-12.2546

> <Gold.Chemscore.Internal_Hbond.Weighted>
0.0000

> <Gold.Chemscore.DEClash.Weighted>
0.0192

> <Gold.Chemscore.DEInternal.Weighted>
3.4699

> <Gold.Chemscore.Rot.Weighted>
3.4763

> <Gold.Chemscore.Internal.Correction.Weighted>
   9.000000E+99

> <Gold.Protein.RotatedTorsions>
[ 6907 6896 6895 6894 ] final   -0.62 input  -60.11 | X-H torsion
[ 7974 7965 7964 7962 ] final  -47.76 input  175.53 | X-H torsion
[ 8008 7997 7996 7995 ] final   40.45 input   59.86 | X-H torsion
[ 10167 10162 10161 10158 ] final   93.87 input  -65.29 | X-H torsion
[ 10718 10713 10712 10709 ] final  -45.21 input   66.30 | X-H torsion
[ 10763 10752 10751 10750 ] final  176.25 input  -60.55 | X-H torsion
[ 11005 11000 10999 10996 ] final -129.89 input  -57.11 | X-H torsion

> <Gold.Protein.ActiveResidues>
 VAL166  LYS551  ARG553  GLY616  TRP617  ASP618  TYR619  PRO620  LYS621  CYS622 
 ASP623  PHE694  ASN695  SER759  ASP760  ASP761  ALA762  ILE779  LEU786  VAL792 
 PHE793  MET794  SER795  GLU796  ALA797  LYS798  CYS799  TRP800  GLU811  SER814 

> <Gold.Protein.RotatedAtoms>
  151.5592  135.1066  159.9968 H   0  0  0  0  0  0  0  0  0  0  0  0  # atno 6907 bound_to 6896
  152.4454  133.7523  159.6711 H   0  0  0  0  0  0  0  0  0  0  0  0  # atno 6908 bound_to 6896
  150.8369  133.7931  159.3100 H   0  0  0  0  0  0  0  0  0  0  0  0  # atno 6909 bound_to 6896
  145.9583  140.7505  142.9470 H   0  0  0  0  0  0  0  0  0  0  0  0  # atno 7974 bound_to 7965
  155.2533  140.3354  155.4280 H   0  0  0  0  0  0  0  0  0  0  0  0  # atno 8008 bound_to 7997
  156.2206  140.1807  156.7529 H   0  0  0  0  0  0  0  0  0  0  0  0  # atno 8009 bound_to 7997
  154.5819  140.0652  156.9102 H   0  0  0  0  0  0  0  0  0  0  0  0  # atno 8010 bound_to 7997
  139.8138  144.6761  150.9606 H   0  0  0  0  0  0  0  0  0  0  0  0  # atno 10167 bound_to 10162
  156.2307  130.4172  149.8879 H   0  0  0  0  0  0  0  0  0  0  0  0  # atno 10718 bound_to 10713
  154.4785  135.2774  155.1588 H   0  0  0  0  0  0  0  0  0  0  0  0  # atno 10763 bound_to 10752
  154.3308  135.6190  153.5554 H   0  0  0  0  0  0  0  0  0  0  0  0  # atno 10764 bound_to 10752
  152.9872  135.5765  154.5181 H   0  0  0  0  0  0  0  0  0  0  0  0  # atno 10765 bound_to 10752
  140.9393  134.1215  157.4165 H   0  0  0  0  0  0  0  0  0  0  0  0  # atno 11005 bound_to 11000
  144.6809  140.2548  143.7327 LP  0  0  0  0  0  0  0  0  0  0  0  0  # atno 17320 bound_to 7965
  145.8076  139.1990  143.2012 LP  0  0  0  0  0  0  0  0  0  0  0  0  # atno 17321 bound_to 7965
  140.7816  143.4158  151.0919 LP  0  0  0  0  0  0  0  0  0  0  0  0  # atno 17342 bound_to 10162
  139.7823  143.8337  152.3139 LP  0  0  0  0  0  0  0  0  0  0  0  0  # atno 17343 bound_to 10162
  156.6494  130.8737  151.3528 LP  0  0  0  0  0  0  0  0  0  0  0  0  # atno 17370 bound_to 10713
  157.7131  130.9465  150.1160 LP  0  0  0  0  0  0  0  0  0  0  0  0  # atno 17371 bound_to 10713
  139.8816  135.0031  156.6167 LP  0  0  0  0  0  0  0  0  0  0  0  0  # atno 17394 bound_to 11000
  140.7757  133.8702  155.8527 LP  0  0  0  0  0  0  0  0  0  0  0  0  # atno 17395 bound_to 11000

$$$$
