AV-unprocessed.smi:2126|AV-procd|sdf|8678|dock3
  -GOLD-   2272011433D 1   1.00000     0.00000
 Structure written by MMmdl.
 41 43  0  0  0  0  0  0  0  0  2 V2000
  150.8846  142.3778  157.4368 C   0  0  0  0  0  0  0  0  0  0  0  0
  151.4669  141.5313  156.4566 O   0  0  0  0  0  0  0  0  0  0  0  0
  150.6253  140.7639  155.6805 C   0  0  0  0  0  0  0  0  0  0  0  0
  150.9769  139.5104  155.1226 C   0  0  0  0  0  0  0  0  0  0  0  0
  150.0495  138.7927  154.3430 C   0  0  0  0  0  0  0  0  0  0  0  0
  148.7592  139.3026  154.0984 C   0  0  0  0  0  0  0  0  0  0  0  0
  147.9169  138.5325  153.3254 O   0  0  0  0  0  0  0  0  0  0  0  0
  146.5529  138.9201  153.2239 C   0  0  0  0  0  0  0  0  0  0  0  0
  145.8230  137.9233  152.3123 C   0  0  1  0  0  0  0  0  0  0  0  0
  146.2936  138.0894  150.9891 O   0  0  0  0  0  0  0  0  0  0  0  0
  146.0313  136.4615  152.7564 C   0  0  0  0  0  0  0  0  0  0  0  0
  145.1540  135.5198  152.0500 N   0  0  0  0  0  0  0  0  0  0  0  0
  143.9671  135.7333  151.4202 C   0  0  0  0  0  0  0  0  0  0  0  0
  143.5481  134.5388  150.9177 N   0  3  0  0  0  0  0  0  0  0  0  0
  144.4806  133.5477  151.2322 C   0  0  0  0  0  0  0  0  0  0  0  0
  144.4982  132.1866  150.9436 C   0  0  0  0  0  0  0  0  0  0  0  0
  145.6062  131.4534  151.4176 C   0  0  0  0  0  0  0  0  0  0  0  0
  146.6416  132.0748  152.1462 C   0  0  0  0  0  0  0  0  0  0  0  0
  146.6143  133.4558  152.4319 C   0  0  0  0  0  0  0  0  0  0  0  0
  145.5153  134.1722  151.9603 C   0  0  0  0  0  0  0  0  0  0  0  0
  148.4083  140.5570  154.6545 C   0  0  0  0  0  0  0  0  0  0  0  0
  149.3348  141.2734  155.4364 C   0  0  0  0  0  0  0  0  0  0  0  0
  151.6730  142.9190  157.9596 H   0  0  0  0  0  0  0  0  0  0  0  0
  150.3300  141.8033  158.1798 H   0  0  0  0  0  0  0  0  0  0  0  0
  150.2231  143.1173  156.9836 H   0  0  0  0  0  0  0  0  0  0  0  0
  151.9524  139.0757  155.2786 H   0  0  0  0  0  0  0  0  0  0  0  0
  150.3340  137.8374  153.9264 H   0  0  0  0  0  0  0  0  0  0  0  0
  146.0979  138.9105  154.2161 H   0  0  0  0  0  0  0  0  0  0  0  0
  146.4667  139.9304  152.8200 H   0  0  0  0  0  0  0  0  0  0  0  0
  144.7588  138.1605  152.3119 H   0  0  0  0  0  0  0  0  0  0  0  0
  145.5666  138.3456  150.4419 H   0  0  0  0  0  0  0  0  0  0  0  0
  147.0609  136.1523  152.5708 H   0  0  0  0  0  0  0  0  0  0  0  0
  145.8630  136.3478  153.8282 H   0  0  0  0  0  0  0  0  0  0  0  0
  143.4505  136.6786  151.3369 H   0  0  0  0  0  0  0  0  0  0  0  0
  143.7066  131.7081  150.3859 H   0  0  0  0  0  0  0  0  0  0  0  0
  145.6629  130.3931  151.2182 H   0  0  0  0  0  0  0  0  0  0  0  0
  147.4742  131.4802  152.4935 H   0  0  0  0  0  0  0  0  0  0  0  0
  147.4111  133.9240  152.9911 H   0  0  0  0  0  0  0  0  0  0  0  0
  147.4332  140.9923  154.4988 H   0  0  0  0  0  0  0  0  0  0  0  0
  149.0503  142.2278  155.8546 H   0  0  0  0  0  0  0  0  0  0  0  0
  142.6881  134.4126  150.3996 H   0  0  0  0  0  0  0  0  0  0  0  0
  1  2  1  0  0  0  0
  1 23  1  0  0  0  0
  1 24  1  0  0  0  0
  1 25  1  0  0  0  0
  2  3  1  0  0  0  0
  3 22  1  0  0  0  0
  3  4  2  0  0  0  0
  4  5  1  0  0  0  0
  4 26  1  0  0  0  0
  5  6  2  0  0  0  0
  5 27  1  0  0  0  0
  6  7  1  0  0  0  0
  6 21  1  0  0  0  0
  7  8  1  0  0  0  0
  8  9  1  0  0  0  0
  8 28  1  0  0  0  0
  8 29  1  0  0  0  0
  9 10  1  0  0  0  0
  9 11  1  0  0  0  0
  9 30  1  0  0  0  0
 10 31  1  0  0  0  0
 11 12  1  0  0  0  0
 11 32  1  0  0  0  0
 11 33  1  0  0  0  0
 12 20  1  0  0  0  0
 12 13  1  0  0  0  0
 13 14  2  0  0  0  0
 13 34  1  0  0  0  0
 14 15  1  0  0  0  0
 14 41  1  0  0  0  0
 15 20  2  0  0  0  0
 15 16  1  0  0  0  0
 16 17  2  0  0  0  0
 16 35  1  0  0  0  0
 17 18  1  0  0  0  0
 17 36  1  0  0  0  0
 18 19  2  0  0  0  0
 18 37  1  0  0  0  0
 19 20  1  0  0  0  0
 19 38  1  0  0  0  0
 21 22  2  0  0  0  0
 21 39  1  0  0  0  0
 22 40  1  0  0  0  0
M  CHG  1  14   1
M  END
> <s_m_source_file>
AV-unprocessed.smi

> <i_m_source_file_index>
2126

> <i_lp_mmshare_version>
43012

> <i_f3d_flags>
0

> <s_epik_input>
W0NIM11PYzFbY0hdW2NIXWMoW2NIXVtjSF0xKU9bQ0gyXVtDQEhdKFtPSF0pW0NIMl1uKFtjSF1uMiljKGMyMylbY0hdW2NIXVtjSF1bY0hdMw==

> <s_epik_cmdline>
J2VwaWtfcHl0aG9uJywgJy1waCcsICc3LjAnLCAnLXRuJywgJzgnLCAnLW1hJywgJzIwMCcsICctbWV0YWxfYmluZGluZycsICctaW1hZScsICc8aW5maWxlLm1hZT4nLCAnLW9tYWUnLCAnPG91dGZpbGUubWFlPic=

> <r_lp_tautomer_probability>
1

> <r_epik_Ionization_Penalty>
1.37822

> <r_epik_Ionization_Penalty_Charging>
1.37822

> <r_epik_Ionization_Penalty_Neutral>
2.3993e-06

> <r_epik_State_Penalty>
1.45852

> <r_epik_Charging_Adjusted_Penalty>
2.83674

> <i_epik_Tot_Q>
1

> <i_epik_Tot_abs_Q>
1

> <r_epik_Metal_State_Penalty>
5.4985

> <b_epik_Metal_Only>
0

> <s_lp_Force_Field>
OPLS_2005

> <r_lp_Energy>
22.1455

> <b_lp_Chiralities_Consistent>
1

> <s_lp_Variant>
AV-unprocessed.smi:2126-4

> <Gold.Version>
5.8.1

> <Gold.Id.Protein>
6NUR|6NUR_protein|mol2

> <Gold.PLP.Fitness>
53.0255

> <Gold.PLP.PLP>
-39.5861

> <Gold.PLP.part.hbond>
-3.6385

> <Gold.PLP.part.metal>
0.0000

> <Gold.PLP.part.buried>
-1.7081

> <Gold.PLP.part.nonpolar>
-36.9818

> <Gold.PLP.part.repulsive>
2.5529

> <Gold.PLP.ligand.clash>
0.0000

> <Gold.PLP.ligand.torsion>
0.8593

> <Gold.PLP.Chemscore.Hbond>
4.0000

> <Gold.PLP.Chemscore.CHOScore>
1.0000

> <Gold.PLP.Chemscore.Metal>
0.0000

> <Gold.Chemscore.Hbonds>
donor molecule, donor type, donor heavy atom, donor atom, acceptor molecule, acceptor atom, score
      L1  H    10    31       P1 10171  1.00
      L1  H    14    41       P1 10186  2.00
      P1  H  7954  7966       L1    10  0.63
      L1  C    13    34       P1 10171  1.00

> <Gold.PLP.Chemscore.Internal.Correction>
0.1579

> <Gold.Rescore>
     Score         DG    S(hbond)    S(metal)    S(lipo)     H(rot)  DE(clash)    DE(int)     intcor
     17.44     -19.21       2.58        0.00     100.77       2.60       1.02       0.76       ----

> <Gold.Chemscore.Fitness>
17.4377

> <Gold.Chemscore.DG>
-19.2097

> <Gold.Chemscore.ZeroCoef>
-5.4800

> <Gold.Chemscore.Hbond>
2.5767

> <Gold.Chemscore.Metal>
0.0000

> <Gold.Chemscore.Lipo>
100.7733

> <Gold.Chemscore.Internal_Hbond>
0.0000

> <Gold.Chemscore.DEClash>
1.0156

> <Gold.Chemscore.DEInternal>
0.7564

> <Gold.Chemscore.Rot>
2.6043

> <Gold.Chemscore.Internal.Correction>
   9.000000E+99

> <Gold.Chemscore.Hbonds>
donor molecule, donor type, donor heavy atom, donor atom, acceptor molecule, acceptor atom, score
      L1  H    10    31       P1 10171  1.00
      L1  H    14    41       P1 10186  0.60
      P1  H  7954  7966       L1    10  0.52

> <Gold.Chemscore.Hbond.Weighted>
-8.6063

> <Gold.Chemscore.Metal.Weighted>
-0.0000

> <Gold.Chemscore.Lipo.Weighted>
-11.7905

> <Gold.Chemscore.Internal_Hbond.Weighted>
0.0000

> <Gold.Chemscore.DEClash.Weighted>
1.0156

> <Gold.Chemscore.DEInternal.Weighted>
0.7564

> <Gold.Chemscore.Rot.Weighted>
6.6670

> <Gold.Chemscore.Internal.Correction.Weighted>
   9.000000E+99

> <Gold.Protein.RotatedTorsions>
[ 6907 6896 6895 6894 ] final -142.25 input  -60.11 | X-H torsion
[ 7974 7965 7964 7962 ] final  129.27 input  175.53 | X-H torsion
[ 8008 7997 7996 7995 ] final -111.02 input   59.86 | X-H torsion
[ 10167 10162 10161 10158 ] final  158.38 input  -65.29 | X-H torsion
[ 10718 10713 10712 10709 ] final -142.97 input   66.30 | X-H torsion
[ 10763 10752 10751 10750 ] final   -0.13 input  -60.55 | X-H torsion
[ 11005 11000 10999 10996 ] final -164.66 input  -57.11 | X-H torsion

> <Gold.Protein.ActiveResidues>
 VAL166  LYS551  ARG553  GLY616  TRP617  ASP618  TYR619  PRO620  LYS621  CYS622 
 ASP623  PHE694  ASN695  SER759  ASP760  ASP761  ALA762  ILE779  LEU786  VAL792 
 PHE793  MET794  SER795  GLU796  ALA797  LYS798  CYS799  TRP800  GLU811  SER814 

> <Gold.Protein.RotatedAtoms>
  151.0846  133.5363  159.2618 H   0  0  0  0  0  0  0  0  0  0  0  0  # atno 6907 bound_to 6896
  151.2254  135.0534  159.8976 H   0  0  0  0  0  0  0  0  0  0  0  0  # atno 6908 bound_to 6896
  152.5427  134.0642  159.8219 H   0  0  0  0  0  0  0  0  0  0  0  0  # atno 6909 bound_to 6896
  145.0304  139.4051  143.5152 H   0  0  0  0  0  0  0  0  0  0  0  0  # atno 7974 bound_to 7965
  154.9834  140.0396  157.2288 H   0  0  0  0  0  0  0  0  0  0  0  0  # atno 8008 bound_to 7997
  154.7693  140.2799  155.6128 H   0  0  0  0  0  0  0  0  0  0  0  0  # atno 8009 bound_to 7997
  156.2918  140.2613  156.2492 H   0  0  0  0  0  0  0  0  0  0  0  0  # atno 8010 bound_to 7997
  139.4826  144.4830  151.8418 H   0  0  0  0  0  0  0  0  0  0  0  0  # atno 10167 bound_to 10162
  156.3523  130.7694  151.1849 H   0  0  0  0  0  0  0  0  0  0  0  0  # atno 10718 bound_to 10713
  153.3280  135.6973  153.6972 H   0  0  0  0  0  0  0  0  0  0  0  0  # atno 10763 bound_to 10752
  153.5786  135.3502  155.2867 H   0  0  0  0  0  0  0  0  0  0  0  0  # atno 10764 bound_to 10752
  154.8612  135.4289  154.2461 H   0  0  0  0  0  0  0  0  0  0  0  0  # atno 10765 bound_to 10752
  140.5844  134.5109  157.5183 H   0  0  0  0  0  0  0  0  0  0  0  0  # atno 11005 bound_to 11000
  146.3498  139.9851  142.8691 LP  0  0  0  0  0  0  0  0  0  0  0  0  # atno 17320 bound_to 7965
  145.1778  140.9752  143.4284 LP  0  0  0  0  0  0  0  0  0  0  0  0  # atno 17321 bound_to 7965
  140.4307  144.2119  150.5888 LP  0  0  0  0  0  0  0  0  0  0  0  0  # atno 17342 bound_to 10162
  140.4782  143.2388  151.8993 LP  0  0  0  0  0  0  0  0  0  0  0  0  # atno 17343 bound_to 10162
  157.7463  131.0424  150.4692 LP  0  0  0  0  0  0  0  0  0  0  0  0  # atno 17370 bound_to 10713
  156.4889  130.4091  149.6418 LP  0  0  0  0  0  0  0  0  0  0  0  0  # atno 17371 bound_to 10713
  139.9302  134.7978  156.0952 LP  0  0  0  0  0  0  0  0  0  0  0  0  # atno 17394 bound_to 11000
  141.0975  133.6690  156.2679 LP  0  0  0  0  0  0  0  0  0  0  0  0  # atno 17395 bound_to 11000

$$$$
