AV-unprocessed.smi:72|AV-procd|sdf|670|dock6
  -GOLD-   2262016573D 1   1.00000     0.00000
 Structure written by MMmdl.
 29 30  0  0  0  0  0  0  0  0  1 V2000
  141.6761  137.7610  153.4176 N   0  0  0  0  0  0  0  0  0  0  0  0
  142.6059  136.9009  153.1986 C   0  0  0  0  0  0  0  0  0  0  0  0
  142.5066  135.5215  153.4366 N   0  0  0  0  0  0  0  0  0  0  0  0
  143.5303  134.7695  153.1721 C   0  0  0  0  0  0  0  0  0  0  0  0
  144.7735  135.3106  152.6446 N   0  0  0  0  0  0  0  0  0  0  0  0
  145.9504  134.4048  152.3479 C   0  0  1  0  0  0  0  0  0  0  0  0
  145.6985  133.1544  152.9111 O   0  0  0  0  0  0  0  0  0  0  0  0
  146.2282  132.1469  152.0620 C   0  0  1  0  0  0  0  0  0  0  0  0
  145.5225  130.8095  152.3341 C   0  0  0  0  0  0  0  0  0  0  0  0
  145.8389  130.3476  153.6301 O   0  0  0  0  0  0  0  0  0  0  0  0
  145.9566  132.7093  150.6631 C   0  0  2  0  0  0  0  0  0  0  0  0
  146.8567  132.1591  149.7228 O   0  0  0  0  0  0  0  0  0  0  0  0
  146.2084  134.2019  150.8372 C   0  0  1  0  0  0  0  0  0  0  0  0
  145.3659  134.9561  149.9838 O   0  0  0  0  0  0  0  0  0  0  0  0
  144.8843  136.6969  152.3797 C   0  0  0  0  0  0  0  0  0  0  0  0
  145.8993  137.2016  151.9005 O   0  0  0  0  0  0  0  0  0  0  0  0
  143.7929  137.4349  152.6777 N   0  0  0  0  0  0  0  0  0  0  0  0
  146.8136  134.8291  152.8628 H   0  0  0  0  0  0  0  0  0  0  0  0
  147.3050  132.0699  152.2284 H   0  0  0  0  0  0  0  0  0  0  0  0
  144.9225  132.5177  150.3711 H   0  0  0  0  0  0  0  0  0  0  0  0
  147.2522  134.4539  150.6429 H   0  0  0  0  0  0  0  0  0  0  0  0
  140.8544  137.3086  153.7904 H   0  0  0  0  0  0  0  0  0  0  0  0
  143.5255  133.6887  153.3211 H   0  0  0  0  0  0  0  0  0  0  0  0
  144.4423  130.8988  152.2139 H   0  0  0  0  0  0  0  0  0  0  0  0
  145.8656  130.0541  151.6267 H   0  0  0  0  0  0  0  0  0  0  0  0
  145.0698  129.9425  154.0011 H   0  0  0  0  0  0  0  0  0  0  0  0
  147.4583  131.5937  150.1833 H   0  0  0  0  0  0  0  0  0  0  0  0
  145.8338  135.1334  149.1821 H   0  0  0  0  0  0  0  0  0  0  0  0
  143.8421  138.4280  152.5041 H   0  0  0  0  0  0  0  0  0  0  0  0
  1  2  2  0  0  0  0
  1 22  1  0  0  0  0
  2 17  1  0  0  0  0
  2  3  1  0  0  0  0
  3  4  2  0  0  0  0
  4  5  1  0  0  0  0
  4 23  1  0  0  0  0
  5  6  1  0  0  0  0
  5 15  1  0  0  0  0
  6 18  1  0  0  0  0
  6 13  1  0  0  0  0
  6  7  1  0  0  0  0
  7  8  1  0  0  0  0
  8 19  1  0  0  0  0
  8  9  1  0  0  0  0
  8 11  1  0  0  0  0
  9 10  1  0  0  0  0
  9 24  1  0  0  0  0
  9 25  1  0  0  0  0
 10 26  1  0  0  0  0
 11 20  1  0  0  0  0
 11 12  1  0  0  0  0
 11 13  1  0  0  0  0
 12 27  1  0  0  0  0
 13 21  1  0  0  0  0
 13 14  1  0  0  0  0
 14 28  1  0  0  0  0
 15 16  2  0  0  0  0
 15 17  1  0  0  0  0
 17 29  1  0  0  0  0
M  END
> <s_m_source_file>
AV-unprocessed.smi

> <i_m_source_file_index>
72

> <i_lp_mmshare_version>
43012

> <i_f3d_flags>
0

> <s_epik_input>
W05IMl1jMW5bY0hdbihjKD1PKW4xKVtDQEBIXTJPW0NASF0oW0NIMl1bT0hdKVtDQEBIXShbT0hdKVtDQEhdMltPSF0=

> <s_epik_cmdline>
J2VwaWtfcHl0aG9uJywgJy1waCcsICc3LjAnLCAnLXRuJywgJzgnLCAnLW1hJywgJzIwMCcsICctbWV0YWxfYmluZGluZycsICctaW1hZScsICc8aW5maWxlLm1hZT4nLCAnLW9tYWUnLCAnPG91dGZpbGUubWFlPic=

> <r_lp_tautomer_probability>
7.17554e-07

> <r_epik_Ionization_Penalty>
0.0066451

> <r_epik_Ionization_Penalty_Charging>
0.00663793

> <r_epik_Ionization_Penalty_Neutral>
7.17052e-06

> <r_epik_State_Penalty>
0.419231

> <r_epik_Charging_Adjusted_Penalty>
0.425868

> <i_epik_Tot_Q>
0

> <i_epik_Tot_abs_Q>
0

> <r_epik_Metal_State_Penalty>
1.44144

> <b_epik_Metal_Only>
0

> <s_epik_Chemistry_Notes>
This compound contains an acetal/aminal-like group ( X-CH(R)-Y where X, Y are N, S, or O) that may be acid/base labile, releasing an aldehyde.

> <s_lp_Force_Field>
OPLS_2005

> <r_lp_Energy>
43.9506

> <b_lp_Chiralities_Consistent>
1

> <s_lp_Variant>
AV-unprocessed.smi:72-8

> <Gold.Version>
5.8.1

> <Gold.Id.Protein>
6NUR|6NUR_protein|mol2

> <Gold.PLP.Fitness>
37.5081

> <Gold.PLP.PLP>
-23.1551

> <Gold.PLP.part.hbond>
-4.7254

> <Gold.PLP.part.metal>
0.0000

> <Gold.PLP.part.buried>
-6.1995

> <Gold.PLP.part.nonpolar>
-13.4462

> <Gold.PLP.part.repulsive>
0.5225

> <Gold.PLP.ligand.clash>
0.0000

> <Gold.PLP.ligand.torsion>
0.2455

> <Gold.PLP.Chemscore.Hbond>
3.9833

> <Gold.PLP.Chemscore.CHOScore>
0.9226

> <Gold.PLP.Chemscore.Metal>
0.0000

> <Gold.Chemscore.Hbonds>
donor molecule, donor type, donor heavy atom, donor atom, acceptor molecule, acceptor atom, score
      L1  H    10    26       P1 10956  1.00
      L1  H    12    27       P1 10747  0.96
      L1  H    14    28       P1  7921  1.00
      L1  H    17    29       P1 10175  1.00
      L1  C     4    23       P1 10957  0.92

> <Gold.PLP.Chemscore.Internal.Correction>
0.1266

> <Gold.Rescore>
     Score         DG    S(hbond)    S(metal)    S(lipo)     H(rot)  DE(clash)    DE(int)     intcor
      9.22      -9.73       3.41        0.00      27.69       4.06       0.00       0.50       ----

> <Gold.Chemscore.Fitness>
9.2248

> <Gold.Chemscore.DG>
-9.7257

> <Gold.Chemscore.ZeroCoef>
-5.4800

> <Gold.Chemscore.Hbond>
3.4131

> <Gold.Chemscore.Metal>
0.0000

> <Gold.Chemscore.Lipo>
27.6875

> <Gold.Chemscore.Internal_Hbond>
0.0000

> <Gold.Chemscore.DEClash>
0.0015

> <Gold.Chemscore.DEInternal>
0.4994

> <Gold.Chemscore.Rot>
4.0600

> <Gold.Chemscore.Internal.Correction>
   9.000000E+99

> <Gold.Chemscore.Hbonds>
donor molecule, donor type, donor heavy atom, donor atom, acceptor molecule, acceptor atom, score
      L1  H    10    26       P1 10956  0.34
      L1  H    12    27       P1 10747  0.92
      L1  H    14    28       P1  7921  0.93
      L1  H    17    29       P1 10175  0.94

> <Gold.Chemscore.Hbond.Weighted>
-11.3998

> <Gold.Chemscore.Metal.Weighted>
-0.0000

> <Gold.Chemscore.Lipo.Weighted>
-3.2394

> <Gold.Chemscore.Internal_Hbond.Weighted>
0.0000

> <Gold.Chemscore.DEClash.Weighted>
0.0015

> <Gold.Chemscore.DEInternal.Weighted>
0.4994

> <Gold.Chemscore.Rot.Weighted>
10.3936

> <Gold.Chemscore.Internal.Correction.Weighted>
   9.000000E+99

> <Gold.Protein.RotatedTorsions>
[ 6907 6896 6895 6894 ] final  167.09 input  -60.11 | X-H torsion
[ 7974 7965 7964 7962 ] final -143.59 input  175.53 | X-H torsion
[ 8008 7997 7996 7995 ] final  114.23 input   59.86 | X-H torsion
[ 10167 10162 10161 10158 ] final  175.68 input  -65.29 | X-H torsion
[ 10718 10713 10712 10709 ] final  -44.06 input   66.30 | X-H torsion
[ 10763 10752 10751 10750 ] final  -23.07 input  -60.55 | X-H torsion
[ 11005 11000 10999 10996 ] final   48.30 input  -57.11 | X-H torsion

> <Gold.Protein.ActiveResidues>
 VAL166  LYS551  ARG553  GLY616  TRP617  ASP618  TYR619  PRO620  LYS621  CYS622 
 ASP623  PHE694  ASN695  SER759  ASP760  ASP761  ALA762  ILE779  LEU786  VAL792 
 PHE793  MET794  SER795  GLU796  ALA797  LYS798  CYS799  TRP800  GLU811  SER814 

> <Gold.Protein.RotatedAtoms>
  151.8687  133.3471  159.3727 H   0  0  0  0  0  0  0  0  0  0  0  0  # atno 6907 bound_to 6896
  150.7159  134.5134  159.5628 H   0  0  0  0  0  0  0  0  0  0  0  0  # atno 6908 bound_to 6896
  152.2662  134.7982  160.0473 H   0  0  0  0  0  0  0  0  0  0  0  0  # atno 6909 bound_to 6896
  144.8358  140.5816  143.5485 H   0  0  0  0  0  0  0  0  0  0  0  0  # atno 7974 bound_to 7965
  156.2308  140.2963  156.0183 H   0  0  0  0  0  0  0  0  0  0  0  0  # atno 8008 bound_to 7997
  155.2231  140.0416  157.2968 H   0  0  0  0  0  0  0  0  0  0  0  0  # atno 8009 bound_to 7997
  154.5992  140.2422  155.7823 H   0  0  0  0  0  0  0  0  0  0  0  0  # atno 8010 bound_to 7997
  139.5186  144.3004  152.0384 H   0  0  0  0  0  0  0  0  0  0  0  0  # atno 10167 bound_to 10162
  156.2425  130.4181  149.8743 H   0  0  0  0  0  0  0  0  0  0  0  0  # atno 10718 bound_to 10713
  153.6620  135.6976  153.5174 H   0  0  0  0  0  0  0  0  0  0  0  0  # atno 10763 bound_to 10752
  153.2624  135.4240  155.0907 H   0  0  0  0  0  0  0  0  0  0  0  0  # atno 10764 bound_to 10752
  154.8449  135.3558  154.6165 H   0  0  0  0  0  0  0  0  0  0  0  0  # atno 10765 bound_to 10752
  140.1203  134.4838  155.8603 H   0  0  0  0  0  0  0  0  0  0  0  0  # atno 11005 bound_to 11000
  145.4797  139.1496  143.3768 LP  0  0  0  0  0  0  0  0  0  0  0  0  # atno 17320 bound_to 7965
  146.2657  140.4933  142.8835 LP  0  0  0  0  0  0  0  0  0  0  0  0  # atno 17321 bound_to 7965
  140.2451  144.4228  150.6244 LP  0  0  0  0  0  0  0  0  0  0  0  0  # atno 17342 bound_to 10162
  140.6263  143.2182  151.6589 LP  0  0  0  0  0  0  0  0  0  0  0  0  # atno 17343 bound_to 10162
  156.6320  130.8669  151.3497 LP  0  0  0  0  0  0  0  0  0  0  0  0  # atno 17370 bound_to 10713
  157.7181  130.9523  150.1333 LP  0  0  0  0  0  0  0  0  0  0  0  0  # atno 17371 bound_to 10713
  141.2150  133.6758  156.6876 LP  0  0  0  0  0  0  0  0  0  0  0  0  # atno 17394 bound_to 11000
  140.2974  134.8192  157.4068 LP  0  0  0  0  0  0  0  0  0  0  0  0  # atno 17395 bound_to 11000

$$$$
