AV-unprocessed.smi:114|AV-procd|sdf|1113|dock2
  -GOLD-   2262018233D 1   1.00000     0.00000
 Structure written by MMmdl.
 32 34  0  0  0  0  0  0  0  0  1 V2000
  153.8238  137.0637  157.2087 N   0  0  0  0  0  0  0  0  0  0  0  0
  152.6240  137.3920  156.7093 C   0  0  0  0  0  0  0  0  0  0  0  0
  151.8849  136.4241  156.1195 N   0  0  0  0  0  0  0  0  0  0  0  0
  150.6829  136.7110  155.6052 C   0  0  0  0  0  0  0  0  0  0  0  0
  150.0137  135.6832  155.0324 F   0  0  0  0  0  0  0  0  0  0  0  0
  150.0701  137.8995  155.5920 N   0  0  0  0  0  0  0  0  0  0  0  0
  150.8106  138.8798  156.1861 C   0  0  0  0  0  0  0  0  0  0  0  0
  152.0954  138.7046  156.7672 C   0  0  0  0  0  0  0  0  0  0  0  0
  152.5551  139.9113  157.2760 N   0  0  0  0  0  0  0  0  0  0  0  0
  151.5927  140.7515  157.0056 C   0  0  0  0  0  0  0  0  0  0  0  0
  150.5067  140.2186  156.3460 N   0  0  0  0  0  0  0  0  0  0  0  0
  149.2715  140.9467  155.9050 C   0  0  2  0  0  0  0  0  0  0  0  0
  148.1391  140.2314  156.3046 O   0  0  0  0  0  0  0  0  0  0  0  0
  147.3508  139.8616  155.1730 C   0  0  1  0  0  0  0  0  0  0  0  0
  145.8639  139.8413  155.5596 C   0  0  0  0  0  0  0  0  0  0  0  0
  145.0996  139.2672  154.5210 O   0  0  0  0  0  0  0  0  0  0  0  0
  147.6998  140.9396  154.1449 C   0  0  2  0  0  0  0  0  0  0  0  0
  147.3908  140.5644  152.8154 O   0  0  0  0  0  0  0  0  0  0  0  0
  149.1896  141.1458  154.3791 C   0  0  2  0  0  0  0  0  0  0  0  0
  149.9945  140.2401  153.6396 O   0  0  0  0  0  0  0  0  0  0  0  0
  149.2982  141.8904  156.4512 H   0  0  0  0  0  0  0  0  0  0  0  0
  147.6734  138.8879  154.8007 H   0  0  0  0  0  0  0  0  0  0  0  0
  147.1699  141.8626  154.3857 H   0  0  0  0  0  0  0  0  0  0  0  0
  149.5006  142.1601  154.1271 H   0  0  0  0  0  0  0  0  0  0  0  0
  154.3942  137.7699  157.6513 H   0  0  0  0  0  0  0  0  0  0  0  0
  154.1551  136.1124  157.1401 H   0  0  0  0  0  0  0  0  0  0  0  0
  151.6515  141.7953  157.2780 H   0  0  0  0  0  0  0  0  0  0  0  0
  145.7027  139.3017  156.4934 H   0  0  0  0  0  0  0  0  0  0  0  0
  145.5007  140.8588  155.7066 H   0  0  0  0  0  0  0  0  0  0  0  0
  144.6548  139.9592  154.0564 H   0  0  0  0  0  0  0  0  0  0  0  0
  148.1665  140.2000  152.4179 H   0  0  0  0  0  0  0  0  0  0  0  0
  149.6329  140.1586  152.7704 H   0  0  0  0  0  0  0  0  0  0  0  0
  1  2  1  0  0  0  0
  1 25  1  0  0  0  0
  1 26  1  0  0  0  0
  2  8  1  0  0  0  0
  2  3  2  0  0  0  0
  3  4  1  0  0  0  0
  4  5  1  0  0  0  0
  4  6  2  0  0  0  0
  6  7  1  0  0  0  0
  7 11  1  0  0  0  0
  7  8  2  0  0  0  0
  8  9  1  0  0  0  0
  9 10  2  0  0  0  0
 10 11  1  0  0  0  0
 10 27  1  0  0  0  0
 11 12  1  0  0  0  0
 12 21  1  0  0  0  0
 12 19  1  0  0  0  0
 12 13  1  0  0  0  0
 13 14  1  0  0  0  0
 14 22  1  0  0  0  0
 14 15  1  0  0  0  0
 14 17  1  0  0  0  0
 15 16  1  0  0  0  0
 15 28  1  0  0  0  0
 15 29  1  0  0  0  0
 16 30  1  0  0  0  0
 17 23  1  0  0  0  0
 17 18  1  0  0  0  0
 17 19  1  0  0  0  0
 18 31  1  0  0  0  0
 19 24  1  0  0  0  0
 19 20  1  0  0  0  0
 20 32  1  0  0  0  0
M  END
> <s_m_source_file>
AV-unprocessed.smi

> <i_m_source_file_index>
114

> <i_lp_mmshare_version>
43012

> <i_f3d_flags>
0

> <s_epik_input>
RmMobjEpbmMoW05IMl0pYyhjMTIpbltjSF1uMltDQEBIXTNPW0NASF0oW0NIMl1bT0hdKVtDQEBIXShbT0hdKVtDQEBIXTNbT0hd

> <s_epik_cmdline>
J2VwaWtfcHl0aG9uJywgJy1waCcsICc3LjAnLCAnLXRuJywgJzgnLCAnLW1hJywgJzIwMCcsICctbWV0YWxfYmluZGluZycsICctaW1hZScsICc8aW5maWxlLm1hZT4nLCAnLW9tYWUnLCAnPG91dGZpbGUubWFlPic=

> <r_lp_tautomer_probability>
1

> <r_epik_Ionization_Penalty>
1.13199e-05

> <r_epik_Ionization_Penalty_Charging>
0

> <r_epik_Ionization_Penalty_Neutral>
1.13199e-05

> <r_epik_State_Penalty>
-0

> <r_epik_Charging_Adjusted_Penalty>
0

> <i_epik_Tot_Q>
0

> <i_epik_Tot_abs_Q>
0

> <r_epik_Metal_State_Penalty>
-0

> <b_epik_Metal_Only>
0

> <s_epik_Chemistry_Notes>
This compound contains an acetal/aminal-like group ( X-CH(R)-Y where X, Y are N, S, or O) that may be acid/base labile, releasing an aldehyde.

> <s_lp_Force_Field>
OPLS_2005

> <r_lp_Energy>
45.5286

> <b_lp_Chiralities_Consistent>
1

> <s_lp_Variant>
AV-unprocessed.smi:114-7

> <Gold.Version>
5.8.1

> <Gold.Id.Protein>
6NUR|6NUR_protein|mol2

> <Gold.PLP.Fitness>
39.3467

> <Gold.PLP.PLP>
-22.8745

> <Gold.PLP.part.hbond>
-5.9433

> <Gold.PLP.part.metal>
0.0000

> <Gold.PLP.part.buried>
-3.6168

> <Gold.PLP.part.nonpolar>
-13.9672

> <Gold.PLP.part.repulsive>
0.2424

> <Gold.PLP.ligand.clash>
0.0000

> <Gold.PLP.ligand.torsion>
0.3239

> <Gold.PLP.Chemscore.Hbond>
5.7040

> <Gold.PLP.Chemscore.CHOScore>
0.0000

> <Gold.PLP.Chemscore.Metal>
0.0000

> <Gold.Chemscore.Hbonds>
donor molecule, donor type, donor heavy atom, donor atom, acceptor molecule, acceptor atom, score
      L1  H    16    30       P1 10175  0.94
      L1  H    18    31       P1  7957  1.00
      L1  H    20    32       P1  7957  1.00
      P1  H  7989  7998       L1    20  0.67
      P1  H  7997  8010       L1     9  1.00
      P1  H 10752 10765       L1     3  1.00

> <Gold.PLP.Chemscore.Internal.Correction>
0.0080

> <Gold.Rescore>
     Score         DG    S(hbond)    S(metal)    S(lipo)     H(rot)  DE(clash)    DE(int)     intcor
     11.59     -13.07       4.54        0.00      23.31       4.03       0.05       1.43       ----

> <Gold.Chemscore.Fitness>
11.5902

> <Gold.Chemscore.DG>
-13.0652

> <Gold.Chemscore.ZeroCoef>
-5.4800

> <Gold.Chemscore.Hbond>
4.5416

> <Gold.Chemscore.Metal>
0.0000

> <Gold.Chemscore.Lipo>
23.3096

> <Gold.Chemscore.Internal_Hbond>
0.0000

> <Gold.Chemscore.DEClash>
0.0455

> <Gold.Chemscore.DEInternal>
1.4296

> <Gold.Chemscore.Rot>
4.0277

> <Gold.Chemscore.Internal.Correction>
   9.000000E+99

> <Gold.Chemscore.Hbonds>
donor molecule, donor type, donor heavy atom, donor atom, acceptor molecule, acceptor atom, score
      L1  H    16    30       P1 10175  0.91
      L1  H    18    31       P1  7957  0.99
      L1  H    20    32       P1  7957  0.98
      P1  H  7989  7998       L1    20  0.30
      P1  H  7997  8010       L1     9  0.64
      P1  H 10752 10765       L1     3  0.42

> <Gold.Chemscore.Hbond.Weighted>
-15.1690

> <Gold.Chemscore.Metal.Weighted>
-0.0000

> <Gold.Chemscore.Lipo.Weighted>
-2.7272

> <Gold.Chemscore.Internal_Hbond.Weighted>
0.0000

> <Gold.Chemscore.DEClash.Weighted>
0.0455

> <Gold.Chemscore.DEInternal.Weighted>
1.4296

> <Gold.Chemscore.Rot.Weighted>
10.3110

> <Gold.Chemscore.Internal.Correction.Weighted>
   9.000000E+99

> <Gold.Protein.RotatedTorsions>
[ 6907 6896 6895 6894 ] final   91.66 input  -60.11 | X-H torsion
[ 7974 7965 7964 7962 ] final -152.84 input  175.53 | X-H torsion
[ 8008 7997 7996 7995 ] final   42.51 input   59.86 | X-H torsion
[ 10167 10162 10161 10158 ] final  -10.75 input  -65.29 | X-H torsion
[ 10718 10713 10712 10709 ] final -129.63 input   66.30 | X-H torsion
[ 10763 10752 10751 10750 ] final -153.61 input  -60.55 | X-H torsion
[ 11005 11000 10999 10996 ] final  -26.98 input  -57.11 | X-H torsion

> <Gold.Protein.ActiveResidues>
 VAL166  LYS551  ARG553  GLY616  TRP617  ASP618  TYR619  PRO620  LYS621  CYS622 
 ASP623  PHE694  ASN695  SER759  ASP760  ASP761  ALA762  ILE779  LEU786  VAL792 
 PHE793  MET794  SER795  GLU796  ALA797  LYS798  CYS799  TRP800  GLU811  SER814 

> <Gold.Protein.RotatedAtoms>
  152.5451  134.1623  159.8562 H   0  0  0  0  0  0  0  0  0  0  0  0  # atno 6907 bound_to 6896
  151.1640  133.4819  159.2601 H   0  0  0  0  0  0  0  0  0  0  0  0  # atno 6908 bound_to 6896
  151.1343  135.0158  159.8652 H   0  0  0  0  0  0  0  0  0  0  0  0  # atno 6909 bound_to 6896
  144.7773  140.4608  143.5864 H   0  0  0  0  0  0  0  0  0  0  0  0  # atno 7974 bound_to 7965
  155.2874  140.3376  155.4254 H   0  0  0  0  0  0  0  0  0  0  0  0  # atno 8008 bound_to 7997
  156.2062  140.1752  156.7835 H   0  0  0  0  0  0  0  0  0  0  0  0  # atno 8009 bound_to 7997
  154.5624  140.0685  156.8823 H   0  0  0  0  0  0  0  0  0  0  0  0  # atno 8010 bound_to 7997
  140.7121  143.5714  150.9088 H   0  0  0  0  0  0  0  0  0  0  0  0  # atno 10167 bound_to 10162
  156.2065  130.6891  151.0601 H   0  0  0  0  0  0  0  0  0  0  0  0  # atno 10718 bound_to 10713
  154.7916  135.3209  154.7764 H   0  0  0  0  0  0  0  0  0  0  0  0  # atno 10763 bound_to 10752
  153.8452  135.6867  153.4802 H   0  0  0  0  0  0  0  0  0  0  0  0  # atno 10764 bound_to 10752
  153.1588  135.4669  154.9683 H   0  0  0  0  0  0  0  0  0  0  0  0  # atno 10765 bound_to 10752
  140.9078  133.7481  156.0629 H   0  0  0  0  0  0  0  0  0  0  0  0  # atno 11005 bound_to 11000
  145.6151  139.1517  143.3054 LP  0  0  0  0  0  0  0  0  0  0  0  0  # atno 17320 bound_to 7965
  146.1960  140.6264  142.9124 LP  0  0  0  0  0  0  0  0  0  0  0  0  # atno 17321 bound_to 7965
  139.9440  143.6348  152.3046 LP  0  0  0  0  0  0  0  0  0  0  0  0  # atno 17342 bound_to 10162
  139.6843  144.7653  151.1551 LP  0  0  0  0  0  0  0  0  0  0  0  0  # atno 17343 bound_to 10162
  157.7015  131.0774  150.6804 LP  0  0  0  0  0  0  0  0  0  0  0  0  # atno 17370 bound_to 10713
  156.6863  130.4582  149.5613 LP  0  0  0  0  0  0  0  0  0  0  0  0  # atno 17371 bound_to 10713
  140.8149  134.3356  157.5400 LP  0  0  0  0  0  0  0  0  0  0  0  0  # atno 17394 bound_to 11000
  139.8752  134.9276  156.3428 LP  0  0  0  0  0  0  0  0  0  0  0  0  # atno 17395 bound_to 11000

$$$$
