AV-unprocessed.smi:2189|AV-procd|sdf|8884|dock5
  -GOLD-   2272012 83D 1   1.00000     0.00000
 Structure written by MMmdl.
 39 41  0  0  0  0  0  0  0  0  1 V2000
  150.6449  140.2024  156.4459 O   0  0  0  0  0  0  0  0  0  0  0  0
  150.4887  141.4123  156.6196 C   0  0  0  0  0  0  0  0  0  0  0  0
  149.5940  142.1165  155.8992 N   0  0  0  0  0  0  0  0  0  0  0  0
  148.7361  141.5886  154.8410 C   0  0  0  0  0  0  0  0  0  0  0  0
  147.3103  141.2850  155.3403 C   0  0  0  0  0  0  0  0  0  0  0  0
  146.3580  142.4627  155.2212 C   0  0  0  0  0  0  0  0  0  0  0  0
  146.1503  143.1025  153.9799 C   0  0  0  0  0  0  0  0  0  0  0  0
  145.2371  144.1729  153.9221 C   0  0  0  0  0  0  0  0  0  0  0  0
  144.5735  144.5632  155.1011 C   0  0  0  0  0  0  0  0  0  0  0  0
  144.8531  143.8617  156.2909 C   0  0  0  0  0  0  0  0  0  0  0  0
  145.7261  142.8337  156.3575 N   0  0  0  0  0  0  0  0  0  0  0  0
  151.2332  142.2291  157.5949 C   0  0  0  0  0  0  0  0  0  0  0  0
  151.1031  143.5820  157.5586 C   0  0  0  0  0  0  0  0  0  0  0  0
  151.7892  144.4363  158.4960 C   0  0  0  0  0  0  0  0  0  0  0  0
  152.6000  143.8632  159.3917 C   0  0  0  0  0  0  0  0  0  0  0  0
  152.8124  142.4873  159.4588 N   0  0  0  0  0  0  0  0  0  0  0  0
  153.8122  142.0180  160.4122 C   0  0  0  0  0  0  0  0  0  0  0  0
  153.3346  140.7521  161.0998 C   0  0  0  0  0  0  0  0  0  0  0  0
  153.1827  139.4941  159.7816 S   0  0  0  0  0  0  0  0  0  0  0  0
  154.5074  139.3157  159.1666 O   0  0  0  0  0  0  0  0  0  0  0  0
  152.4838  138.3278  160.3421 O   0  0  0  0  0  0  0  0  0  0  0  0
  152.1800  140.2979  158.7072 N   0  0  0  0  0  0  0  0  0  0  0  0
  152.1058  141.5948  158.6043 C   0  0  0  0  0  0  0  0  0  0  0  0
  149.5095  143.1029  156.0968 H   0  0  0  0  0  0  0  0  0  0  0  0
  148.7037  142.2689  153.9883 H   0  0  0  0  0  0  0  0  0  0  0  0
  149.1922  140.6686  154.4752 H   0  0  0  0  0  0  0  0  0  0  0  0
  146.8996  140.4466  154.7760 H   0  0  0  0  0  0  0  0  0  0  0  0
  147.3459  140.9568  156.3799 H   0  0  0  0  0  0  0  0  0  0  0  0
  146.6685  142.7745  153.0908 H   0  0  0  0  0  0  0  0  0  0  0  0
  145.0478  144.6840  152.9898 H   0  0  0  0  0  0  0  0  0  0  0  0
  143.8665  145.3793  155.0947 H   0  0  0  0  0  0  0  0  0  0  0  0
  144.3628  144.1339  157.2140 H   0  0  0  0  0  0  0  0  0  0  0  0
  150.4845  144.0666  156.8166 H   0  0  0  0  0  0  0  0  0  0  0  0
  151.6499  145.5072  158.4773 H   0  0  0  0  0  0  0  0  0  0  0  0
  153.1403  144.4502  160.1204 H   0  0  0  0  0  0  0  0  0  0  0  0
  154.7550  141.8472  159.8916 H   0  0  0  0  0  0  0  0  0  0  0  0
  154.0082  142.7764  161.1707 H   0  0  0  0  0  0  0  0  0  0  0  0
  154.0510  140.3984  161.8410 H   0  0  0  0  0  0  0  0  0  0  0  0
  152.3683  140.8872  161.5868 H   0  0  0  0  0  0  0  0  0  0  0  0
  1  2  2  0  0  0  0
  2  3  1  0  0  0  0
  2 12  1  0  0  0  0
  3  4  1  0  0  0  0
  3 24  1  0  0  0  0
  4  5  1  0  0  0  0
  4 25  1  0  0  0  0
  4 26  1  0  0  0  0
  5  6  1  0  0  0  0
  5 27  1  0  0  0  0
  5 28  1  0  0  0  0
  6 11  1  0  0  0  0
  6  7  2  0  0  0  0
  7  8  1  0  0  0  0
  7 29  1  0  0  0  0
  8  9  2  0  0  0  0
  8 30  1  0  0  0  0
  9 10  1  0  0  0  0
  9 31  1  0  0  0  0
 10 11  2  0  0  0  0
 10 32  1  0  0  0  0
 12 23  1  0  0  0  0
 12 13  2  0  0  0  0
 13 14  1  0  0  0  0
 13 33  1  0  0  0  0
 14 15  2  0  0  0  0
 14 34  1  0  0  0  0
 15 16  1  0  0  0  0
 15 35  1  0  0  0  0
 16 23  1  0  0  0  0
 16 17  1  0  0  0  0
 17 18  1  0  0  0  0
 17 36  1  0  0  0  0
 17 37  1  0  0  0  0
 18 19  1  0  0  0  0
 18 38  1  0  0  0  0
 18 39  1  0  0  0  0
 19 20  2  0  0  0  0
 19 21  2  0  0  0  0
 19 22  1  0  0  0  0
 22 23  2  0  0  0  0
M  END
> <s_m_source_file>
AV-unprocessed.smi

> <i_m_source_file_index>
2189

> <i_lp_mmshare_version>
43012

> <i_f3d_flags>
0

> <s_epik_input>
W0NIMl0xW0NIMl1TKD1PKSg9TylOPUMoTjEyKUMoPVtDSF1bQ0hdPVtDSF0yKUMoPU8pW05IXVtDSDJdW0NIMl1jM1tjSF1bY0hdW2NIXVtjSF1uMw==

> <s_epik_cmdline>
J2VwaWtfcHl0aG9uJywgJy1waCcsICc3LjAnLCAnLXRuJywgJzgnLCAnLW1hJywgJzIwMCcsICctbWV0YWxfYmluZGluZycsICctaW1hZScsICc8aW5maWxlLm1hZT4nLCAnLW9tYWUnLCAnPG91dGZpbGUubWFlPic=

> <r_epik_Ionization_Penalty>
0.0177355

> <r_epik_Ionization_Penalty_Charging>
8.06468e-09

> <r_epik_Ionization_Penalty_Neutral>
0.0177355

> <r_epik_State_Penalty>
0.0140338

> <r_epik_Charging_Adjusted_Penalty>
0.0140338

> <i_epik_Tot_Q>
0

> <i_epik_Tot_abs_Q>
0

> <r_epik_Metal_State_Penalty>
0.0535636

> <b_epik_Metal_Only>
0

> <s_lp_Force_Field>
OPLS_2005

> <r_lp_Energy>
27.3768

> <b_lp_Chiralities_Consistent>
1

> <s_lp_Variant>
AV-unprocessed.smi:2189-1

> <Gold.Version>
5.8.1

> <Gold.Id.Protein>
6NUR|6NUR_protein|mol2

> <Gold.PLP.Fitness>
51.8072

> <Gold.PLP.PLP>
-48.9519

> <Gold.PLP.part.hbond>
-2.0000

> <Gold.PLP.part.metal>
0.0000

> <Gold.PLP.part.buried>
-7.4648

> <Gold.PLP.part.nonpolar>
-39.6881

> <Gold.PLP.part.repulsive>
0.2667

> <Gold.PLP.ligand.clash>
2.5381

> <Gold.PLP.ligand.torsion>
0.3934

> <Gold.PLP.Chemscore.Hbond>
2.0000

> <Gold.PLP.Chemscore.CHOScore>
0.0000

> <Gold.PLP.Chemscore.Metal>
0.0000

> <Gold.Chemscore.Hbonds>
donor molecule, donor type, donor heavy atom, donor atom, acceptor molecule, acceptor atom, score
      L1  H     3    24       P1  8028  0.99
      P1  H  7997  8008       L1    20  0.94

> <Gold.PLP.Chemscore.Internal.Correction>
0.1803

> <Gold.Rescore>
     Score         DG    S(hbond)    S(metal)    S(lipo)     H(rot)  DE(clash)    DE(int)     intcor
     18.47     -20.41       1.94        0.00     104.33       1.47       0.06       1.88       ----

> <Gold.Chemscore.Fitness>
18.4650

> <Gold.Chemscore.DG>
-20.4122

> <Gold.Chemscore.ZeroCoef>
-5.4800

> <Gold.Chemscore.Hbond>
1.9412

> <Gold.Chemscore.Metal>
0.0000

> <Gold.Chemscore.Lipo>
104.3292

> <Gold.Chemscore.Internal_Hbond>
0.0000

> <Gold.Chemscore.DEClash>
0.0632

> <Gold.Chemscore.DEInternal>
1.8840

> <Gold.Chemscore.Rot>
1.4679

> <Gold.Chemscore.Internal.Correction>
   9.000000E+99

> <Gold.Chemscore.Hbonds>
donor molecule, donor type, donor heavy atom, donor atom, acceptor molecule, acceptor atom, score
      L1  H     3    24       P1  8028  0.94
      P1  H  7997  8008       L1    20  0.89

> <Gold.Chemscore.Hbond.Weighted>
-6.4835

> <Gold.Chemscore.Metal.Weighted>
-0.0000

> <Gold.Chemscore.Lipo.Weighted>
-12.2065

> <Gold.Chemscore.Internal_Hbond.Weighted>
0.0000

> <Gold.Chemscore.DEClash.Weighted>
0.0632

> <Gold.Chemscore.DEInternal.Weighted>
1.8840

> <Gold.Chemscore.Rot.Weighted>
3.7578

> <Gold.Chemscore.Internal.Correction.Weighted>
   9.000000E+99

> <Gold.Protein.RotatedTorsions>
[ 6907 6896 6895 6894 ] final  -26.93 input  -60.11 | X-H torsion
[ 7974 7965 7964 7962 ] final   40.42 input  175.53 | X-H torsion
[ 8008 7997 7996 7995 ] final -110.14 input   59.86 | X-H torsion
[ 10167 10162 10161 10158 ] final -149.43 input  -65.29 | X-H torsion
[ 10718 10713 10712 10709 ] final  -48.58 input   66.30 | X-H torsion
[ 10763 10752 10751 10750 ] final   14.76 input  -60.55 | X-H torsion
[ 11005 11000 10999 10996 ] final -123.23 input  -57.11 | X-H torsion

> <Gold.Protein.ActiveResidues>
 VAL166  LYS551  ARG553  GLY616  TRP617  ASP618  TYR619  PRO620  LYS621  CYS622 
 ASP623  PHE694  ASN695  SER759  ASP760  ASP761  ALA762  ILE779  LEU786  VAL792 
 PHE793  MET794  SER795  GLU796  ALA797  LYS798  CYS799  TRP800  GLU811  SER814 

> <Gold.Protein.RotatedAtoms>
  151.1540  135.0241  159.8680 H   0  0  0  0  0  0  0  0  0  0  0  0  # atno 6907 bound_to 6896
  152.5452  134.1356  159.8467 H   0  0  0  0  0  0  0  0  0  0  0  0  # atno 6908 bound_to 6896
  151.1444  133.4904  159.2629 H   0  0  0  0  0  0  0  0  0  0  0  0  # atno 6909 bound_to 6896
  146.0906  139.5535  142.9478 H   0  0  0  0  0  0  0  0  0  0  0  0  # atno 7974 bound_to 7965
  154.9700  140.0397  157.2230 H   0  0  0  0  0  0  0  0  0  0  0  0  # atno 8008 bound_to 7997
  154.7810  140.2819  155.6041 H   0  0  0  0  0  0  0  0  0  0  0  0  # atno 8009 bound_to 7997
  156.2936  140.2591  156.2635 H   0  0  0  0  0  0  0  0  0  0  0  0  # atno 8010 bound_to 7997
  139.7443  143.8614  152.2570 H   0  0  0  0  0  0  0  0  0  0  0  0  # atno 10167 bound_to 10162
  156.1974  130.4155  149.9287 H   0  0  0  0  0  0  0  0  0  0  0  0  # atno 10718 bound_to 10713
  153.1590  135.6792  153.8769 H   0  0  0  0  0  0  0  0  0  0  0  0  # atno 10763 bound_to 10752
  153.8171  135.3135  155.3408 H   0  0  0  0  0  0  0  0  0  0  0  0  # atno 10764 bound_to 10752
  154.7919  135.4830  154.0160 H   0  0  0  0  0  0  0  0  0  0  0  0  # atno 10765 bound_to 10752
  140.9935  134.0506  157.3626 H   0  0  0  0  0  0  0  0  0  0  0  0  # atno 11005 bound_to 11000
  145.6046  141.0350  143.1999 LP  0  0  0  0  0  0  0  0  0  0  0  0  # atno 17320 bound_to 7965
  144.7357  139.7592  143.7330 LP  0  0  0  0  0  0  0  0  0  0  0  0  # atno 17321 bound_to 7965
  139.8573  144.7134  150.9141 LP  0  0  0  0  0  0  0  0  0  0  0  0  # atno 17342 bound_to 10162
  140.7790  143.3847  151.1414 LP  0  0  0  0  0  0  0  0  0  0  0  0  # atno 17343 bound_to 10162
  156.7008  130.8932  151.3599 LP  0  0  0  0  0  0  0  0  0  0  0  0  # atno 17370 bound_to 10713
  157.6966  130.9288  150.0661 LP  0  0  0  0  0  0  0  0  0  0  0  0  # atno 17371 bound_to 10713
  139.9003  135.0162  156.7237 LP  0  0  0  0  0  0  0  0  0  0  0  0  # atno 17394 bound_to 11000
  140.7003  133.9312  155.8020 LP  0  0  0  0  0  0  0  0  0  0  0  0  # atno 17395 bound_to 11000

$$$$
