AV-unprocessed.smi:3278|AV-procd|sdf|12547|dock2
  -GOLD-   2272018463D 1   1.00000     0.00000
 Structure written by MMmdl.
 38 39  0  0  0  0  0  0  0  0  1 V2000
  145.6980  143.2157  153.9990 C   0  0  0  0  0  0  0  0  0  0  0  0
  146.8801  142.4670  154.3679 N   0  0  0  0  0  0  0  0  0  0  0  0
  147.2757  142.0444  155.6181 C   0  0  0  0  0  0  0  0  0  0  0  0
  148.4590  141.3718  155.4744 C   0  0  0  0  0  0  0  0  0  0  0  0
  149.3155  140.6928  156.5237 C   0  0  2  0  0  0  0  0  0  0  0  0
  150.5605  140.0195  155.9126 C   0  0  0  0  0  0  0  0  0  0  0  0
  148.5942  139.6550  157.1561 O   0  0  0  0  0  0  0  0  0  0  0  0
  149.7016  141.6795  157.6468 C   0  0  0  0  0  0  0  0  0  0  0  0
  150.6867  142.6673  157.1982 N   0  0  0  0  0  0  0  0  0  0  0  0
  151.5309  143.2438  158.2482 C   0  0  1  0  0  0  0  0  0  0  0  0
  150.8612  144.4615  158.9272 C   0  0  0  0  0  0  0  0  0  0  0  0
  151.7498  145.1091  160.0022 C   0  0  0  0  0  0  0  0  0  0  0  0
  152.1032  144.1419  161.1391 C   0  0  0  0  0  0  0  0  0  0  0  0
  153.0524  142.7297  160.5180 S   0  0  0  0  0  0  0  0  0  0  0  0
  151.8695  142.1466  159.2738 C   0  0  0  0  0  0  0  0  0  0  0  0
  148.6973  141.4382  154.0701 C   0  0  0  0  0  0  0  0  0  0  0  0
  147.7547  142.0934  153.4129 N   0  0  0  0  0  0  0  0  0  0  0  0
  145.1706  143.5472  154.8938 H   0  0  0  0  0  0  0  0  0  0  0  0
  145.0331  142.5852  153.4082 H   0  0  0  0  0  0  0  0  0  0  0  0
  145.9806  144.0897  153.4113 H   0  0  0  0  0  0  0  0  0  0  0  0
  146.6861  142.2534  156.4985 H   0  0  0  0  0  0  0  0  0  0  0  0
  151.2110  140.7441  155.4221 H   0  0  0  0  0  0  0  0  0  0  0  0
  150.2834  139.2715  155.1688 H   0  0  0  0  0  0  0  0  0  0  0  0
  151.1557  139.5182  156.6772 H   0  0  0  0  0  0  0  0  0  0  0  0
  149.0891  138.8541  157.0754 H   0  0  0  0  0  0  0  0  0  0  0  0
  148.8042  142.1965  157.9900 H   0  0  0  0  0  0  0  0  0  0  0  0
  150.0823  141.1198  158.5009 H   0  0  0  0  0  0  0  0  0  0  0  0
  150.2074  143.4141  156.7052 H   0  0  0  0  0  0  0  0  0  0  0  0
  152.4677  143.5735  157.7966 H   0  0  0  0  0  0  0  0  0  0  0  0
  150.6272  145.2289  158.1903 H   0  0  0  0  0  0  0  0  0  0  0  0
  149.9099  144.1624  159.3699 H   0  0  0  0  0  0  0  0  0  0  0  0
  152.6644  145.4877  159.5442 H   0  0  0  0  0  0  0  0  0  0  0  0
  151.2353  145.9764  160.4173 H   0  0  0  0  0  0  0  0  0  0  0  0
  152.6936  144.6527  161.8997 H   0  0  0  0  0  0  0  0  0  0  0  0
  151.1979  143.7777  161.6258 H   0  0  0  0  0  0  0  0  0  0  0  0
  150.9668  141.8010  159.7793 H   0  0  0  0  0  0  0  0  0  0  0  0
  152.3060  141.2809  158.7744 H   0  0  0  0  0  0  0  0  0  0  0  0
  149.5255  141.0269  153.5120 H   0  0  0  0  0  0  0  0  0  0  0  0
  1  2  1  0  0  0  0
  1 18  1  0  0  0  0
  1 19  1  0  0  0  0
  1 20  1  0  0  0  0
  2 17  1  0  0  0  0
  2  3  1  0  0  0  0
  3  4  2  0  0  0  0
  3 21  1  0  0  0  0
  4  5  1  0  0  0  0
  4 16  1  0  0  0  0
  5  6  1  0  0  0  0
  5  7  1  0  0  0  0
  5  8  1  0  0  0  0
  6 22  1  0  0  0  0
  6 23  1  0  0  0  0
  6 24  1  0  0  0  0
  7 25  1  0  0  0  0
  8  9  1  0  0  0  0
  8 26  1  0  0  0  0
  8 27  1  0  0  0  0
  9 10  1  0  0  0  0
  9 28  1  0  0  0  0
 10 15  1  0  0  0  0
 10 11  1  0  0  0  0
 10 29  1  0  0  0  0
 11 12  1  0  0  0  0
 11 30  1  0  0  0  0
 11 31  1  0  0  0  0
 12 13  1  0  0  0  0
 12 32  1  0  0  0  0
 12 33  1  0  0  0  0
 13 14  1  0  0  0  0
 13 34  1  0  0  0  0
 13 35  1  0  0  0  0
 14 15  1  0  0  0  0
 15 36  1  0  0  0  0
 15 37  1  0  0  0  0
 16 17  2  0  0  0  0
 16 38  1  0  0  0  0
M  END
> <s_m_source_file>
AV-unprocessed.smi

> <i_m_source_file_index>
3278

> <i_lp_mmshare_version>
43012

> <i_f3d_flags>
0

> <s_epik_input>
W0NIM11uMVtjSF1jKFtjSF1uMSlbQ0BAXShbQ0gzXSkoW09IXSlbQ0gyXVtOSF1bQ0BASF0yW0NIMl1bQ0gyXVtDSDJdU1tDSDJdMg==

> <s_epik_cmdline>
J2VwaWtfcHl0aG9uJywgJy1waCcsICc3LjAnLCAnLXRuJywgJzgnLCAnLW1hJywgJzIwMCcsICctbWV0YWxfYmluZGluZycsICctaW1hZScsICc8aW5maWxlLm1hZT4nLCAnLW9tYWUnLCAnPG91dGZpbGUubWFlPic=

> <r_lp_tautomer_probability>
1

> <r_epik_Ionization_Penalty>
2.06123

> <r_epik_Ionization_Penalty_Charging>
0

> <r_epik_Ionization_Penalty_Neutral>
2.06123

> <r_epik_State_Penalty>
2.1944

> <r_epik_Charging_Adjusted_Penalty>
2.1944

> <i_epik_Tot_Q>
0

> <i_epik_Tot_abs_Q>
0

> <r_epik_Metal_State_Penalty>
2.19434

> <b_epik_Metal_Only>
0

> <s_lp_Force_Field>
OPLS_2005

> <r_lp_Energy>
8.30166

> <b_lp_Chiralities_Consistent>
1

> <s_lp_Variant>
AV-unprocessed.smi:3278-8

> <Gold.Version>
5.8.1

> <Gold.Id.Protein>
6NUR|6NUR_protein|mol2

> <Gold.PLP.Fitness>
41.9422

> <Gold.PLP.PLP>
-36.9124

> <Gold.PLP.part.hbond>
-2.0000

> <Gold.PLP.part.metal>
0.0000

> <Gold.PLP.part.buried>
-1.4523

> <Gold.PLP.part.nonpolar>
-34.2488

> <Gold.PLP.part.repulsive>
0.1778

> <Gold.PLP.ligand.clash>
0.0000

> <Gold.PLP.ligand.torsion>
0.5152

> <Gold.PLP.Chemscore.Hbond>
1.0000

> <Gold.PLP.Chemscore.CHOScore>
1.0000

> <Gold.PLP.Chemscore.Metal>
0.0000

> <Gold.Chemscore.Hbonds>
donor molecule, donor type, donor heavy atom, donor atom, acceptor molecule, acceptor atom, score
      L1  H     9    28       P1  8028  0.76
      L1  C    16    38       P1  7957  0.96

> <Gold.PLP.Chemscore.Internal.Correction>
0.0602

> <Gold.Rescore>
     Score         DG    S(hbond)    S(metal)    S(lipo)     H(rot)  DE(clash)    DE(int)     intcor
     15.30     -16.30       1.00        0.00     106.26       1.93       0.58       0.41       ----

> <Gold.Chemscore.Fitness>
15.3050

> <Gold.Chemscore.DG>
-16.2999

> <Gold.Chemscore.ZeroCoef>
-5.4800

> <Gold.Chemscore.Hbond>
0.9988

> <Gold.Chemscore.Metal>
0.0000

> <Gold.Chemscore.Lipo>
106.2570

> <Gold.Chemscore.Internal_Hbond>
0.0000

> <Gold.Chemscore.DEClash>
0.5806

> <Gold.Chemscore.DEInternal>
0.4143

> <Gold.Chemscore.Rot>
1.9329

> <Gold.Chemscore.Internal.Correction>
   9.000000E+99

> <Gold.Chemscore.Hbonds>
donor molecule, donor type, donor heavy atom, donor atom, acceptor molecule, acceptor atom, score
      L1  H     9    28       P1  8028  0.77

> <Gold.Chemscore.Hbond.Weighted>
-3.3361

> <Gold.Chemscore.Metal.Weighted>
-0.0000

> <Gold.Chemscore.Lipo.Weighted>
-12.4321

> <Gold.Chemscore.Internal_Hbond.Weighted>
0.0000

> <Gold.Chemscore.DEClash.Weighted>
0.5806

> <Gold.Chemscore.DEInternal.Weighted>
0.4143

> <Gold.Chemscore.Rot.Weighted>
4.9483

> <Gold.Chemscore.Internal.Correction.Weighted>
   9.000000E+99

> <Gold.Protein.RotatedTorsions>
[ 6907 6896 6895 6894 ] final  -32.46 input  -60.11 | X-H torsion
[ 7974 7965 7964 7962 ] final  -21.35 input  175.53 | X-H torsion
[ 8008 7997 7996 7995 ] final  139.37 input   59.86 | X-H torsion
[ 10167 10162 10161 10158 ] final -142.92 input  -65.29 | X-H torsion
[ 10718 10713 10712 10709 ] final   81.04 input   66.30 | X-H torsion
[ 10763 10752 10751 10750 ] final -162.61 input  -60.55 | X-H torsion
[ 11005 11000 10999 10996 ] final  -51.06 input  -57.11 | X-H torsion

> <Gold.Protein.ActiveResidues>
 VAL166  LYS551  ARG553  GLY616  TRP617  ASP618  TYR619  PRO620  LYS621  CYS622 
 ASP623  PHE694  ASN695  SER759  ASP760  ASP761  ALA762  ILE779  LEU786  VAL792 
 PHE793  MET794  SER795  GLU796  ALA797  LYS798  CYS799  TRP800  GLU811  SER814 

> <Gold.Protein.RotatedAtoms>
  151.0785  134.9843  159.8344 H   0  0  0  0  0  0  0  0  0  0  0  0  # atno 6907 bound_to 6896
  152.5417  134.2211  159.8798 H   0  0  0  0  0  0  0  0  0  0  0  0  # atno 6908 bound_to 6896
  151.2239  133.4443  159.2635 H   0  0  0  0  0  0  0  0  0  0  0  0  # atno 6909 bound_to 6896
  146.1737  140.4329  142.8522 H   0  0  0  0  0  0  0  0  0  0  0  0  # atno 7974 bound_to 7965
  156.2990  140.2369  156.4226 H   0  0  0  0  0  0  0  0  0  0  0  0  # atno 8008 bound_to 7997
  154.8342  140.0431  157.1517 H   0  0  0  0  0  0  0  0  0  0  0  0  # atno 8009 bound_to 7997
  154.9174  140.2999  155.5237 H   0  0  0  0  0  0  0  0  0  0  0  0  # atno 8010 bound_to 7997
  139.8043  143.7790  152.2660 H   0  0  0  0  0  0  0  0  0  0  0  0  # atno 10167 bound_to 10162
  157.6822  130.9986  150.2168 H   0  0  0  0  0  0  0  0  0  0  0  0  # atno 10718 bound_to 10713
  154.7198  135.3023  154.9065 H   0  0  0  0  0  0  0  0  0  0  0  0  # atno 10763 bound_to 10752
  153.9941  135.6715  153.4759 H   0  0  0  0  0  0  0  0  0  0  0  0  # atno 10764 bound_to 10752
  153.0824  135.5002  154.8447 H   0  0  0  0  0  0  0  0  0  0  0  0  # atno 10765 bound_to 10752
  141.0850  133.6644  156.3823 H   0  0  0  0  0  0  0  0  0  0  0  0  # atno 11005 bound_to 11000
  144.8203  140.6539  143.6357 LP  0  0  0  0  0  0  0  0  0  0  0  0  # atno 17320 bound_to 7965
  145.4269  139.1555  143.4043 LP  0  0  0  0  0  0  0  0  0  0  0  0  # atno 17321 bound_to 7965
  139.7920  144.7407  150.9942 LP  0  0  0  0  0  0  0  0  0  0  0  0  # atno 17342 bound_to 10162
  140.7819  143.4433  151.0520 LP  0  0  0  0  0  0  0  0  0  0  0  0  # atno 17343 bound_to 10162
  156.2827  130.3735  149.7919 LP  0  0  0  0  0  0  0  0  0  0  0  0  # atno 17370 bound_to 10713
  156.5602  130.8380  151.3326 LP  0  0  0  0  0  0  0  0  0  0  0  0  # atno 17371 bound_to 10713
  140.5382  134.6146  157.5371 LP  0  0  0  0  0  0  0  0  0  0  0  0  # atno 17394 bound_to 11000
  139.9668  134.7360  156.0122 LP  0  0  0  0  0  0  0  0  0  0  0  0  # atno 17395 bound_to 11000

$$$$
