AV-unprocessed.smi:2310|AV-procd|sdf|9257|dock2
  -GOLD-   2272012473D 1   1.00000     0.00000
 Structure written by MMmdl.
 46 47  0  0  0  0  0  0  0  0  2 V2000
  149.2543  132.5561  153.7915 C   0  0  0  0  0  0  0  0  0  0  0  0
  149.1288  134.0837  153.6945 C   0  0  0  0  0  0  0  0  0  0  0  0
  149.3899  134.8173  155.0256 C   0  0  2  0  0  0  0  0  0  0  0  0
  148.2769  134.5634  156.0593 C   0  0  0  0  0  0  0  0  0  0  0  0
  148.7634  134.4960  157.4463 C   0  0  0  0  0  0  0  0  0  0  0  0
  149.1462  134.4431  158.5367 N   0  0  0  0  0  0  0  0  0  0  0  0
  149.5350  136.2523  154.7893 N   0  0  0  0  0  0  0  0  0  0  0  0
  149.8495  137.1607  155.7236 C   0  0  0  0  0  0  0  0  0  0  0  0
  150.0262  136.8814  156.9091 O   0  0  0  0  0  0  0  0  0  0  0  0
  149.9258  138.3954  155.1975 N   0  0  0  0  0  0  0  0  0  0  0  0
  150.2237  139.6220  155.8558 C   0  0  0  0  0  0  0  0  0  0  0  0
  151.0483  139.6913  157.0078 C   0  0  0  0  0  0  0  0  0  0  0  0
  151.3208  140.9396  157.6013 C   0  0  0  0  0  0  0  0  0  0  0  0
  150.7767  142.1120  157.0313 C   0  0  0  0  0  0  0  0  0  0  0  0
  150.9885  143.4008  157.5408 N   0  0  0  0  0  0  0  0  0  0  0  0
  150.3697  143.6542  158.8311 C   0  0  0  0  0  0  0  0  0  0  0  0
  151.0563  144.9088  159.3786 C   0  0  0  0  0  0  0  0  0  0  0  0
  152.3786  145.0039  158.6081 C   0  0  0  0  0  0  0  0  0  0  0  0
  152.3833  143.7831  157.6851 C   0  0  0  0  0  0  0  0  0  0  0  0
  150.0086  142.0073  155.9261 N   0  3  0  0  0  0  0  0  0  0  0  0
  149.7175  140.8344  155.3202 C   0  0  0  0  0  0  0  0  0  0  0  0
  148.8397  140.9181  154.0822 C   0  0  0  0  0  0  0  0  0  0  0  0
  149.0114  132.0885  152.8372 H   0  0  0  0  0  0  0  0  0  0  0  0
  148.5730  132.1527  154.5411 H   0  0  0  0  0  0  0  0  0  0  0  0
  150.2660  132.2498  154.0578 H   0  0  0  0  0  0  0  0  0  0  0  0
  149.8131  134.4540  152.9301 H   0  0  0  0  0  0  0  0  0  0  0  0
  148.1254  134.3206  153.3402 H   0  0  0  0  0  0  0  0  0  0  0  0
  150.3281  134.4373  155.4350 H   0  0  0  0  0  0  0  0  0  0  0  0
  147.5272  135.3540  156.0202 H   0  0  0  0  0  0  0  0  0  0  0  0
  147.7638  133.6257  155.8441 H   0  0  0  0  0  0  0  0  0  0  0  0
  149.4022  136.5701  153.8402 H   0  0  0  0  0  0  0  0  0  0  0  0
  149.6691  138.4782  154.2247 H   0  0  0  0  0  0  0  0  0  0  0  0
  151.4925  138.8094  157.4426 H   0  0  0  0  0  0  0  0  0  0  0  0
  151.9455  140.9891  158.4812 H   0  0  0  0  0  0  0  0  0  0  0  0
  149.2939  143.7994  158.7281 H   0  0  0  0  0  0  0  0  0  0  0  0
  150.5326  142.8130  159.5061 H   0  0  0  0  0  0  0  0  0  0  0  0
  150.4478  145.7927  159.1829 H   0  0  0  0  0  0  0  0  0  0  0  0
  151.2085  144.8430  160.4564 H   0  0  0  0  0  0  0  0  0  0  0  0
  152.3993  145.9226  158.0206 H   0  0  0  0  0  0  0  0  0  0  0  0
  153.2461  145.0132  159.2686 H   0  0  0  0  0  0  0  0  0  0  0  0
  152.9600  142.9754  158.1373 H   0  0  0  0  0  0  0  0  0  0  0  0
  152.8296  144.0141  156.7175 H   0  0  0  0  0  0  0  0  0  0  0  0
  148.6303  139.9459  153.6378 H   0  0  0  0  0  0  0  0  0  0  0  0
  149.3237  141.5328  153.3227 H   0  0  0  0  0  0  0  0  0  0  0  0
  147.8845  141.3803  154.3331 H   0  0  0  0  0  0  0  0  0  0  0  0
  149.6265  142.8638  155.5243 H   0  0  0  0  0  0  0  0  0  0  0  0
  1  2  1  0  0  0  0
  1 23  1  0  0  0  0
  1 24  1  0  0  0  0
  1 25  1  0  0  0  0
  2  3  1  0  0  0  0
  2 26  1  0  0  0  0
  2 27  1  0  0  0  0
  3  4  1  0  0  0  0
  3  7  1  0  0  0  0
  3 28  1  0  0  0  0
  4  5  1  0  0  0  0
  4 29  1  0  0  0  0
  4 30  1  0  0  0  0
  5  6  3  0  0  0  0
  7  8  1  0  0  0  0
  7 31  1  0  0  0  0
  8  9  2  0  0  0  0
  8 10  1  0  0  0  0
 10 11  1  0  0  0  0
 10 32  1  0  0  0  0
 11 21  1  0  0  0  0
 11 12  2  0  0  0  0
 12 13  1  0  0  0  0
 12 33  1  0  0  0  0
 13 14  2  0  0  0  0
 13 34  1  0  0  0  0
 14 15  1  0  0  0  0
 14 20  1  0  0  0  0
 15 19  1  0  0  0  0
 15 16  1  0  0  0  0
 16 17  1  0  0  0  0
 16 35  1  0  0  0  0
 16 36  1  0  0  0  0
 17 18  1  0  0  0  0
 17 37  1  0  0  0  0
 17 38  1  0  0  0  0
 18 19  1  0  0  0  0
 18 39  1  0  0  0  0
 18 40  1  0  0  0  0
 19 41  1  0  0  0  0
 19 42  1  0  0  0  0
 20 21  2  0  0  0  0
 20 46  1  0  0  0  0
 21 22  1  0  0  0  0
 22 43  1  0  0  0  0
 22 44  1  0  0  0  0
 22 45  1  0  0  0  0
M  CHG  1  20   1
M  END
> <s_m_source_file>
AV-unprocessed.smi

> <i_m_source_file_index>
2310

> <i_lp_mmshare_version>
43012

> <i_f3d_flags>
0

> <s_epik_input>
TiNDW0NIMl1bQ0BASF0oW0NIMl1bQ0gzXSlbTkhdQyg9TylbTkhdYzFbY0hdW2NIXWMobmMxW0NIM10pTjJbQ0gyXVtDSDJdW0NIMl1bQ0gyXTI=

> <s_epik_cmdline>
J2VwaWtfcHl0aG9uJywgJy1waCcsICc3LjAnLCAnLXRuJywgJzgnLCAnLW1hJywgJzIwMCcsICctbWV0YWxfYmluZGluZycsICctaW1hZScsICc8aW5maWxlLm1hZT4nLCAnLW9tYWUnLCAnPG91dGZpbGUubWFlPic=

> <r_lp_tautomer_probability>
0.999994

> <r_epik_Ionization_Penalty>
0.577302

> <r_epik_Ionization_Penalty_Charging>
0.577278

> <r_epik_Ionization_Penalty_Neutral>
2.39253e-05

> <r_epik_State_Penalty>
0.589738

> <r_epik_Charging_Adjusted_Penalty>
1.16702

> <i_epik_Tot_Q>
1

> <i_epik_Tot_abs_Q>
1

> <r_epik_Metal_State_Penalty>
0.784556

> <b_epik_Metal_Only>
0

> <s_lp_Force_Field>
OPLS_2005

> <r_lp_Energy>
39.7138

> <b_lp_Chiralities_Consistent>
1

> <s_lp_Variant>
AV-unprocessed.smi:2310-3

> <Gold.Version>
5.8.1

> <Gold.Id.Protein>
6NUR|6NUR_protein|mol2

> <Gold.PLP.Fitness>
44.3000

> <Gold.PLP.PLP>
-33.7688

> <Gold.PLP.part.hbond>
-3.0000

> <Gold.PLP.part.metal>
0.0000

> <Gold.PLP.part.buried>
-2.9242

> <Gold.PLP.part.nonpolar>
-28.0766

> <Gold.PLP.part.repulsive>
0.5064

> <Gold.PLP.ligand.clash>
0.0000

> <Gold.PLP.ligand.torsion>
0.7564

> <Gold.PLP.Chemscore.Hbond>
3.9913

> <Gold.PLP.Chemscore.CHOScore>
0.0000

> <Gold.PLP.Chemscore.Metal>
0.0000

> <Gold.Chemscore.Hbonds>
donor molecule, donor type, donor heavy atom, donor atom, acceptor molecule, acceptor atom, score
      L1  H     7    31       P1  7948  0.99
      L1  H    20    46       P1  8028  2.00
      P1  H  6896  6909       L1     6  1.00

> <Gold.PLP.Chemscore.Internal.Correction>
0.0701

> <Gold.Rescore>
     Score         DG    S(hbond)    S(metal)    S(lipo)     H(rot)  DE(clash)    DE(int)     intcor
     16.09     -21.86       2.80        0.00      96.85       1.68       2.51       3.26       ----

> <Gold.Chemscore.Fitness>
16.0860

> <Gold.Chemscore.DG>
-21.8639

> <Gold.Chemscore.ZeroCoef>
-5.4800

> <Gold.Chemscore.Hbond>
2.8014

> <Gold.Chemscore.Metal>
0.0000

> <Gold.Chemscore.Lipo>
96.8526

> <Gold.Chemscore.Internal_Hbond>
0.0000

> <Gold.Chemscore.DEClash>
2.5131

> <Gold.Chemscore.DEInternal>
3.2648

> <Gold.Chemscore.Rot>
1.6815

> <Gold.Chemscore.Internal.Correction>
   9.000000E+99

> <Gold.Chemscore.Hbonds>
donor molecule, donor type, donor heavy atom, donor atom, acceptor molecule, acceptor atom, score
      L1  H     7    31       P1  7948  0.78
      L1  H    20    46       P1  8028  0.93
      P1  H  6896  6909       L1     6  1.00

> <Gold.Chemscore.Hbond.Weighted>
-9.3567

> <Gold.Chemscore.Metal.Weighted>
-0.0000

> <Gold.Chemscore.Lipo.Weighted>
-11.3318

> <Gold.Chemscore.Internal_Hbond.Weighted>
0.0000

> <Gold.Chemscore.DEClash.Weighted>
2.5131

> <Gold.Chemscore.DEInternal.Weighted>
3.2648

> <Gold.Chemscore.Rot.Weighted>
4.3045

> <Gold.Chemscore.Internal.Correction.Weighted>
   9.000000E+99

> <Gold.Protein.RotatedTorsions>
[ 6907 6896 6895 6894 ] final   24.54 input  -60.11 | X-H torsion
[ 7974 7965 7964 7962 ] final   48.85 input  175.53 | X-H torsion
[ 8008 7997 7996 7995 ] final  -38.30 input   59.86 | X-H torsion
[ 10167 10162 10161 10158 ] final  -31.10 input  -65.29 | X-H torsion
[ 10718 10713 10712 10709 ] final   74.57 input   66.30 | X-H torsion
[ 10763 10752 10751 10750 ] final -161.05 input  -60.55 | X-H torsion
[ 11005 11000 10999 10996 ] final  -67.15 input  -57.11 | X-H torsion

> <Gold.Protein.ActiveResidues>
 VAL166  LYS551  ARG553  GLY616  TRP617  ASP618  TYR619  PRO620  LYS621  CYS622 
 ASP623  PHE694  ASN695  SER759  ASP760  ASP761  ALA762  ILE779  LEU786  VAL792 
 PHE793  MET794  SER795  GLU796  ALA797  LYS798  CYS799  TRP800  GLU811  SER814 

> <Gold.Protein.RotatedAtoms>
  151.9590  135.0132  160.0546 H   0  0  0  0  0  0  0  0  0  0  0  0  # atno 6907 bound_to 6896
  152.1885  133.4752  159.5004 H   0  0  0  0  0  0  0  0  0  0  0  0  # atno 6908 bound_to 6896
  150.6930  134.1660  159.4237 H   0  0  0  0  0  0  0  0  0  0  0  0  # atno 6909 bound_to 6896
  146.0164  139.4601  142.9924 H   0  0  0  0  0  0  0  0  0  0  0  0  # atno 7974 bound_to 7965
  154.4039  140.1581  156.2677 H   0  0  0  0  0  0  0  0  0  0  0  0  # atno 8008 bound_to 7997
  155.8981  140.3435  155.5983 H   0  0  0  0  0  0  0  0  0  0  0  0  # atno 8009 bound_to 7997
  155.7480  140.0801  157.2205 H   0  0  0  0  0  0  0  0  0  0  0  0  # atno 8010 bound_to 7997
  140.7241  143.3797  151.1623 H   0  0  0  0  0  0  0  0  0  0  0  0  # atno 10167 bound_to 10162
  157.6598  130.9684  150.1229 H   0  0  0  0  0  0  0  0  0  0  0  0  # atno 10718 bound_to 10713
  154.7338  135.3052  154.8847 H   0  0  0  0  0  0  0  0  0  0  0  0  # atno 10763 bound_to 10752
  153.9682  135.6745  153.4750 H   0  0  0  0  0  0  0  0  0  0  0  0  # atno 10764 bound_to 10752
  153.0943  135.4944  154.8671 H   0  0  0  0  0  0  0  0  0  0  0  0  # atno 10765 bound_to 10752
  141.1501  133.6713  156.6249 H   0  0  0  0  0  0  0  0  0  0  0  0  # atno 11005 bound_to 11000
  145.7261  141.0058  143.1376 LP  0  0  0  0  0  0  0  0  0  0  0  0  # atno 17320 bound_to 7965
  144.6973  139.8929  143.7454 LP  0  0  0  0  0  0  0  0  0  0  0  0  # atno 17321 bound_to 7965
  139.7384  143.8963  152.3042 LP  0  0  0  0  0  0  0  0  0  0  0  0  # atno 17342 bound_to 10162
  139.8776  144.7035  150.8915 LP  0  0  0  0  0  0  0  0  0  0  0  0  # atno 17343 bound_to 10162
  156.2096  130.3666  149.8687 LP  0  0  0  0  0  0  0  0  0  0  0  0  # atno 17370 bound_to 10713
  156.6569  130.8766  151.3541 LP  0  0  0  0  0  0  0  0  0  0  0  0  # atno 17371 bound_to 10713
  140.3512  134.7767  157.4468 LP  0  0  0  0  0  0  0  0  0  0  0  0  # atno 17394 bound_to 11000
  140.0859  134.5667  155.8492 LP  0  0  0  0  0  0  0  0  0  0  0  0  # atno 17395 bound_to 11000

$$$$
