AV-unprocessed.smi:862|AV-procd|sdf|3979|dock10
  -GOLD-   22720 1453D 1   1.00000     0.00000
 Structure written by MMmdl.
 44 46  0  0  0  0  0  0  0  0  2 V2000
  148.9868  137.1574  154.5390 N   0  0  0  0  0  0  0  0  0  0  0  0
  150.2794  137.3296  154.8318 C   0  0  0  0  0  0  0  0  0  0  0  0
  151.0078  136.3678  155.0688 O   0  0  0  0  0  0  0  0  0  0  0  0
  150.7149  138.6146  154.8009 N   0  0  0  0  0  0  0  0  0  0  0  0
  149.8671  139.8155  154.7187 C   0  0  0  0  0  0  0  0  0  0  0  0
  149.8276  140.4874  156.1034 C   0  0  0  0  0  0  0  0  0  0  0  0
  151.2479  140.8347  156.5973 C   0  0  0  0  0  0  0  0  0  0  0  0
  151.1869  141.3577  157.9799 N   0  3  0  0  0  0  0  0  0  0  0  0
  152.0458  142.5294  158.2625 C   0  0  1  0  0  0  0  0  0  0  0  0
  151.5599  143.8082  157.5725 C   0  0  0  0  0  0  0  0  0  0  0  0
  152.1277  144.9618  158.4118 C   0  0  0  0  0  0  0  0  0  0  0  0
  152.5217  144.3629  159.7715 C   0  0  0  0  0  0  0  0  0  0  0  0
  152.0240  142.9104  159.7462 C   0  0  2  0  0  0  0  0  0  0  0  0
  152.8042  142.0096  160.5812 N   0  0  0  0  0  0  0  0  0  0  0  0
  153.3978  140.8179  160.1847 C   0  0  0  0  0  0  0  0  0  0  0  0
  154.0433  140.3101  161.2895 C   0  0  0  0  0  0  0  0  0  0  0  0
  153.8655  141.1684  162.3711 N   0  0  0  0  0  0  0  0  0  0  0  0
  153.1231  142.1500  161.8773 C   0  0  0  0  0  0  0  0  0  0  0  0
  152.1786  139.6039  156.4989 C   0  0  0  0  0  0  0  0  0  0  0  0
  152.1086  138.9670  155.0990 C   0  0  0  0  0  0  0  0  0  0  0  0
  148.5972  136.2256  154.5326 H   0  0  0  0  0  0  0  0  0  0  0  0
  148.4068  137.9527  154.3155 H   0  0  0  0  0  0  0  0  0  0  0  0
  150.2886  140.5018  153.9829 H   0  0  0  0  0  0  0  0  0  0  0  0
  148.8514  139.6157  154.3783 H   0  0  0  0  0  0  0  0  0  0  0  0
  149.2166  141.3896  156.0586 H   0  0  0  0  0  0  0  0  0  0  0  0
  149.3393  139.8178  156.8133 H   0  0  0  0  0  0  0  0  0  0  0  0
  151.6362  141.6183  155.9455 H   0  0  0  0  0  0  0  0  0  0  0  0
  150.2334  141.6229  158.1807 H   0  0  0  0  0  0  0  0  0  0  0  0
  153.0736  142.3297  157.9584 H   0  0  0  0  0  0  0  0  0  0  0  0
  151.8717  143.8657  156.5291 H   0  0  0  0  0  0  0  0  0  0  0  0
  150.4698  143.8528  157.5924 H   0  0  0  0  0  0  0  0  0  0  0  0
  153.0040  145.3944  157.9275 H   0  0  0  0  0  0  0  0  0  0  0  0
  151.3925  145.7592  158.5230 H   0  0  0  0  0  0  0  0  0  0  0  0
  153.6060  144.4070  159.8789 H   0  0  0  0  0  0  0  0  0  0  0  0
  152.0929  144.9201  160.6049 H   0  0  0  0  0  0  0  0  0  0  0  0
  150.9913  142.8990  160.1006 H   0  0  0  0  0  0  0  0  0  0  0  0
  153.3156  140.4377  159.1770 H   0  0  0  0  0  0  0  0  0  0  0  0
  154.6194  139.4017  161.3879 H   0  0  0  0  0  0  0  0  0  0  0  0
  152.8076  142.9936  162.4736 H   0  0  0  0  0  0  0  0  0  0  0  0
  153.2102  139.8809  156.7159 H   0  0  0  0  0  0  0  0  0  0  0  0
  151.8943  138.8621  157.2473 H   0  0  0  0  0  0  0  0  0  0  0  0
  152.7787  138.1077  155.0455 H   0  0  0  0  0  0  0  0  0  0  0  0
  152.4725  139.6697  154.3479 H   0  0  0  0  0  0  0  0  0  0  0  0
  151.4471  140.6082  158.6052 H   0  0  0  0  0  0  0  0  0  0  0  0
  1  2  1  0  0  0  0
  1 21  1  0  0  0  0
  1 22  1  0  0  0  0
  2  3  2  0  0  0  0
  2  4  1  0  0  0  0
  4 20  1  0  0  0  0
  4  5  1  0  0  0  0
  5  6  1  0  0  0  0
  5 23  1  0  0  0  0
  5 24  1  0  0  0  0
  6  7  1  0  0  0  0
  6 25  1  0  0  0  0
  6 26  1  0  0  0  0
  7  8  1  0  0  0  0
  7 19  1  0  0  0  0
  7 27  1  0  0  0  0
  8  9  1  0  0  0  0
  8 28  1  0  0  0  0
  8 44  1  0  0  0  0
  9 13  1  0  0  0  0
  9 10  1  0  0  0  0
  9 29  1  0  0  0  0
 10 11  1  0  0  0  0
 10 30  1  0  0  0  0
 10 31  1  0  0  0  0
 11 12  1  0  0  0  0
 11 32  1  0  0  0  0
 11 33  1  0  0  0  0
 12 13  1  0  0  0  0
 12 34  1  0  0  0  0
 12 35  1  0  0  0  0
 13 14  1  0  0  0  0
 13 36  1  0  0  0  0
 14 18  1  0  0  0  0
 14 15  1  0  0  0  0
 15 16  2  0  0  0  0
 15 37  1  0  0  0  0
 16 17  1  0  0  0  0
 16 38  1  0  0  0  0
 17 18  2  0  0  0  0
 18 39  1  0  0  0  0
 19 20  1  0  0  0  0
 19 40  1  0  0  0  0
 19 41  1  0  0  0  0
 20 42  1  0  0  0  0
 20 43  1  0  0  0  0
M  CHG  1   8   1
M  END
> <s_m_source_file>
AV-unprocessed.smi

> <i_m_source_file_index>
862

> <i_lp_mmshare_version>
43012

> <i_f3d_flags>
0

> <s_epik_input>
W05IMl1DKD1PKU4xW0NIMl1bQ0gyXVtDSF0oW0NIMl1bQ0gyXTEpW05IXVtDQEBIXTJbQ0gyXVtDSDJdW0NIMl1bQ0BIXTJuM1tjSF1bY0hdbltjSF0z

> <s_epik_cmdline>
J2VwaWtfcHl0aG9uJywgJy1waCcsICc3LjAnLCAnLXRuJywgJzgnLCAnLW1hJywgJzIwMCcsICctbWV0YWxfYmluZGluZycsICctaW1hZScsICc8aW5maWxlLm1hZT4nLCAnLW9tYWUnLCAnPG91dGZpbGUubWFlPic=

> <r_lp_tautomer_probability>
1

> <r_epik_Ionization_Penalty>
0.0731506

> <r_epik_Ionization_Penalty_Charging>
0.0731

> <r_epik_Ionization_Penalty_Neutral>
5.05966e-05

> <r_epik_State_Penalty>
0.128895

> <r_epik_Charging_Adjusted_Penalty>
0.201995

> <i_epik_Tot_Q>
1

> <i_epik_Tot_abs_Q>
1

> <r_epik_Metal_State_Penalty>
0.113934

> <b_epik_Metal_Only>
0

> <s_lp_Force_Field>
OPLS_2005

> <r_lp_Energy>
55.4297

> <b_lp_Chiralities_Consistent>
1

> <s_lp_Variant>
AV-unprocessed.smi:862-4

> <Gold.Version>
5.8.1

> <Gold.Id.Protein>
6NUR|6NUR_protein|mol2

> <Gold.PLP.Fitness>
50.5061

> <Gold.PLP.PLP>
-48.9615

> <Gold.PLP.part.hbond>
-2.7764

> <Gold.PLP.part.metal>
0.0000

> <Gold.PLP.part.buried>
-3.8196

> <Gold.PLP.part.nonpolar>
-42.4413

> <Gold.PLP.part.repulsive>
0.2154

> <Gold.PLP.ligand.clash>
0.0000

> <Gold.PLP.ligand.torsion>
0.7531

> <Gold.PLP.Chemscore.Hbond>
1.0000

> <Gold.PLP.Chemscore.CHOScore>
0.0000

> <Gold.PLP.Chemscore.Metal>
0.0000

> <Gold.Chemscore.Hbonds>
donor molecule, donor type, donor heavy atom, donor atom, acceptor molecule, acceptor atom, score
      P1  H 10752 10765       L1     3  0.73

> <Gold.PLP.Chemscore.Internal.Correction>
0.0508

> <Gold.Rescore>
     Score         DG    S(hbond)    S(metal)    S(lipo)     H(rot)  DE(clash)    DE(int)     intcor
     16.33     -17.18       0.98        0.00     107.87       1.64       0.00       0.85       ----

> <Gold.Chemscore.Fitness>
16.3335

> <Gold.Chemscore.DG>
-17.1825

> <Gold.Chemscore.ZeroCoef>
-5.4800

> <Gold.Chemscore.Hbond>
0.9830

> <Gold.Chemscore.Metal>
0.0000

> <Gold.Chemscore.Lipo>
107.8684

> <Gold.Chemscore.Internal_Hbond>
0.0000

> <Gold.Chemscore.DEClash>
0.0004

> <Gold.Chemscore.DEInternal>
0.8486

> <Gold.Chemscore.Rot>
1.6411

> <Gold.Chemscore.Internal.Correction>
   9.000000E+99

> <Gold.Chemscore.Hbonds>
donor molecule, donor type, donor heavy atom, donor atom, acceptor molecule, acceptor atom, score
      P1  H 10752 10765       L1     3  0.73

> <Gold.Chemscore.Hbond.Weighted>
-3.2832

> <Gold.Chemscore.Metal.Weighted>
-0.0000

> <Gold.Chemscore.Lipo.Weighted>
-12.6206

> <Gold.Chemscore.Internal_Hbond.Weighted>
0.0000

> <Gold.Chemscore.DEClash.Weighted>
0.0004

> <Gold.Chemscore.DEInternal.Weighted>
0.8486

> <Gold.Chemscore.Rot.Weighted>
4.2013

> <Gold.Chemscore.Internal.Correction.Weighted>
   9.000000E+99

> <Gold.Protein.RotatedTorsions>
[ 6907 6896 6895 6894 ] final  139.35 input  -60.11 | X-H torsion
[ 7974 7965 7964 7962 ] final  -31.49 input  175.53 | X-H torsion
[ 8008 7997 7996 7995 ] final  -69.96 input   59.86 | X-H torsion
[ 10167 10162 10161 10158 ] final  166.65 input  -65.29 | X-H torsion
[ 10718 10713 10712 10709 ] final  -48.95 input   66.30 | X-H torsion
[ 10763 10752 10751 10750 ] final -173.94 input  -60.55 | X-H torsion
[ 11005 11000 10999 10996 ] final   74.29 input  -57.11 | X-H torsion

> <Gold.Protein.ActiveResidues>
 VAL166  LYS551  ARG553  GLY616  TRP617  ASP618  TYR619  PRO620  LYS621  CYS622 
 ASP623  PHE694  ASN695  SER759  ASP760  ASP761  ALA762  ILE779  LEU786  VAL792 
 PHE793  MET794  SER795  GLU796  ALA797  LYS798  CYS799  TRP800  GLU811  SER814 

> <Gold.Protein.RotatedAtoms>
  152.2559  133.5255  159.5352 H   0  0  0  0  0  0  0  0  0  0  0  0  # atno 6907 bound_to 6896
  150.7109  134.0897  159.3936 H   0  0  0  0  0  0  0  0  0  0  0  0  # atno 6908 bound_to 6896
  151.8815  135.0451  160.0540 H   0  0  0  0  0  0  0  0  0  0  0  0  # atno 6909 bound_to 6896
  146.1063  140.5674  142.8798 H   0  0  0  0  0  0  0  0  0  0  0  0  # atno 7974 bound_to 7965
  154.4977  140.0843  156.7731 H   0  0  0  0  0  0  0  0  0  0  0  0  # atno 8008 bound_to 7997
  155.4077  140.3440  155.4243 H   0  0  0  0  0  0  0  0  0  0  0  0  # atno 8009 bound_to 7997
  156.1415  140.1531  156.8900 H   0  0  0  0  0  0  0  0  0  0  0  0  # atno 8010 bound_to 7997
  139.4929  144.4005  151.9415 H   0  0  0  0  0  0  0  0  0  0  0  0  # atno 10167 bound_to 10162
  156.1939  130.4153  149.9333 H   0  0  0  0  0  0  0  0  0  0  0  0  # atno 10718 bound_to 10713
  154.6020  135.2855  155.0525 H   0  0  0  0  0  0  0  0  0  0  0  0  # atno 10763 bound_to 10752
  154.1786  135.6460  153.5032 H   0  0  0  0  0  0  0  0  0  0  0  0  # atno 10764 bound_to 10752
  153.0161  135.5418  154.6743 H   0  0  0  0  0  0  0  0  0  0  0  0  # atno 10765 bound_to 10752
  139.9398  134.7420  156.1130 H   0  0  0  0  0  0  0  0  0  0  0  0  # atno 11005 bound_to 11000
  144.7474  140.5103  143.6826 LP  0  0  0  0  0  0  0  0  0  0  0  0  # atno 17320 bound_to 7965
  145.5754  139.1485  143.3265 LP  0  0  0  0  0  0  0  0  0  0  0  0  # atno 17321 bound_to 7965
  140.3444  144.3164  150.5961 LP  0  0  0  0  0  0  0  0  0  0  0  0  # atno 17342 bound_to 10162
  140.5538  143.2202  151.7882 LP  0  0  0  0  0  0  0  0  0  0  0  0  # atno 17343 bound_to 10162
  156.7065  130.8953  151.3605 LP  0  0  0  0  0  0  0  0  0  0  0  0  # atno 17370 bound_to 10713
  157.6946  130.9268  150.0607 LP  0  0  0  0  0  0  0  0  0  0  0  0  # atno 17371 bound_to 10713
  141.1028  133.6671  156.2793 LP  0  0  0  0  0  0  0  0  0  0  0  0  # atno 17394 bound_to 11000
  140.5981  134.5582  157.5512 LP  0  0  0  0  0  0  0  0  0  0  0  0  # atno 17395 bound_to 11000

$$$$
