AV-unprocessed.smi:240|AV-procd|sdf|1827|dock7
  -GOLD-   2262020423D 1   1.00000     0.00000
 Structure written by MMmdl.
 55 59  0  0  0  0  0  0  0  0  1 V2000
  150.7258  143.4884  159.5032 O   0  0  0  0  0  0  0  0  0  0  0  0
  151.8735  143.1314  158.7591 C   0  0  1  0  0  0  0  0  0  0  0  0
  153.1460  143.4984  159.5438 C   0  0  0  0  0  0  0  0  0  0  0  0
  153.7872  142.1717  159.9529 C   0  0  0  0  0  0  0  0  0  0  0  0
  153.3777  141.2055  158.8454 C   0  0  0  0  0  0  0  0  0  0  0  0
  151.9269  141.6003  158.5323 C   0  0  2  0  0  0  0  0  0  0  0  0
  151.3764  141.0757  157.1686 C   0  0  2  0  0  0  0  0  0  0  0  0
  151.0124  142.2127  156.1765 C   0  0  0  0  0  0  0  0  0  0  0  0
  150.4967  141.6773  154.9643 O   0  0  0  0  0  0  0  0  0  0  0  0
  149.3009  140.9432  155.1811 C   0  0  0  0  0  0  0  0  0  0  0  0
  149.6214  139.7409  156.0758 C   0  0  0  0  0  0  0  0  0  0  0  0
  150.2201  140.1798  157.3322 N   0  0  0  0  0  0  0  0  0  0  0  0
  150.3639  139.1177  158.1597 C   0  0  0  0  0  0  0  0  0  0  0  0
  151.6015  138.7050  158.5423 N   0  0  0  0  0  0  0  0  0  0  0  0
  151.7319  137.6511  159.3538 C   0  0  0  0  0  0  0  0  0  0  0  0
  150.7782  136.8795  159.8807 N   0  0  0  0  0  0  0  0  0  0  0  0
  149.5369  137.2834  159.4843 C   0  0  0  0  0  0  0  0  0  0  0  0
  149.2447  138.3826  158.6304 C   0  0  0  0  0  0  0  0  0  0  0  0
  147.8726  138.4999  158.4526 N   0  0  0  0  0  0  0  0  0  0  0  0
  147.3790  137.5244  159.1656 C   0  0  0  0  0  0  0  0  0  0  0  0
  148.3074  136.7370  159.8105 N   0  0  0  0  0  0  0  0  0  0  0  0
  148.0385  135.5892  160.6637 C   0  0  0  0  0  0  0  0  0  0  0  0
  147.3715  135.9583  162.0101 C   0  0  1  0  0  0  0  0  0  0  0  0
  148.0982  137.0148  162.6136 O   0  0  0  0  0  0  0  0  0  0  0  0
  145.9230  136.4012  161.8503 C   0  0  0  0  0  0  0  0  0  0  0  0
  145.3044  136.0162  163.1870 C   0  0  0  0  0  0  0  0  0  0  0  0
  145.9140  134.7683  163.4709 O   0  0  0  0  0  0  0  0  0  0  0  0
  147.2658  134.7981  163.0217 C   0  0  0  0  0  0  0  0  0  0  0  0
  150.0582  143.7842  158.9028 H   0  0  0  0  0  0  0  0  0  0  0  0
  151.8513  143.6889  157.8243 H   0  0  0  0  0  0  0  0  0  0  0  0
  153.8285  144.0359  158.8844 H   0  0  0  0  0  0  0  0  0  0  0  0
  152.9559  144.1442  160.4022 H   0  0  0  0  0  0  0  0  0  0  0  0
  154.8688  142.2463  160.0687 H   0  0  0  0  0  0  0  0  0  0  0  0
  153.3711  141.8386  160.9047 H   0  0  0  0  0  0  0  0  0  0  0  0
  154.0339  141.3612  157.9907 H   0  0  0  0  0  0  0  0  0  0  0  0
  153.4694  140.1622  159.1482 H   0  0  0  0  0  0  0  0  0  0  0  0
  151.3525  141.1342  159.3342 H   0  0  0  0  0  0  0  0  0  0  0  0
  152.1696  140.4921  156.6988 H   0  0  0  0  0  0  0  0  0  0  0  0
  150.2840  142.9062  156.5960 H   0  0  0  0  0  0  0  0  0  0  0  0
  151.8909  142.7997  155.9150 H   0  0  0  0  0  0  0  0  0  0  0  0
  148.5368  141.5782  155.6323 H   0  0  0  0  0  0  0  0  0  0  0  0
  148.9120  140.6044  154.2210 H   0  0  0  0  0  0  0  0  0  0  0  0
  148.7073  139.1777  156.2704 H   0  0  0  0  0  0  0  0  0  0  0  0
  150.3089  139.0691  155.5594 H   0  0  0  0  0  0  0  0  0  0  0  0
  152.7452  137.3878  159.6185 H   0  0  0  0  0  0  0  0  0  0  0  0
  146.3151  137.3522  159.2393 H   0  0  0  0  0  0  0  0  0  0  0  0
  147.4081  134.8912  160.1111 H   0  0  0  0  0  0  0  0  0  0  0  0
  148.9820  135.0719  160.8416 H   0  0  0  0  0  0  0  0  0  0  0  0
  148.5844  136.6655  163.3448 H   0  0  0  0  0  0  0  0  0  0  0  0
  145.8097  137.4597  161.6124 H   0  0  0  0  0  0  0  0  0  0  0  0
  145.4380  135.8296  161.0577 H   0  0  0  0  0  0  0  0  0  0  0  0
  145.5662  136.7376  163.9625 H   0  0  0  0  0  0  0  0  0  0  0  0
  144.2184  135.9337  163.1438 H   0  0  0  0  0  0  0  0  0  0  0  0
  147.4854  133.8330  162.5665 H   0  0  0  0  0  0  0  0  0  0  0  0
  147.9439  134.9220  163.8675 H   0  0  0  0  0  0  0  0  0  0  0  0
  1  2  1  0  0  0  0
  1 29  1  0  0  0  0
  2  6  1  0  0  0  0
  2  3  1  0  0  0  0
  2 30  1  0  0  0  0
  3  4  1  0  0  0  0
  3 31  1  0  0  0  0
  3 32  1  0  0  0  0
  4  5  1  0  0  0  0
  4 33  1  0  0  0  0
  4 34  1  0  0  0  0
  5  6  1  0  0  0  0
  5 35  1  0  0  0  0
  5 36  1  0  0  0  0
  6  7  1  0  0  0  0
  6 37  1  0  0  0  0
  7 12  1  0  0  0  0
  7  8  1  0  0  0  0
  7 38  1  0  0  0  0
  8  9  1  0  0  0  0
  8 39  1  0  0  0  0
  8 40  1  0  0  0  0
  9 10  1  0  0  0  0
 10 11  1  0  0  0  0
 10 41  1  0  0  0  0
 10 42  1  0  0  0  0
 11 12  1  0  0  0  0
 11 43  1  0  0  0  0
 11 44  1  0  0  0  0
 12 13  1  0  0  0  0
 13 18  1  0  0  0  0
 13 14  2  0  0  0  0
 14 15  1  0  0  0  0
 15 16  2  0  0  0  0
 15 45  1  0  0  0  0
 16 17  1  0  0  0  0
 17 21  1  0  0  0  0
 17 18  2  0  0  0  0
 18 19  1  0  0  0  0
 19 20  2  0  0  0  0
 20 21  1  0  0  0  0
 20 46  1  0  0  0  0
 21 22  1  0  0  0  0
 22 23  1  0  0  0  0
 22 47  1  0  0  0  0
 22 48  1  0  0  0  0
 23 28  1  0  0  0  0
 23 24  1  0  0  0  0
 23 25  1  0  0  0  0
 24 49  1  0  0  0  0
 25 26  1  0  0  0  0
 25 50  1  0  0  0  0
 25 51  1  0  0  0  0
 26 27  1  0  0  0  0
 26 52  1  0  0  0  0
 26 53  1  0  0  0  0
 27 28  1  0  0  0  0
 28 54  1  0  0  0  0
 28 55  1  0  0  0  0
M  END
> <s_m_source_file>
AV-unprocessed.smi

> <i_m_source_file_index>
240

> <i_lp_mmshare_version>
43012

> <i_f3d_flags>
0

> <s_epik_input>
W09IXVtDQEBIXTFbQ0gyXVtDSDJdW0NIMl1bQ0BIXTFbQ0BASF0yW0NIMl1PW0NIMl1bQ0gyXU4yYyhuW2NIXW4zKWMoYzM0KW5bY0hdbjRbQ0gyXVtDQEBdNShbT0hdKVtDSDJdW0NIMl1PW0NIMl01

> <s_epik_cmdline>
J2VwaWtfcHl0aG9uJywgJy1waCcsICc3LjAnLCAnLXRuJywgJzgnLCAnLW1hJywgJzIwMCcsICctbWV0YWxfYmluZGluZycsICctaW1hZScsICc8aW5maWxlLm1hZT4nLCAnLW9tYWUnLCAnPG91dGZpbGUubWFlPic=

> <r_lp_tautomer_probability>
1

> <r_epik_Ionization_Penalty>
0.000130618

> <r_epik_Ionization_Penalty_Charging>
0

> <r_epik_Ionization_Penalty_Neutral>
0.000130618

> <r_epik_State_Penalty>
-0

> <r_epik_Charging_Adjusted_Penalty>
0

> <i_epik_Tot_Q>
0

> <i_epik_Tot_abs_Q>
0

> <r_epik_Metal_State_Penalty>
-0

> <b_epik_Metal_Only>
0

> <s_lp_Force_Field>
OPLS_2005

> <r_lp_Energy>
61.8297

> <b_lp_Chiralities_Consistent>
1

> <s_lp_Variant>
AV-unprocessed.smi:240-4

> <Gold.Version>
5.8.1

> <Gold.Id.Protein>
6NUR|6NUR_protein|mol2

> <Gold.PLP.Fitness>
47.8654

> <Gold.PLP.PLP>
-44.4833

> <Gold.PLP.part.hbond>
-4.8369

> <Gold.PLP.part.metal>
0.0000

> <Gold.PLP.part.buried>
-3.4001

> <Gold.PLP.part.nonpolar>
-36.0134

> <Gold.PLP.part.repulsive>
0.1741

> <Gold.PLP.ligand.clash>
0.0000

> <Gold.PLP.ligand.torsion>
1.8615

> <Gold.PLP.Chemscore.Hbond>
2.3040

> <Gold.PLP.Chemscore.CHOScore>
0.0000

> <Gold.PLP.Chemscore.Metal>
0.0000

> <Gold.Chemscore.Hbonds>
donor molecule, donor type, donor heavy atom, donor atom, acceptor molecule, acceptor atom, score
      P1  H  6896  6908       L1    16  1.00
      P1  H  6931  6943       L1    24  0.96
      P1  H  7989  7998       L1     9  0.34

> <Gold.PLP.Chemscore.Internal.Correction>
0.1930

> <Gold.Rescore>
     Score         DG    S(hbond)    S(metal)    S(lipo)     H(rot)  DE(clash)    DE(int)     intcor
     12.43     -18.11       2.00        0.00     116.60       3.00       1.35       4.33       ----

> <Gold.Chemscore.Fitness>
12.4268

> <Gold.Chemscore.DG>
-18.1079

> <Gold.Chemscore.ZeroCoef>
-5.4800

> <Gold.Chemscore.Hbond>
1.9986

> <Gold.Chemscore.Metal>
0.0000

> <Gold.Chemscore.Lipo>
116.6021

> <Gold.Chemscore.Internal_Hbond>
0.0000

> <Gold.Chemscore.DEClash>
1.3484

> <Gold.Chemscore.DEInternal>
4.3327

> <Gold.Chemscore.Rot>
3.0039

> <Gold.Chemscore.Internal.Correction>
   9.000000E+99

> <Gold.Chemscore.Hbonds>
donor molecule, donor type, donor heavy atom, donor atom, acceptor molecule, acceptor atom, score
      P1  H  6896  6908       L1    16  0.85
      P1  H  6931  6943       L1    24  0.56
      P1  H  7989  7998       L1     9  0.28

> <Gold.Chemscore.Hbond.Weighted>
-6.6753

> <Gold.Chemscore.Metal.Weighted>
-0.0000

> <Gold.Chemscore.Lipo.Weighted>
-13.6424

> <Gold.Chemscore.Internal_Hbond.Weighted>
0.0000

> <Gold.Chemscore.DEClash.Weighted>
1.3484

> <Gold.Chemscore.DEInternal.Weighted>
4.3327

> <Gold.Chemscore.Rot.Weighted>
7.6899

> <Gold.Chemscore.Internal.Correction.Weighted>
   9.000000E+99

> <Gold.Protein.RotatedTorsions>
[ 6907 6896 6895 6894 ] final -145.78 input  -60.11 | X-H torsion
[ 7974 7965 7964 7962 ] final -102.62 input  175.53 | X-H torsion
[ 8008 7997 7996 7995 ] final  -76.79 input   59.86 | X-H torsion
[ 10167 10162 10161 10158 ] final   -9.17 input  -65.29 | X-H torsion
[ 10718 10713 10712 10709 ] final  178.05 input   66.30 | X-H torsion
[ 10763 10752 10751 10750 ] final -131.42 input  -60.55 | X-H torsion
[ 11005 11000 10999 10996 ] final -159.97 input  -57.11 | X-H torsion

> <Gold.Protein.ActiveResidues>
 VAL166  LYS551  ARG553  GLY616  TRP617  ASP618  TYR619  PRO620  LYS621  CYS622 
 ASP623  PHE694  ASN695  SER759  ASP760  ASP761  ALA762  ILE779  LEU786  VAL792 
 PHE793  MET794  SER795  GLU796  ALA797  LYS798  CYS799  TRP800  GLU811  SER814 

> <Gold.Protein.RotatedAtoms>
  151.1325  133.5027  159.2598 H   0  0  0  0  0  0  0  0  0  0  0  0  # atno 6907 bound_to 6896
  151.1742  135.0331  159.8774 H   0  0  0  0  0  0  0  0  0  0  0  0  # atno 6908 bound_to 6896
  152.5460  134.1185  159.8442 H   0  0  0  0  0  0  0  0  0  0  0  0  # atno 6909 bound_to 6896
  145.2664  140.9285  143.3011 H   0  0  0  0  0  0  0  0  0  0  0  0  # atno 7974 bound_to 7965
  154.5537  140.0721  156.8709 H   0  0  0  0  0  0  0  0  0  0  0  0  # atno 8008 bound_to 7997
  155.2944  140.3380  155.4232 H   0  0  0  0  0  0  0  0  0  0  0  0  # atno 8009 bound_to 7997
  156.1983  140.1712  156.7938 H   0  0  0  0  0  0  0  0  0  0  0  0  # atno 8010 bound_to 7997
  140.7080  143.5887  150.8916 H   0  0  0  0  0  0  0  0  0  0  0  0  # atno 10167 bound_to 10162
  156.8962  130.9864  151.3042 H   0  0  0  0  0  0  0  0  0  0  0  0  # atno 10718 bound_to 10713
  154.8751  135.3831  154.4243 H   0  0  0  0  0  0  0  0  0  0  0  0  # atno 10763 bound_to 10752
  153.4943  135.7030  153.5872 H   0  0  0  0  0  0  0  0  0  0  0  0  # atno 10764 bound_to 10752
  153.4231  135.3896  155.2091 H   0  0  0  0  0  0  0  0  0  0  0  0  # atno 10765 bound_to 10752
  140.6367  134.4594  157.5232 H   0  0  0  0  0  0  0  0  0  0  0  0  # atno 11005 bound_to 11000
  144.9373  139.4229  143.6466 LP  0  0  0  0  0  0  0  0  0  0  0  0  # atno 17320 bound_to 7965
  146.3260  139.8315  142.8907 LP  0  0  0  0  0  0  0  0  0  0  0  0  # atno 17321 bound_to 7965
  139.9613  143.6161  152.3001 LP  0  0  0  0  0  0  0  0  0  0  0  0  # atno 17342 bound_to 10162
  139.6714  144.7660  151.1775 LP  0  0  0  0  0  0  0  0  0  0  0  0  # atno 17343 bound_to 10162
  157.6054  130.8543  149.8866 LP  0  0  0  0  0  0  0  0  0  0  0  0  # atno 17370 bound_to 10713
  156.0604  130.3701  150.0995 LP  0  0  0  0  0  0  0  0  0  0  0  0  # atno 17371 bound_to 10713
  139.9095  134.8375  156.1580 LP  0  0  0  0  0  0  0  0  0  0  0  0  # atno 17394 bound_to 11000
  141.0636  133.6830  156.2001 LP  0  0  0  0  0  0  0  0  0  0  0  0  # atno 17395 bound_to 11000

$$$$
