#       Name:                AV-unprocessed.smi:2519
#       Creating user name   scv26
#       Creation time:       Fri Mar 27 13:54:28 2020


#       File generated by GOLD software.
#

@<TRIPOS>MOLECULE
AV-unprocessed.smi:2519
    48    49     1
SMALL
NO_CHARGES


@<TRIPOS>ATOM
      1 ****        -4.7781   5.0044  -0.5503 C.3            1 S1                 0.0000
      2 ****        -4.2501   3.6549  -0.4269 N.am           1 S1                 0.0000
      3 ****        -4.9891   2.5374  -0.5212 C.2            1 S1                 0.0000
      4 ****        -6.2053   2.5523  -0.7168 O.2            1 S1                 0.0000
      5 ****        -4.2461   1.2377  -0.3496 C.ar           1 S1                 0.0000
      6 ****        -4.9596   0.0233  -0.2411 C.ar           1 S1                 0.0000
      7 ****        -4.2378  -1.1738  -0.0888 C.ar           1 S1                 0.0000
      8 ****        -2.8323  -1.1209  -0.0508 C.ar           1 S1                 0.0000
      9 ****        -2.1849   0.1277  -0.1665 C.ar           1 S1                 0.0000
     10 ****        -0.7673   0.0794  -0.1170 N.am           1 S1                 0.0000
     11 ****         0.1082   1.1014  -0.1992 C.2            1 S1                 0.0000
     12 ****        -0.2055   2.2840  -0.3257 O.2            1 S1                 0.0000
     13 ****         1.3999   0.7296  -0.1284 N.am           1 S1                 0.0000
     14 ****         2.5955   1.5737  -0.1842 C.3            1 S1                 0.0000
     15 ****         2.9705   1.8904  -1.6461 C.3            1 S1                 0.0000
     16 ****         4.2678   2.7084  -1.7234 C.3            1 S1                 0.0000
     17 ****         5.4215   1.9960  -1.0005 C.3            1 S1                 0.0000
     18 ****         5.0647   1.6814   0.4675 C.3            1 S1                 0.0000
     19 ****         6.2234   0.9830   1.2081 C.3            1 S1                 0.0000
     20 ****         6.5064  -0.1925   0.6457 F              1 S1                 0.0000
     21 ****         7.3132   1.7499   1.1763 F              1 S1                 0.0000
     22 ****         5.8938   0.7824   2.4841 F              1 S1                 0.0000
     23 ****         3.7583   0.8606   0.5311 C.3            1 S1                 0.0000
     24 ****        -2.8918   1.2742  -0.3139 N.ar           1 S1                 0.0000
     25 ****        -3.9711   5.7297  -0.4468 H              1 S1                 0.0000
     26 ****        -5.5184   5.2046   0.2252 H              1 S1                 0.0000
     27 ****        -5.2451   5.1506  -1.5250 H              1 S1                 0.0000
     28 ****        -3.2580   3.5544  -0.2638 H              1 S1                 0.0000
     29 ****        -6.0392   0.0004  -0.2723 H              1 S1                 0.0000
     30 ****        -4.7542  -2.1183  -0.0025 H              1 S1                 0.0000
     31 ****        -2.2621  -2.0312   0.0660 H              1 S1                 0.0000
     32 ****        -0.3680  -0.8412  -0.0099 H              1 S1                 0.0000
     33 ****         1.5717  -0.2600  -0.0236 H              1 S1                 0.0000
     34 ****         2.4089   2.5086   0.3472 H              1 S1                 0.0000
     35 ****         3.0951   0.9616  -2.2049 H              1 S1                 0.0000
     36 ****         2.1657   2.4390  -2.1365 H              1 S1                 0.0000
     37 ****         4.5339   2.8822  -2.7664 H              1 S1                 0.0000
     38 ****         4.1076   3.6909  -1.2778 H              1 S1                 0.0000
     39 ****         5.6647   1.0731  -1.5284 H              1 S1                 0.0000
     40 ****         6.3145   2.6200  -1.0449 H              1 S1                 0.0000
     41 ****         4.8829   2.6310   0.9733 H              1 S1                 0.0000
     42 ****         3.4860   0.6794   1.5716 H              1 S1                 0.0000
     43 ****         3.9202  -0.1201   0.0813 H              1 S1                 0.0000
     44 ****        -6.6856   3.4242  -0.8129 LP             1 S1                 0.0000
     45 ****        -6.7122   1.6926  -0.7794 LP             1 S1                 0.0000
     46 ****        -1.1702   2.5430  -0.3746 LP             1 S1                 0.0000
     47 ****         0.5041   2.9866  -0.3796 LP             1 S1                 0.0000
     48 ****        -2.4136   2.1486  -0.3964 LP             1 S1                 0.0000
@<TRIPOS>BOND
    1    1    2 1     
    2    1   25 1     
    3    1   26 1     
    4    1   27 1     
    5    2    3 am    
    6    2   28 1     
    7    3    4 2     
    8    3    5 1     
    9    5   24 ar    
   10    5    6 ar    
   11    6    7 ar    
   12    6   29 1     
   13    7    8 ar    
   14    7   30 1     
   15    8    9 ar    
   16    8   31 1     
   17    9   10 1     
   18    9   24 ar    
   19   10   11 am    
   20   10   32 1     
   21   11   12 2     
   22   11   13 am    
   23   13   14 1     
   24   13   33 1     
   25   14   23 1     
   26   14   15 1     
   27   14   34 1     
   28   15   16 1     
   29   15   35 1     
   30   15   36 1     
   31   16   17 1     
   32   16   37 1     
   33   16   38 1     
   34   17   18 1     
   35   17   39 1     
   36   17   40 1     
   37   18   19 1     
   38   18   23 1     
   39   18   41 1     
   40   19   20 1     
   41   19   21 1     
   42   19   22 1     
   43   23   42 1     
   44   23   43 1     
   45    4   44 1     
   46    4   45 1     
   47   12   46 1     
   48   12   47 1     
   49   24   48 1     
@<TRIPOS>SUBSTRUCTURE
      1 S1             1
@<TRIPOS>SET
LONE_PAIRS      STATIC     ATOMS    <user>   **** ""
5 44 45 46 47 48
DONOR_HYDROGENS      STATIC     ATOMS    <user>   **** ""
3 28 32 33
ATOM$BLUE        STATIC     ATOMS    COLORGROUP SYSTEM
5 44 45 46 47 48
ATOM$RED        STATIC     ATOMS    COLORGROUP SYSTEM
3 28 32 33
