AV-unprocessed.smi:849|AV-procd|sdf|3944|dock5
  -GOLD-   22720 1413D 1   1.00000     0.00000
 Structure written by MMmdl.
 36 38  0  0  0  0  0  0  0  0  1 V2000
  152.7871  139.0459  154.8533 O   0  0  0  0  0  0  0  0  0  0  0  0
  152.2581  139.8326  155.9015 C   0  0  0  0  0  0  0  0  0  0  0  0
  150.8927  140.3924  155.6177 C   0  0  0  0  0  0  0  0  0  0  0  0
  150.2973  140.2816  154.4277 N   0  0  0  0  0  0  0  0  0  0  0  0
  149.0893  140.9187  154.6270 C   0  0  0  0  0  0  0  0  0  0  0  0
  148.0104  141.1399  153.7416 C   0  0  0  0  0  0  0  0  0  0  0  0
  146.8595  141.8288  154.1774 C   0  0  0  0  0  0  0  0  0  0  0  0
  146.7708  142.3039  155.5018 C   0  0  0  0  0  0  0  0  0  0  0  0
  147.8345  142.0932  156.4001 C   0  0  0  0  0  0  0  0  0  0  0  0
  148.9816  141.4065  155.9593 C   0  0  0  0  0  0  0  0  0  0  0  0
  150.1805  141.0493  156.5691 N   0  0  0  0  0  0  0  0  0  0  0  0
  150.5522  141.3363  157.9483 C   0  0  0  0  0  0  0  0  0  0  0  0
  151.5349  142.5209  158.0642 C   0  0  1  0  0  0  0  0  0  0  0  0
  150.9503  143.6351  157.4196 O   0  0  0  0  0  0  0  0  0  0  0  0
  151.9186  142.8262  159.5120 C   0  0  0  0  0  0  0  0  0  0  0  0
  152.5755  141.8327  160.2750 C   0  0  0  0  0  0  0  0  0  0  0  0
  152.9605  142.0840  161.6052 C   0  0  0  0  0  0  0  0  0  0  0  0
  152.6936  143.3351  162.1886 C   0  0  0  0  0  0  0  0  0  0  0  0
  152.0429  144.3324  161.4397 C   0  0  0  0  0  0  0  0  0  0  0  0
  151.6546  144.0874  160.1072 C   0  0  0  0  0  0  0  0  0  0  0  0
  150.8668  145.3608  159.2425 Cl  0  0  0  0  0  0  0  0  0  0  0  0
  153.4925  139.5233  154.4448 H   0  0  0  0  0  0  0  0  0  0  0  0
  152.2137  139.2213  156.8029 H   0  0  0  0  0  0  0  0  0  0  0  0
  152.9500  140.6514  156.0925 H   0  0  0  0  0  0  0  0  0  0  0  0
  148.0694  140.7795  152.7254 H   0  0  0  0  0  0  0  0  0  0  0  0
  146.0412  141.9937  153.4918 H   0  0  0  0  0  0  0  0  0  0  0  0
  145.8863  142.8314  155.8274 H   0  0  0  0  0  0  0  0  0  0  0  0
  147.7711  142.4586  157.4143 H   0  0  0  0  0  0  0  0  0  0  0  0
  149.6320  141.5681  158.4870 H   0  0  0  0  0  0  0  0  0  0  0  0
  150.9599  140.4435  158.4221 H   0  0  0  0  0  0  0  0  0  0  0  0
  152.4293  142.3019  157.4829 H   0  0  0  0  0  0  0  0  0  0  0  0
  150.3448  143.3208  156.7660 H   0  0  0  0  0  0  0  0  0  0  0  0
  152.7962  140.8695  159.8393 H   0  0  0  0  0  0  0  0  0  0  0  0
  153.4624  141.3173  162.1768 H   0  0  0  0  0  0  0  0  0  0  0  0
  152.9884  143.5310  163.2091 H   0  0  0  0  0  0  0  0  0  0  0  0
  151.8417  145.2928  161.8914 H   0  0  0  0  0  0  0  0  0  0  0  0
  1  2  1  0  0  0  0
  1 22  1  0  0  0  0
  2  3  1  0  0  0  0
  2 23  1  0  0  0  0
  2 24  1  0  0  0  0
  3 11  1  0  0  0  0
  3  4  2  0  0  0  0
  4  5  1  0  0  0  0
  5 10  2  0  0  0  0
  5  6  1  0  0  0  0
  6  7  2  0  0  0  0
  6 25  1  0  0  0  0
  7  8  1  0  0  0  0
  7 26  1  0  0  0  0
  8  9  2  0  0  0  0
  8 27  1  0  0  0  0
  9 10  1  0  0  0  0
  9 28  1  0  0  0  0
 10 11  1  0  0  0  0
 11 12  1  0  0  0  0
 12 13  1  0  0  0  0
 12 29  1  0  0  0  0
 12 30  1  0  0  0  0
 13 14  1  0  0  0  0
 13 15  1  0  0  0  0
 13 31  1  0  0  0  0
 14 32  1  0  0  0  0
 15 20  1  0  0  0  0
 15 16  2  0  0  0  0
 16 17  1  0  0  0  0
 16 33  1  0  0  0  0
 17 18  2  0  0  0  0
 17 34  1  0  0  0  0
 18 19  1  0  0  0  0
 18 35  1  0  0  0  0
 19 20  2  0  0  0  0
 19 36  1  0  0  0  0
 20 21  1  0  0  0  0
M  END
> <s_m_source_file>
AV-unprocessed.smi

> <i_m_source_file_index>
849

> <i_lp_mmshare_version>
43012

> <i_f3d_flags>
0

> <s_epik_input>
W2NIXTFbY0hdW2NIXVtjSF1jKGMxMiluKGMobjIpW0NIMl1bT0hdKVtDSDJdW0NASF0oW09IXSljM1tjSF1bY0hdW2NIXVtjSF1jM0Ns

> <s_epik_cmdline>
J2VwaWtfcHl0aG9uJywgJy1waCcsICc3LjAnLCAnLXRuJywgJzgnLCAnLW1hJywgJzIwMCcsICctbWV0YWxfYmluZGluZycsICctaW1hZScsICc8aW5maWxlLm1hZT4nLCAnLW9tYWUnLCAnPG91dGZpbGUubWFlPic=

> <r_epik_Ionization_Penalty>
0.0634742

> <r_epik_Ionization_Penalty_Charging>
0

> <r_epik_Ionization_Penalty_Neutral>
0.0634742

> <r_epik_State_Penalty>
0.0551572

> <r_epik_Charging_Adjusted_Penalty>
0.0551572

> <i_epik_Tot_Q>
0

> <i_epik_Tot_abs_Q>
0

> <r_epik_Metal_State_Penalty>
5.78034e-05

> <b_epik_Metal_Only>
0

> <s_lp_Force_Field>
OPLS_2005

> <r_lp_Energy>
13.628

> <b_lp_Chiralities_Consistent>
1

> <s_lp_Variant>
AV-unprocessed.smi:849-2

> <Gold.Version>
5.8.1

> <Gold.Id.Protein>
6NUR|6NUR_protein|mol2

> <Gold.PLP.Fitness>
53.4591

> <Gold.PLP.PLP>
-51.3810

> <Gold.PLP.part.hbond>
-2.4723

> <Gold.PLP.part.metal>
0.0000

> <Gold.PLP.part.buried>
-3.3229

> <Gold.PLP.part.nonpolar>
-45.1496

> <Gold.PLP.part.repulsive>
0.1081

> <Gold.PLP.ligand.clash>
0.0000

> <Gold.PLP.ligand.torsion>
0.3024

> <Gold.PLP.Chemscore.Hbond>
0.8874

> <Gold.PLP.Chemscore.CHOScore>
0.0000

> <Gold.PLP.Chemscore.Metal>
0.0000

> <Gold.Chemscore.Hbonds>
donor molecule, donor type, donor heavy atom, donor atom, acceptor molecule, acceptor atom, score
      L1  H    14    32       P1  8028  0.15
      P1  H  7989  7998       L1     4  0.85

> <Gold.PLP.Chemscore.Internal.Correction>
0.0209

> <Gold.Rescore>
     Score         DG    S(hbond)    S(metal)    S(lipo)     H(rot)  DE(clash)    DE(int)     intcor
     12.28     -14.69       0.09        0.00     133.47       2.62       0.24       2.17       ----

> <Gold.Chemscore.Fitness>
12.2812

> <Gold.Chemscore.DG>
-14.6894

> <Gold.Chemscore.ZeroCoef>
-5.4800

> <Gold.Chemscore.Hbond>
0.0925

> <Gold.Chemscore.Metal>
0.0000

> <Gold.Chemscore.Lipo>
133.4696

> <Gold.Chemscore.Internal_Hbond>
0.0000

> <Gold.Chemscore.DEClash>
0.2420

> <Gold.Chemscore.DEInternal>
2.1661

> <Gold.Chemscore.Rot>
2.6232

> <Gold.Chemscore.Internal.Correction>
   9.000000E+99

> <Gold.Chemscore.Hbonds>
donor molecule, donor type, donor heavy atom, donor atom, acceptor molecule, acceptor atom, score
      L1  H    14    32       P1  8028  0.15
      P1  H  7989  7998       L1     4  0.14

> <Gold.Chemscore.Hbond.Weighted>
-0.3089

> <Gold.Chemscore.Metal.Weighted>
-0.0000

> <Gold.Chemscore.Lipo.Weighted>
-15.6159

> <Gold.Chemscore.Internal_Hbond.Weighted>
0.0000

> <Gold.Chemscore.DEClash.Weighted>
0.2420

> <Gold.Chemscore.DEInternal.Weighted>
2.1661

> <Gold.Chemscore.Rot.Weighted>
6.7154

> <Gold.Chemscore.Internal.Correction.Weighted>
   9.000000E+99

> <Gold.Protein.RotatedTorsions>
[ 6907 6896 6895 6894 ] final  136.94 input  -60.11 | X-H torsion
[ 7974 7965 7964 7962 ] final  145.58 input  175.53 | X-H torsion
[ 8008 7997 7996 7995 ] final -109.38 input   59.86 | X-H torsion
[ 10167 10162 10161 10158 ] final   98.26 input  -65.29 | X-H torsion
[ 10718 10713 10712 10709 ] final   44.20 input   66.30 | X-H torsion
[ 10763 10752 10751 10750 ] final  163.72 input  -60.55 | X-H torsion
[ 11005 11000 10999 10996 ] final  136.27 input  -57.11 | X-H torsion

> <Gold.Protein.ActiveResidues>
 VAL166  LYS551  ARG553  GLY616  TRP617  ASP618  TYR619  PRO620  LYS621  CYS622 
 ASP623  PHE694  ASN695  SER759  ASP760  ASP761  ALA762  ILE779  LEU786  VAL792 
 PHE793  MET794  SER795  GLU796  ALA797  LYS798  CYS799  TRP800  GLU811  SER814 

> <Gold.Protein.RotatedAtoms>
  152.2837  133.5495  159.5513 H   0  0  0  0  0  0  0  0  0  0  0  0  # atno 6907 bound_to 6896
  150.7206  134.0527  159.3813 H   0  0  0  0  0  0  0  0  0  0  0  0  # atno 6908 bound_to 6896
  151.8436  135.0582  160.0502 H   0  0  0  0  0  0  0  0  0  0  0  0  # atno 6909 bound_to 6896
  144.8741  139.5800  143.5873 H   0  0  0  0  0  0  0  0  0  0  0  0  # atno 7974 bound_to 7965
  154.9584  140.0399  157.2178 H   0  0  0  0  0  0  0  0  0  0  0  0  # atno 8008 bound_to 7997
  154.7912  140.2836  155.5968 H   0  0  0  0  0  0  0  0  0  0  0  0  # atno 8009 bound_to 7997
  156.2950  140.2573  156.2760 H   0  0  0  0  0  0  0  0  0  0  0  0  # atno 8010 bound_to 7997
  139.7725  144.6917  151.0135 H   0  0  0  0  0  0  0  0  0  0  0  0  # atno 10167 bound_to 10162
  157.4242  130.7987  149.7543 H   0  0  0  0  0  0  0  0  0  0  0  0  # atno 10718 bound_to 10713
  154.2980  135.2759  155.2624 H   0  0  0  0  0  0  0  0  0  0  0  0  # atno 10763 bound_to 10752
  154.5073  135.5792  153.6581 H   0  0  0  0  0  0  0  0  0  0  0  0  # atno 10764 bound_to 10752
  152.9904  135.6172  154.3149 H   0  0  0  0  0  0  0  0  0  0  0  0  # atno 10765 bound_to 10752
  140.0035  134.9469  157.0124 H   0  0  0  0  0  0  0  0  0  0  0  0  # atno 11005 bound_to 11000
  146.2950  139.7252  142.9133 LP  0  0  0  0  0  0  0  0  0  0  0  0  # atno 17320 bound_to 7965
  145.4076  141.0393  143.3035 LP  0  0  0  0  0  0  0  0  0  0  0  0  # atno 17321 bound_to 7965
  140.7815  143.4572  151.0328 LP  0  0  0  0  0  0  0  0  0  0  0  0  # atno 17342 bound_to 10162
  139.8255  143.7761  152.3178 LP  0  0  0  0  0  0  0  0  0  0  0  0  # atno 17343 bound_to 10162
  155.9891  130.3954  150.3090 LP  0  0  0  0  0  0  0  0  0  0  0  0  # atno 17370 bound_to 10713
  157.1240  131.0254  151.2997 LP  0  0  0  0  0  0  0  0  0  0  0  0  # atno 17371 bound_to 10713
  140.4684  134.1412  155.7200 LP  0  0  0  0  0  0  0  0  0  0  0  0  # atno 17394 bound_to 11000
  141.1660  133.8702  157.1714 LP  0  0  0  0  0  0  0  0  0  0  0  0  # atno 17395 bound_to 11000

$$$$
