#       Name:                AV-unprocessed.smi:1885
#       Creating user name   scv26
#       Creation time:       Fri Mar 27 09:38:18 2020


#       File generated by GOLD software.
#

@<TRIPOS>MOLECULE
AV-unprocessed.smi:1885
    50    52     1
SMALL
NO_CHARGES


@<TRIPOS>ATOM
      1 ****        -5.4678   1.5678  -0.6692 C.3            1 S1                 0.0000
      2 ****        -4.9018   0.7145   0.3147 O.3            1 S1                 0.0000
      3 ****        -3.5672   0.8742   0.6204 C.ar           1 S1                 0.0000
      4 ****        -2.7305   1.8627   0.0432 C.ar           1 S1                 0.0000
      5 ****        -1.3732   1.9508   0.4090 C.ar           1 S1                 0.0000
      6 ****        -0.8303   1.0522   1.3494 C.ar           1 S1                 0.0000
      7 ****         0.6333   1.1371   1.7337 C.3            1 S1                 0.0000
      8 ****         1.2533  -0.1371   1.6866 O.3            1 S1                 0.0000
      9 ****         2.6553  -0.0840   1.8933 C.3            1 S1                 0.0000
     10 ****         3.2724  -1.4789   1.6743 C.3            1 S1                 0.0000
     11 ****         3.1108  -2.2519   2.8446 O.3            1 S1                 0.0000
     12 ****         2.7377  -2.2565   0.4516 C.3            1 S1                 0.0000
     13 ****         2.6610  -1.4427  -0.7497 N.pl3          1 S1                 0.0000
     14 ****         3.6928  -0.9417  -1.4560 C.2            1 S1                 0.0000
     15 ****         3.3996  -0.2050  -2.5237 N.2            1 S1                 0.0000
     16 ****         2.0156  -0.2404  -2.5170 C.ar           1 S1                 0.0000
     17 ****         1.0792   0.3535  -3.3932 C.ar           1 S1                 0.0000
     18 ****        -0.3050   0.1746  -3.1897 C.ar           1 S1                 0.0000
     19 ****        -1.1885   0.7514  -4.0386 F              1 S1                 0.0000
     20 ****        -0.7734  -0.6014  -2.1091 C.ar           1 S1                 0.0000
     21 ****        -2.1039  -0.7697  -1.9219 F              1 S1                 0.0000
     22 ****         0.1404  -1.1990  -1.2204 C.ar           1 S1                 0.0000
     23 ****         1.5211  -1.0156  -1.4250 C.ar           1 S1                 0.0000
     24 ****        -1.6598   0.0752   1.9348 C.ar           1 S1                 0.0000
     25 ****        -3.0166  -0.0114   1.5694 C.ar           1 S1                 0.0000
     26 ****        -6.5168   1.3077  -0.8101 H              1 S1                 0.0000
     27 ****        -4.9671   1.4528  -1.6318 H              1 S1                 0.0000
     28 ****        -5.4260   2.6135  -0.3618 H              1 S1                 0.0000
     29 ****        -3.1051   2.5646  -0.6863 H              1 S1                 0.0000
     30 ****        -0.7490   2.7065  -0.0450 H              1 S1                 0.0000
     31 ****         1.1418   1.8234   1.0543 H              1 S1                 0.0000
     32 ****         0.7148   1.5526   2.7389 H              1 S1                 0.0000
     33 ****         3.0941   0.6102   1.1746 H              1 S1                 0.0000
     34 ****         2.8878   0.3010   2.8876 H              1 S1                 0.0000
     35 ****         4.3476  -1.3441   1.5501 H              1 S1                 0.0000
     36 ****         2.1855  -2.3612   3.0041 H              1 S1                 0.0000
     37 ****         3.3697  -3.1210   0.2451 H              1 S1                 0.0000
     38 ****         1.7418  -2.6467   0.6642 H              1 S1                 0.0000
     39 ****         4.7173  -1.1200  -1.1629 H              1 S1                 0.0000
     40 ****         1.4260   0.9480  -4.2253 H              1 S1                 0.0000
     41 ****        -0.2189  -1.7841  -0.3872 H              1 S1                 0.0000
     42 ****        -1.2559  -0.6151   2.6609 H              1 S1                 0.0000
     43 ****        -3.6413  -0.7687   2.0200 H              1 S1                 0.0000
     44 ****        -5.0237  -0.2261  -0.0020 LP             1 S1                 0.0000
     45 ****        -5.4187   0.8514   1.1597 LP             1 S1                 0.0000
     46 ****         1.0794  -0.5421   0.7890 LP             1 S1                 0.0000
     47 ****         0.8489  -0.7137   2.3965 LP             1 S1                 0.0000
     48 ****         3.5343  -1.7835   3.6200 LP             1 S1                 0.0000
     49 ****         3.5402  -3.1464   2.7206 LP             1 S1                 0.0000
     50 ****         4.0165   0.2539  -3.1632 LP             1 S1                 0.0000
@<TRIPOS>BOND
    1    1    2 1     
    2    1   26 1     
    3    1   27 1     
    4    1   28 1     
    5    2    3 1     
    6    3   25 ar    
    7    3    4 ar    
    8    4    5 ar    
    9    4   29 1     
   10    5    6 ar    
   11    5   30 1     
   12    6    7 1     
   13    6   24 ar    
   14    7    8 1     
   15    7   31 1     
   16    7   32 1     
   17    8    9 1     
   18    9   10 1     
   19    9   33 1     
   20    9   34 1     
   21   10   11 1     
   22   10   12 1     
   23   10   35 1     
   24   11   36 1     
   25   12   13 1     
   26   12   37 1     
   27   12   38 1     
   28   13   23 1     
   29   13   14 1     
   30   14   15 2     
   31   14   39 1     
   32   15   16 1     
   33   16   23 ar    
   34   16   17 ar    
   35   17   18 ar    
   36   17   40 1     
   37   18   19 1     
   38   18   20 ar    
   39   20   21 1     
   40   20   22 ar    
   41   22   23 ar    
   42   22   41 1     
   43   24   25 ar    
   44   24   42 1     
   45   25   43 1     
   46    2   44 1     
   47    2   45 1     
   48    8   46 1     
   49    8   47 1     
   50   11   48 1     
   51   11   49 1     
   52   15   50 1     
@<TRIPOS>SUBSTRUCTURE
      1 S1             1
@<TRIPOS>SET
LONE_PAIRS      STATIC     ATOMS    <user>   **** ""
7 44 45 46 47 48 49 50
DONOR_HYDROGENS      STATIC     ATOMS    <user>   **** ""
1 36
ATOM$BLUE        STATIC     ATOMS    COLORGROUP SYSTEM
7 44 45 46 47 48 49 50
ATOM$RED        STATIC     ATOMS    COLORGROUP SYSTEM
1 36
