AV-unprocessed.smi:2888|AV-procd|sdf|11100|dock3
  -GOLD-   2272015573D 1   1.00000     0.00000
 Structure written by MMmdl.
 33 35  0  0  0  0  0  0  0  0  1 V2000
  153.6520  141.0790  159.9951 C   0  0  0  0  0  0  0  0  0  0  0  0
  152.7842  142.2120  159.4906 C   0  0  0  0  0  0  0  0  0  0  0  0
  152.7924  143.4807  160.1072 C   0  0  0  0  0  0  0  0  0  0  0  0
  151.9385  144.4506  159.5411 C   0  0  0  0  0  0  0  0  0  0  0  0
  151.8523  145.8540  160.1023 C   0  0  0  0  0  0  0  0  0  0  0  0
  151.1607  144.1769  158.4700 N   0  0  0  0  0  0  0  0  0  0  0  0
  151.2354  142.9431  157.9642 C   0  0  0  0  0  0  0  0  0  0  0  0
  150.4333  142.7018  156.8641 N   0  0  0  0  0  0  0  0  0  0  0  0
  150.7097  141.6914  155.8507 C   0  0  2  0  0  0  0  0  0  0  0  0
  149.5278  141.4569  154.9015 C   0  0  0  0  0  0  0  0  0  0  0  0
  149.2970  139.9482  155.0508 C   0  0  1  0  0  0  0  0  0  0  0  0
  150.4387  139.1221  154.4423 C   0  0  0  0  0  0  0  0  0  0  0  0
  151.5577  139.3383  155.4608 C   0  0  0  0  0  0  0  0  0  0  0  0
  150.8937  140.2925  156.4628 C   0  0  2  0  0  0  0  0  0  0  0  0
  149.5665  139.7917  156.4327 O   0  0  0  0  0  0  0  0  0  0  0  0
  152.0055  141.9470  158.4190 N   0  0  0  0  0  0  0  0  0  0  0  0
  154.1801  141.3627  160.9059 H   0  0  0  0  0  0  0  0  0  0  0  0
  154.3915  140.8059  159.2420 H   0  0  0  0  0  0  0  0  0  0  0  0
  153.0428  140.2018  160.2143 H   0  0  0  0  0  0  0  0  0  0  0  0
  153.4167  143.6969  160.9617 H   0  0  0  0  0  0  0  0  0  0  0  0
  152.4249  145.9443  161.0256 H   0  0  0  0  0  0  0  0  0  0  0  0
  150.8160  146.1152  160.3183 H   0  0  0  0  0  0  0  0  0  0  0  0
  152.2464  146.5732  159.3842 H   0  0  0  0  0  0  0  0  0  0  0  0
  149.7064  143.3755  156.6716 H   0  0  0  0  0  0  0  0  0  0  0  0
  151.6088  141.9781  155.3035 H   0  0  0  0  0  0  0  0  0  0  0  0
  148.6397  142.0051  155.2200 H   0  0  0  0  0  0  0  0  0  0  0  0
  149.7508  141.7462  153.8739 H   0  0  0  0  0  0  0  0  0  0  0  0
  148.3021  139.6213  154.7475 H   0  0  0  0  0  0  0  0  0  0  0  0
  150.1706  138.0664  154.3870 H   0  0  0  0  0  0  0  0  0  0  0  0
  150.7047  139.4610  153.4405 H   0  0  0  0  0  0  0  0  0  0  0  0
  151.8223  138.3964  155.9426 H   0  0  0  0  0  0  0  0  0  0  0  0
  152.4602  139.7596  155.0169 H   0  0  0  0  0  0  0  0  0  0  0  0
  151.3619  140.2853  157.4480 H   0  0  0  0  0  0  0  0  0  0  0  0
  1  2  1  0  0  0  0
  1 17  1  0  0  0  0
  1 18  1  0  0  0  0
  1 19  1  0  0  0  0
  2 16  1  0  0  0  0
  2  3  2  0  0  0  0
  3  4  1  0  0  0  0
  3 20  1  0  0  0  0
  4  5  1  0  0  0  0
  4  6  2  0  0  0  0
  5 21  1  0  0  0  0
  5 22  1  0  0  0  0
  5 23  1  0  0  0  0
  6  7  1  0  0  0  0
  7  8  1  0  0  0  0
  7 16  2  0  0  0  0
  8  9  1  0  0  0  0
  8 24  1  0  0  0  0
  9 14  1  0  0  0  0
  9 10  1  0  0  0  0
  9 25  1  0  0  0  0
 10 11  1  0  0  0  0
 10 26  1  0  0  0  0
 10 27  1  0  0  0  0
 11 15  1  0  0  0  0
 11 12  1  0  0  0  0
 11 28  1  0  0  0  0
 12 13  1  0  0  0  0
 12 29  1  0  0  0  0
 12 30  1  0  0  0  0
 13 14  1  0  0  0  0
 13 31  1  0  0  0  0
 13 32  1  0  0  0  0
 14 15  1  0  0  0  0
 14 33  1  0  0  0  0
M  END
> <s_m_source_file>
AV-unprocessed.smi

> <i_m_source_file_index>
2888

> <i_lp_mmshare_version>
43012

> <i_f3d_flags>
0

> <s_epik_input>
W0NIM11jMVtjSF1jKFtDSDNdKW5jKG4xKVtOSF1bQ0BIXShbQ0gyXVtDQEBIXTIzKVtDQEBIXShPMylbQ0gyXVtDSDJdMg==

> <s_epik_cmdline>
J2VwaWtfcHl0aG9uJywgJy1waCcsICc3LjAnLCAnLXRuJywgJzgnLCAnLW1hJywgJzIwMCcsICctbWV0YWxfYmluZGluZycsICctaW1hZScsICc8aW5maWxlLm1hZT4nLCAnLW9tYWUnLCAnPG91dGZpbGUubWFlPic=

> <r_lp_tautomer_probability>
1

> <r_epik_Ionization_Penalty>
0.00890508

> <r_epik_Ionization_Penalty_Charging>
0

> <r_epik_Ionization_Penalty_Neutral>
0.00890508

> <r_epik_State_Penalty>
0.0067342

> <r_epik_Charging_Adjusted_Penalty>
0.0067342

> <i_epik_Tot_Q>
0

> <i_epik_Tot_abs_Q>
0

> <r_epik_Metal_State_Penalty>
0.00663442

> <b_epik_Metal_Only>
0

> <s_lp_Force_Field>
OPLS_2005

> <r_lp_Energy>
31.5378

> <b_lp_Chiralities_Consistent>
1

> <s_lp_Variant>
AV-unprocessed.smi:2888-1

> <Gold.Version>
5.8.1

> <Gold.Id.Protein>
6NUR|6NUR_protein|mol2

> <Gold.PLP.Fitness>
41.6304

> <Gold.PLP.PLP>
-39.0298

> <Gold.PLP.part.hbond>
-1.0000

> <Gold.PLP.part.metal>
0.0000

> <Gold.PLP.part.buried>
-4.1488

> <Gold.PLP.part.nonpolar>
-33.5656

> <Gold.PLP.part.repulsive>
0.1650

> <Gold.PLP.ligand.clash>
0.0000

> <Gold.PLP.ligand.torsion>
0.2091

> <Gold.PLP.Chemscore.Hbond>
1.0000

> <Gold.PLP.Chemscore.CHOScore>
0.0000

> <Gold.PLP.Chemscore.Metal>
0.0000

> <Gold.Chemscore.Hbonds>
donor molecule, donor type, donor heavy atom, donor atom, acceptor molecule, acceptor atom, score
      L1  H     8    24       P1  8028  1.00

> <Gold.PLP.Chemscore.Internal.Correction>
0.0187

> <Gold.Rescore>
     Score         DG    S(hbond)    S(metal)    S(lipo)     H(rot)  DE(clash)    DE(int)     intcor
     15.89     -17.61       0.99        0.00      97.23       1.00       0.13       1.58       ----

> <Gold.Chemscore.Fitness>
15.8881

> <Gold.Chemscore.DG>
-17.6054

> <Gold.Chemscore.ZeroCoef>
-5.4800

> <Gold.Chemscore.Hbond>
0.9910

> <Gold.Chemscore.Metal>
0.0000

> <Gold.Chemscore.Lipo>
97.2259

> <Gold.Chemscore.Internal_Hbond>
0.0000

> <Gold.Chemscore.DEClash>
0.1334

> <Gold.Chemscore.DEInternal>
1.5839

> <Gold.Chemscore.Rot>
1.0000

> <Gold.Chemscore.Internal.Correction>
   9.000000E+99

> <Gold.Chemscore.Hbonds>
donor molecule, donor type, donor heavy atom, donor atom, acceptor molecule, acceptor atom, score
      L1  H     8    24       P1  8028  0.98

> <Gold.Chemscore.Hbond.Weighted>
-3.3100

> <Gold.Chemscore.Metal.Weighted>
-0.0000

> <Gold.Chemscore.Lipo.Weighted>
-11.3754

> <Gold.Chemscore.Internal_Hbond.Weighted>
0.0000

> <Gold.Chemscore.DEClash.Weighted>
0.1334

> <Gold.Chemscore.DEInternal.Weighted>
1.5839

> <Gold.Chemscore.Rot.Weighted>
2.5600

> <Gold.Chemscore.Internal.Correction.Weighted>
   9.000000E+99

> <Gold.Protein.RotatedTorsions>
[ 6907 6896 6895 6894 ] final  -29.68 input  -60.11 | X-H torsion
[ 7974 7965 7964 7962 ] final  155.05 input  175.53 | X-H torsion
[ 8008 7997 7996 7995 ] final   66.36 input   59.86 | X-H torsion
[ 10167 10162 10161 10158 ] final   40.28 input  -65.29 | X-H torsion
[ 10718 10713 10712 10709 ] final  -63.24 input   66.30 | X-H torsion
[ 10763 10752 10751 10750 ] final  142.41 input  -60.55 | X-H torsion
[ 11005 11000 10999 10996 ] final  -79.62 input  -57.11 | X-H torsion

> <Gold.Protein.ActiveResidues>
 VAL166  LYS551  ARG553  GLY616  TRP617  ASP618  TYR619  PRO620  LYS621  CYS622 
 ASP623  PHE694  ASN695  SER759  ASP760  ASP761  ALA762  ILE779  LEU786  VAL792 
 PHE793  MET794  SER795  GLU796  ALA797  LYS798  CYS799  TRP800  GLU811  SER814 

> <Gold.Protein.RotatedAtoms>
  151.1159  135.0052  159.8515 H   0  0  0  0  0  0  0  0  0  0  0  0  # atno 6907 bound_to 6896
  152.5445  134.1780  159.8634 H   0  0  0  0  0  0  0  0  0  0  0  0  # atno 6908 bound_to 6896
  151.1834  133.4666  159.2627 H   0  0  0  0  0  0  0  0  0  0  0  0  # atno 6909 bound_to 6896
  144.8049  139.7016  143.6166 H   0  0  0  0  0  0  0  0  0  0  0  0  # atno 7974 bound_to 7965
  155.6761  140.3497  155.4837 H   0  0  0  0  0  0  0  0  0  0  0  0  # atno 8008 bound_to 7997
  155.9646  140.1144  157.0888 H   0  0  0  0  0  0  0  0  0  0  0  0  # atno 8009 bound_to 7997
  154.4151  140.1169  156.5211 H   0  0  0  0  0  0  0  0  0  0  0  0  # atno 8010 bound_to 7997
  140.3757  144.2046  150.6131 H   0  0  0  0  0  0  0  0  0  0  0  0  # atno 10167 bound_to 10162
  156.0803  130.4218  150.1249 H   0  0  0  0  0  0  0  0  0  0  0  0  # atno 10718 bound_to 10713
  153.9553  135.2966  155.3436 H   0  0  0  0  0  0  0  0  0  0  0  0  # atno 10763 bound_to 10752
  154.7404  135.5027  153.9116 H   0  0  0  0  0  0  0  0  0  0  0  0  # atno 10764 bound_to 10752
  153.0973  135.6725  153.9847 H   0  0  0  0  0  0  0  0  0  0  0  0  # atno 10765 bound_to 10752
  141.1667  133.7114  156.8150 H   0  0  0  0  0  0  0  0  0  0  0  0  # atno 11005 bound_to 11000
  146.2338  139.5866  142.9537 LP  0  0  0  0  0  0  0  0  0  0  0  0  # atno 17320 bound_to 7965
  145.5462  141.0417  143.2303 LP  0  0  0  0  0  0  0  0  0  0  0  0  # atno 17321 bound_to 7965
  140.4988  143.2324  151.8709 LP  0  0  0  0  0  0  0  0  0  0  0  0  # atno 17342 bound_to 10162
  139.4799  144.5082  151.8968 LP  0  0  0  0  0  0  0  0  0  0  0  0  # atno 17343 bound_to 10162
  156.9282  130.9705  151.3537 LP  0  0  0  0  0  0  0  0  0  0  0  0  # atno 17370 bound_to 10713
  157.5917  130.8448  149.8669 LP  0  0  0  0  0  0  0  0  0  0  0  0  # atno 17371 bound_to 10713
  140.2160  134.8792  157.3326 LP  0  0  0  0  0  0  0  0  0  0  0  0  # atno 17394 bound_to 11000
  140.2037  134.4223  155.7649 LP  0  0  0  0  0  0  0  0  0  0  0  0  # atno 17395 bound_to 11000

$$$$
