AV-unprocessed.smi:2885|AV-procd|sdf|11086|dock7
  -GOLD-   2272015563D 1   1.00000     0.00000
 Structure written by MMmdl.
 40 42  0  0  0  0  0  0  0  0  1 V2000
  143.4830  142.2235  155.2352 N   0  0  0  0  0  0  0  0  0  0  0  0
  144.6956  142.6195  155.6321 C   0  0  0  0  0  0  0  0  0  0  0  0
  144.8565  143.5182  156.4551 O   0  0  0  0  0  0  0  0  0  0  0  0
  145.8317  141.9286  154.9639 C   0  0  0  0  0  0  0  0  0  0  0  0
  147.1598  142.2910  154.9984 C   0  0  0  0  0  0  0  0  0  0  0  0
  147.8459  141.3816  154.2024 N   0  0  0  0  0  0  0  0  0  0  0  0
  149.2799  141.3966  153.9427 C   0  0  0  0  0  0  0  0  0  0  0  0
  150.0952  141.1143  155.2076 C   0  0  0  0  0  0  0  0  0  0  0  0
  150.4049  139.9575  155.4908 O   0  0  0  0  0  0  0  0  0  0  0  0
  150.4526  142.1771  155.9456 N   0  0  0  0  0  0  0  0  0  0  0  0
  151.3395  142.1340  157.1005 C   0  0  0  0  0  0  0  0  0  0  0  0
  152.0549  143.4703  157.2857 C   0  0  0  0  0  0  0  0  0  0  0  0
  153.2102  143.5847  158.2901 C   0  0  0  0  0  0  0  0  0  0  0  0
  152.7432  145.0113  158.5938 C   0  0  0  0  0  0  0  0  0  0  0  0
  151.3669  144.6046  158.0607 C   0  0  0  0  0  0  0  0  0  0  0  0
  146.9165  140.5195  153.7405 C   0  0  0  0  0  0  0  0  0  0  0  0
  147.2334  139.3918  152.8098 C   0  0  0  0  0  0  0  0  0  0  0  0
  146.5635  139.2835  151.4581 C   0  0  0  0  0  0  0  0  0  0  0  0
  146.2302  138.2919  152.5421 C   0  0  0  0  0  0  0  0  0  0  0  0
  145.6851  140.8139  154.1439 N   0  0  0  0  0  0  0  0  0  0  0  0
  142.6609  142.6502  155.6368 H   0  0  0  0  0  0  0  0  0  0  0  0
  143.3941  141.5057  154.5314 H   0  0  0  0  0  0  0  0  0  0  0  0
  147.6618  143.1043  155.5017 H   0  0  0  0  0  0  0  0  0  0  0  0
  149.5158  140.6440  153.1893 H   0  0  0  0  0  0  0  0  0  0  0  0
  149.5544  142.3643  153.5222 H   0  0  0  0  0  0  0  0  0  0  0  0
  150.1484  143.0897  155.6389 H   0  0  0  0  0  0  0  0  0  0  0  0
  150.7383  141.8986  157.9789 H   0  0  0  0  0  0  0  0  0  0  0  0
  152.0585  141.3204  156.9937 H   0  0  0  0  0  0  0  0  0  0  0  0
  152.3949  143.8644  156.3252 H   0  0  0  0  0  0  0  0  0  0  0  0
  153.0995  142.9148  159.1444 H   0  0  0  0  0  0  0  0  0  0  0  0
  154.2054  143.5138  157.8500 H   0  0  0  0  0  0  0  0  0  0  0  0
  152.7632  145.2840  159.6493 H   0  0  0  0  0  0  0  0  0  0  0  0
  153.2344  145.7600  157.9702 H   0  0  0  0  0  0  0  0  0  0  0  0
  150.8770  145.3514  157.4350 H   0  0  0  0  0  0  0  0  0  0  0  0
  150.7018  144.2394  158.8452 H   0  0  0  0  0  0  0  0  0  0  0  0
  148.2856  139.1215  152.8763 H   0  0  0  0  0  0  0  0  0  0  0  0
  145.8048  140.0219  151.2053 H   0  0  0  0  0  0  0  0  0  0  0  0
  147.1688  138.9330  150.6247 H   0  0  0  0  0  0  0  0  0  0  0  0
  146.6148  137.2795  152.4376 H   0  0  0  0  0  0  0  0  0  0  0  0
  145.2500  138.3733  153.0076 H   0  0  0  0  0  0  0  0  0  0  0  0
  1  2  1  0  0  0  0
  1 21  1  0  0  0  0
  1 22  1  0  0  0  0
  2  3  2  0  0  0  0
  2  4  1  0  0  0  0
  4 20  1  0  0  0  0
  4  5  2  0  0  0  0
  5  6  1  0  0  0  0
  5 23  1  0  0  0  0
  6  7  1  0  0  0  0
  6 16  1  0  0  0  0
  7  8  1  0  0  0  0
  7 24  1  0  0  0  0
  7 25  1  0  0  0  0
  8  9  2  0  0  0  0
  8 10  1  0  0  0  0
 10 11  1  0  0  0  0
 10 26  1  0  0  0  0
 11 12  1  0  0  0  0
 11 27  1  0  0  0  0
 11 28  1  0  0  0  0
 12 15  1  0  0  0  0
 12 13  1  0  0  0  0
 12 29  1  0  0  0  0
 13 14  1  0  0  0  0
 13 30  1  0  0  0  0
 13 31  1  0  0  0  0
 14 15  1  0  0  0  0
 14 32  1  0  0  0  0
 14 33  1  0  0  0  0
 15 34  1  0  0  0  0
 15 35  1  0  0  0  0
 16 17  1  0  0  0  0
 16 20  2  0  0  0  0
 17 19  1  0  0  0  0
 17 18  1  0  0  0  0
 17 36  1  0  0  0  0
 18 19  1  0  0  0  0
 18 37  1  0  0  0  0
 18 38  1  0  0  0  0
 19 39  1  0  0  0  0
 19 40  1  0  0  0  0
M  END
> <s_m_source_file>
AV-unprocessed.smi

> <i_m_source_file_index>
2885

> <i_lp_mmshare_version>
43012

> <i_f3d_flags>
0

> <s_epik_input>
W05IMl1DKD1PKWMxW2NIXW4oYyhuMSlbQ0hdMltDSDJdW0NIMl0yKVtDSDJdQyg9TylbTkhdW0NIMl1bQ0hdM1tDSDJdW0NIMl1bQ0gyXTM=

> <s_epik_cmdline>
J2VwaWtfcHl0aG9uJywgJy1waCcsICc3LjAnLCAnLXRuJywgJzgnLCAnLW1hJywgJzIwMCcsICctbWV0YWxfYmluZGluZycsICctaW1hZScsICc8aW5maWxlLm1hZT4nLCAnLW9tYWUnLCAnPG91dGZpbGUubWFlPic=

> <r_lp_tautomer_probability>
1

> <r_epik_Ionization_Penalty>
0.00135877

> <r_epik_Ionization_Penalty_Charging>
0.00135847

> <r_epik_Ionization_Penalty_Neutral>
3.0068e-07

> <r_epik_State_Penalty>
0.000904027

> <r_epik_Charging_Adjusted_Penalty>
0.00226249

> <i_epik_Tot_Q>
0

> <i_epik_Tot_abs_Q>
0

> <r_epik_Metal_State_Penalty>
-0

> <b_epik_Metal_Only>
0

> <s_lp_Force_Field>
OPLS_2005

> <r_lp_Energy>
17.7141

> <b_lp_Chiralities_Consistent>
1

> <s_lp_Variant>
AV-unprocessed.smi:2885-1

> <Gold.Version>
5.8.1

> <Gold.Id.Protein>
6NUR|6NUR_protein|mol2

> <Gold.PLP.Fitness>
45.9383

> <Gold.PLP.PLP>
-39.0040

> <Gold.PLP.part.hbond>
-3.0000

> <Gold.PLP.part.metal>
0.0000

> <Gold.PLP.part.buried>
-0.1468

> <Gold.PLP.part.nonpolar>
-39.3232

> <Gold.PLP.part.repulsive>
3.3764

> <Gold.PLP.ligand.clash>
0.0000

> <Gold.PLP.ligand.torsion>
0.9903

> <Gold.PLP.Chemscore.Hbond>
1.9913

> <Gold.PLP.Chemscore.CHOScore>
0.8867

> <Gold.PLP.Chemscore.Metal>
0.0000

> <Gold.Chemscore.Hbonds>
donor molecule, donor type, donor heavy atom, donor atom, acceptor molecule, acceptor atom, score
      L1  H     1    22       P1 10175  0.40
      L1  H    10    26       P1  8028  0.93
      L1  C     5    23       P1  8028  0.92

> <Gold.PLP.Chemscore.Internal.Correction>
0.2809

> <Gold.Rescore>
     Score         DG    S(hbond)    S(metal)    S(lipo)     H(rot)  DE(clash)    DE(int)     intcor
     13.34     -15.71       1.00        0.00     102.20       1.98       1.57       0.79       ----

> <Gold.Chemscore.Fitness>
13.3443

> <Gold.Chemscore.DG>
-15.7099

> <Gold.Chemscore.ZeroCoef>
-5.4800

> <Gold.Chemscore.Hbond>
0.9998

> <Gold.Chemscore.Metal>
0.0000

> <Gold.Chemscore.Lipo>
102.1978

> <Gold.Chemscore.Internal_Hbond>
0.0000

> <Gold.Chemscore.DEClash>
1.5713

> <Gold.Chemscore.DEInternal>
0.7943

> <Gold.Chemscore.Rot>
1.9791

> <Gold.Chemscore.Internal.Correction>
   9.000000E+99

> <Gold.Chemscore.Hbonds>
donor molecule, donor type, donor heavy atom, donor atom, acceptor molecule, acceptor atom, score
      L1  H     1    22       P1 10175  0.09
      L1  H    10    26       P1  8028  0.86

> <Gold.Chemscore.Hbond.Weighted>
-3.3393

> <Gold.Chemscore.Metal.Weighted>
-0.0000

> <Gold.Chemscore.Lipo.Weighted>
-11.9571

> <Gold.Chemscore.Internal_Hbond.Weighted>
0.0000

> <Gold.Chemscore.DEClash.Weighted>
1.5713

> <Gold.Chemscore.DEInternal.Weighted>
0.7943

> <Gold.Chemscore.Rot.Weighted>
5.0665

> <Gold.Chemscore.Internal.Correction.Weighted>
   9.000000E+99

> <Gold.Protein.RotatedTorsions>
[ 6907 6896 6895 6894 ] final  164.03 input  -60.11 | X-H torsion
[ 7974 7965 7964 7962 ] final  154.12 input  175.53 | X-H torsion
[ 8008 7997 7996 7995 ] final   39.74 input   59.86 | X-H torsion
[ 10167 10162 10161 10158 ] final  -75.86 input  -65.29 | X-H torsion
[ 10718 10713 10712 10709 ] final  179.36 input   66.30 | X-H torsion
[ 10763 10752 10751 10750 ] final -150.87 input  -60.55 | X-H torsion
[ 11005 11000 10999 10996 ] final -114.71 input  -57.11 | X-H torsion

> <Gold.Protein.ActiveResidues>
 VAL166  LYS551  ARG553  GLY616  TRP617  ASP618  TYR619  PRO620  LYS621  CYS622 
 ASP623  PHE694  ASN695  SER759  ASP760  ASP761  ALA762  ILE779  LEU786  VAL792 
 PHE793  MET794  SER795  GLU796  ALA797  LYS798  CYS799  TRP800  GLU811  SER814 

> <Gold.Protein.RotatedAtoms>
  151.9162  133.3573  159.3880 H   0  0  0  0  0  0  0  0  0  0  0  0  # atno 6907 bound_to 6896
  150.7047  134.4682  159.5422 H   0  0  0  0  0  0  0  0  0  0  0  0  # atno 6908 bound_to 6896
  152.2297  134.8334  160.0526 H   0  0  0  0  0  0  0  0  0  0  0  0  # atno 6909 bound_to 6896
  144.8109  139.6892  143.6142 H   0  0  0  0  0  0  0  0  0  0  0  0  # atno 7974 bound_to 7965
  155.2417  140.3346  155.4291 H   0  0  0  0  0  0  0  0  0  0  0  0  # atno 8008 bound_to 7997
  156.2253  140.1826  156.7423 H   0  0  0  0  0  0  0  0  0  0  0  0  # atno 8009 bound_to 7997
  154.5889  140.0641  156.9196 H   0  0  0  0  0  0  0  0  0  0  0  0  # atno 8010 bound_to 7997
  140.4907  143.2381  151.7912 H   0  0  0  0  0  0  0  0  0  0  0  0  # atno 10167 bound_to 10162
  156.8768  130.9802  151.3067 H   0  0  0  0  0  0  0  0  0  0  0  0  # atno 10718 bound_to 10713
  154.8092  135.3274  154.7349 H   0  0  0  0  0  0  0  0  0  0  0  0  # atno 10763 bound_to 10752
  153.8002  135.6904  153.4861 H   0  0  0  0  0  0  0  0  0  0  0  0  # atno 10764 bound_to 10752
  153.1859  135.4569  155.0034 H   0  0  0  0  0  0  0  0  0  0  0  0  # atno 10765 bound_to 10752
  141.0534  133.9651  157.2796 H   0  0  0  0  0  0  0  0  0  0  0  0  # atno 11005 bound_to 11000
  146.2407  139.5996  142.9493 LP  0  0  0  0  0  0  0  0  0  0  0  0  # atno 17320 bound_to 7965
  145.5326  141.0426  143.2374 LP  0  0  0  0  0  0  0  0  0  0  0  0  # atno 17321 bound_to 7965
  139.4850  144.4653  151.9491 LP  0  0  0  0  0  0  0  0  0  0  0  0  # atno 17342 bound_to 10162
  140.3740  144.2820  150.5916 LP  0  0  0  0  0  0  0  0  0  0  0  0  # atno 17343 bound_to 10162
  157.6163  130.8621  149.9034 LP  0  0  0  0  0  0  0  0  0  0  0  0  # atno 17370 bound_to 10713
  156.0697  130.3687  150.0801 LP  0  0  0  0  0  0  0  0  0  0  0  0  # atno 17371 bound_to 10713
  139.9370  135.0195  156.8586 LP  0  0  0  0  0  0  0  0  0  0  0  0  # atno 17394 bound_to 11000
  140.6011  134.0171  155.7537 LP  0  0  0  0  0  0  0  0  0  0  0  0  # atno 17395 bound_to 11000

$$$$
