AV-unprocessed.smi:765|AV-procd|sdf|3650|dock3
  -GOLD-   22720 1 53D 1   1.00000     0.00000
 Structure written by MMmdl.
 39 40  0  0  0  0  0  0  0  0  1 V2000
  150.9360  142.2278  157.7388 C   0  0  0  0  0  0  0  0  0  0  0  0
  150.6179  140.7424  157.5198 C   0  0  1  0  0  0  0  0  0  0  0  0
  150.8604  140.3235  156.0585 C   0  0  0  0  0  0  0  0  0  0  0  0
  150.5557  138.8347  155.8374 C   0  0  0  0  0  0  0  0  0  0  0  0
  151.3530  137.9501  156.8133 C   0  0  0  0  0  0  0  0  0  0  0  0
  151.1201  138.3340  158.2913 C   0  0  2  0  0  0  0  0  0  0  0  0
  152.0212  137.5262  159.1347 C   0  0  0  0  0  0  0  0  0  0  0  0
  152.7274  136.8932  159.7978 N   0  0  0  0  0  0  0  0  0  0  0  0
  149.7186  138.0576  158.6179 N   0  0  0  0  0  0  0  0  0  0  0  0
  149.1593  136.8591  158.8544 C   0  0  0  0  0  0  0  0  0  0  0  0
  149.7506  135.7921  158.6876 O   0  0  0  0  0  0  0  0  0  0  0  0
  147.7213  136.8908  159.3970 C   0  0  1  0  0  0  0  0  0  0  0  0
  146.7141  136.1554  158.4894 C   0  0  0  0  0  0  0  0  0  0  0  0
  147.6964  136.3810  160.7646 N   0  0  0  0  0  0  0  0  0  0  0  0
  147.7689  135.0677  161.1837 C   0  0  0  0  0  0  0  0  0  0  0  0
  147.6487  135.0628  162.5437 C   0  0  0  0  0  0  0  0  0  0  0  0
  147.4949  136.4375  162.8742 C   0  0  0  0  0  0  0  0  0  0  0  0
  147.5174  137.2223  161.8100 N   0  0  0  0  0  0  0  0  0  0  0  0
  151.4323  139.8417  158.4736 C   0  0  0  0  0  0  0  0  0  0  0  0
  151.9851  142.4443  157.5352 H   0  0  0  0  0  0  0  0  0  0  0  0
  150.7268  142.5258  158.7665 H   0  0  0  0  0  0  0  0  0  0  0  0
  150.3326  142.8579  157.0849 H   0  0  0  0  0  0  0  0  0  0  0  0
  149.5577  140.6081  157.7382 H   0  0  0  0  0  0  0  0  0  0  0  0
  150.2437  140.9252  155.3898 H   0  0  0  0  0  0  0  0  0  0  0  0
  151.8973  140.5243  155.7852 H   0  0  0  0  0  0  0  0  0  0  0  0
  149.4865  138.6579  155.9598 H   0  0  0  0  0  0  0  0  0  0  0  0
  150.7941  138.5586  154.8099 H   0  0  0  0  0  0  0  0  0  0  0  0
  151.0973  136.9019  156.6526 H   0  0  0  0  0  0  0  0  0  0  0  0
  152.4155  138.0385  156.5812 H   0  0  0  0  0  0  0  0  0  0  0  0
  149.1379  138.8689  158.7708 H   0  0  0  0  0  0  0  0  0  0  0  0
  147.4186  137.9385  159.4366 H   0  0  0  0  0  0  0  0  0  0  0  0
  146.6919  136.5926  157.4906 H   0  0  0  0  0  0  0  0  0  0  0  0
  145.7048  136.2221  158.8965 H   0  0  0  0  0  0  0  0  0  0  0  0
  146.9570  135.0974  158.3819 H   0  0  0  0  0  0  0  0  0  0  0  0
  147.8939  134.2526  160.4863 H   0  0  0  0  0  0  0  0  0  0  0  0
  147.6630  134.2072  163.2023 H   0  0  0  0  0  0  0  0  0  0  0  0
  147.3639  136.8856  163.8482 H   0  0  0  0  0  0  0  0  0  0  0  0
  152.4963  140.0079  158.2985 H   0  0  0  0  0  0  0  0  0  0  0  0
  151.2559  140.1437  159.5064 H   0  0  0  0  0  0  0  0  0  0  0  0
  1  2  1  0  0  0  0
  1 20  1  0  0  0  0
  1 21  1  0  0  0  0
  1 22  1  0  0  0  0
  2 19  1  0  0  0  0
  2  3  1  0  0  0  0
  2 23  1  0  0  0  0
  3  4  1  0  0  0  0
  3 24  1  0  0  0  0
  3 25  1  0  0  0  0
  4  5  1  0  0  0  0
  4 26  1  0  0  0  0
  4 27  1  0  0  0  0
  5  6  1  0  0  0  0
  5 28  1  0  0  0  0
  5 29  1  0  0  0  0
  6  7  1  0  0  0  0
  6  9  1  0  0  0  0
  6 19  1  0  0  0  0
  7  8  3  0  0  0  0
  9 10  1  0  0  0  0
  9 30  1  0  0  0  0
 10 11  2  0  0  0  0
 10 12  1  0  0  0  0
 12 13  1  0  0  0  0
 12 14  1  0  0  0  0
 12 31  1  0  0  0  0
 13 32  1  0  0  0  0
 13 33  1  0  0  0  0
 13 34  1  0  0  0  0
 14 18  1  0  0  0  0
 14 15  1  0  0  0  0
 15 16  2  0  0  0  0
 15 35  1  0  0  0  0
 16 17  1  0  0  0  0
 16 36  1  0  0  0  0
 17 18  2  0  0  0  0
 17 37  1  0  0  0  0
 19 38  1  0  0  0  0
 19 39  1  0  0  0  0
M  END
> <s_m_source_file>
AV-unprocessed.smi

> <i_m_source_file_index>
765

> <i_lp_mmshare_version>
43012

> <i_f3d_flags>
0

> <s_epik_input>
W0NIM11bQ0BASF0oW0NIMl0xKVtDSDJdW0NIMl1bQ0gyXVtDQEBdMShDI04pW05IXUMoPU8pW0NASF0oW0NIM10pbjJbY0hdW2NIXVtjSF1uMg==

> <s_epik_cmdline>
J2VwaWtfcHl0aG9uJywgJy1waCcsICc3LjAnLCAnLXRuJywgJzgnLCAnLW1hJywgJzIwMCcsICctbWV0YWxfYmluZGluZycsICctaW1hZScsICc8aW5maWxlLm1hZT4nLCAnLW9tYWUnLCAnPG91dGZpbGUubWFlPic=

> <r_lp_tautomer_probability>
1

> <r_epik_Ionization_Penalty>
2.71142e-05

> <r_epik_Ionization_Penalty_Charging>
0

> <r_epik_Ionization_Penalty_Neutral>
2.71142e-05

> <r_epik_State_Penalty>
-0

> <r_epik_Charging_Adjusted_Penalty>
0

> <i_epik_Tot_Q>
0

> <i_epik_Tot_abs_Q>
0

> <r_epik_Metal_State_Penalty>
-0

> <b_epik_Metal_Only>
0

> <s_lp_Force_Field>
OPLS_2005

> <r_lp_Energy>
11.0403

> <b_lp_Chiralities_Consistent>
1

> <s_lp_Variant>
AV-unprocessed.smi:765-8

> <Gold.Version>
5.8.1

> <Gold.Id.Protein>
6NUR|6NUR_protein|mol2

> <Gold.PLP.Fitness>
42.3754

> <Gold.PLP.PLP>
-32.4153

> <Gold.PLP.part.hbond>
-4.0000

> <Gold.PLP.part.metal>
0.0000

> <Gold.PLP.part.buried>
-5.6249

> <Gold.PLP.part.nonpolar>
-23.2588

> <Gold.PLP.part.repulsive>
0.1740

> <Gold.PLP.ligand.clash>
0.0000

> <Gold.PLP.ligand.torsion>
0.6081

> <Gold.PLP.Chemscore.Hbond>
3.6880

> <Gold.PLP.Chemscore.CHOScore>
0.0000

> <Gold.PLP.Chemscore.Metal>
0.0000

> <Gold.Chemscore.Hbonds>
donor molecule, donor type, donor heavy atom, donor atom, acceptor molecule, acceptor atom, score
      P1  H  6896  6908       L1    11  0.94
      P1  H  6896  6909       L1     8  0.99
      P1  H  6931  6943       L1    18  0.94
      P1  H  6934  6947       L1    18  0.74

> <Gold.PLP.Chemscore.Internal.Correction>
0.1123

> <Gold.Rescore>
     Score         DG    S(hbond)    S(metal)    S(lipo)     H(rot)  DE(clash)    DE(int)     intcor
     17.73     -20.00       3.17        0.00      64.63       1.42       0.00       2.26       ----

> <Gold.Chemscore.Fitness>
17.7340

> <Gold.Chemscore.DG>
-19.9969

> <Gold.Chemscore.ZeroCoef>
-5.4800

> <Gold.Chemscore.Hbond>
3.1696

> <Gold.Chemscore.Metal>
0.0000

> <Gold.Chemscore.Lipo>
64.6271

> <Gold.Chemscore.Internal_Hbond>
0.0000

> <Gold.Chemscore.DEClash>
0.0000

> <Gold.Chemscore.DEInternal>
2.2629

> <Gold.Chemscore.Rot>
1.4183

> <Gold.Chemscore.Internal.Correction>
   9.000000E+99

> <Gold.Chemscore.Hbonds>
donor molecule, donor type, donor heavy atom, donor atom, acceptor molecule, acceptor atom, score
      P1  H  6896  6908       L1    11  0.91
      P1  H  6896  6909       L1     8  0.84
      P1  H  6931  6943       L1    18  0.36
      P1  H  6934  6947       L1    18  0.35

> <Gold.Chemscore.Hbond.Weighted>
-10.5864

> <Gold.Chemscore.Metal.Weighted>
-0.0000

> <Gold.Chemscore.Lipo.Weighted>
-7.5614

> <Gold.Chemscore.Internal_Hbond.Weighted>
0.0000

> <Gold.Chemscore.DEClash.Weighted>
0.0000

> <Gold.Chemscore.DEInternal.Weighted>
2.2629

> <Gold.Chemscore.Rot.Weighted>
3.6309

> <Gold.Chemscore.Internal.Correction.Weighted>
   9.000000E+99

> <Gold.Protein.RotatedTorsions>
[ 6907 6896 6895 6894 ] final  159.33 input  -60.11 | X-H torsion
[ 7974 7965 7964 7962 ] final -120.30 input  175.53 | X-H torsion
[ 8008 7997 7996 7995 ] final  170.68 input   59.86 | X-H torsion
[ 10167 10162 10161 10158 ] final    6.70 input  -65.29 | X-H torsion
[ 10718 10713 10712 10709 ] final   50.69 input   66.30 | X-H torsion
[ 10763 10752 10751 10750 ] final   57.10 input  -60.55 | X-H torsion
[ 11005 11000 10999 10996 ] final  102.40 input  -57.11 | X-H torsion

> <Gold.Protein.ActiveResidues>
 VAL166  LYS551  ARG553  GLY616  TRP617  ASP618  TYR619  PRO620  LYS621  CYS622 
 ASP623  PHE694  ASN695  SER759  ASP760  ASP761  ALA762  ILE779  LEU786  VAL792 
 PHE793  MET794  SER795  GLU796  ALA797  LYS798  CYS799  TRP800  GLU811  SER814 

> <Gold.Protein.RotatedAtoms>
  151.9871  133.3778  159.4129 H   0  0  0  0  0  0  0  0  0  0  0  0  # atno 6907 bound_to 6896
  150.6927  134.3976  159.5114 H   0  0  0  0  0  0  0  0  0  0  0  0  # atno 6908 bound_to 6896
  152.1704  134.8838  160.0585 H   0  0  0  0  0  0  0  0  0  0  0  0  # atno 6909 bound_to 6896
  145.0529  140.8232  143.4198 H   0  0  0  0  0  0  0  0  0  0  0  0  # atno 7974 bound_to 7965
  156.1342  140.1531  156.9019 H   0  0  0  0  0  0  0  0  0  0  0  0  # atno 8008 bound_to 7997
  154.4934  140.0845  156.7683 H   0  0  0  0  0  0  0  0  0  0  0  0  # atno 8009 bound_to 7997
  155.4199  140.3422  155.4273 H   0  0  0  0  0  0  0  0  0  0  0  0  # atno 8010 bound_to 7997
  140.6413  143.7767  150.7432 H   0  0  0  0  0  0  0  0  0  0  0  0  # atno 10167 bound_to 10162
  157.4909  130.8375  149.8201 H   0  0  0  0  0  0  0  0  0  0  0  0  # atno 10718 bound_to 10713
  152.9843  135.5653  154.5335 H   0  0  0  0  0  0  0  0  0  0  0  0  # atno 10763 bound_to 10752
  154.4803  135.2788  155.1578 H   0  0  0  0  0  0  0  0  0  0  0  0  # atno 10764 bound_to 10752
  154.3089  135.6292  153.5510 H   0  0  0  0  0  0  0  0  0  0  0  0  # atno 10765 bound_to 10752
  139.8777  134.9222  156.5052 H   0  0  0  0  0  0  0  0  0  0  0  0  # atno 11005 bound_to 11000
  145.1505  139.2517  143.5443 LP  0  0  0  0  0  0  0  0  0  0  0  0  # atno 17320 bound_to 7965
  146.3519  140.1206  142.8600 LP  0  0  0  0  0  0  0  0  0  0  0  0  # atno 17321 bound_to 7965
  140.1399  143.4450  152.2200 LP  0  0  0  0  0  0  0  0  0  0  0  0  # atno 17342 bound_to 10162
  139.5622  144.7413  151.4122 LP  0  0  0  0  0  0  0  0  0  0  0  0  # atno 17343 bound_to 10162
  156.0173  130.3809  150.2072 LP  0  0  0  0  0  0  0  0  0  0  0  0  # atno 17370 bound_to 10713
  157.0260  130.9993  151.3326 LP  0  0  0  0  0  0  0  0  0  0  0  0  # atno 17371 bound_to 10713
  140.8560  133.8095  155.9217 LP  0  0  0  0  0  0  0  0  0  0  0  0  # atno 17394 bound_to 11000
  140.9097  134.2276  157.4993 LP  0  0  0  0  0  0  0  0  0  0  0  0  # atno 17395 bound_to 11000

$$$$
