AV-unprocessed.smi:104|AV-procd|sdf|994|dock9
  -GOLD-   2262017573D 1   1.00000     0.00000
 Structure written by MMmdl.
 47 49  0  0  0  0  0  0  0  0  1 V2000
  145.2285  138.3142  159.3896 C   0  0  0  0  0  0  0  0  0  0  0  0
  145.8154  138.3645  157.9846 C   0  0  0  0  0  0  0  0  0  0  0  0
  145.4844  137.5504  157.1229 O   0  0  0  0  0  0  0  0  0  0  0  0
  146.6895  139.3703  157.8281 O   0  0  0  0  0  0  0  0  0  0  0  0
  147.3558  139.5429  156.5873 C   0  0  0  0  0  0  0  0  0  0  0  0
  147.9042  140.9776  156.4833 C   0  0  1  0  0  0  0  0  0  0  0  0
  148.7867  141.1781  157.5886 O   0  0  0  0  0  0  0  0  0  0  0  0
  150.0787  141.4537  157.1391 C   0  0  1  0  0  0  0  0  0  0  0  0
  151.0773  140.7862  158.0342 N   0  0  0  0  0  0  0  0  0  0  0  0
  151.1905  139.4485  158.3340 C   0  0  0  0  0  0  0  0  0  0  0  0
  150.0099  138.1465  157.6023 Br  0  0  0  0  0  0  0  0  0  0  0  0
  152.1291  139.1000  159.1683 N   0  0  0  0  0  0  0  0  0  0  0  0
  152.7171  140.3167  159.4902 C   0  0  0  0  0  0  0  0  0  0  0  0
  153.7807  140.6986  160.3463 C   0  0  0  0  0  0  0  0  0  0  0  0
  154.4868  139.8203  161.0721 N   0  0  0  0  0  0  0  0  0  0  0  0
  154.0958  142.0113  160.4404 N   0  0  0  0  0  0  0  0  0  0  0  0
  153.4042  142.9083  159.7302 C   0  0  0  0  0  0  0  0  0  0  0  0
  152.3885  142.7032  158.8879 N   0  0  0  0  0  0  0  0  0  0  0  0
  152.0715  141.3784  158.7898 C   0  0  0  0  0  0  0  0  0  0  0  0
  150.1660  140.9768  155.6839 C   0  0  1  0  0  0  0  0  0  0  0  0
  150.4632  139.5824  155.6036 O   0  0  0  0  0  0  0  0  0  0  0  0
  151.6886  139.1568  155.2486 C   0  0  0  0  0  0  0  0  0  0  0  0
  151.7786  137.6380  155.1934 C   0  0  0  0  0  0  0  0  0  0  0  0
  152.6637  139.8685  155.0082 O   0  0  0  0  0  0  0  0  0  0  0  0
  148.7497  141.2736  155.2299 C   0  0  1  0  0  0  0  0  0  0  0  0
  148.4058  140.5358  154.0614 O   0  0  0  0  0  0  0  0  0  0  0  0
  147.2077  140.7086  153.4778 C   0  0  0  0  0  0  0  0  0  0  0  0
  146.7820  139.4970  152.6598 C   0  0  0  0  0  0  0  0  0  0  0  0
  146.4902  141.7038  153.5760 O   0  0  0  0  0  0  0  0  0  0  0  0
  145.7609  138.9897  160.0601 H   0  0  0  0  0  0  0  0  0  0  0  0
  145.2993  137.3036  159.7919 H   0  0  0  0  0  0  0  0  0  0  0  0
  144.1784  138.6059  159.3685 H   0  0  0  0  0  0  0  0  0  0  0  0
  148.1791  138.8289  156.5477 H   0  0  0  0  0  0  0  0  0  0  0  0
  146.6988  139.3214  155.7455 H   0  0  0  0  0  0  0  0  0  0  0  0
  147.0810  141.6884  156.5632 H   0  0  0  0  0  0  0  0  0  0  0  0
  150.2650  142.5229  157.2428 H   0  0  0  0  0  0  0  0  0  0  0  0
  154.2684  138.8354  161.0224 H   0  0  0  0  0  0  0  0  0  0  0  0
  155.2351  140.1442  161.6676 H   0  0  0  0  0  0  0  0  0  0  0  0
  153.7075  143.9374  159.8541 H   0  0  0  0  0  0  0  0  0  0  0  0
  150.8910  141.5799  155.1357 H   0  0  0  0  0  0  0  0  0  0  0  0
  151.2182  137.1931  156.0163 H   0  0  0  0  0  0  0  0  0  0  0  0
  152.8171  137.3148  155.2707 H   0  0  0  0  0  0  0  0  0  0  0  0
  151.3686  137.2687  154.2535 H   0  0  0  0  0  0  0  0  0  0  0  0
  148.6987  142.3444  155.0245 H   0  0  0  0  0  0  0  0  0  0  0  0
  147.6063  139.1474  152.0382 H   0  0  0  0  0  0  0  0  0  0  0  0
  145.9429  139.7490  152.0109 H   0  0  0  0  0  0  0  0  0  0  0  0
  146.4771  138.6855  153.3203 H   0  0  0  0  0  0  0  0  0  0  0  0
  1  2  1  0  0  0  0
  1 30  1  0  0  0  0
  1 31  1  0  0  0  0
  1 32  1  0  0  0  0
  2  3  2  0  0  0  0
  2  4  1  0  0  0  0
  4  5  1  0  0  0  0
  5  6  1  0  0  0  0
  5 33  1  0  0  0  0
  5 34  1  0  0  0  0
  6 25  1  0  0  0  0
  6  7  1  0  0  0  0
  6 35  1  0  0  0  0
  7  8  1  0  0  0  0
  8  9  1  0  0  0  0
  8 20  1  0  0  0  0
  8 36  1  0  0  0  0
  9 19  1  0  0  0  0
  9 10  1  0  0  0  0
 10 11  1  0  0  0  0
 10 12  2  0  0  0  0
 12 13  1  0  0  0  0
 13 19  2  0  0  0  0
 13 14  1  0  0  0  0
 14 15  1  0  0  0  0
 14 16  2  0  0  0  0
 15 37  1  0  0  0  0
 15 38  1  0  0  0  0
 16 17  1  0  0  0  0
 17 18  2  0  0  0  0
 17 39  1  0  0  0  0
 18 19  1  0  0  0  0
 20 21  1  0  0  0  0
 20 25  1  0  0  0  0
 20 40  1  0  0  0  0
 21 22  1  0  0  0  0
 22 23  1  0  0  0  0
 22 24  2  0  0  0  0
 23 41  1  0  0  0  0
 23 42  1  0  0  0  0
 23 43  1  0  0  0  0
 25 26  1  0  0  0  0
 25 44  1  0  0  0  0
 26 27  1  0  0  0  0
 27 28  1  0  0  0  0
 27 29  2  0  0  0  0
 28 45  1  0  0  0  0
 28 46  1  0  0  0  0
 28 47  1  0  0  0  0
M  END
> <s_m_source_file>
AV-unprocessed.smi

> <i_m_source_file_index>
104

> <i_lp_mmshare_version>
43012

> <i_f3d_flags>
0

> <s_epik_input>
W0NIM11DKD1PKU9bQ0gyXVtDQEBIXTFPW0NASF0oW0NAQEhdKE9DKD1PKVtDSDNdKVtDQEhdMU9DKD1PKVtDSDNdKW4oYyhCciluMiljKGMyMyluW2NIXW5jM1tOSDJd

> <s_epik_cmdline>
J2VwaWtfcHl0aG9uJywgJy1waCcsICc3LjAnLCAnLXRuJywgJzgnLCAnLW1hJywgJzIwMCcsICctbWV0YWxfYmluZGluZycsICctaW1hZScsICc8aW5maWxlLm1hZT4nLCAnLW9tYWUnLCAnPG91dGZpbGUubWFlPic=

> <r_lp_tautomer_probability>
1

> <r_epik_Ionization_Penalty>
7.36622e-05

> <r_epik_Ionization_Penalty_Charging>
0

> <r_epik_Ionization_Penalty_Neutral>
7.36622e-05

> <r_epik_State_Penalty>
-0

> <r_epik_Charging_Adjusted_Penalty>
0

> <i_epik_Tot_Q>
0

> <i_epik_Tot_abs_Q>
0

> <r_epik_Metal_State_Penalty>
-0

> <b_epik_Metal_Only>
0

> <s_epik_Chemistry_Notes>
This compound has an ester and may undergo hydrolysis at high or low pH. This compound contains an acetal/aminal-like group ( X-CH(R)-Y where X, Y are N, S, or O) that may be acid/base labile, releasing an aldehyde.

> <s_lp_Force_Field>
OPLS_2005

> <r_lp_Energy>
22.6214

> <b_lp_Chiralities_Consistent>
1

> <s_lp_Variant>
AV-unprocessed.smi:104-2

> <Gold.Version>
5.8.1

> <Gold.Id.Protein>
6NUR|6NUR_protein|mol2

> <Gold.PLP.Fitness>
39.3276

> <Gold.PLP.PLP>
-37.0423

> <Gold.PLP.part.hbond>
-2.0000

> <Gold.PLP.part.metal>
0.0000

> <Gold.PLP.part.buried>
-6.2094

> <Gold.PLP.part.nonpolar>
-30.1557

> <Gold.PLP.part.repulsive>
0.4474

> <Gold.PLP.ligand.clash>
0.0000

> <Gold.PLP.ligand.torsion>
1.0168

> <Gold.PLP.Chemscore.Hbond>
1.3072

> <Gold.PLP.Chemscore.CHOScore>
0.0000

> <Gold.PLP.Chemscore.Metal>
0.0000

> <Gold.Chemscore.Hbonds>
donor molecule, donor type, donor heavy atom, donor atom, acceptor molecule, acceptor atom, score
      P1  H  7989  7998       L1    24  0.32
      P1  H  7997  8010       L1    24  1.00

> <Gold.PLP.Chemscore.Internal.Correction>
0.3973

> <Gold.Rescore>
     Score         DG    S(hbond)    S(metal)    S(lipo)     H(rot)  DE(clash)    DE(int)     intcor
     -1.36      -2.63       1.00        0.00      41.29       4.31       0.12       3.87       ----

> <Gold.Chemscore.Fitness>
-1.3596

> <Gold.Chemscore.DG>
-2.6321

> <Gold.Chemscore.ZeroCoef>
-5.4800

> <Gold.Chemscore.Hbond>
1.0021

> <Gold.Chemscore.Metal>
0.0000

> <Gold.Chemscore.Lipo>
41.2896

> <Gold.Chemscore.Internal_Hbond>
0.0000

> <Gold.Chemscore.DEClash>
0.1242

> <Gold.Chemscore.DEInternal>
3.8676

> <Gold.Chemscore.Rot>
4.3070

> <Gold.Chemscore.Internal.Correction>
   9.000000E+99

> <Gold.Chemscore.Hbonds>
donor molecule, donor type, donor heavy atom, donor atom, acceptor molecule, acceptor atom, score
      P1  H  7989  7998       L1    24  0.03
      P1  H  7997  8010       L1    24  0.94

> <Gold.Chemscore.Hbond.Weighted>
-3.3471

> <Gold.Chemscore.Metal.Weighted>
-0.0000

> <Gold.Chemscore.Lipo.Weighted>
-4.8309

> <Gold.Chemscore.Internal_Hbond.Weighted>
0.0000

> <Gold.Chemscore.DEClash.Weighted>
0.1242

> <Gold.Chemscore.DEInternal.Weighted>
3.8676

> <Gold.Chemscore.Rot.Weighted>
11.0259

> <Gold.Chemscore.Internal.Correction.Weighted>
   9.000000E+99

> <Gold.Protein.RotatedTorsions>
[ 6907 6896 6895 6894 ] final  103.53 input  -60.11 | X-H torsion
[ 7974 7965 7964 7962 ] final    7.64 input  175.53 | X-H torsion
[ 8008 7997 7996 7995 ] final  102.30 input   59.86 | X-H torsion
[ 10167 10162 10161 10158 ] final  106.05 input  -65.29 | X-H torsion
[ 10718 10713 10712 10709 ] final -157.54 input   66.30 | X-H torsion
[ 10763 10752 10751 10750 ] final    7.13 input  -60.55 | X-H torsion
[ 11005 11000 10999 10996 ] final  128.37 input  -57.11 | X-H torsion

> <Gold.Protein.ActiveResidues>
 VAL166  LYS551  ARG553  GLY616  TRP617  ASP618  TYR619  PRO620  LYS621  CYS622 
 ASP623  PHE694  ASN695  SER759  ASP760  ASP761  ALA762  ILE779  LEU786  VAL792 
 PHE793  MET794  SER795  GLU796  ALA797  LYS798  CYS799  TRP800  GLU811  SER814 

> <Gold.Protein.RotatedAtoms>
  152.5292  133.9812  159.7806 H   0  0  0  0  0  0  0  0  0  0  0  0  # atno 6907 bound_to 6896
  151.0065  133.5998  159.2695 H   0  0  0  0  0  0  0  0  0  0  0  0  # atno 6908 bound_to 6896
  151.3088  135.0795  159.9318 H   0  0  0  0  0  0  0  0  0  0  0  0  # atno 6909 bound_to 6896
  146.2424  140.0052  142.8412 H   0  0  0  0  0  0  0  0  0  0  0  0  # atno 7974 bound_to 7965
  156.1380  140.3183  155.8451 H   0  0  0  0  0  0  0  0  0  0  0  0  # atno 8008 bound_to 7997
  155.4208  140.0512  157.3043 H   0  0  0  0  0  0  0  0  0  0  0  0  # atno 8009 bound_to 7997
  154.4952  140.2108  155.9474 H   0  0  0  0  0  0  0  0  0  0  0  0  # atno 8010 bound_to 7997
  139.7042  144.7089  151.1135 H   0  0  0  0  0  0  0  0  0  0  0  0  # atno 10167 bound_to 10162
  156.5416  130.8566  151.2751 H   0  0  0  0  0  0  0  0  0  0  0  0  # atno 10718 bound_to 10713
  153.2397  135.6902  153.7796 H   0  0  0  0  0  0  0  0  0  0  0  0  # atno 10763 bound_to 10752
  153.6930  135.3309  155.3207 H   0  0  0  0  0  0  0  0  0  0  0  0  # atno 10764 bound_to 10752
  154.8350  135.4550  154.1315 H   0  0  0  0  0  0  0  0  0  0  0  0  # atno 10765 bound_to 10752
  139.9557  134.9613  156.8992 H   0  0  0  0  0  0  0  0  0  0  0  0  # atno 11005 bound_to 11000
  145.1378  140.9554  143.4506 LP  0  0  0  0  0  0  0  0  0  0  0  0  # atno 17320 bound_to 7965
  145.0325  139.3329  143.6017 LP  0  0  0  0  0  0  0  0  0  0  0  0  # atno 17321 bound_to 7965
  140.7717  143.5382  150.9343 LP  0  0  0  0  0  0  0  0  0  0  0  0  # atno 17342 bound_to 10162
  139.9065  143.6772  152.3122 LP  0  0  0  0  0  0  0  0  0  0  0  0  # atno 17343 bound_to 10162
  157.7404  130.9850  150.2376 LP  0  0  0  0  0  0  0  0  0  0  0  0  # atno 17370 bound_to 10713
  156.2966  130.3753  149.7790 LP  0  0  0  0  0  0  0  0  0  0  0  0  # atno 17371 bound_to 10713
  140.5614  134.0531  155.7400 LP  0  0  0  0  0  0  0  0  0  0  0  0  # atno 17394 bound_to 11000
  141.1228  133.9433  157.2695 LP  0  0  0  0  0  0  0  0  0  0  0  0  # atno 17395 bound_to 11000

$$$$
