AV-unprocessed.smi:3335|AV-procd|sdf|12839|dock4
  -GOLD-   2272019223D 1   1.00000     0.00000
 Structure written by MMmdl.
 47 48  0  0  0  0  0  0  0  0  2 V2000
  152.0214  145.1688  159.5113 C   0  0  0  0  0  0  0  0  0  0  0  0
  151.9544  143.7804  158.9441 C   0  0  0  0  0  0  0  0  0  0  0  0
  152.8093  142.6781  159.2272 C   0  0  0  0  0  0  0  0  0  0  0  0
  152.4828  141.5893  158.5510 N   0  0  0  0  0  0  0  0  0  0  0  0
  151.4047  141.9517  157.8197 N   0  0  0  0  0  0  0  0  0  0  0  0
  150.7737  140.9965  156.9168 C   0  0  2  0  0  0  0  0  0  0  0  0
  151.8586  140.2251  156.1387 C   0  0  0  0  0  0  0  0  0  0  0  0
  149.7226  141.6825  155.9971 C   0  0  1  0  0  0  0  0  0  0  0  0
  149.2847  140.7823  154.8294 C   0  0  0  0  0  0  0  0  0  0  0  0
  148.5059  142.0619  156.7612 N   0  3  0  0  0  0  0  0  0  0  0  0
  147.4001  141.0736  156.7865 C   0  0  2  0  0  0  0  0  0  0  0  0
  146.0618  141.8073  156.9589 C   0  0  0  0  0  0  0  0  0  0  0  0
  147.5862  140.0410  157.9156 C   0  0  0  0  0  0  0  0  0  0  0  0
  147.4681  140.4131  159.0843 O   0  0  0  0  0  0  0  0  0  0  0  0
  147.8638  138.7580  157.5982 N   0  0  0  0  0  0  0  0  0  0  0  0
  148.0728  137.6572  158.5396 C   0  0  0  0  0  0  0  0  0  0  0  0
  148.5815  136.4841  157.7022 C   0  0  0  0  0  0  0  0  0  0  0  0
  148.0336  136.7577  156.3091 C   0  0  0  0  0  0  0  0  0  0  0  0
  147.9859  138.2830  156.2209 C   0  0  0  0  0  0  0  0  0  0  0  0
  151.0656  143.2706  158.0405 C   0  0  0  0  0  0  0  0  0  0  0  0
  152.9388  145.3320  160.0775 H   0  0  0  0  0  0  0  0  0  0  0  0
  151.1882  145.3673  160.1855 H   0  0  0  0  0  0  0  0  0  0  0  0
  151.9894  145.9261  158.7277 H   0  0  0  0  0  0  0  0  0  0  0  0
  153.6563  142.6388  159.8966 H   0  0  0  0  0  0  0  0  0  0  0  0
  150.2521  140.2693  157.5412 H   0  0  0  0  0  0  0  0  0  0  0  0
  151.4435  139.3654  155.6133 H   0  0  0  0  0  0  0  0  0  0  0  0
  152.6249  139.8417  156.8134 H   0  0  0  0  0  0  0  0  0  0  0  0
  152.3532  140.8601  155.4027 H   0  0  0  0  0  0  0  0  0  0  0  0
  150.1663  142.5763  155.5561 H   0  0  0  0  0  0  0  0  0  0  0  0
  150.1076  140.5799  154.1442 H   0  0  0  0  0  0  0  0  0  0  0  0
  148.4992  141.2600  154.2425 H   0  0  0  0  0  0  0  0  0  0  0  0
  148.8987  139.8264  155.1848 H   0  0  0  0  0  0  0  0  0  0  0  0
  148.7783  142.2182  157.7214 H   0  0  0  0  0  0  0  0  0  0  0  0
  147.3774  140.5755  155.8219 H   0  0  0  0  0  0  0  0  0  0  0  0
  145.2223  141.1111  156.9610 H   0  0  0  0  0  0  0  0  0  0  0  0
  145.8967  142.5117  156.1429 H   0  0  0  0  0  0  0  0  0  0  0  0
  146.0290  142.3693  157.8935 H   0  0  0  0  0  0  0  0  0  0  0  0
  148.7835  137.9110  159.3271 H   0  0  0  0  0  0  0  0  0  0  0  0
  147.1204  137.4024  159.0068 H   0  0  0  0  0  0  0  0  0  0  0  0
  149.6719  136.4993  157.6746 H   0  0  0  0  0  0  0  0  0  0  0  0
  148.2709  135.5163  158.0969 H   0  0  0  0  0  0  0  0  0  0  0  0
  148.6366  136.3067  155.5204 H   0  0  0  0  0  0  0  0  0  0  0  0
  147.0231  136.3547  156.2292 H   0  0  0  0  0  0  0  0  0  0  0  0
  147.1570  138.6168  155.5944 H   0  0  0  0  0  0  0  0  0  0  0  0
  148.9115  138.6709  155.7929 H   0  0  0  0  0  0  0  0  0  0  0  0
  150.2310  143.7365  157.5373 H   0  0  0  0  0  0  0  0  0  0  0  0
  148.1594  142.9320  156.3842 H   0  0  0  0  0  0  0  0  0  0  0  0
  1  2  1  0  0  0  0
  1 21  1  0  0  0  0
  1 22  1  0  0  0  0
  1 23  1  0  0  0  0
  2 20  2  0  0  0  0
  2  3  1  0  0  0  0
  3  4  2  0  0  0  0
  3 24  1  0  0  0  0
  4  5  1  0  0  0  0
  5  6  1  0  0  0  0
  5 20  1  0  0  0  0
  6  7  1  0  0  0  0
  6  8  1  0  0  0  0
  6 25  1  0  0  0  0
  7 26  1  0  0  0  0
  7 27  1  0  0  0  0
  7 28  1  0  0  0  0
  8  9  1  0  0  0  0
  8 10  1  0  0  0  0
  8 29  1  0  0  0  0
  9 30  1  0  0  0  0
  9 31  1  0  0  0  0
  9 32  1  0  0  0  0
 10 11  1  0  0  0  0
 10 33  1  0  0  0  0
 10 47  1  0  0  0  0
 11 12  1  0  0  0  0
 11 13  1  0  0  0  0
 11 34  1  0  0  0  0
 12 35  1  0  0  0  0
 12 36  1  0  0  0  0
 12 37  1  0  0  0  0
 13 14  2  0  0  0  0
 13 15  1  0  0  0  0
 15 19  1  0  0  0  0
 15 16  1  0  0  0  0
 16 17  1  0  0  0  0
 16 38  1  0  0  0  0
 16 39  1  0  0  0  0
 17 18  1  0  0  0  0
 17 40  1  0  0  0  0
 17 41  1  0  0  0  0
 18 19  1  0  0  0  0
 18 42  1  0  0  0  0
 18 43  1  0  0  0  0
 19 44  1  0  0  0  0
 19 45  1  0  0  0  0
 20 46  1  0  0  0  0
M  CHG  1  10   1
M  END
> <s_m_source_file>
AV-unprocessed.smi

> <i_m_source_file_index>
3335

> <i_lp_mmshare_version>
43012

> <i_f3d_flags>
0

> <s_epik_input>
W0NIM11jMVtjSF1ubihbY0hdMSlbQ0BIXShbQ0gzXSlbQ0BIXShbQ0gzXSlbTkhdW0NASF0oW0NIM10pQyg9TylOMltDSDJdW0NIMl1bQ0gyXVtDSDJdMg==

> <s_epik_cmdline>
J2VwaWtfcHl0aG9uJywgJy1waCcsICc3LjAnLCAnLXRuJywgJzgnLCAnLW1hJywgJzIwMCcsICctbWV0YWxfYmluZGluZycsICctaW1hZScsICc8aW5maWxlLm1hZT4nLCAnLW9tYWUnLCAnPG91dGZpbGUubWFlPic=

> <r_lp_tautomer_probability>
1

> <r_epik_Ionization_Penalty>
0.14175

> <r_epik_Ionization_Penalty_Charging>
0.141731

> <r_epik_Ionization_Penalty_Neutral>
1.91261e-05

> <r_epik_State_Penalty>
0.131043

> <r_epik_Charging_Adjusted_Penalty>
0.272773

> <i_epik_Tot_Q>
1

> <i_epik_Tot_abs_Q>
1

> <r_epik_Metal_State_Penalty>
0.131408

> <b_epik_Metal_Only>
0

> <s_lp_Force_Field>
OPLS_2005

> <r_lp_Energy>
35.8146

> <b_lp_Chiralities_Consistent>
1

> <s_lp_Variant>
AV-unprocessed.smi:3335-3

> <Gold.Version>
5.8.1

> <Gold.Id.Protein>
6NUR|6NUR_protein|mol2

> <Gold.PLP.Fitness>
38.2769

> <Gold.PLP.PLP>
-32.1677

> <Gold.PLP.part.hbond>
-1.9199

> <Gold.PLP.part.metal>
0.0000

> <Gold.PLP.part.buried>
-2.8948

> <Gold.PLP.part.nonpolar>
-27.7901

> <Gold.PLP.part.repulsive>
0.0501

> <Gold.PLP.ligand.clash>
0.6336

> <Gold.PLP.ligand.torsion>
1.3355

> <Gold.PLP.Chemscore.Hbond>
2.1026

> <Gold.PLP.Chemscore.CHOScore>
1.0000

> <Gold.PLP.Chemscore.Metal>
0.0000

> <Gold.Chemscore.Hbonds>
donor molecule, donor type, donor heavy atom, donor atom, acceptor molecule, acceptor atom, score
      L1  H    10    47       P1  8028  1.56
      L1  C    20    46       P1  8028  1.00

> <Gold.PLP.Chemscore.Internal.Correction>
0.1061

> <Gold.Rescore>
     Score         DG    S(hbond)    S(metal)    S(lipo)     H(rot)  DE(clash)    DE(int)     intcor
     12.92     -14.34       1.07        0.00      81.73       1.68       0.05       1.37       ----

> <Gold.Chemscore.Fitness>
12.9216

> <Gold.Chemscore.DG>
-14.3376

> <Gold.Chemscore.ZeroCoef>
-5.4800

> <Gold.Chemscore.Hbond>
1.0749

> <Gold.Chemscore.Metal>
0.0000

> <Gold.Chemscore.Lipo>
81.7302

> <Gold.Chemscore.Internal_Hbond>
0.0000

> <Gold.Chemscore.DEClash>
0.0460

> <Gold.Chemscore.DEInternal>
1.3700

> <Gold.Chemscore.Rot>
1.6778

> <Gold.Chemscore.Internal.Correction>
   9.000000E+99

> <Gold.Chemscore.Hbonds>
donor molecule, donor type, donor heavy atom, donor atom, acceptor molecule, acceptor atom, score
      L1  H    10    47       P1  8028  0.44

> <Gold.Chemscore.Hbond.Weighted>
-3.5903

> <Gold.Chemscore.Metal.Weighted>
-0.0000

> <Gold.Chemscore.Lipo.Weighted>
-9.5624

> <Gold.Chemscore.Internal_Hbond.Weighted>
0.0000

> <Gold.Chemscore.DEClash.Weighted>
0.0460

> <Gold.Chemscore.DEInternal.Weighted>
1.3700

> <Gold.Chemscore.Rot.Weighted>
4.2952

> <Gold.Chemscore.Internal.Correction.Weighted>
   9.000000E+99

> <Gold.Protein.RotatedTorsions>
[ 6907 6896 6895 6894 ] final -134.18 input  -60.11 | X-H torsion
[ 7974 7965 7964 7962 ] final   34.22 input  175.53 | X-H torsion
[ 8008 7997 7996 7995 ] final   21.52 input   59.86 | X-H torsion
[ 10167 10162 10161 10158 ] final   15.68 input  -65.29 | X-H torsion
[ 10718 10713 10712 10709 ] final -167.73 input   66.30 | X-H torsion
[ 10763 10752 10751 10750 ] final -162.67 input  -60.55 | X-H torsion
[ 11005 11000 10999 10996 ] final  -37.65 input  -57.11 | X-H torsion

> <Gold.Protein.ActiveResidues>
 VAL166  LYS551  ARG553  GLY616  TRP617  ASP618  TYR619  PRO620  LYS621  CYS622 
 ASP623  PHE694  ASN695  SER759  ASP760  ASP761  ALA762  ILE779  LEU786  VAL792 
 PHE793  MET794  SER795  GLU796  ALA797  LYS798  CYS799  TRP800  GLU811  SER814 

> <Gold.Protein.RotatedAtoms>
  150.9828  133.6228  159.2719 H   0  0  0  0  0  0  0  0  0  0  0  0  # atno 6907 bound_to 6896
  151.3477  135.0876  159.9402 H   0  0  0  0  0  0  0  0  0  0  0  0  # atno 6908 bound_to 6896
  152.5221  133.9426  159.7688 H   0  0  0  0  0  0  0  0  0  0  0  0  # atno 6909 bound_to 6896
  146.1368  139.6297  142.9190 H   0  0  0  0  0  0  0  0  0  0  0  0  # atno 7974 bound_to 7965
  154.9518  140.3066  155.5071 H   0  0  0  0  0  0  0  0  0  0  0  0  # atno 8008 bound_to 7997
  156.2986  140.2317  156.4534 H   0  0  0  0  0  0  0  0  0  0  0  0  # atno 8009 bound_to 7997
  154.8047  140.0432  157.1287 H   0  0  0  0  0  0  0  0  0  0  0  0  # atno 8010 bound_to 7997
  140.5850  143.8907  150.6822 H   0  0  0  0  0  0  0  0  0  0  0  0  # atno 10167 bound_to 10162
  156.6866  130.9143  151.3064 H   0  0  0  0  0  0  0  0  0  0  0  0  # atno 10718 bound_to 10713
  154.7193  135.3022  154.9073 H   0  0  0  0  0  0  0  0  0  0  0  0  # atno 10763 bound_to 10752
  153.9950  135.6714  153.4760 H   0  0  0  0  0  0  0  0  0  0  0  0  # atno 10764 bound_to 10752
  153.0820  135.5004  154.8439 H   0  0  0  0  0  0  0  0  0  0  0  0  # atno 10765 bound_to 10752
  140.9968  133.6976  156.1949 H   0  0  0  0  0  0  0  0  0  0  0  0  # atno 11005 bound_to 11000
  145.5138  141.0434  143.2473 LP  0  0  0  0  0  0  0  0  0  0  0  0  # atno 17320 bound_to 7965
  144.7748  139.6654  143.7179 LP  0  0  0  0  0  0  0  0  0  0  0  0  # atno 17321 bound_to 7965
  140.2416  143.3659  152.1482 LP  0  0  0  0  0  0  0  0  0  0  0  0  # atno 17342 bound_to 10162
  139.5192  144.7016  151.5476 LP  0  0  0  0  0  0  0  0  0  0  0  0  # atno 17343 bound_to 10162
  157.7024  130.9348  150.0827 LP  0  0  0  0  0  0  0  0  0  0  0  0  # atno 17370 bound_to 10713
  156.1828  130.3651  149.9012 LP  0  0  0  0  0  0  0  0  0  0  0  0  # atno 17371 bound_to 10713
  140.6953  134.4622  157.5588 LP  0  0  0  0  0  0  0  0  0  0  0  0  # atno 17394 bound_to 11000
  139.9018  134.8538  156.1863 LP  0  0  0  0  0  0  0  0  0  0  0  0  # atno 17395 bound_to 11000

$$$$
