AV-unprocessed.smi:2923|AV-procd|sdf|11203|dock5
  -GOLD-   2272016 93D 1   1.00000     0.00000
 Structure written by MMmdl.
 47 49  0  0  0  0  0  0  0  0  2 V2000
  146.4960  132.7447  150.1245 C   0  0  0  0  0  0  0  0  0  0  0  0
  145.1934  132.7799  150.7805 N   0  0  0  0  0  0  0  0  0  0  0  0
  144.3953  131.5664  150.8977 C   0  0  0  0  0  0  0  0  0  0  0  0
  144.6935  134.0013  151.2814 C   0  0  0  0  0  0  0  0  0  0  0  0
  145.3562  135.2412  151.1078 C   0  0  0  0  0  0  0  0  0  0  0  0
  144.7922  136.4185  151.6411 C   0  0  0  0  0  0  0  0  0  0  0  0
  143.5679  136.3586  152.3388 C   0  0  0  0  0  0  0  0  0  0  0  0
  143.0496  137.5706  152.8710 N   0  0  0  0  0  0  0  0  0  0  0  0
  141.9753  137.7512  153.6588 C   0  0  0  0  0  0  0  0  0  0  0  0
  141.2038  136.8661  154.0270 O   0  0  0  0  0  0  0  0  0  0  0  0
  141.8282  139.0406  153.9898 N   0  0  0  0  0  0  0  0  0  0  0  0
  140.7498  139.5562  154.8245 C   0  0  1  0  0  0  0  0  0  0  0  0
  140.1232  140.8274  154.2521 C   0  0  2  0  0  0  0  0  0  0  0  0
  140.0678  142.2497  154.6823 C   0  0  0  0  0  0  0  0  0  0  0  0
  138.5505  142.4819  154.4507 C   0  0  0  0  0  0  0  0  0  0  0  0
  137.9806  141.1722  154.2079 O   0  0  0  0  0  0  0  0  0  0  0  0
  138.8541  140.2946  154.8883 C   0  0  1  0  0  0  0  0  0  0  0  0
  139.3560  138.8772  154.5464 C   0  0  0  0  0  0  0  0  0  0  0  0
  139.0412  138.3232  153.1419 C   0  0  0  0  0  0  0  0  0  0  0  0
  138.9521  137.7856  155.5380 C   0  0  0  0  0  0  0  0  0  0  0  0
  142.9490  135.0953  152.4932 C   0  0  0  0  0  0  0  0  0  0  0  0
  143.5244  133.9929  151.9670 N   0  3  0  0  0  0  0  0  0  0  0  0
  146.4991  133.3889  149.2444 H   0  0  0  0  0  0  0  0  0  0  0  0
  146.7514  131.7356  149.8008 H   0  0  0  0  0  0  0  0  0  0  0  0
  147.2776  133.0832  150.8056 H   0  0  0  0  0  0  0  0  0  0  0  0
  144.2092  131.3299  151.9458 H   0  0  0  0  0  0  0  0  0  0  0  0
  144.9038  130.7131  150.4490 H   0  0  0  0  0  0  0  0  0  0  0  0
  143.4373  131.6862  150.3910 H   0  0  0  0  0  0  0  0  0  0  0  0
  146.2925  135.3106  150.5746 H   0  0  0  0  0  0  0  0  0  0  0  0
  145.3004  137.3628  151.5100 H   0  0  0  0  0  0  0  0  0  0  0  0
  143.5415  138.4087  152.5975 H   0  0  0  0  0  0  0  0  0  0  0  0
  142.5003  139.7094  153.6436 H   0  0  0  0  0  0  0  0  0  0  0  0
  141.0043  139.6444  155.8848 H   0  0  0  0  0  0  0  0  0  0  0  0
  140.1059  140.7836  153.1606 H   0  0  0  0  0  0  0  0  0  0  0  0
  140.3456  142.3708  155.7303 H   0  0  0  0  0  0  0  0  0  0  0  0
  140.6899  142.9030  154.0701 H   0  0  0  0  0  0  0  0  0  0  0  0
  138.0896  142.9419  155.3256 H   0  0  0  0  0  0  0  0  0  0  0  0
  138.3633  143.1257  153.5910 H   0  0  0  0  0  0  0  0  0  0  0  0
  138.7990  140.4583  155.9708 H   0  0  0  0  0  0  0  0  0  0  0  0
  137.9773  138.1098  153.0351 H   0  0  0  0  0  0  0  0  0  0  0  0
  139.5766  137.3919  152.9543 H   0  0  0  0  0  0  0  0  0  0  0  0
  139.3035  139.0017  152.3326 H   0  0  0  0  0  0  0  0  0  0  0  0
  137.8867  137.5622  155.4749 H   0  0  0  0  0  0  0  0  0  0  0  0
  139.1592  138.0822  156.5667 H   0  0  0  0  0  0  0  0  0  0  0  0
  139.4962  136.8580  155.3574 H   0  0  0  0  0  0  0  0  0  0  0  0
  142.0269  134.9111  153.0232 H   0  0  0  0  0  0  0  0  0  0  0  0
  143.0498  133.0993  152.0971 H   0  0  0  0  0  0  0  0  0  0  0  0
  1  2  1  0  0  0  0
  1 23  1  0  0  0  0
  1 24  1  0  0  0  0
  1 25  1  0  0  0  0
  2  3  1  0  0  0  0
  2  4  1  0  0  0  0
  3 26  1  0  0  0  0
  3 27  1  0  0  0  0
  3 28  1  0  0  0  0
  4 22  1  0  0  0  0
  4  5  2  0  0  0  0
  5  6  1  0  0  0  0
  5 29  1  0  0  0  0
  6  7  2  0  0  0  0
  6 30  1  0  0  0  0
  7  8  1  0  0  0  0
  7 21  1  0  0  0  0
  8  9  1  0  0  0  0
  8 31  1  0  0  0  0
  9 10  2  0  0  0  0
  9 11  1  0  0  0  0
 11 12  1  0  0  0  0
 11 32  1  0  0  0  0
 12 18  1  0  0  0  0
 12 13  1  0  0  0  0
 12 33  1  0  0  0  0
 13 17  1  0  0  0  0
 13 14  1  0  0  0  0
 13 34  1  0  0  0  0
 14 15  1  0  0  0  0
 14 35  1  0  0  0  0
 14 36  1  0  0  0  0
 15 16  1  0  0  0  0
 15 37  1  0  0  0  0
 15 38  1  0  0  0  0
 16 17  1  0  0  0  0
 17 18  1  0  0  0  0
 17 39  1  0  0  0  0
 18 19  1  0  0  0  0
 18 20  1  0  0  0  0
 19 40  1  0  0  0  0
 19 41  1  0  0  0  0
 19 42  1  0  0  0  0
 20 43  1  0  0  0  0
 20 44  1  0  0  0  0
 20 45  1  0  0  0  0
 21 22  2  0  0  0  0
 21 46  1  0  0  0  0
 22 47  1  0  0  0  0
M  CHG  1  22   1
M  END
> <s_m_source_file>
AV-unprocessed.smi

> <i_m_source_file_index>
2923

> <i_lp_mmshare_version>
43012

> <i_f3d_flags>
0

> <s_epik_input>
W0NIM11OKFtDSDNdKWMxW2NIXVtjSF1jKFtjSF1uMSlbTkhdQyg9TylbTkhdW0NASF0yQyhbQ0gzXSkoW0NIM10pW0NAQEhdKFtDQEhdMjMpT1tDSDJdW0NIMl0z

> <s_epik_cmdline>
J2VwaWtfcHl0aG9uJywgJy1waCcsICc3LjAnLCAnLXRuJywgJzgnLCAnLW1hJywgJzIwMCcsICctbWV0YWxfYmluZGluZycsICctaW1hZScsICc8aW5maWxlLm1hZT4nLCAnLW9tYWUnLCAnPG91dGZpbGUubWFlPic=

> <r_lp_tautomer_probability>
0.999994

> <r_epik_Ionization_Penalty>
0.252205

> <r_epik_Ionization_Penalty_Charging>
0.252185

> <r_epik_Ionization_Penalty_Neutral>
1.99479e-05

> <r_epik_State_Penalty>
0.243573

> <r_epik_Charging_Adjusted_Penalty>
0.495758

> <i_epik_Tot_Q>
1

> <i_epik_Tot_abs_Q>
1

> <r_epik_Metal_State_Penalty>
0.534372

> <b_epik_Metal_Only>
0

> <s_lp_Force_Field>
OPLS_2005

> <r_lp_Energy>
67.7909

> <b_lp_Chiralities_Consistent>
1

> <s_lp_Variant>
AV-unprocessed.smi:2923-2

> <Gold.Version>
5.8.1

> <Gold.Id.Protein>
6NUR|6NUR_protein|mol2

> <Gold.PLP.Fitness>
40.7947

> <Gold.PLP.PLP>
-35.0671

> <Gold.PLP.part.hbond>
-2.2176

> <Gold.PLP.part.metal>
0.0000

> <Gold.PLP.part.buried>
-4.4777

> <Gold.PLP.part.nonpolar>
-28.6905

> <Gold.PLP.part.repulsive>
0.1683

> <Gold.PLP.ligand.clash>
0.0000

> <Gold.PLP.ligand.torsion>
0.2575

> <Gold.PLP.Chemscore.Hbond>
1.9920

> <Gold.PLP.Chemscore.CHOScore>
0.0000

> <Gold.PLP.Chemscore.Metal>
0.0000

> <Gold.Chemscore.Hbonds>
donor molecule, donor type, donor heavy atom, donor atom, acceptor molecule, acceptor atom, score
      L1  H     8    31       P1 10175  1.00
      L1  H    11    32       P1 10175  1.00

> <Gold.PLP.Chemscore.Internal.Correction>
0.2666

> <Gold.Rescore>
     Score         DG    S(hbond)    S(metal)    S(lipo)     H(rot)  DE(clash)    DE(int)     intcor
     13.80     -17.90       1.91        0.00      73.62       1.00       0.35       3.75       ----

> <Gold.Chemscore.Fitness>
13.8018

> <Gold.Chemscore.DG>
-17.9013

> <Gold.Chemscore.ZeroCoef>
-5.4800

> <Gold.Chemscore.Hbond>
1.9064

> <Gold.Chemscore.Metal>
0.0000

> <Gold.Chemscore.Lipo>
73.6222

> <Gold.Chemscore.Internal_Hbond>
0.0000

> <Gold.Chemscore.DEClash>
0.3543

> <Gold.Chemscore.DEInternal>
3.7451

> <Gold.Chemscore.Rot>
1.0000

> <Gold.Chemscore.Internal.Correction>
   9.000000E+99

> <Gold.Chemscore.Hbonds>
donor molecule, donor type, donor heavy atom, donor atom, acceptor molecule, acceptor atom, score
      L1  H     8    31       P1 10175  0.88
      L1  H    11    32       P1 10175  0.99

> <Gold.Chemscore.Hbond.Weighted>
-6.3675

> <Gold.Chemscore.Metal.Weighted>
-0.0000

> <Gold.Chemscore.Lipo.Weighted>
-8.6138

> <Gold.Chemscore.Internal_Hbond.Weighted>
0.0000

> <Gold.Chemscore.DEClash.Weighted>
0.3543

> <Gold.Chemscore.DEInternal.Weighted>
3.7451

> <Gold.Chemscore.Rot.Weighted>
2.5600

> <Gold.Chemscore.Internal.Correction.Weighted>
   9.000000E+99

> <Gold.Protein.RotatedTorsions>
[ 6907 6896 6895 6894 ] final  -17.85 input  -60.11 | X-H torsion
[ 7974 7965 7964 7962 ] final  -19.42 input  175.53 | X-H torsion
[ 8008 7997 7996 7995 ] final -112.40 input   59.86 | X-H torsion
[ 10167 10162 10161 10158 ] final  -46.43 input  -65.29 | X-H torsion
[ 10718 10713 10712 10709 ] final  -93.94 input   66.30 | X-H torsion
[ 10763 10752 10751 10750 ] final   71.91 input  -60.55 | X-H torsion
[ 11005 11000 10999 10996 ] final -159.60 input  -57.11 | X-H torsion

> <Gold.Protein.ActiveResidues>
 VAL166  LYS551  ARG553  GLY616  TRP617  ASP618  TYR619  PRO620  LYS621  CYS622 
 ASP623  PHE694  ASN695  SER759  ASP760  ASP761  ALA762  ILE779  LEU786  VAL792 
 PHE793  MET794  SER795  GLU796  ALA797  LYS798  CYS799  TRP800  GLU811  SER814 

> <Gold.Protein.RotatedAtoms>
  151.2871  135.0731  159.9190 H   0  0  0  0  0  0  0  0  0  0  0  0  # atno 6907 bound_to 6896
  152.5323  133.9970  159.7887 H   0  0  0  0  0  0  0  0  0  0  0  0  # atno 6908 bound_to 6896
  151.0234  133.5805  159.2699 H   0  0  0  0  0  0  0  0  0  0  0  0  # atno 6909 bound_to 6896
  146.1842  140.4060  142.8483 H   0  0  0  0  0  0  0  0  0  0  0  0  # atno 7974 bound_to 7965
  155.0046  140.0394  157.2374 H   0  0  0  0  0  0  0  0  0  0  0  0  # atno 8008 bound_to 7997
  154.7513  140.2767  155.6267 H   0  0  0  0  0  0  0  0  0  0  0  0  # atno 8009 bound_to 7997
  156.2886  140.2646  156.2268 H   0  0  0  0  0  0  0  0  0  0  0  0  # atno 8010 bound_to 7997
  140.6818  143.2831  151.3782 H   0  0  0  0  0  0  0  0  0  0  0  0  # atno 10167 bound_to 10162
  156.0020  130.5047  150.5851 H   0  0  0  0  0  0  0  0  0  0  0  0  # atno 10718 bound_to 10713
  153.0427  135.5119  154.7665 H   0  0  0  0  0  0  0  0  0  0  0  0  # atno 10763 bound_to 10752
  154.6589  135.2936  154.9894 H   0  0  0  0  0  0  0  0  0  0  0  0  # atno 10764 bound_to 10752
  154.0752  135.6672  153.4882 H   0  0  0  0  0  0  0  0  0  0  0  0  # atno 10765 bound_to 10752
  140.6408  134.4553  157.5233 H   0  0  0  0  0  0  0  0  0  0  0  0  # atno 11005 bound_to 11000
  144.8368  140.6794  143.6255 LP  0  0  0  0  0  0  0  0  0  0  0  0  # atno 17320 bound_to 7965
  145.3988  139.1602  143.4189 LP  0  0  0  0  0  0  0  0  0  0  0  0  # atno 17321 bound_to 7965
  139.6145  144.1030  152.2332 LP  0  0  0  0  0  0  0  0  0  0  0  0  # atno 17342 bound_to 10162
  140.0455  144.5974  150.7377 LP  0  0  0  0  0  0  0  0  0  0  0  0  # atno 17343 bound_to 10162
  157.3725  131.0768  151.1545 LP  0  0  0  0  0  0  0  0  0  0  0  0  # atno 17370 bound_to 10713
  157.2294  130.6518  149.5843 LP  0  0  0  0  0  0  0  0  0  0  0  0  # atno 17371 bound_to 10713
  139.9081  134.8405  156.1630 LP  0  0  0  0  0  0  0  0  0  0  0  0  # atno 17394 bound_to 11000
  141.0608  133.6843  156.1949 LP  0  0  0  0  0  0  0  0  0  0  0  0  # atno 17395 bound_to 11000

$$$$
