AV-unprocessed.smi:2909|AV-procd|sdf|11171|dock3
  -GOLD-   2272016 63D 1   1.00000     0.00000
 Structure written by MMmdl.
 44 45  0  0  0  0  0  0  0  0  1 V2000
  155.2014  143.0124  168.5148 C   0  0  0  0  0  0  0  0  0  0  0  0
  155.4002  141.8014  167.6684 C   0  0  0  0  0  0  0  0  0  0  0  0
  155.5257  141.6544  166.3158 C   0  0  0  0  0  0  0  0  0  0  0  0
  155.6983  140.2507  166.1266 C   0  0  0  0  0  0  0  0  0  0  0  0
  155.8890  139.5054  164.8326 C   0  0  0  0  0  0  0  0  0  0  0  0
  155.7778  140.4697  163.6515 C   0  0  0  0  0  0  0  0  0  0  0  0
  156.7855  141.0230  163.2113 O   0  0  0  0  0  0  0  0  0  0  0  0
  154.5469  140.6664  163.1526 N   0  0  0  0  0  0  0  0  0  0  0  0
  154.2169  141.5659  162.0520 C   0  0  2  0  0  0  0  0  0  0  0  0
  153.1903  142.6186  162.5037 C   0  0  0  0  0  0  0  0  0  0  0  0
  152.7717  143.5339  161.3425 C   0  0  0  0  0  0  0  0  0  0  0  0
  152.2132  142.7461  160.1315 C   0  0  1  0  0  0  0  0  0  0  0  0
  151.8114  143.6821  158.9532 C   0  0  0  0  0  0  0  0  0  0  0  0
  150.8258  144.7872  159.3813 C   0  0  0  0  0  0  0  0  0  0  0  0
  151.2065  142.9160  157.7606 C   0  0  0  0  0  0  0  0  0  0  0  0
  153.2456  141.6719  159.7075 C   0  0  0  0  0  0  0  0  0  0  0  0
  153.6575  140.7576  160.8723 C   0  0  0  0  0  0  0  0  0  0  0  0
  155.6748  139.5821  167.2714 N   0  0  0  0  0  0  0  0  0  0  0  0
  155.4961  140.5371  168.2022 N   0  0  0  0  0  0  0  0  0  0  0  0
  155.4416  140.3142  169.1861 H   0  0  0  0  0  0  0  0  0  0  0  0
  154.7505  143.8201  167.9379 H   0  0  0  0  0  0  0  0  0  0  0  0
  156.1536  143.3689  168.9076 H   0  0  0  0  0  0  0  0  0  0  0  0
  154.5460  142.7966  169.3589 H   0  0  0  0  0  0  0  0  0  0  0  0
  155.5023  142.4343  165.5691 H   0  0  0  0  0  0  0  0  0  0  0  0
  156.8623  139.0132  164.8046 H   0  0  0  0  0  0  0  0  0  0  0  0
  155.1422  138.7167  164.7340 H   0  0  0  0  0  0  0  0  0  0  0  0
  153.7783  140.1701  163.5798 H   0  0  0  0  0  0  0  0  0  0  0  0
  155.1245  142.0729  161.7184 H   0  0  0  0  0  0  0  0  0  0  0  0
  152.3073  142.1235  162.9103 H   0  0  0  0  0  0  0  0  0  0  0  0
  153.6032  143.2235  163.3120 H   0  0  0  0  0  0  0  0  0  0  0  0
  152.0288  144.2324  161.7248 H   0  0  0  0  0  0  0  0  0  0  0  0
  153.6272  144.1330  161.0282 H   0  0  0  0  0  0  0  0  0  0  0  0
  151.3136  142.2249  160.4628 H   0  0  0  0  0  0  0  0  0  0  0  0
  152.7135  144.1776  158.5920 H   0  0  0  0  0  0  0  0  0  0  0  0
  149.9344  144.3654  159.8466 H   0  0  0  0  0  0  0  0  0  0  0  0
  150.5015  145.3785  158.5243 H   0  0  0  0  0  0  0  0  0  0  0  0
  151.2751  145.4879  160.0840 H   0  0  0  0  0  0  0  0  0  0  0  0
  150.3543  142.3097  158.0693 H   0  0  0  0  0  0  0  0  0  0  0  0
  151.9341  142.2606  157.2835 H   0  0  0  0  0  0  0  0  0  0  0  0
  150.8595  143.6023  156.9876 H   0  0  0  0  0  0  0  0  0  0  0  0
  152.8423  141.0391  158.9182 H   0  0  0  0  0  0  0  0  0  0  0  0
  154.1318  142.1560  159.2949 H   0  0  0  0  0  0  0  0  0  0  0  0
  154.4020  140.0393  160.5268 H   0  0  0  0  0  0  0  0  0  0  0  0
  152.7937  140.1754  161.1968 H   0  0  0  0  0  0  0  0  0  0  0  0
  1  2  1  0  0  0  0
  1 21  1  0  0  0  0
  1 22  1  0  0  0  0
  1 23  1  0  0  0  0
  2 19  1  0  0  0  0
  2  3  2  0  0  0  0
  3  4  1  0  0  0  0
  3 24  1  0  0  0  0
  4  5  1  0  0  0  0
  4 18  2  0  0  0  0
  5  6  1  0  0  0  0
  5 25  1  0  0  0  0
  5 26  1  0  0  0  0
  6  7  2  0  0  0  0
  6  8  1  0  0  0  0
  8  9  1  0  0  0  0
  8 27  1  0  0  0  0
  9 17  1  0  0  0  0
  9 10  1  0  0  0  0
  9 28  1  0  0  0  0
 10 11  1  0  0  0  0
 10 29  1  0  0  0  0
 10 30  1  0  0  0  0
 11 12  1  0  0  0  0
 11 31  1  0  0  0  0
 11 32  1  0  0  0  0
 12 13  1  0  0  0  0
 12 16  1  0  0  0  0
 12 33  1  0  0  0  0
 13 14  1  0  0  0  0
 13 15  1  0  0  0  0
 13 34  1  0  0  0  0
 14 35  1  0  0  0  0
 14 36  1  0  0  0  0
 14 37  1  0  0  0  0
 15 38  1  0  0  0  0
 15 39  1  0  0  0  0
 15 40  1  0  0  0  0
 16 17  1  0  0  0  0
 16 41  1  0  0  0  0
 16 42  1  0  0  0  0
 17 43  1  0  0  0  0
 17 44  1  0  0  0  0
 18 19  1  0  0  0  0
 19 20  1  0  0  0  0
M  END
> <s_m_source_file>
AV-unprocessed.smi

> <i_m_source_file_index>
2909

> <i_lp_mmshare_version>
43012

> <i_f3d_flags>
0

> <s_epik_input>
W0NIM11jMVtjSF1jKG5bbkhdMSlbQ0gyXUMoPU8pW05IXVtDQEBIXTJbQ0gyXVtDSDJdW0NAQEhdKFtDSF0oW0NIM10pW0NIM10pW0NIMl1bQ0gyXTI=

> <s_epik_cmdline>
J2VwaWtfcHl0aG9uJywgJy1waCcsICc3LjAnLCAnLXRuJywgJzgnLCAnLW1hJywgJzIwMCcsICctbWV0YWxfYmluZGluZycsICctaW1hZScsICc8aW5maWxlLm1hZT4nLCAnLW9tYWUnLCAnPG91dGZpbGUubWFlPic=

> <r_lp_tautomer_probability>
0.5

> <r_epik_Ionization_Penalty>
9.34828e-05

> <r_epik_Ionization_Penalty_Charging>
0

> <r_epik_Ionization_Penalty_Neutral>
9.34828e-05

> <r_epik_State_Penalty>
0.41068

> <r_epik_Charging_Adjusted_Penalty>
0.41068

> <i_epik_Tot_Q>
0

> <i_epik_Tot_abs_Q>
0

> <r_epik_Metal_State_Penalty>
0.4107

> <b_epik_Metal_Only>
0

> <s_lp_Force_Field>
OPLS_2005

> <r_lp_Energy>
11.82

> <b_lp_Chiralities_Consistent>
1

> <s_lp_Variant>
AV-unprocessed.smi:2909-1

> <Gold.Version>
5.8.1

> <Gold.Id.Protein>
6NUR|6NUR_protein|mol2

> <Gold.PLP.Fitness>
41.0544

> <Gold.PLP.PLP>
-41.8443

> <Gold.PLP.part.hbond>
-1.4175

> <Gold.PLP.part.metal>
0.0000

> <Gold.PLP.part.buried>
-2.3219

> <Gold.PLP.part.nonpolar>
-37.0233

> <Gold.PLP.part.repulsive>
0.3007

> <Gold.PLP.ligand.clash>
0.0000

> <Gold.PLP.ligand.torsion>
0.4059

> <Gold.PLP.Chemscore.Hbond>
0.0000

> <Gold.PLP.Chemscore.CHOScore>
0.0000

> <Gold.PLP.Chemscore.Metal>
0.0000

> <Gold.PLP.Chemscore.Internal.Correction>
0.0218

> <Gold.Rescore>
     Score         DG    S(hbond)    S(metal)    S(lipo)     H(rot)  DE(clash)    DE(int)     intcor
     13.46     -16.22       0.00        0.00     124.65       1.50       2.36       0.41       ----

> <Gold.Chemscore.Fitness>
13.4593

> <Gold.Chemscore.DG>
-16.2210

> <Gold.Chemscore.ZeroCoef>
-5.4800

> <Gold.Chemscore.Hbond>
0.0000

> <Gold.Chemscore.Metal>
0.0000

> <Gold.Chemscore.Lipo>
124.6484

> <Gold.Chemscore.Internal_Hbond>
0.0000

> <Gold.Chemscore.DEClash>
2.3566

> <Gold.Chemscore.DEInternal>
0.4051

> <Gold.Chemscore.Rot>
1.5011

> <Gold.Chemscore.Internal.Correction>
   9.000000E+99

> <Gold.Chemscore.Hbond.Weighted>
-0.0000

> <Gold.Chemscore.Metal.Weighted>
-0.0000

> <Gold.Chemscore.Lipo.Weighted>
-14.5839

> <Gold.Chemscore.Internal_Hbond.Weighted>
0.0000

> <Gold.Chemscore.DEClash.Weighted>
2.3566

> <Gold.Chemscore.DEInternal.Weighted>
0.4051

> <Gold.Chemscore.Rot.Weighted>
3.8429

> <Gold.Chemscore.Internal.Correction.Weighted>
   9.000000E+99

> <Gold.Protein.RotatedTorsions>
[ 6907 6896 6895 6894 ] final -114.95 input  -60.11 | X-H torsion
[ 7974 7965 7964 7962 ] final  -31.45 input  175.53 | X-H torsion
[ 8008 7997 7996 7995 ] final   32.96 input   59.86 | X-H torsion
[ 10167 10162 10161 10158 ] final -166.97 input  -65.29 | X-H torsion
[ 10718 10713 10712 10709 ] final -171.92 input   66.30 | X-H torsion
[ 10763 10752 10751 10750 ] final    8.33 input  -60.55 | X-H torsion
[ 11005 11000 10999 10996 ] final   19.08 input  -57.11 | X-H torsion

> <Gold.Protein.ActiveResidues>
 VAL166  LYS551  ARG553  GLY616  TRP617  ASP618  TYR619  PRO620  LYS621  CYS622 
 ASP623  PHE694  ASN695  SER759  ASP760  ASP761  ALA762  ILE779  LEU786  VAL792 
 PHE793  MET794  SER795  GLU796  ALA797  LYS798  CYS799  TRP800  GLU811  SER814 

> <Gold.Protein.RotatedAtoms>
  150.7940  133.8728  159.3263 H   0  0  0  0  0  0  0  0  0  0  0  0  # atno 6907 bound_to 6896
  151.6558  135.0994  160.0179 H   0  0  0  0  0  0  0  0  0  0  0  0  # atno 6908 bound_to 6896
  152.4019  133.6792  159.6359 H   0  0  0  0  0  0  0  0  0  0  0  0  # atno 6909 bound_to 6896
  146.1066  140.5669  142.8797 H   0  0  0  0  0  0  0  0  0  0  0  0  # atno 7974 bound_to 7965
  155.1309  140.3257  155.4474 H   0  0  0  0  0  0  0  0  0  0  0  0  # atno 8008 bound_to 7997
  156.2634  140.2010  156.6377 H   0  0  0  0  0  0  0  0  0  0  0  0  # atno 8009 bound_to 7997
  154.6613  140.0547  157.0052 H   0  0  0  0  0  0  0  0  0  0  0  0  # atno 8010 bound_to 7997
  139.6080  144.0873  152.1813 H   0  0  0  0  0  0  0  0  0  0  0  0  # atno 10167 bound_to 10162
  156.7479  130.9367  151.3113 H   0  0  0  0  0  0  0  0  0  0  0  0  # atno 10718 bound_to 10713
  153.2263  135.6887  153.7941 H   0  0  0  0  0  0  0  0  0  0  0  0  # atno 10763 bound_to 10752
  153.7122  135.3280  155.3249 H   0  0  0  0  0  0  0  0  0  0  0  0  # atno 10764 bound_to 10752
  154.8293  135.4593  154.1131 H   0  0  0  0  0  0  0  0  0  0  0  0  # atno 10765 bound_to 10752
  140.4177  134.1552  155.7671 H   0  0  0  0  0  0  0  0  0  0  0  0  # atno 11005 bound_to 11000
  144.7476  140.5108  143.6825 LP  0  0  0  0  0  0  0  0  0  0  0  0  # atno 17320 bound_to 7965
  145.5748  139.1485  143.3268 LP  0  0  0  0  0  0  0  0  0  0  0  0  # atno 17321 bound_to 7965
  140.0485  144.5951  150.7355 LP  0  0  0  0  0  0  0  0  0  0  0  0  # atno 17342 bound_to 10162
  140.7299  143.2677  151.3990 LP  0  0  0  0  0  0  0  0  0  0  0  0  # atno 17343 bound_to 10162
  157.6790  130.9122  150.0220 LP  0  0  0  0  0  0  0  0  0  0  0  0  # atno 17370 bound_to 10713
  156.1421  130.3642  149.9566 LP  0  0  0  0  0  0  0  0  0  0  0  0  # atno 17371 bound_to 10713
  141.1796  133.8441  157.1303 LP  0  0  0  0  0  0  0  0  0  0  0  0  # atno 17394 bound_to 11000
  140.0222  134.9940  157.0615 LP  0  0  0  0  0  0  0  0  0  0  0  0  # atno 17395 bound_to 11000

$$$$
