AV-unprocessed.smi:1740|AV-procd|sdf|7007|dock1
  -GOLD-   22720 8223D 1   1.00000     0.00000
 Structure written by MMmdl.
 52 54  0  0  0  0  0  0  0  0  2 V2000
  142.0208  132.4873  147.8633 N   0  0  0  0  0  0  0  0  0  0  0  0
  143.2424  132.7996  148.3013 C   0  0  0  0  0  0  0  0  0  0  0  0
  143.8813  133.7450  147.8430 O   0  0  0  0  0  0  0  0  0  0  0  0
  143.8168  131.9345  149.4278 C   0  0  0  0  0  0  0  0  0  0  0  0
  144.8650  132.6338  150.2143 N   0  3  2  0  0  0  0  0  0  0  0  0
  145.4667  131.7809  151.2740 C   0  0  0  0  0  0  0  0  0  0  0  0
  146.6441  132.4961  151.9563 C   0  0  0  0  0  0  0  0  0  0  0  0
  146.2105  133.8511  152.5383 C   0  0  1  0  0  0  0  0  0  0  0  0
  147.3701  134.5411  153.0939 N   0  0  0  0  0  0  0  0  0  0  0  0
  148.2023  134.0372  154.0160 C   0  0  0  0  0  0  0  0  0  0  0  0
  148.0753  132.9151  154.5055 O   0  0  0  0  0  0  0  0  0  0  0  0
  149.1809  134.9094  154.3090 N   0  0  0  0  0  0  0  0  0  0  0  0
  150.2875  134.7401  155.1888 C   0  0  0  0  0  0  0  0  0  0  0  0
  150.5942  133.4865  155.7731 C   0  0  0  0  0  0  0  0  0  0  0  0
  151.6563  133.3939  156.6891 C   0  0  0  0  0  0  0  0  0  0  0  0
  152.3675  134.5637  157.0030 C   0  0  0  0  0  0  0  0  0  0  0  0
  152.0808  135.7663  156.4661 N   0  0  0  0  0  0  0  0  0  0  0  0
  151.0685  135.8688  155.5700 C   0  0  0  0  0  0  0  0  0  0  0  0
  150.8236  137.1498  155.0246 N   0  0  0  0  0  0  0  0  0  0  0  0
  151.8556  138.1684  155.1958 C   0  0  0  0  0  0  0  0  0  0  0  0
  151.1228  139.4963  155.4144 C   0  0  0  0  0  0  0  0  0  0  0  0
  149.7363  139.2446  154.8300 C   0  0  0  0  0  0  0  0  0  0  0  0
  149.5095  137.7707  155.1534 C   0  0  0  0  0  0  0  0  0  0  0  0
  145.5450  134.6974  151.4371 C   0  0  0  0  0  0  0  0  0  0  0  0
  144.3949  133.9316  150.7622 C   0  0  0  0  0  0  0  0  0  0  0  0
  141.6011  133.0321  147.1234 H   0  0  0  0  0  0  0  0  0  0  0  0
  141.5160  131.7126  148.2696 H   0  0  0  0  0  0  0  0  0  0  0  0
  142.9802  131.6768  150.0784 H   0  0  0  0  0  0  0  0  0  0  0  0
  144.2083  130.9954  149.0327 H   0  0  0  0  0  0  0  0  0  0  0  0
  144.7054  131.5233  152.0123 H   0  0  0  0  0  0  0  0  0  0  0  0
  145.8204  130.8422  150.8469 H   0  0  0  0  0  0  0  0  0  0  0  0
  147.0523  131.8630  152.7451 H   0  0  0  0  0  0  0  0  0  0  0  0
  147.4460  132.6418  151.2307 H   0  0  0  0  0  0  0  0  0  0  0  0
  145.4870  133.6670  153.3354 H   0  0  0  0  0  0  0  0  0  0  0  0
  147.5577  135.4701  152.7458 H   0  0  0  0  0  0  0  0  0  0  0  0
  149.1968  135.7575  153.7618 H   0  0  0  0  0  0  0  0  0  0  0  0
  150.0201  132.5996  155.5545 H   0  0  0  0  0  0  0  0  0  0  0  0
  151.9106  132.4509  157.1496 H   0  0  0  0  0  0  0  0  0  0  0  0
  153.1848  134.5353  157.7084 H   0  0  0  0  0  0  0  0  0  0  0  0
  152.5245  137.9412  156.0272 H   0  0  0  0  0  0  0  0  0  0  0  0
  152.4529  138.2198  154.2852 H   0  0  0  0  0  0  0  0  0  0  0  0
  151.0376  139.6961  156.4835 H   0  0  0  0  0  0  0  0  0  0  0  0
  151.6332  140.3426  154.9541 H   0  0  0  0  0  0  0  0  0  0  0  0
  148.9692  139.8953  155.2505 H   0  0  0  0  0  0  0  0  0  0  0  0
  149.7546  139.3925  153.7493 H   0  0  0  0  0  0  0  0  0  0  0  0
  148.7862  137.3138  154.4773 H   0  0  0  0  0  0  0  0  0  0  0  0
  149.1331  137.6781  156.1728 H   0  0  0  0  0  0  0  0  0  0  0  0
  145.1668  135.6314  151.8547 H   0  0  0  0  0  0  0  0  0  0  0  0
  146.2854  134.9738  150.6846 H   0  0  0  0  0  0  0  0  0  0  0  0
  143.9827  134.5435  149.9588 H   0  0  0  0  0  0  0  0  0  0  0  0
  143.5874  133.7569  151.4751 H   0  0  0  0  0  0  0  0  0  0  0  0
  145.6023  132.8531  149.5591 H   0  0  0  0  0  0  0  0  0  0  0  0
  1  2  1  0  0  0  0
  1 26  1  0  0  0  0
  1 27  1  0  0  0  0
  2  3  2  0  0  0  0
  2  4  1  0  0  0  0
  4  5  1  0  0  0  0
  4 28  1  0  0  0  0
  4 29  1  0  0  0  0
  5 25  1  0  0  0  0
  5  6  1  0  0  0  0
  5 52  1  0  0  0  0
  6  7  1  0  0  0  0
  6 30  1  0  0  0  0
  6 31  1  0  0  0  0
  7  8  1  0  0  0  0
  7 32  1  0  0  0  0
  7 33  1  0  0  0  0
  8  9  1  0  0  0  0
  8 24  1  0  0  0  0
  8 34  1  0  0  0  0
  9 10  1  0  0  0  0
  9 35  1  0  0  0  0
 10 11  2  0  0  0  0
 10 12  1  0  0  0  0
 12 13  1  0  0  0  0
 12 36  1  0  0  0  0
 13 18  1  0  0  0  0
 13 14  2  0  0  0  0
 14 15  1  0  0  0  0
 14 37  1  0  0  0  0
 15 16  2  0  0  0  0
 15 38  1  0  0  0  0
 16 17  1  0  0  0  0
 16 39  1  0  0  0  0
 17 18  2  0  0  0  0
 18 19  1  0  0  0  0
 19 23  1  0  0  0  0
 19 20  1  0  0  0  0
 20 21  1  0  0  0  0
 20 40  1  0  0  0  0
 20 41  1  0  0  0  0
 21 22  1  0  0  0  0
 21 42  1  0  0  0  0
 21 43  1  0  0  0  0
 22 23  1  0  0  0  0
 22 44  1  0  0  0  0
 22 45  1  0  0  0  0
 23 46  1  0  0  0  0
 23 47  1  0  0  0  0
 24 25  1  0  0  0  0
 24 48  1  0  0  0  0
 24 49  1  0  0  0  0
 25 50  1  0  0  0  0
 25 51  1  0  0  0  0
M  CHG  1   5   1
M  END
> <s_m_source_file>
AV-unprocessed.smi

> <i_m_source_file_index>
1740

> <i_lp_mmshare_version>
43012

> <i_f3d_flags>
0

> <s_epik_input>
W05IMl1DKD1PKVtDSDJdTjFbQ0gyXVtDSDJdW0NIXShbQ0gyXVtDSDJdMSlbTkhdQyg9TylbTkhdYzJbY0hdW2NIXVtjSF1uYzJOM1tDSDJdW0NIMl1bQ0gyXVtDSDJdMw==

> <s_epik_cmdline>
J2VwaWtfcHl0aG9uJywgJy1waCcsICc3LjAnLCAnLXRuJywgJzgnLCAnLW1hJywgJzIwMCcsICctbWV0YWxfYmluZGluZycsICctaW1hZScsICc8aW5maWxlLm1hZT4nLCAnLW9tYWUnLCAnPG91dGZpbGUubWFlPic=

> <r_lp_tautomer_probability>
1

> <r_epik_Ionization_Penalty>
0.91661

> <r_epik_Ionization_Penalty_Charging>
0.838844

> <r_epik_Ionization_Penalty_Neutral>
0.0777664

> <r_epik_State_Penalty>
0.927046

> <r_epik_Charging_Adjusted_Penalty>
1.76589

> <i_epik_Tot_Q>
1

> <i_epik_Tot_abs_Q>
1

> <r_epik_Metal_State_Penalty>
0.950555

> <b_epik_Metal_Only>
0

> <s_lp_Force_Field>
OPLS_2005

> <r_lp_Energy>
39.0638

> <b_lp_Chiralities_Consistent>
1

> <s_lp_Variant>
AV-unprocessed.smi:1740-2

> <Gold.Version>
5.8.1

> <Gold.Id.Protein>
6NUR|6NUR_protein|mol2

> <Gold.PLP.Fitness>
47.1333

> <Gold.PLP.PLP>
-33.2125

> <Gold.PLP.part.hbond>
-6.7268

> <Gold.PLP.part.metal>
0.0000

> <Gold.PLP.part.buried>
4.6455

> <Gold.PLP.part.nonpolar>
-36.1691

> <Gold.PLP.part.repulsive>
5.4611

> <Gold.PLP.ligand.clash>
0.0000

> <Gold.PLP.ligand.torsion>
0.5766

> <Gold.PLP.Chemscore.Hbond>
4.9149

> <Gold.PLP.Chemscore.CHOScore>
0.0000

> <Gold.PLP.Chemscore.Metal>
0.0000

> <Gold.Chemscore.Hbonds>
donor molecule, donor type, donor heavy atom, donor atom, acceptor molecule, acceptor atom, score
      L1  H     1    26       P1 10195  0.77
      L1  H     1    27       P1 10952  1.00
      L1  H     9    35       P1  7948  0.66
      L1  H    12    36       P1  7948  0.72
      P1  H  7918  7932       L1     3  0.39
      P1  H 10752 10765       L1    17  0.19

> <Gold.PLP.Chemscore.Internal.Correction>
0.3294

> <Gold.Rescore>
     Score         DG    S(hbond)    S(metal)    S(lipo)     H(rot)  DE(clash)    DE(int)     intcor
     13.59     -22.94       3.72        0.00      90.89       2.19       5.07       4.28       ----

> <Gold.Chemscore.Fitness>
13.5863

> <Gold.Chemscore.DG>
-22.9364

> <Gold.Chemscore.ZeroCoef>
-5.4800

> <Gold.Chemscore.Hbond>
3.7243

> <Gold.Chemscore.Metal>
0.0000

> <Gold.Chemscore.Lipo>
90.8851

> <Gold.Chemscore.Internal_Hbond>
0.0000

> <Gold.Chemscore.DEClash>
5.0696

> <Gold.Chemscore.DEInternal>
4.2804

> <Gold.Chemscore.Rot>
2.1939

> <Gold.Chemscore.Internal.Correction>
   9.000000E+99

> <Gold.Chemscore.Hbonds>
donor molecule, donor type, donor heavy atom, donor atom, acceptor molecule, acceptor atom, score
      L1  H     1    26       P1 10195  0.41
      L1  H     1    27       P1 10952  0.98
      L1  H     9    35       P1  7948  0.66
      L1  H    12    36       P1  7948  0.53
      P1  H  7918  7932       L1     3  0.36
      P1  H 10192 10197       L1     3  0.01

> <Gold.Chemscore.Hbond.Weighted>
-12.4391

> <Gold.Chemscore.Metal.Weighted>
-0.0000

> <Gold.Chemscore.Lipo.Weighted>
-10.6336

> <Gold.Chemscore.Internal_Hbond.Weighted>
0.0000

> <Gold.Chemscore.DEClash.Weighted>
5.0696

> <Gold.Chemscore.DEInternal.Weighted>
4.2804

> <Gold.Chemscore.Rot.Weighted>
5.6163

> <Gold.Chemscore.Internal.Correction.Weighted>
   9.000000E+99

> <Gold.Protein.RotatedTorsions>
[ 6907 6896 6895 6894 ] final  156.65 input  -60.11 | X-H torsion
[ 7974 7965 7964 7962 ] final -134.27 input  175.53 | X-H torsion
[ 8008 7997 7996 7995 ] final -165.25 input   59.86 | X-H torsion
[ 10167 10162 10161 10158 ] final  144.04 input  -65.29 | X-H torsion
[ 10718 10713 10712 10709 ] final -142.65 input   66.30 | X-H torsion
[ 10763 10752 10751 10750 ] final -120.44 input  -60.55 | X-H torsion
[ 11005 11000 10999 10996 ] final -175.56 input  -57.11 | X-H torsion

> <Gold.Protein.ActiveResidues>
 VAL166  LYS551  ARG553  GLY616  TRP617  ASP618  TYR619  PRO620  LYS621  CYS622 
 ASP623  PHE694  ASN695  SER759  ASP760  ASP761  ALA762  ILE779  LEU786  VAL792 
 PHE793  MET794  SER795  GLU796  ALA797  LYS798  CYS799  TRP800  GLU811  SER814 

> <Gold.Protein.RotatedAtoms>
  152.0266  133.3920  159.4279 H   0  0  0  0  0  0  0  0  0  0  0  0  # atno 6907 bound_to 6896
  150.6885  134.3567  159.4942 H   0  0  0  0  0  0  0  0  0  0  0  0  # atno 6908 bound_to 6896
  152.1348  134.9107  160.0607 H   0  0  0  0  0  0  0  0  0  0  0  0  # atno 6909 bound_to 6896
  144.9118  140.6905  143.5020 H   0  0  0  0  0  0  0  0  0  0  0  0  # atno 7974 bound_to 7965
  155.8471  140.0957  157.1698 H   0  0  0  0  0  0  0  0  0  0  0  0  # atno 8008 bound_to 7997
  154.3984  140.1390  156.3861 H   0  0  0  0  0  0  0  0  0  0  0  0  # atno 8009 bound_to 7997
  155.8001  140.3453  155.5400 H   0  0  0  0  0  0  0  0  0  0  0  0  # atno 8010 bound_to 7997
  139.4956  144.5999  151.6503 H   0  0  0  0  0  0  0  0  0  0  0  0  # atno 10167 bound_to 10162
  156.3484  130.7675  151.1824 H   0  0  0  0  0  0  0  0  0  0  0  0  # atno 10718 bound_to 10713
  154.8644  135.4203  154.2460 H   0  0  0  0  0  0  0  0  0  0  0  0  # atno 10763 bound_to 10752
  153.3416  135.6994  153.6868 H   0  0  0  0  0  0  0  0  0  0  0  0  # atno 10764 bound_to 10752
  153.5844  135.3567  155.2860 H   0  0  0  0  0  0  0  0  0  0  0  0  # atno 10765 bound_to 10752
  140.4620  134.6246  157.4846 H   0  0  0  0  0  0  0  0  0  0  0  0  # atno 11005 bound_to 11000
  145.3441  139.1724  143.4470 LP  0  0  0  0  0  0  0  0  0  0  0  0  # atno 17320 bound_to 7965
  146.3162  140.3486  142.8654 LP  0  0  0  0  0  0  0  0  0  0  0  0  # atno 17321 bound_to 7965
  140.5646  144.0211  150.6186 LP  0  0  0  0  0  0  0  0  0  0  0  0  # atno 17342 bound_to 10162
  140.3308  143.3079  152.0689 LP  0  0  0  0  0  0  0  0  0  0  0  0  # atno 17343 bound_to 10162
  157.7457  131.0434  150.4744 LP  0  0  0  0  0  0  0  0  0  0  0  0  # atno 17370 bound_to 10713
  156.4935  130.4100  149.6393 LP  0  0  0  0  0  0  0  0  0  0  0  0  # atno 17371 bound_to 10713
  139.9939  134.6941  155.9642 LP  0  0  0  0  0  0  0  0  0  0  0  0  # atno 17394 bound_to 11000
  141.1617  133.6538  156.4341 LP  0  0  0  0  0  0  0  0  0  0  0  0  # atno 17395 bound_to 11000

$$$$
