#       Name:                AV-unprocessed.smi:1788
#       Creating user name   scv26
#       Creation time:       Fri Mar 27 08:45:37 2020


#       File generated by GOLD software.
#

@<TRIPOS>MOLECULE
AV-unprocessed.smi:1788
    61    63     1
SMALL
NO_CHARGES


@<TRIPOS>ATOM
      1 ****        -1.2303   6.9679  -0.7871 C.3            1 S1                 0.0000
      2 ****        -1.4587   6.2768   0.5644 C.3            1 S1                 0.0000
      3 ****        -2.8672   6.5646   1.1103 C.3            1 S1                 0.0000
      4 ****        -3.0771   5.8420   2.4467 C.3            1 S1                 0.0000
      5 ****        -2.8010   4.3364   2.3073 C.3            1 S1                 0.0000
      6 ****        -1.4331   4.0887   1.7822 N.4            1 S1                 1.0000
      7 ****        -1.0927   2.6436   1.7635 C.3            1 S1                 0.0000
      8 ****         0.4290   2.3978   1.7872 C.3            1 S1                 0.0000
      9 ****         0.7443   0.9739   1.8039 N.am           1 S1                 0.0000
     10 ****         0.6865   0.1635   0.7374 C.2            1 S1                 0.0000
     11 ****         0.3340   0.5449  -0.3780 O.2            1 S1                 0.0000
     12 ****         1.0475  -1.0903   1.0614 N.am           1 S1                 0.0000
     13 ****         1.1396  -2.2460   0.2368 C.ar           1 S1                 0.0000
     14 ****         1.0445  -2.2463  -1.1748 C.ar           1 S1                 0.0000
     15 ****         1.1662  -3.4663  -1.8673 C.ar           1 S1                 0.0000
     16 ****         1.3858  -4.6596  -1.1399 C.ar           1 S1                 0.0000
     17 ****         1.5111  -5.8939  -1.8149 N.3            1 S1                 0.0000
     18 ****         1.5042  -7.1176  -1.0149 C.3            1 S1                 0.0000
     19 ****         1.3486  -8.3506  -1.9210 C.3            1 S1                 0.0000
     20 ****         2.3709  -8.3490  -2.9117 O.3            1 S1                 0.0000
     21 ****         2.2914  -7.2023  -3.7515 C.3            1 S1                 0.0000
     22 ****         2.4752  -5.9258  -2.9124 C.3            1 S1                 0.0000
     23 ****         1.4759  -4.6550   0.2125 N.ar           1 S1                 0.0000
     24 ****         1.3604  -3.4841   0.8722 C.ar           1 S1                 0.0000
     25 ****        -1.2249   4.7557   0.4683 C.3            1 S1                 0.0000
     26 ****        -1.9259   6.6013  -1.5425 H              1 S1                 0.0000
     27 ****        -0.2183   6.7922  -1.1531 H              1 S1                 0.0000
     28 ****        -1.3670   8.0465  -0.7045 H              1 S1                 0.0000
     29 ****        -0.7323   6.6856   1.2688 H              1 S1                 0.0000
     30 ****        -3.0110   7.6376   1.2422 H              1 S1                 0.0000
     31 ****        -3.6199   6.2346   0.3928 H              1 S1                 0.0000
     32 ****        -2.4158   6.2682   3.2023 H              1 S1                 0.0000
     33 ****        -4.0958   6.0033   2.8007 H              1 S1                 0.0000
     34 ****        -2.9149   3.8624   3.2830 H              1 S1                 0.0000
     35 ****        -3.5357   3.8780   1.6432 H              1 S1                 0.0000
     36 ****        -1.5229   2.1604   2.6420 H              1 S1                 0.0000
     37 ****        -1.5573   2.1719   0.8962 H              1 S1                 0.0000
     38 ****         0.9254   2.8596   0.9333 H              1 S1                 0.0000
     39 ****         0.8635   2.8503   2.6789 H              1 S1                 0.0000
     40 ****         1.0436   0.5814   2.6848 H              1 S1                 0.0000
     41 ****         1.2687  -1.2453   2.0342 H              1 S1                 0.0000
     42 ****         0.8870  -1.3465  -1.7471 H              1 S1                 0.0000
     43 ****         1.0766  -3.4713  -2.9433 H              1 S1                 0.0000
     44 ****         2.4354  -7.1845  -0.4505 H              1 S1                 0.0000
     45 ****         0.6856  -7.0951  -0.2943 H              1 S1                 0.0000
     46 ****         1.4283  -9.2630  -1.3299 H              1 S1                 0.0000
     47 ****         0.3661  -8.3634  -2.3958 H              1 S1                 0.0000
     48 ****         3.0695  -7.2660  -4.5123 H              1 S1                 0.0000
     49 ****         1.3345  -7.1880  -4.2759 H              1 S1                 0.0000
     50 ****         2.3774  -5.0594  -3.5646 H              1 S1                 0.0000
     51 ****         3.4825  -5.8962  -2.4950 H              1 S1                 0.0000
     52 ****         1.4465  -3.5407   1.9476 H              1 S1                 0.0000
     53 ****        -1.8962   4.3167  -0.2720 H              1 S1                 0.0000
     54 ****        -0.2104   4.5776   0.1139 H              1 S1                 0.0000
     55 ****        -0.7989   4.5231   2.4375 H              1 S1                 0.0000
     56 ****         0.0736   1.4998  -0.5207 LP             1 S1                 0.0000
     57 ****         0.3080  -0.1000  -1.1418 LP             1 S1                 0.0000
     58 ****         0.6112  -5.9179  -2.2503 LP             1 S1                 0.0000
     59 ****         2.2771  -9.1699  -3.4750 LP             1 S1                 0.0000
     60 ****         3.2618  -8.3565  -2.4576 LP             1 S1                 0.0000
     61 ****         1.6258  -5.5072   0.7138 LP             1 S1                 0.0000
@<TRIPOS>BOND
    1    1    2 1     
    2    1   26 1     
    3    1   27 1     
    4    1   28 1     
    5    2   25 1     
    6    2    3 1     
    7    2   29 1     
    8    3    4 1     
    9    3   30 1     
   10    3   31 1     
   11    4    5 1     
   12    4   32 1     
   13    4   33 1     
   14    5    6 1     
   15    5   34 1     
   16    5   35 1     
   17    6    7 1     
   18    6   25 1     
   19    6   55 1     
   20    7    8 1     
   21    7   36 1     
   22    7   37 1     
   23    8    9 1     
   24    8   38 1     
   25    8   39 1     
   26    9   10 am    
   27    9   40 1     
   28   10   11 2     
   29   10   12 am    
   30   12   13 1     
   31   12   41 1     
   32   13   24 ar    
   33   13   14 ar    
   34   14   15 ar    
   35   14   42 1     
   36   15   16 ar    
   37   15   43 1     
   38   16   17 1     
   39   16   23 ar    
   40   17   22 1     
   41   17   18 1     
   42   18   19 1     
   43   18   44 1     
   44   18   45 1     
   45   19   20 1     
   46   19   46 1     
   47   19   47 1     
   48   20   21 1     
   49   21   22 1     
   50   21   48 1     
   51   21   49 1     
   52   22   50 1     
   53   22   51 1     
   54   23   24 ar    
   55   24   52 1     
   56   25   53 1     
   57   25   54 1     
   58   11   56 1     
   59   11   57 1     
   60   17   58 1     
   61   20   59 1     
   62   20   60 1     
   63   23   61 1     
@<TRIPOS>SUBSTRUCTURE
      1 S1             1
@<TRIPOS>SET
LONE_PAIRS      STATIC     ATOMS    <user>   **** ""
6 56 57 58 59 60 61
DONOR_HYDROGENS      STATIC     ATOMS    <user>   **** ""
3 55 40 41
ATOM$BLUE        STATIC     ATOMS    COLORGROUP SYSTEM
6 56 57 58 59 60 61
ATOM$RED        STATIC     ATOMS    COLORGROUP SYSTEM
3 55 40 41
