AV-unprocessed.smi:232|AV-procd|sdf|1780|dock5
  -GOLD-   2262020323D 1   1.00000     0.00000
 Structure written by MMmdl.
 52 55  0  0  0  0  0  0  0  0  1 V2000
  151.9739  144.8781  158.8876 C   0  0  0  0  0  0  0  0  0  0  0  0
  151.4882  143.4305  158.7436 C   0  0  0  0  0  0  0  0  0  0  0  0
  152.6189  142.3921  158.9029 C   0  0  1  0  0  0  0  0  0  0  0  0
  153.2969  142.4172  160.2822 C   0  0  0  0  0  0  0  0  0  0  0  0
  153.6564  140.9556  160.5749 C   0  0  0  0  0  0  0  0  0  0  0  0
  153.2196  140.1943  159.3196 C   0  0  1  0  0  0  0  0  0  0  0  0
  152.7751  138.7499  159.6011 C   0  0  0  0  0  0  0  0  0  0  0  0
  152.1623  141.0160  158.7420 N   0  0  0  0  0  0  0  0  0  0  0  0
  151.7702  140.6886  157.4879 C   0  0  0  0  0  0  0  0  0  0  0  0
  152.5419  139.8838  156.7095 N   0  0  0  0  0  0  0  0  0  0  0  0
  152.1474  139.5762  155.4700 C   0  0  0  0  0  0  0  0  0  0  0  0
  151.0431  139.9603  154.8251 N   0  0  0  0  0  0  0  0  0  0  0  0
  150.2711  140.7700  155.6056 C   0  0  0  0  0  0  0  0  0  0  0  0
  150.5581  141.1796  156.9370 C   0  0  0  0  0  0  0  0  0  0  0  0
  149.5448  142.0020  157.4133 N   0  0  0  0  0  0  0  0  0  0  0  0
  148.7038  142.0753  156.4172 C   0  0  0  0  0  0  0  0  0  0  0  0
  149.0613  141.3632  155.2940 N   0  0  0  0  0  0  0  0  0  0  0  0
  148.3191  141.2647  154.0501 C   0  0  0  0  0  0  0  0  0  0  0  0
  147.8109  139.8345  153.7836 C   0  0  1  0  0  0  0  0  0  0  0  0
  148.8926  138.9655  153.5023 O   0  0  0  0  0  0  0  0  0  0  0  0
  146.9528  139.2784  154.9378 C   0  0  1  0  0  0  0  0  0  0  0  0
  145.6841  140.0764  155.2845 C   0  0  0  0  0  0  0  0  0  0  0  0
  144.5851  139.0261  155.2991 C   0  0  0  0  0  0  0  0  0  0  0  0
  145.3526  137.7167  155.4377 C   0  0  0  0  0  0  0  0  0  0  0  0
  146.5208  137.9491  154.6691 O   0  0  0  0  0  0  0  0  0  0  0  0
  151.1528  145.5783  158.7328 H   0  0  0  0  0  0  0  0  0  0  0  0
  152.7484  145.1071  158.1553 H   0  0  0  0  0  0  0  0  0  0  0  0
  152.3839  145.0655  159.8802 H   0  0  0  0  0  0  0  0  0  0  0  0
  150.7001  143.2346  159.4716 H   0  0  0  0  0  0  0  0  0  0  0  0
  151.0263  143.3263  157.7615 H   0  0  0  0  0  0  0  0  0  0  0  0
  153.3803  142.5843  158.1443 H   0  0  0  0  0  0  0  0  0  0  0  0
  154.1745  143.0646  160.2804 H   0  0  0  0  0  0  0  0  0  0  0  0
  152.6160  142.7857  161.0508 H   0  0  0  0  0  0  0  0  0  0  0  0
  154.7185  140.8198  160.7812 H   0  0  0  0  0  0  0  0  0  0  0  0
  153.1021  140.6127  161.4497 H   0  0  0  0  0  0  0  0  0  0  0  0
  154.0661  140.1726  158.6311 H   0  0  0  0  0  0  0  0  0  0  0  0
  153.5778  138.1816  160.0712 H   0  0  0  0  0  0  0  0  0  0  0  0
  152.5016  138.2309  158.6819 H   0  0  0  0  0  0  0  0  0  0  0  0
  151.9124  138.7237  160.2674 H   0  0  0  0  0  0  0  0  0  0  0  0
  152.8123  138.9307  154.9153 H   0  0  0  0  0  0  0  0  0  0  0  0
  147.7919  142.6516  156.4761 H   0  0  0  0  0  0  0  0  0  0  0  0
  147.4863  141.9686  154.0851 H   0  0  0  0  0  0  0  0  0  0  0  0
  148.9701  141.5915  153.2385 H   0  0  0  0  0  0  0  0  0  0  0  0
  147.1881  139.8506  152.8881 H   0  0  0  0  0  0  0  0  0  0  0  0
  149.4288  139.3632  152.8335 H   0  0  0  0  0  0  0  0  0  0  0  0
  147.5732  139.2253  155.8342 H   0  0  0  0  0  0  0  0  0  0  0  0
  145.7904  140.5419  156.2652 H   0  0  0  0  0  0  0  0  0  0  0  0
  145.4598  140.8692  154.5704 H   0  0  0  0  0  0  0  0  0  0  0  0
  143.8582  139.1785  156.0974 H   0  0  0  0  0  0  0  0  0  0  0  0
  144.0520  139.0390  154.3477 H   0  0  0  0  0  0  0  0  0  0  0  0
  145.6277  137.5322  156.4774 H   0  0  0  0  0  0  0  0  0  0  0  0
  144.7920  136.8571  155.0701 H   0  0  0  0  0  0  0  0  0  0  0  0
  1  2  1  0  0  0  0
  1 26  1  0  0  0  0
  1 27  1  0  0  0  0
  1 28  1  0  0  0  0
  2  3  1  0  0  0  0
  2 29  1  0  0  0  0
  2 30  1  0  0  0  0
  3  8  1  0  0  0  0
  3  4  1  0  0  0  0
  3 31  1  0  0  0  0
  4  5  1  0  0  0  0
  4 32  1  0  0  0  0
  4 33  1  0  0  0  0
  5  6  1  0  0  0  0
  5 34  1  0  0  0  0
  5 35  1  0  0  0  0
  6  7  1  0  0  0  0
  6  8  1  0  0  0  0
  6 36  1  0  0  0  0
  7 37  1  0  0  0  0
  7 38  1  0  0  0  0
  7 39  1  0  0  0  0
  8  9  1  0  0  0  0
  9 14  1  0  0  0  0
  9 10  2  0  0  0  0
 10 11  1  0  0  0  0
 11 12  2  0  0  0  0
 11 40  1  0  0  0  0
 12 13  1  0  0  0  0
 13 17  1  0  0  0  0
 13 14  2  0  0  0  0
 14 15  1  0  0  0  0
 15 16  2  0  0  0  0
 16 17  1  0  0  0  0
 16 41  1  0  0  0  0
 17 18  1  0  0  0  0
 18 19  1  0  0  0  0
 18 42  1  0  0  0  0
 18 43  1  0  0  0  0
 19 20  1  0  0  0  0
 19 21  1  0  0  0  0
 19 44  1  0  0  0  0
 20 45  1  0  0  0  0
 21 25  1  0  0  0  0
 21 22  1  0  0  0  0
 21 46  1  0  0  0  0
 22 23  1  0  0  0  0
 22 47  1  0  0  0  0
 22 48  1  0  0  0  0
 23 24  1  0  0  0  0
 23 49  1  0  0  0  0
 23 50  1  0  0  0  0
 24 25  1  0  0  0  0
 24 51  1  0  0  0  0
 24 52  1  0  0  0  0
M  END
> <s_m_source_file>
AV-unprocessed.smi

> <i_m_source_file_index>
232

> <i_lp_mmshare_version>
43012

> <i_f3d_flags>
0

> <s_epik_input>
W0NIM11bQ0gyXVtDQEBIXTFbQ0gyXVtDSDJdW0NAQEhdKFtDSDNdKU4xYyhuW2NIXW4yKWMoYzIzKW5bY0hdbjNbQ0gyXVtDQEhdKFtPSF0pW0NAQEhdNFtDSDJdW0NIMl1bQ0gyXU80

> <s_epik_cmdline>
J2VwaWtfcHl0aG9uJywgJy1waCcsICc3LjAnLCAnLXRuJywgJzgnLCAnLW1hJywgJzIwMCcsICctbWV0YWxfYmluZGluZycsICctaW1hZScsICc8aW5maWxlLm1hZT4nLCAnLW9tYWUnLCAnPG91dGZpbGUubWFlPic=

> <r_lp_tautomer_probability>
1

> <r_epik_Ionization_Penalty>
0.00258048

> <r_epik_Ionization_Penalty_Charging>
0

> <r_epik_Ionization_Penalty_Neutral>
0.00258048

> <r_epik_State_Penalty>
0.00168551

> <r_epik_Charging_Adjusted_Penalty>
0.00168551

> <i_epik_Tot_Q>
0

> <i_epik_Tot_abs_Q>
0

> <r_epik_Metal_State_Penalty>
-0

> <b_epik_Metal_Only>
0

> <s_lp_Force_Field>
OPLS_2005

> <r_lp_Energy>
53.8555

> <b_lp_Chiralities_Consistent>
1

> <s_lp_Variant>
AV-unprocessed.smi:232-14

> <Gold.Version>
5.8.1

> <Gold.Id.Protein>
6NUR|6NUR_protein|mol2

> <Gold.PLP.Fitness>
52.0389

> <Gold.PLP.PLP>
-42.9276

> <Gold.PLP.part.hbond>
-3.6241

> <Gold.PLP.part.metal>
0.0000

> <Gold.PLP.part.buried>
-3.3380

> <Gold.PLP.part.nonpolar>
-36.7988

> <Gold.PLP.part.repulsive>
0.2640

> <Gold.PLP.ligand.clash>
0.0000

> <Gold.PLP.ligand.torsion>
0.4065

> <Gold.PLP.Chemscore.Hbond>
3.0000

> <Gold.PLP.Chemscore.CHOScore>
0.2692

> <Gold.PLP.Chemscore.Metal>
0.0000

> <Gold.Chemscore.Hbonds>
donor molecule, donor type, donor heavy atom, donor atom, acceptor molecule, acceptor atom, score
      L1  H    20    45       P1  7957  1.00
      P1  H  7989  7998       L1    12  1.00
      P1  H  7997  8009       L1    10  1.00
      L1  C    16    41       P1  8028  0.29

> <Gold.PLP.Chemscore.Internal.Correction>
0.1169

> <Gold.Rescore>
     Score         DG    S(hbond)    S(metal)    S(lipo)     H(rot)  DE(clash)    DE(int)     intcor
     13.41     -16.58       1.93        0.00      93.01       2.43       1.29       1.88       ----

> <Gold.Chemscore.Fitness>
13.4100

> <Gold.Chemscore.DG>
-16.5827

> <Gold.Chemscore.ZeroCoef>
-5.4800

> <Gold.Chemscore.Hbond>
1.9256

> <Gold.Chemscore.Metal>
0.0000

> <Gold.Chemscore.Lipo>
93.0073

> <Gold.Chemscore.Internal_Hbond>
0.0000

> <Gold.Chemscore.DEClash>
1.2919

> <Gold.Chemscore.DEInternal>
1.8809

> <Gold.Chemscore.Rot>
2.4260

> <Gold.Chemscore.Internal.Correction>
   9.000000E+99

> <Gold.Chemscore.Hbonds>
donor molecule, donor type, donor heavy atom, donor atom, acceptor molecule, acceptor atom, score
      L1  H    20    45       P1  7957  0.94
      P1  H  7989  7998       L1    12  0.31
      P1  H  7997  8009       L1    10  0.30

> <Gold.Chemscore.Hbond.Weighted>
-6.4315

> <Gold.Chemscore.Metal.Weighted>
-0.0000

> <Gold.Chemscore.Lipo.Weighted>
-10.8819

> <Gold.Chemscore.Internal_Hbond.Weighted>
0.0000

> <Gold.Chemscore.DEClash.Weighted>
1.2919

> <Gold.Chemscore.DEInternal.Weighted>
1.8809

> <Gold.Chemscore.Rot.Weighted>
6.2107

> <Gold.Chemscore.Internal.Correction.Weighted>
   9.000000E+99

> <Gold.Protein.RotatedTorsions>
[ 6907 6896 6895 6894 ] final  104.26 input  -60.11 | X-H torsion
[ 7974 7965 7964 7962 ] final   75.25 input  175.53 | X-H torsion
[ 8008 7997 7996 7995 ] final -169.40 input   59.86 | X-H torsion
[ 10167 10162 10161 10158 ] final  109.18 input  -65.29 | X-H torsion
[ 10718 10713 10712 10709 ] final  158.42 input   66.30 | X-H torsion
[ 10763 10752 10751 10750 ] final  -97.32 input  -60.55 | X-H torsion
[ 11005 11000 10999 10996 ] final  137.81 input  -57.11 | X-H torsion

> <Gold.Protein.ActiveResidues>
 VAL166  LYS551  ARG553  GLY616  TRP617  ASP618  TYR619  PRO620  LYS621  CYS622 
 ASP623  PHE694  ASN695  SER759  ASP760  ASP761  ALA762  ILE779  LEU786  VAL792 
 PHE793  MET794  SER795  GLU796  ALA797  LYS798  CYS799  TRP800  GLU811  SER814 

> <Gold.Protein.RotatedAtoms>
  152.5270  133.9704  159.7758 H   0  0  0  0  0  0  0  0  0  0  0  0  # atno 6907 bound_to 6896
  150.9977  133.6079  159.2706 H   0  0  0  0  0  0  0  0  0  0  0  0  # atno 6908 bound_to 6896
  151.3199  135.0822  159.9355 H   0  0  0  0  0  0  0  0  0  0  0  0  # atno 6909 bound_to 6896
  145.7179  139.2638  143.1613 H   0  0  0  0  0  0  0  0  0  0  0  0  # atno 7974 bound_to 7965
  155.9045  140.1046  157.1325 H   0  0  0  0  0  0  0  0  0  0  0  0  # atno 8008 bound_to 7997
  154.4031  140.1286  156.4542 H   0  0  0  0  0  0  0  0  0  0  0  0  # atno 8009 bound_to 7997
  155.7384  140.3467  155.5094 H   0  0  0  0  0  0  0  0  0  0  0  0  # atno 8010 bound_to 7997
  139.6787  144.7120  151.1555 H   0  0  0  0  0  0  0  0  0  0  0  0  # atno 10167 bound_to 10162
  157.1781  131.0626  151.2147 H   0  0  0  0  0  0  0  0  0  0  0  0  # atno 10718 bound_to 10713
  154.7318  135.5051  153.8976 H   0  0  0  0  0  0  0  0  0  0  0  0  # atno 10763 bound_to 10752
  153.0957  135.6671  153.9777 H   0  0  0  0  0  0  0  0  0  0  0  0  # atno 10764 bound_to 10752
  153.9576  135.3051  155.3414 H   0  0  0  0  0  0  0  0  0  0  0  0  # atno 10765 bound_to 10752
  140.0140  134.9426  157.0337 H   0  0  0  0  0  0  0  0  0  0  0  0  # atno 11005 bound_to 11000
  146.0652  140.7928  142.9715 LP  0  0  0  0  0  0  0  0  0  0  0  0  # atno 17320 bound_to 7965
  144.6924  140.3258  143.7224 LP  0  0  0  0  0  0  0  0  0  0  0  0  # atno 17321 bound_to 7965
  140.7644  143.5732  150.8973 LP  0  0  0  0  0  0  0  0  0  0  0  0  # atno 17342 bound_to 10162
  139.9402  143.6390  152.3055 LP  0  0  0  0  0  0  0  0  0  0  0  0  # atno 17343 bound_to 10162
  157.3979  130.7317  149.6745 LP  0  0  0  0  0  0  0  0  0  0  0  0  # atno 17370 bound_to 10713
  155.9728  130.4129  150.4053 LP  0  0  0  0  0  0  0  0  0  0  0  0  # atno 17371 bound_to 10713
  140.4504  134.1588  155.7181 LP  0  0  0  0  0  0  0  0  0  0  0  0  # atno 17394 bound_to 11000
  141.1730  133.8570  157.1510 LP  0  0  0  0  0  0  0  0  0  0  0  0  # atno 17395 bound_to 11000

$$$$
