AV-unprocessed.smi:1692|AV-procd|sdf|6783|dock1
  -GOLD-   22720 7543D 1   1.00000     0.00000
 Structure written by MMmdl.
 45 46  0  0  0  0  0  0  0  0  1 V2000
  151.2118  142.2225  157.3686 C   0  0  0  0  0  0  0  0  0  0  0  0
  151.3450  141.3293  156.1308 C   0  0  2  0  0  0  0  0  0  0  0  0
  149.9743  140.8973  155.5743 C   0  0  0  0  0  0  0  0  0  0  0  0
  150.1065  139.9795  154.4451 N   0  0  0  0  0  0  0  0  0  0  0  0
  148.8130  139.5428  153.9212 C   0  0  0  0  0  0  0  0  0  0  0  0
  148.0737  138.5122  154.7916 C   0  0  0  0  0  0  0  0  0  0  0  0
  146.7126  138.1189  154.1956 C   0  0  0  0  0  0  0  0  0  0  0  0
  146.8416  137.0317  153.2320 N   0  0  0  0  0  0  0  0  0  0  0  0
  145.8759  136.1510  152.9306 C   0  0  0  0  0  0  0  0  0  0  0  0
  144.7574  136.1682  153.4457 O   0  0  0  0  0  0  0  0  0  0  0  0
  146.2939  135.2682  152.0061 N   0  0  0  0  0  0  0  0  0  0  0  0
  145.5715  134.1882  151.4320 C   0  0  0  0  0  0  0  0  0  0  0  0
  146.3692  133.1429  150.9134 C   0  0  0  0  0  0  0  0  0  0  0  0
  145.7487  132.0242  150.3244 C   0  0  0  0  0  0  0  0  0  0  0  0
  144.3443  131.9792  150.2689 C   0  0  0  0  0  0  0  0  0  0  0  0
  143.6245  133.0615  150.8076 C   0  0  0  0  0  0  0  0  0  0  0  0
  144.2172  134.1346  151.3725 N   0  0  0  0  0  0  0  0  0  0  0  0
  150.9149  138.8373  154.8575 C   0  0  0  0  0  0  0  0  0  0  0  0
  152.2882  139.2678  155.4070 C   0  0  2  0  0  0  0  0  0  0  0  0
  153.1097  138.0770  155.9125 C   0  0  0  0  0  0  0  0  0  0  0  0
  152.0902  140.1697  156.4922 O   0  0  0  0  0  0  0  0  0  0  0  0
  150.6574  143.1324  157.1373 H   0  0  0  0  0  0  0  0  0  0  0  0
  152.1923  142.5167  157.7436 H   0  0  0  0  0  0  0  0  0  0  0  0
  150.6883  141.7055  158.1733 H   0  0  0  0  0  0  0  0  0  0  0  0
  151.8945  141.8759  155.3625 H   0  0  0  0  0  0  0  0  0  0  0  0
  149.3922  140.4246  156.3672 H   0  0  0  0  0  0  0  0  0  0  0  0
  149.4257  141.7893  155.2734 H   0  0  0  0  0  0  0  0  0  0  0  0
  148.1652  140.4150  153.8237 H   0  0  0  0  0  0  0  0  0  0  0  0
  148.9365  139.1480  152.9114 H   0  0  0  0  0  0  0  0  0  0  0  0
  148.6828  137.6160  154.9101 H   0  0  0  0  0  0  0  0  0  0  0  0
  147.9261  138.9233  155.7910 H   0  0  0  0  0  0  0  0  0  0  0  0
  146.0421  137.7871  154.9885 H   0  0  0  0  0  0  0  0  0  0  0  0
  146.2355  138.9815  153.7270 H   0  0  0  0  0  0  0  0  0  0  0  0
  147.7304  136.9450  152.7612 H   0  0  0  0  0  0  0  0  0  0  0  0
  147.2406  135.3808  151.6752 H   0  0  0  0  0  0  0  0  0  0  0  0
  147.4472  133.1929  150.9647 H   0  0  0  0  0  0  0  0  0  0  0  0
  146.3408  131.2149  149.9235 H   0  0  0  0  0  0  0  0  0  0  0  0
  143.8324  131.1380  149.8255 H   0  0  0  0  0  0  0  0  0  0  0  0
  142.5450  133.0663  150.7852 H   0  0  0  0  0  0  0  0  0  0  0  0
  150.3825  138.2657  155.6197 H   0  0  0  0  0  0  0  0  0  0  0  0
  151.0616  138.1659  154.0107 H   0  0  0  0  0  0  0  0  0  0  0  0
  152.8533  139.7756  154.6233 H   0  0  0  0  0  0  0  0  0  0  0  0
  153.3050  137.3664  155.1091 H   0  0  0  0  0  0  0  0  0  0  0  0
  152.5878  137.5466  156.7095 H   0  0  0  0  0  0  0  0  0  0  0  0
  154.0716  138.4066  156.3056 H   0  0  0  0  0  0  0  0  0  0  0  0
  1  2  1  0  0  0  0
  1 22  1  0  0  0  0
  1 23  1  0  0  0  0
  1 24  1  0  0  0  0
  2 21  1  0  0  0  0
  2  3  1  0  0  0  0
  2 25  1  0  0  0  0
  3  4  1  0  0  0  0
  3 26  1  0  0  0  0
  3 27  1  0  0  0  0
  4  5  1  0  0  0  0
  4 18  1  0  0  0  0
  5  6  1  0  0  0  0
  5 28  1  0  0  0  0
  5 29  1  0  0  0  0
  6  7  1  0  0  0  0
  6 30  1  0  0  0  0
  6 31  1  0  0  0  0
  7  8  1  0  0  0  0
  7 32  1  0  0  0  0
  7 33  1  0  0  0  0
  8  9  1  0  0  0  0
  8 34  1  0  0  0  0
  9 10  2  0  0  0  0
  9 11  1  0  0  0  0
 11 12  1  0  0  0  0
 11 35  1  0  0  0  0
 12 17  1  0  0  0  0
 12 13  2  0  0  0  0
 13 14  1  0  0  0  0
 13 36  1  0  0  0  0
 14 15  2  0  0  0  0
 14 37  1  0  0  0  0
 15 16  1  0  0  0  0
 15 38  1  0  0  0  0
 16 17  2  0  0  0  0
 16 39  1  0  0  0  0
 18 19  1  0  0  0  0
 18 40  1  0  0  0  0
 18 41  1  0  0  0  0
 19 20  1  0  0  0  0
 19 21  1  0  0  0  0
 19 42  1  0  0  0  0
 20 43  1  0  0  0  0
 20 44  1  0  0  0  0
 20 45  1  0  0  0  0
M  END
> <s_m_source_file>
AV-unprocessed.smi

> <i_m_source_file_index>
1692

> <i_lp_mmshare_version>
43012

> <i_f3d_flags>
0

> <s_epik_input>
W0NIM11bQ0BASF0xW0NIMl1OKFtDSDJdW0NASF0oTzEpW0NIM10pW0NIMl1bQ0gyXVtDSDJdW05IXUMoPU8pW05IXWMyW2NIXVtjSF1bY0hdW2NIXW4y

> <s_epik_cmdline>
J2VwaWtfcHl0aG9uJywgJy1waCcsICc3LjAnLCAnLXRuJywgJzgnLCAnLW1hJywgJzIwMCcsICctbWV0YWxfYmluZGluZycsICctaW1hZScsICc8aW5maWxlLm1hZT4nLCAnLW9tYWUnLCAnPG91dGZpbGUubWFlPic=

> <r_epik_Ionization_Penalty>
0.594711

> <r_epik_Ionization_Penalty_Charging>
0

> <r_epik_Ionization_Penalty_Neutral>
0.594711

> <r_epik_State_Penalty>
0.608529

> <r_epik_Charging_Adjusted_Penalty>
0.608529

> <i_epik_Tot_Q>
0

> <i_epik_Tot_abs_Q>
0

> <r_epik_Metal_State_Penalty>
0.608528

> <b_epik_Metal_Only>
0

> <s_lp_Force_Field>
OPLS_2005

> <r_lp_Energy>
22.8086

> <b_lp_Chiralities_Consistent>
1

> <s_lp_Variant>
AV-unprocessed.smi:1692-6

> <Gold.Version>
5.8.1

> <Gold.Id.Protein>
6NUR|6NUR_protein|mol2

> <Gold.PLP.Fitness>
46.0357

> <Gold.PLP.PLP>
-35.8299

> <Gold.PLP.part.hbond>
-3.3915

> <Gold.PLP.part.metal>
0.0000

> <Gold.PLP.part.buried>
-3.3652

> <Gold.PLP.part.nonpolar>
-29.6251

> <Gold.PLP.part.repulsive>
0.3772

> <Gold.PLP.ligand.clash>
0.0000

> <Gold.PLP.ligand.torsion>
0.5429

> <Gold.PLP.Chemscore.Hbond>
2.7372

> <Gold.PLP.Chemscore.CHOScore>
1.0000

> <Gold.PLP.Chemscore.Metal>
0.0000

> <Gold.Chemscore.Hbonds>
donor molecule, donor type, donor heavy atom, donor atom, acceptor molecule, acceptor atom, score
      L1  H     8    34       P1  7948  1.00
      L1  H    11    35       P1  7948  1.00
      P1  H  7989  7998       L1     4  0.67
      P1  H  7997  8010       L1    21  0.07
      L1  C    16    39       P1 10186  1.00

> <Gold.PLP.Chemscore.Internal.Correction>
0.0799

> <Gold.Rescore>
     Score         DG    S(hbond)    S(metal)    S(lipo)     H(rot)  DE(clash)    DE(int)     intcor
     16.21     -17.93       1.98        0.00      87.68       1.73       0.01       1.71       ----

> <Gold.Chemscore.Fitness>
16.2073

> <Gold.Chemscore.DG>
-17.9278

> <Gold.Chemscore.ZeroCoef>
-5.4800

> <Gold.Chemscore.Hbond>
1.9789

> <Gold.Chemscore.Metal>
0.0000

> <Gold.Chemscore.Lipo>
87.6772

> <Gold.Chemscore.Internal_Hbond>
0.0000

> <Gold.Chemscore.DEClash>
0.0058

> <Gold.Chemscore.DEInternal>
1.7147

> <Gold.Chemscore.Rot>
1.7266

> <Gold.Chemscore.Internal.Correction>
   9.000000E+99

> <Gold.Chemscore.Hbonds>
donor molecule, donor type, donor heavy atom, donor atom, acceptor molecule, acceptor atom, score
      L1  H     8    34       P1  7948  0.99
      L1  H    11    35       P1  7948  0.93
      P1  H  7989  7998       L1     4  0.01

> <Gold.Chemscore.Hbond.Weighted>
-6.6096

> <Gold.Chemscore.Metal.Weighted>
-0.0000

> <Gold.Chemscore.Lipo.Weighted>
-10.2582

> <Gold.Chemscore.Internal_Hbond.Weighted>
0.0000

> <Gold.Chemscore.DEClash.Weighted>
0.0058

> <Gold.Chemscore.DEInternal.Weighted>
1.7147

> <Gold.Chemscore.Rot.Weighted>
4.4200

> <Gold.Chemscore.Internal.Correction.Weighted>
   9.000000E+99

> <Gold.Protein.RotatedTorsions>
[ 6907 6896 6895 6894 ] final  -55.49 input  -60.11 | X-H torsion
[ 7974 7965 7964 7962 ] final  125.84 input  175.53 | X-H torsion
[ 8008 7997 7996 7995 ] final   58.93 input   59.86 | X-H torsion
[ 10167 10162 10161 10158 ] final -149.81 input  -65.29 | X-H torsion
[ 10718 10713 10712 10709 ] final -147.88 input   66.30 | X-H torsion
[ 10763 10752 10751 10750 ] final  -53.85 input  -60.55 | X-H torsion
[ 11005 11000 10999 10996 ] final  133.90 input  -57.11 | X-H torsion

> <Gold.Protein.ActiveResidues>
 VAL166  LYS551  ARG553  GLY616  TRP617  ASP618  TYR619  PRO620  LYS621  CYS622 
 ASP623  PHE694  ASN695  SER759  ASP760  ASP761  ALA762  ILE779  LEU786  VAL792 
 PHE793  MET794  SER795  GLU796  ALA797  LYS798  CYS799  TRP800  GLU811  SER814 

> <Gold.Protein.RotatedAtoms>
  150.8247  134.7472  159.6802 H   0  0  0  0  0  0  0  0  0  0  0  0  # atno 6907 bound_to 6896
  152.4359  134.5684  159.9924 H   0  0  0  0  0  0  0  0  0  0  0  0  # atno 6908 bound_to 6896
  151.5860  133.3334  159.3054 H   0  0  0  0  0  0  0  0  0  0  0  0  # atno 6909 bound_to 6896
  145.0684  139.3749  143.4970 H   0  0  0  0  0  0  0  0  0  0  0  0  # atno 7974 bound_to 7965
  155.5579  140.3487  155.4484 H   0  0  0  0  0  0  0  0  0  0  0  0  # atno 8008 bound_to 7997
  156.0535  140.1323  157.0048 H   0  0  0  0  0  0  0  0  0  0  0  0  # atno 8009 bound_to 7997
  154.4445  140.1000  156.6397 H   0  0  0  0  0  0  0  0  0  0  0  0  # atno 8010 bound_to 7997
  139.7410  143.8663  152.2562 H   0  0  0  0  0  0  0  0  0  0  0  0  # atno 10167 bound_to 10162
  156.4132  130.7992  151.2210 H   0  0  0  0  0  0  0  0  0  0  0  0  # atno 10718 bound_to 10713
  154.1655  135.6467  153.4996 H   0  0  0  0  0  0  0  0  0  0  0  0  # atno 10763 bound_to 10752
  153.0098  135.5371  154.6667 H   0  0  0  0  0  0  0  0  0  0  0  0  # atno 10764 bound_to 10752
  154.5992  135.2942  155.0526 H   0  0  0  0  0  0  0  0  0  0  0  0  # atno 10765 bound_to 10752
  139.9880  134.9525  156.9790 H   0  0  0  0  0  0  0  0  0  0  0  0  # atno 11005 bound_to 11000
  146.3527  140.0417  142.8642 LP  0  0  0  0  0  0  0  0  0  0  0  0  # atno 17320 bound_to 7965
  145.1322  140.9524  143.4537 LP  0  0  0  0  0  0  0  0  0  0  0  0  # atno 17321 bound_to 7965
  139.8613  144.7115  150.9096 LP  0  0  0  0  0  0  0  0  0  0  0  0  # atno 17342 bound_to 10162
  140.7786  143.3815  151.1468 LP  0  0  0  0  0  0  0  0  0  0  0  0  # atno 17343 bound_to 10162
  157.7507  131.0251  150.3905 LP  0  0  0  0  0  0  0  0  0  0  0  0  # atno 17370 bound_to 10713
  156.4208  130.3952  149.6826 LP  0  0  0  0  0  0  0  0  0  0  0  0  # atno 17371 bound_to 10713
  140.4963  134.1142  155.7242 LP  0  0  0  0  0  0  0  0  0  0  0  0  # atno 17394 bound_to 11000
  141.1542  133.8914  157.2021 LP  0  0  0  0  0  0  0  0  0  0  0  0  # atno 17395 bound_to 11000

$$$$
