AV-unprocessed.smi:65|AV-procd|sdf|616|dock5
  -GOLD-   2262016513D 1   1.00000     0.00000
 Structure written by MMmdl.
 26 27  0  0  0  0  0  0  0  0  2 V2000
  149.0018  141.9740  154.7976 N   0  0  0  0  0  0  0  0  0  0  0  0
  150.0050  141.6010  155.6584 C   0  0  0  0  0  0  0  0  0  0  0  0
  150.4982  140.3631  155.5609 N   0  0  0  0  0  0  0  0  0  0  0  0
  151.4834  139.9911  156.4003 C   0  0  0  0  0  0  0  0  0  0  0  0
  151.9953  140.8707  157.3686 C   0  0  0  0  0  0  0  0  0  0  0  0
  151.4318  142.1653  157.4282 C   0  0  0  0  0  0  0  0  0  0  0  0
  151.8649  143.1365  158.3504 N   0  0  0  0  0  0  0  0  0  0  0  0
  152.6708  142.7746  159.5096 C   0  0  0  0  0  0  0  0  0  0  0  0
  152.3473  143.8233  160.5814 C   0  0  0  0  0  0  0  0  0  0  0  0
  151.8088  145.0082  159.7780 C   0  0  2  0  0  0  0  0  0  0  0  0
  150.9508  145.8338  160.5358 O   0  0  0  0  0  0  0  0  0  0  0  0
  151.0790  144.3303  158.6196 C   0  0  0  0  0  0  0  0  0  0  0  0
  150.4424  142.4961  156.5551 N   0  3  0  0  0  0  0  0  0  0  0  0
  148.6075  142.9027  154.8448 H   0  0  0  0  0  0  0  0  0  0  0  0
  148.6544  141.3313  154.1004 H   0  0  0  0  0  0  0  0  0  0  0  0
  151.8663  138.9866  156.2969 H   0  0  0  0  0  0  0  0  0  0  0  0
  152.7913  140.5549  158.0268 H   0  0  0  0  0  0  0  0  0  0  0  0
  152.4510  141.7695  159.8710 H   0  0  0  0  0  0  0  0  0  0  0  0
  153.7245  142.8170  159.2323 H   0  0  0  0  0  0  0  0  0  0  0  0
  151.5688  143.4340  161.2399 H   0  0  0  0  0  0  0  0  0  0  0  0
  153.2091  144.0807  161.1980 H   0  0  0  0  0  0  0  0  0  0  0  0
  152.6406  145.6006  159.3940 H   0  0  0  0  0  0  0  0  0  0  0  0
  151.1549  146.7373  160.3469 H   0  0  0  0  0  0  0  0  0  0  0  0
  151.0134  144.9808  157.7467 H   0  0  0  0  0  0  0  0  0  0  0  0
  150.0691  144.0373  158.9112 H   0  0  0  0  0  0  0  0  0  0  0  0
  150.0349  143.4302  156.5909 H   0  0  0  0  0  0  0  0  0  0  0  0
  1  2  1  0  0  0  0
  1 14  1  0  0  0  0
  1 15  1  0  0  0  0
  2 13  1  0  0  0  0
  2  3  2  0  0  0  0
  3  4  1  0  0  0  0
  4  5  2  0  0  0  0
  4 16  1  0  0  0  0
  5  6  1  0  0  0  0
  5 17  1  0  0  0  0
  6  7  1  0  0  0  0
  6 13  2  0  0  0  0
  7 12  1  0  0  0  0
  7  8  1  0  0  0  0
  8  9  1  0  0  0  0
  8 18  1  0  0  0  0
  8 19  1  0  0  0  0
  9 10  1  0  0  0  0
  9 20  1  0  0  0  0
  9 21  1  0  0  0  0
 10 11  1  0  0  0  0
 10 12  1  0  0  0  0
 10 22  1  0  0  0  0
 11 23  1  0  0  0  0
 12 24  1  0  0  0  0
 12 25  1  0  0  0  0
 13 26  1  0  0  0  0
M  CHG  1  13   1
M  END
> <s_m_source_file>
AV-unprocessed.smi

> <i_m_source_file_index>
65

> <i_lp_mmshare_version>
43012

> <i_f3d_flags>
0

> <s_epik_input>
W05IMl1jMW5bY0hdW2NIXWMobjEpTjJbQ0gyXVtDSDJdW0NAQEhdKFtPSF0pW0NIMl0y

> <s_epik_cmdline>
J2VwaWtfcHl0aG9uJywgJy1waCcsICc3LjAnLCAnLXRuJywgJzgnLCAnLW1hJywgJzIwMCcsICctbWV0YWxfYmluZGluZycsICctaW1hZScsICc8aW5maWxlLm1hZT4nLCAnLW9tYWUnLCAnPG91dGZpbGUubWFlPic=

> <r_lp_tautomer_probability>
0.424989

> <r_epik_Ionization_Penalty>
0.57487

> <r_epik_Ionization_Penalty_Charging>
0.574865

> <r_epik_Ionization_Penalty_Neutral>
4.40886e-06

> <r_epik_State_Penalty>
0.845539

> <r_epik_Charging_Adjusted_Penalty>
1.4204

> <i_epik_Tot_Q>
1

> <i_epik_Tot_abs_Q>
1

> <r_epik_Metal_State_Penalty>
1.14248

> <b_epik_Metal_Only>
0

> <s_lp_Force_Field>
OPLS_2005

> <r_lp_Energy>
20.8145

> <b_lp_Chiralities_Consistent>
1

> <s_lp_Variant>
AV-unprocessed.smi:65-6

> <Gold.Version>
5.8.1

> <Gold.Id.Protein>
6NUR|6NUR_protein|mol2

> <Gold.PLP.Fitness>
43.6337

> <Gold.PLP.PLP>
-32.4840

> <Gold.PLP.part.hbond>
-4.2302

> <Gold.PLP.part.metal>
0.0000

> <Gold.PLP.part.buried>
-6.1535

> <Gold.PLP.part.nonpolar>
-23.0103

> <Gold.PLP.part.repulsive>
0.7521

> <Gold.PLP.ligand.clash>
0.0000

> <Gold.PLP.ligand.torsion>
0.1055

> <Gold.PLP.Chemscore.Hbond>
3.7166

> <Gold.PLP.Chemscore.CHOScore>
0.0000

> <Gold.PLP.Chemscore.Metal>
0.0000

> <Gold.Chemscore.Hbonds>
donor molecule, donor type, donor heavy atom, donor atom, acceptor molecule, acceptor atom, score
      L1  H     1    14       P1  8028  1.76
      L1  H    13    26       P1  8028  1.82
      P1  H  7989  7998       L1     3  0.04

> <Gold.PLP.Chemscore.Internal.Correction>
0.2110

> <Gold.Rescore>
     Score         DG    S(hbond)    S(metal)    S(lipo)     H(rot)  DE(clash)    DE(int)     intcor
     15.82     -15.93       1.75        0.00      61.27       1.00       0.01       0.11       ----

> <Gold.Chemscore.Fitness>
15.8191

> <Gold.Chemscore.DG>
-15.9327

> <Gold.Chemscore.ZeroCoef>
-5.4800

> <Gold.Chemscore.Hbond>
1.7497

> <Gold.Chemscore.Metal>
0.0000

> <Gold.Chemscore.Lipo>
61.2708

> <Gold.Chemscore.Internal_Hbond>
0.0000

> <Gold.Chemscore.DEClash>
0.0081

> <Gold.Chemscore.DEInternal>
0.1055

> <Gold.Chemscore.Rot>
1.0000

> <Gold.Chemscore.Internal.Correction>
   9.000000E+99

> <Gold.Chemscore.Hbonds>
donor molecule, donor type, donor heavy atom, donor atom, acceptor molecule, acceptor atom, score
      L1  H     1    14       P1  8028  0.84
      L1  H    13    26       P1  8028  0.88

> <Gold.Chemscore.Hbond.Weighted>
-5.8441

> <Gold.Chemscore.Metal.Weighted>
-0.0000

> <Gold.Chemscore.Lipo.Weighted>
-7.1687

> <Gold.Chemscore.Internal_Hbond.Weighted>
0.0000

> <Gold.Chemscore.DEClash.Weighted>
0.0081

> <Gold.Chemscore.DEInternal.Weighted>
0.1055

> <Gold.Chemscore.Rot.Weighted>
2.5600

> <Gold.Chemscore.Internal.Correction.Weighted>
   9.000000E+99

> <Gold.Protein.RotatedTorsions>
[ 6907 6896 6895 6894 ] final -159.52 input  -60.11 | X-H torsion
[ 7974 7965 7964 7962 ] final    8.13 input  175.53 | X-H torsion
[ 8008 7997 7996 7995 ] final -162.23 input   59.86 | X-H torsion
[ 10167 10162 10161 10158 ] final  -73.11 input  -65.29 | X-H torsion
[ 10718 10713 10712 10709 ] final   12.66 input   66.30 | X-H torsion
[ 10763 10752 10751 10750 ] final    3.49 input  -60.55 | X-H torsion
[ 11005 11000 10999 10996 ] final -104.30 input  -57.11 | X-H torsion

> <Gold.Protein.ActiveResidues>
 VAL166  LYS551  ARG553  GLY616  TRP617  ASP618  TYR619  PRO620  LYS621  CYS622 
 ASP623  PHE694  ASN695  SER759  ASP760  ASP761  ALA762  ILE779  LEU786  VAL792 
 PHE793  MET794  SER795  GLU796  ALA797  LYS798  CYS799  TRP800  GLU811  SER814 

> <Gold.Protein.RotatedAtoms>
  151.3348  133.3986  159.2665 H   0  0  0  0  0  0  0  0  0  0  0  0  # atno 6907 bound_to 6896
  150.9926  134.9258  159.7918 H   0  0  0  0  0  0  0  0  0  0  0  0  # atno 6908 bound_to 6896
  152.5251  134.3313  159.9236 H   0  0  0  0  0  0  0  0  0  0  0  0  # atno 6909 bound_to 6896
  146.2419  139.9979  142.8419 H   0  0  0  0  0  0  0  0  0  0  0  0  # atno 7974 bound_to 7965
  155.8038  140.0895  157.1942 H   0  0  0  0  0  0  0  0  0  0  0  0  # atno 8008 bound_to 7997
  154.3981  140.1467  156.3365 H   0  0  0  0  0  0  0  0  0  0  0  0  # atno 8009 bound_to 7997
  155.8435  140.3438  155.5650 H   0  0  0  0  0  0  0  0  0  0  0  0  # atno 8010 bound_to 7997
  140.5137  143.2341  151.7549 H   0  0  0  0  0  0  0  0  0  0  0  0  # atno 10167 bound_to 10162
  157.0134  130.6126  149.5711 H   0  0  0  0  0  0  0  0  0  0  0  0  # atno 10718 bound_to 10713
  153.2827  135.6942  153.7369 H   0  0  0  0  0  0  0  0  0  0  0  0  # atno 10763 bound_to 10752
  153.6350  135.3403  155.3054 H   0  0  0  0  0  0  0  0  0  0  0  0  # atno 10764 bound_to 10752
  154.8500  135.4418  154.1885 H   0  0  0  0  0  0  0  0  0  0  0  0  # atno 10765 bound_to 10752
  141.1107  133.8712  157.1594 H   0  0  0  0  0  0  0  0  0  0  0  0  # atno 11005 bound_to 11000
  145.1442  140.9588  143.4470 LP  0  0  0  0  0  0  0  0  0  0  0  0  # atno 17320 bound_to 7965
  145.0266  139.3377  143.6045 LP  0  0  0  0  0  0  0  0  0  0  0  0  # atno 17321 bound_to 7965
  139.4903  144.4354  151.9825 LP  0  0  0  0  0  0  0  0  0  0  0  0  # atno 17342 bound_to 10162
  140.3447  144.3160  150.5960 LP  0  0  0  0  0  0  0  0  0  0  0  0  # atno 17343 bound_to 10162
  156.0128  130.5220  150.8041 LP  0  0  0  0  0  0  0  0  0  0  0  0  # atno 17370 bound_to 10713
  157.5303  131.0936  150.9963 LP  0  0  0  0  0  0  0  0  0  0  0  0  # atno 17371 bound_to 10713
  139.9999  135.0032  157.0166 LP  0  0  0  0  0  0  0  0  0  0  0  0  # atno 17394 bound_to 11000
  140.4784  134.1315  155.7213 LP  0  0  0  0  0  0  0  0  0  0  0  0  # atno 17395 bound_to 11000

$$$$
