AV-unprocessed.smi:2338|AV-procd|sdf|9335|dock6
  -GOLD-   2272012553D 1   1.00000     0.00000
 Structure written by MMmdl.
 31 32  0  0  0  0  0  0  0  0  1 V2000
  149.2855  139.4934  153.8146 N   0  0  0  0  0  0  0  0  0  0  0  0
  150.1090  139.5603  154.8637 C   0  0  0  0  0  0  0  0  0  0  0  0
  151.1776  140.1679  154.8181 O   0  0  0  0  0  0  0  0  0  0  0  0
  149.6726  138.8243  156.1437 C   0  0  1  0  0  0  0  0  0  0  0  0
  149.4769  137.3277  155.8072 C   0  0  0  0  0  0  0  0  0  0  0  0
  149.0762  136.6057  156.9665 O   0  0  0  0  0  0  0  0  0  0  0  0
  150.0653  136.6602  157.9863 C   0  0  0  0  0  0  0  0  0  0  0  0
  150.2611  138.1203  158.4200 C   0  0  0  0  0  0  0  0  0  0  0  0
  150.6075  138.9517  157.2712 N   0  0  0  0  0  0  0  0  0  0  0  0
  150.9583  140.2560  157.6738 C   0  0  0  0  0  0  0  0  0  0  0  0
  150.1778  141.2825  157.2548 N   0  0  0  0  0  0  0  0  0  0  0  0
  150.5005  142.5372  157.6330 C   0  0  0  0  0  0  0  0  0  0  0  0
  151.6067  142.8408  158.4543 C   0  0  0  0  0  0  0  0  0  0  0  0
  151.9375  144.2727  158.8418 C   0  0  0  0  0  0  0  0  0  0  0  0
  152.1821  144.3527  160.1499 F   0  0  0  0  0  0  0  0  0  0  0  0
  153.0219  144.6679  158.1762 F   0  0  0  0  0  0  0  0  0  0  0  0
  150.9310  145.0976  158.5518 F   0  0  0  0  0  0  0  0  0  0  0  0
  152.4142  141.7716  158.8928 C   0  0  0  0  0  0  0  0  0  0  0  0
  152.0877  140.4583  158.5030 C   0  0  0  0  0  0  0  0  0  0  0  0
  153.0771  139.1406  159.0270 Cl  0  0  0  0  0  0  0  0  0  0  0  0
  149.5277  139.9682  152.9571 H   0  0  0  0  0  0  0  0  0  0  0  0
  148.4209  138.9765  153.8840 H   0  0  0  0  0  0  0  0  0  0  0  0
  148.7066  139.2226  156.4605 H   0  0  0  0  0  0  0  0  0  0  0  0
  148.7052  137.2066  155.0462 H   0  0  0  0  0  0  0  0  0  0  0  0
  150.3909  136.8893  155.4011 H   0  0  0  0  0  0  0  0  0  0  0  0
  149.7375  136.0563  158.8326 H   0  0  0  0  0  0  0  0  0  0  0  0
  151.0019  136.2287  157.6293 H   0  0  0  0  0  0  0  0  0  0  0  0
  149.3456  138.4963  158.8799 H   0  0  0  0  0  0  0  0  0  0  0  0
  151.0441  138.1725  159.1781 H   0  0  0  0  0  0  0  0  0  0  0  0
  149.8543  143.3188  157.2613 H   0  0  0  0  0  0  0  0  0  0  0  0
  153.2772  141.9554  159.5161 H   0  0  0  0  0  0  0  0  0  0  0  0
  1  2  1  0  0  0  0
  1 21  1  0  0  0  0
  1 22  1  0  0  0  0
  2  3  2  0  0  0  0
  2  4  1  0  0  0  0
  4  9  1  0  0  0  0
  4  5  1  0  0  0  0
  4 23  1  0  0  0  0
  5  6  1  0  0  0  0
  5 24  1  0  0  0  0
  5 25  1  0  0  0  0
  6  7  1  0  0  0  0
  7  8  1  0  0  0  0
  7 26  1  0  0  0  0
  7 27  1  0  0  0  0
  8  9  1  0  0  0  0
  8 28  1  0  0  0  0
  8 29  1  0  0  0  0
  9 10  1  0  0  0  0
 10 19  1  0  0  0  0
 10 11  2  0  0  0  0
 11 12  1  0  0  0  0
 12 13  2  0  0  0  0
 12 30  1  0  0  0  0
 13 14  1  0  0  0  0
 13 18  1  0  0  0  0
 14 15  1  0  0  0  0
 14 16  1  0  0  0  0
 14 17  1  0  0  0  0
 18 19  2  0  0  0  0
 18 31  1  0  0  0  0
 19 20  1  0  0  0  0
M  END
> <s_m_source_file>
AV-unprocessed.smi

> <i_m_source_file_index>
2338

> <i_lp_mmshare_version>
43012

> <i_f3d_flags>
0

> <s_epik_input>
W05IMl1DKD1PKVtDQEBIXTFbQ0gyXU9bQ0gyXVtDSDJdTjFjMm5bY0hdYyhDKEYpKEYpRilbY0hdYzJDbA==

> <s_epik_cmdline>
J2VwaWtfcHl0aG9uJywgJy1waCcsICc3LjAnLCAnLXRuJywgJzgnLCAnLW1hJywgJzIwMCcsICctbWV0YWxfYmluZGluZycsICctaW1hZScsICc8aW5maWxlLm1hZT4nLCAnLW9tYWUnLCAnPG91dGZpbGUubWFlPic=

> <r_lp_tautomer_probability>
1

> <r_epik_Ionization_Penalty>
1.71167e-07

> <r_epik_Ionization_Penalty_Charging>
0

> <r_epik_Ionization_Penalty_Neutral>
1.71167e-07

> <r_epik_State_Penalty>
-0

> <r_epik_Charging_Adjusted_Penalty>
0

> <i_epik_Tot_Q>
0

> <i_epik_Tot_abs_Q>
0

> <r_epik_Metal_State_Penalty>
-0

> <b_epik_Metal_Only>
0

> <s_lp_Force_Field>
OPLS_2005

> <r_lp_Energy>
18.2769

> <b_lp_Chiralities_Consistent>
1

> <s_lp_Variant>
AV-unprocessed.smi:2338-2

> <Gold.Version>
5.8.1

> <Gold.Id.Protein>
6NUR|6NUR_protein|mol2

> <Gold.PLP.Fitness>
43.1175

> <Gold.PLP.PLP>
-34.8562

> <Gold.PLP.part.hbond>
-1.9931

> <Gold.PLP.part.metal>
0.0000

> <Gold.PLP.part.buried>
-6.1321

> <Gold.PLP.part.nonpolar>
-27.1290

> <Gold.PLP.part.repulsive>
0.2314

> <Gold.PLP.ligand.clash>
0.0000

> <Gold.PLP.ligand.torsion>
0.6351

> <Gold.PLP.Chemscore.Hbond>
2.0000

> <Gold.PLP.Chemscore.CHOScore>
1.0000

> <Gold.PLP.Chemscore.Metal>
0.0000

> <Gold.Chemscore.Hbonds>
donor molecule, donor type, donor heavy atom, donor atom, acceptor molecule, acceptor atom, score
      L1  H     1    21       P1  7957  1.00
      P1  H  7989  7998       L1     3  1.00
      L1  C    12    30       P1  8028  1.00

> <Gold.PLP.Chemscore.Internal.Correction>
0.5315

> <Gold.Rescore>
     Score         DG    S(hbond)    S(metal)    S(lipo)     H(rot)  DE(clash)    DE(int)     intcor
     13.60     -15.57       1.98        0.00      62.69       1.51       0.03       1.95       ----

> <Gold.Chemscore.Fitness>
13.5983

> <Gold.Chemscore.DG>
-15.5742

> <Gold.Chemscore.ZeroCoef>
-5.4800

> <Gold.Chemscore.Hbond>
1.9840

> <Gold.Chemscore.Metal>
0.0000

> <Gold.Chemscore.Lipo>
62.6919

> <Gold.Chemscore.Internal_Hbond>
0.0000

> <Gold.Chemscore.DEClash>
0.0275

> <Gold.Chemscore.DEInternal>
1.9484

> <Gold.Chemscore.Rot>
1.5107

> <Gold.Chemscore.Internal.Correction>
   9.000000E+99

> <Gold.Chemscore.Hbonds>
donor molecule, donor type, donor heavy atom, donor atom, acceptor molecule, acceptor atom, score
      L1  H     1    21       P1  7957  0.95
      P1  H  7989  7998       L1     3  0.94

> <Gold.Chemscore.Hbond.Weighted>
-6.6266

> <Gold.Chemscore.Metal.Weighted>
-0.0000

> <Gold.Chemscore.Lipo.Weighted>
-7.3350

> <Gold.Chemscore.Internal_Hbond.Weighted>
0.0000

> <Gold.Chemscore.DEClash.Weighted>
0.0275

> <Gold.Chemscore.DEInternal.Weighted>
1.9484

> <Gold.Chemscore.Rot.Weighted>
3.8674

> <Gold.Chemscore.Internal.Correction.Weighted>
   9.000000E+99

> <Gold.Protein.RotatedTorsions>
[ 6907 6896 6895 6894 ] final  -48.14 input  -60.11 | X-H torsion
[ 7974 7965 7964 7962 ] final  117.72 input  175.53 | X-H torsion
[ 8008 7997 7996 7995 ] final -123.72 input   59.86 | X-H torsion
[ 10167 10162 10161 10158 ] final   75.13 input  -65.29 | X-H torsion
[ 10718 10713 10712 10709 ] final -126.86 input   66.30 | X-H torsion
[ 10763 10752 10751 10750 ] final  -51.41 input  -60.55 | X-H torsion
[ 11005 11000 10999 10996 ] final   -5.69 input  -57.11 | X-H torsion

> <Gold.Protein.ActiveResidues>
 VAL166  LYS551  ARG553  GLY616  TRP617  ASP618  TYR619  PRO620  LYS621  CYS622 
 ASP623  PHE694  ASN695  SER759  ASP760  ASP761  ALA762  ILE779  LEU786  VAL792 
 PHE793  MET794  SER795  GLU796  ALA797  LYS798  CYS799  TRP800  GLU811  SER814 

> <Gold.Protein.RotatedAtoms>
  150.8936  134.8342  159.7310 H   0  0  0  0  0  0  0  0  0  0  0  0  # atno 6907 bound_to 6896
  152.4852  134.4610  159.9615 H   0  0  0  0  0  0  0  0  0  0  0  0  # atno 6908 bound_to 6896
  151.4670  133.3539  159.2853 H   0  0  0  0  0  0  0  0  0  0  0  0  # atno 6909 bound_to 6896
  145.1639  139.3139  143.4503 H   0  0  0  0  0  0  0  0  0  0  0  0  # atno 7974 bound_to 7965
  155.1852  140.0411  157.2890 H   0  0  0  0  0  0  0  0  0  0  0  0  # atno 8008 bound_to 7997
  154.6176  140.2492  155.7561 H   0  0  0  0  0  0  0  0  0  0  0  0  # atno 8009 bound_to 7997
  156.2415  140.2901  156.0469 H   0  0  0  0  0  0  0  0  0  0  0  0  # atno 8010 bound_to 7997
  140.0063  144.5648  150.7696 H   0  0  0  0  0  0  0  0  0  0  0  0  # atno 10167 bound_to 10162
  156.1804  130.6728  151.0297 H   0  0  0  0  0  0  0  0  0  0  0  0  # atno 10718 bound_to 10713
  154.1261  135.6527  153.4912 H   0  0  0  0  0  0  0  0  0  0  0  0  # atno 10763 bound_to 10752
  153.0210  135.5282  154.7048 H   0  0  0  0  0  0  0  0  0  0  0  0  # atno 10764 bound_to 10752
  154.6269  135.2971  155.0231 H   0  0  0  0  0  0  0  0  0  0  0  0  # atno 10765 bound_to 10752
  140.6938  133.9048  155.8636 H   0  0  0  0  0  0  0  0  0  0  0  0  # atno 11005 bound_to 11000
  146.3478  140.1759  142.8589 LP  0  0  0  0  0  0  0  0  0  0  0  0  # atno 17320 bound_to 7965
  145.0302  140.8865  143.5114 LP  0  0  0  0  0  0  0  0  0  0  0  0  # atno 17321 bound_to 7965
  140.7399  143.2798  151.3634 LP  0  0  0  0  0  0  0  0  0  0  0  0  # atno 17342 bound_to 10162
  139.6236  144.0857  152.2414 LP  0  0  0  0  0  0  0  0  0  0  0  0  # atno 17343 bound_to 10162
  157.6864  131.0823  150.7230 LP  0  0  0  0  0  0  0  0  0  0  0  0  # atno 17370 bound_to 10713
  156.7287  130.4703  149.5505 LP  0  0  0  0  0  0  0  0  0  0  0  0  # atno 17371 bound_to 10713
  141.0219  134.0877  157.4111 LP  0  0  0  0  0  0  0  0  0  0  0  0  # atno 17394 bound_to 11000
  139.8916  135.0119  156.6799 LP  0  0  0  0  0  0  0  0  0  0  0  0  # atno 17395 bound_to 11000

$$$$
