AV-unprocessed.smi:1427|AV-procd|sdf|5811|dock2
  -GOLD-   22720 5463D 1   1.00000     0.00000
 Structure written by MMmdl.
 33 34  0  0  0  0  0  0  0  0  1 V2000
  149.4172  143.5516  159.1285 C   0  0  0  0  0  0  0  0  0  0  0  0
  150.1541  142.3799  158.4660 C   0  0  2  0  0  0  0  0  0  0  0  0
  151.6837  142.5743  158.5207 C   0  0  0  0  0  0  0  0  0  0  0  0
  152.1963  142.5894  159.8798 N   0  0  0  0  0  0  0  0  0  0  0  0
  153.2425  141.8623  160.4074 C   0  0  0  0  0  0  0  0  0  0  0  0
  153.3629  142.2178  161.7201 C   0  0  0  0  0  0  0  0  0  0  0  0
  152.3306  143.1792  161.9058 C   0  0  0  0  0  0  0  0  0  0  0  0
  151.6320  143.3979  160.8034 N   0  0  0  0  0  0  0  0  0  0  0  0
  149.6972  142.2540  157.0830 N   0  0  0  0  0  0  0  0  0  0  0  0
  150.1073  141.3308  156.1949 C   0  0  0  0  0  0  0  0  0  0  0  0
  150.9325  140.4599  156.4696 O   0  0  0  0  0  0  0  0  0  0  0  0
  149.5299  141.3894  154.7689 C   0  0  1  0  0  0  0  0  0  0  0  0
  148.9626  140.0217  154.3246 C   0  0  0  0  0  0  0  0  0  0  0  0
  147.5683  140.2947  153.7434 C   0  0  0  0  0  0  0  0  0  0  0  0
  147.3199  141.7515  154.0878 C   0  0  0  0  0  0  0  0  0  0  0  0
  146.2541  142.3254  153.8773 O   0  0  0  0  0  0  0  0  0  0  0  0
  148.4021  142.3009  154.6351 N   0  0  0  0  0  0  0  0  0  0  0  0
  149.7190  143.6657  160.1701 H   0  0  0  0  0  0  0  0  0  0  0  0
  148.3381  143.3953  159.1149 H   0  0  0  0  0  0  0  0  0  0  0  0
  149.6245  144.4925  158.6171 H   0  0  0  0  0  0  0  0  0  0  0  0
  149.8965  141.4802  159.0279 H   0  0  0  0  0  0  0  0  0  0  0  0
  152.1911  141.7930  157.9519 H   0  0  0  0  0  0  0  0  0  0  0  0
  151.9560  143.5220  158.0552 H   0  0  0  0  0  0  0  0  0  0  0  0
  153.8106  141.1649  159.8093 H   0  0  0  0  0  0  0  0  0  0  0  0
  154.0804  141.8484  162.4379 H   0  0  0  0  0  0  0  0  0  0  0  0
  152.0691  143.7206  162.8031 H   0  0  0  0  0  0  0  0  0  0  0  0
  149.0179  142.9321  156.7691 H   0  0  0  0  0  0  0  0  0  0  0  0
  150.3124  141.7158  154.0825 H   0  0  0  0  0  0  0  0  0  0  0  0
  149.6118  139.5535  153.5838 H   0  0  0  0  0  0  0  0  0  0  0  0
  148.8777  139.3224  155.1586 H   0  0  0  0  0  0  0  0  0  0  0  0
  147.5530  140.1650  152.6607 H   0  0  0  0  0  0  0  0  0  0  0  0
  146.8067  139.6516  154.1855 H   0  0  0  0  0  0  0  0  0  0  0  0
  148.4532  143.2654  154.9300 H   0  0  0  0  0  0  0  0  0  0  0  0
  1  2  1  0  0  0  0
  1 18  1  0  0  0  0
  1 19  1  0  0  0  0
  1 20  1  0  0  0  0
  2  3  1  0  0  0  0
  2  9  1  0  0  0  0
  2 21  1  0  0  0  0
  3  4  1  0  0  0  0
  3 22  1  0  0  0  0
  3 23  1  0  0  0  0
  4  8  1  0  0  0  0
  4  5  1  0  0  0  0
  5  6  2  0  0  0  0
  5 24  1  0  0  0  0
  6  7  1  0  0  0  0
  6 25  1  0  0  0  0
  7  8  2  0  0  0  0
  7 26  1  0  0  0  0
  9 10  1  0  0  0  0
  9 27  1  0  0  0  0
 10 11  2  0  0  0  0
 10 12  1  0  0  0  0
 12 17  1  0  0  0  0
 12 13  1  0  0  0  0
 12 28  1  0  0  0  0
 13 14  1  0  0  0  0
 13 29  1  0  0  0  0
 13 30  1  0  0  0  0
 14 15  1  0  0  0  0
 14 31  1  0  0  0  0
 14 32  1  0  0  0  0
 15 16  2  0  0  0  0
 15 17  1  0  0  0  0
 17 33  1  0  0  0  0
M  END
> <s_m_source_file>
AV-unprocessed.smi

> <i_m_source_file_index>
1427

> <i_lp_mmshare_version>
43012

> <i_f3d_flags>
0

> <s_epik_input>
bjFbY0hdW2NIXVtjSF1uMVtDSDJdW0NAQEhdKFtDSDNdKVtOSF1DKD1PKVtDQEBIXTJbQ0gyXVtDSDJdQyg9TylbTkhdMg==

> <s_epik_cmdline>
J2VwaWtfcHl0aG9uJywgJy1waCcsICc3LjAnLCAnLXRuJywgJzgnLCAnLW1hJywgJzIwMCcsICctbWV0YWxfYmluZGluZycsICctaW1hZScsICc8aW5maWxlLm1hZT4nLCAnLW9tYWUnLCAnPG91dGZpbGUubWFlPic=

> <r_lp_tautomer_probability>
1

> <r_epik_Ionization_Penalty>
0.000310707

> <r_epik_Ionization_Penalty_Charging>
0

> <r_epik_Ionization_Penalty_Neutral>
0.000310707

> <r_epik_State_Penalty>
-0

> <r_epik_Charging_Adjusted_Penalty>
0

> <i_epik_Tot_Q>
0

> <i_epik_Tot_abs_Q>
0

> <r_epik_Metal_State_Penalty>
-0

> <b_epik_Metal_Only>
0

> <s_lp_Force_Field>
OPLS_2005

> <r_lp_Energy>
14.9883

> <b_lp_Chiralities_Consistent>
1

> <s_lp_Variant>
AV-unprocessed.smi:1427-3

> <Gold.Version>
5.8.1

> <Gold.Id.Protein>
6NUR|6NUR_protein|mol2

> <Gold.PLP.Fitness>
43.4911

> <Gold.PLP.PLP>
-37.9915

> <Gold.PLP.part.hbond>
-2.0000

> <Gold.PLP.part.metal>
0.0000

> <Gold.PLP.part.buried>
-6.4152

> <Gold.PLP.part.nonpolar>
-31.0993

> <Gold.PLP.part.repulsive>
0.9332

> <Gold.PLP.ligand.clash>
0.0000

> <Gold.PLP.ligand.torsion>
0.2656

> <Gold.PLP.Chemscore.Hbond>
2.0000

> <Gold.PLP.Chemscore.CHOScore>
0.0000

> <Gold.PLP.Chemscore.Metal>
0.0000

> <Gold.Chemscore.Hbonds>
donor molecule, donor type, donor heavy atom, donor atom, acceptor molecule, acceptor atom, score
      L1  H     9    27       P1  8028  0.68
      L1  H    17    33       P1  8028  1.00

> <Gold.PLP.Chemscore.Internal.Correction>
0.0308

> <Gold.Rescore>
     Score         DG    S(hbond)    S(metal)    S(lipo)     H(rot)  DE(clash)    DE(int)     intcor
     14.45     -16.12       1.97        0.00      75.89       1.88       0.01       1.66       ----

> <Gold.Chemscore.Fitness>
14.4498

> <Gold.Chemscore.DG>
-16.1160

> <Gold.Chemscore.ZeroCoef>
-5.4800

> <Gold.Chemscore.Hbond>
1.9687

> <Gold.Chemscore.Metal>
0.0000

> <Gold.Chemscore.Lipo>
75.8855

> <Gold.Chemscore.Internal_Hbond>
0.0000

> <Gold.Chemscore.DEClash>
0.0073

> <Gold.Chemscore.DEInternal>
1.6589

> <Gold.Chemscore.Rot>
1.8821

> <Gold.Chemscore.Internal.Correction>
   9.000000E+99

> <Gold.Chemscore.Hbonds>
donor molecule, donor type, donor heavy atom, donor atom, acceptor molecule, acceptor atom, score
      L1  H     9    27       P1  8028  0.63
      L1  H    17    33       P1  8028  1.00

> <Gold.Chemscore.Hbond.Weighted>
-6.5755

> <Gold.Chemscore.Metal.Weighted>
-0.0000

> <Gold.Chemscore.Lipo.Weighted>
-8.8786

> <Gold.Chemscore.Internal_Hbond.Weighted>
0.0000

> <Gold.Chemscore.DEClash.Weighted>
0.0073

> <Gold.Chemscore.DEInternal.Weighted>
1.6589

> <Gold.Chemscore.Rot.Weighted>
4.8181

> <Gold.Chemscore.Internal.Correction.Weighted>
   9.000000E+99

> <Gold.Protein.RotatedTorsions>
[ 6907 6896 6895 6894 ] final  -21.37 input  -60.11 | X-H torsion
[ 7974 7965 7964 7962 ] final   43.63 input  175.53 | X-H torsion
[ 8008 7997 7996 7995 ] final  119.01 input   59.86 | X-H torsion
[ 10167 10162 10161 10158 ] final  165.60 input  -65.29 | X-H torsion
[ 10718 10713 10712 10709 ] final   11.75 input   66.30 | X-H torsion
[ 10763 10752 10751 10750 ] final  116.44 input  -60.55 | X-H torsion
[ 11005 11000 10999 10996 ] final -104.39 input  -57.11 | X-H torsion

> <Gold.Protein.ActiveResidues>
 VAL166  LYS551  ARG553  GLY616  TRP617  ASP618  TYR619  PRO620  LYS621  CYS622 
 ASP623  PHE694  ASN695  SER759  ASP760  ASP761  ALA762  ILE779  LEU786  VAL792 
 PHE793  MET794  SER795  GLU796  ALA797  LYS798  CYS799  TRP800  GLU811  SER814 

> <Gold.Protein.RotatedAtoms>
  151.2344  135.0566  159.9000 H   0  0  0  0  0  0  0  0  0  0  0  0  # atno 6907 bound_to 6896
  152.5401  134.0502  159.8117 H   0  0  0  0  0  0  0  0  0  0  0  0  # atno 6908 bound_to 6896
  151.0686  133.5436  159.2660 H   0  0  0  0  0  0  0  0  0  0  0  0  # atno 6909 bound_to 6896
  146.0639  139.5165  142.9641 H   0  0  0  0  0  0  0  0  0  0  0  0  # atno 7974 bound_to 7965
  156.2575  140.2862  156.0925 H   0  0  0  0  0  0  0  0  0  0  0  0  # atno 8008 bound_to 7997
  155.1447  140.0396  157.2824 H   0  0  0  0  0  0  0  0  0  0  0  0  # atno 8009 bound_to 7997
  154.6504  140.2543  155.7227 H   0  0  0  0  0  0  0  0  0  0  0  0  # atno 8010 bound_to 7997
  139.4909  144.4115  151.9294 H   0  0  0  0  0  0  0  0  0  0  0  0  # atno 10167 bound_to 10162
  157.0002  130.6076  149.5695 H   0  0  0  0  0  0  0  0  0  0  0  0  # atno 10718 bound_to 10713
  153.5372  135.3566  155.2702 H   0  0  0  0  0  0  0  0  0  0  0  0  # atno 10763 bound_to 10752
  154.8721  135.4082  154.3084 H   0  0  0  0  0  0  0  0  0  0  0  0  # atno 10764 bound_to 10752
  153.3784  135.7067  153.6652 H   0  0  0  0  0  0  0  0  0  0  0  0  # atno 10765 bound_to 10752
  141.1102  133.8720  157.1605 H   0  0  0  0  0  0  0  0  0  0  0  0  # atno 11005 bound_to 11000
  145.6512  141.0262  143.1759 LP  0  0  0  0  0  0  0  0  0  0  0  0  # atno 17320 bound_to 7965
  144.7191  139.8093  143.7388 LP  0  0  0  0  0  0  0  0  0  0  0  0  # atno 17321 bound_to 7965
  140.3556  144.3036  150.5942 LP  0  0  0  0  0  0  0  0  0  0  0  0  # atno 17342 bound_to 10162
  140.5447  143.2217  151.8026 LP  0  0  0  0  0  0  0  0  0  0  0  0  # atno 17343 bound_to 10162
  156.0174  130.5268  150.8175 LP  0  0  0  0  0  0  0  0  0  0  0  0  # atno 17370 bound_to 10713
  157.5396  131.0940  150.9846 LP  0  0  0  0  0  0  0  0  0  0  0  0  # atno 17371 bound_to 10713
  139.9992  135.0034  157.0152 LP  0  0  0  0  0  0  0  0  0  0  0  0  # atno 17394 bound_to 11000
  140.4795  134.1304  155.7215 LP  0  0  0  0  0  0  0  0  0  0  0  0  # atno 17395 bound_to 11000

$$$$
