#       Name:                AV-unprocessed.smi:3194
#       Creating user name   scv26
#       Creation time:       Fri Mar 27 18:05:05 2020


#       File generated by GOLD software.
#

@<TRIPOS>MOLECULE
AV-unprocessed.smi:3194
    33    33     1
SMALL
NO_CHARGES


@<TRIPOS>ATOM
      1 ****        -2.7677   0.0212   2.4329 C.3            1 S1                 0.0000
      2 ****        -2.1504   0.4343   1.0889 C.3            1 S1                 0.0000
      3 ****        -2.6665  -0.4554  -0.0592 C.3            1 S1                 0.0000
      4 ****        -2.2392   0.0282  -1.3178 O.3            1 S1                 0.0000
      5 ****        -0.6940   0.3158   1.1853 N.pl3          1 S1                -1.0000
      6 ****         0.1747   1.3623   1.0714 C.2            1 S1                 0.0000
      7 ****        -0.0531   2.5712   0.9468 O.2            1 S1                 0.0000
      8 ****         1.6438   0.8901   1.0976 C.3            1 S1                 0.0000
      9 ****         2.4353   1.9350   1.3552 F              1 S1                 0.0000
     10 ****         1.8120   0.0106   2.0905 F              1 S1                 0.0000
     11 ****         2.0377   0.2705  -0.2433 C.ar           1 S1                 0.0000
     12 ****         2.0423  -1.1320  -0.4245 C.ar           1 S1                 0.0000
     13 ****         2.3941  -1.6502  -1.6851 C.ar           1 S1                 0.0000
     14 ****         2.7303  -0.7545  -2.7176 C.ar           1 S1                 0.0000
     15 ****         2.6970   0.6264  -2.4414 C.ar           1 S1                 0.0000
     16 ****         2.3612   1.1339  -1.2367 N.ar           1 S1                 0.0000
     17 ****        -2.4732   1.4576   0.8888 H              1 S1                 0.0000
     18 ****        -3.8543   0.1057   2.4055 H              1 S1                 0.0000
     19 ****        -2.4108   0.6587   3.2427 H              1 S1                 0.0000
     20 ****        -2.5214  -1.0107   2.6862 H              1 S1                 0.0000
     21 ****        -2.3283  -1.4853   0.0625 H              1 S1                 0.0000
     22 ****        -3.7565  -0.4760  -0.0593 H              1 S1                 0.0000
     23 ****        -2.5349  -0.5713  -1.9847 H              1 S1                 0.0000
     24 ****         1.7681  -1.7973   0.3807 H              1 S1                 0.0000
     25 ****         2.4028  -2.7163  -1.8575 H              1 S1                 0.0000
     26 ****         3.0036  -1.1158  -3.6976 H              1 S1                 0.0000
     27 ****         2.9475   1.3432  -3.2094 H              1 S1                 0.0000
     28 ****        -1.2411   0.0871  -1.3356 LP             1 S1                 0.0000
     29 ****        -2.6295   0.9342  -1.4814 LP             1 S1                 0.0000
     30 ****        -0.3099  -0.5935   1.3454 LP             1 S1                 0.0000
     31 ****        -0.9964   2.9019   0.9177 LP             1 S1                 0.0000
     32 ****         0.7060   3.2183   0.8751 LP             1 S1                 0.0000
     33 ****         2.3513   2.1217  -1.0811 LP             1 S1                 0.0000
@<TRIPOS>BOND
    1    1    2 1     
    2    1   18 1     
    3    1   19 1     
    4    1   20 1     
    5    2   17 1     
    6    2    3 1     
    7    2    5 1     
    8    3    4 1     
    9    3   21 1     
   10    3   22 1     
   11    4   23 1     
   12    5    6 1     
   13    6    7 2     
   14    6    8 1     
   15    8    9 1     
   16    8   10 1     
   17    8   11 1     
   18   11   16 ar    
   19   11   12 ar    
   20   12   13 ar    
   21   12   24 1     
   22   13   14 ar    
   23   13   25 1     
   24   14   15 ar    
   25   14   26 1     
   26   15   16 ar    
   27   15   27 1     
   28    4   28 1     
   29    4   29 1     
   30    5   30 1     
   31    7   31 1     
   32    7   32 1     
   33   16   33 1     
@<TRIPOS>SUBSTRUCTURE
      1 S1             1
@<TRIPOS>SET
LONE_PAIRS      STATIC     ATOMS    <user>   **** ""
6 28 29 30 31 32 33
DONOR_HYDROGENS      STATIC     ATOMS    <user>   **** ""
1 23
ATOM$BLUE        STATIC     ATOMS    COLORGROUP SYSTEM
6 28 29 30 31 32 33
ATOM$RED        STATIC     ATOMS    COLORGROUP SYSTEM
1 23
