AV-unprocessed.smi:753|AV-procd|sdf|3605|dock7
  -GOLD-   22720 1 03D 1   1.00000     0.00000
 Structure written by MMmdl.
 44 46  0  0  0  0  0  0  0  0  2 V2000
  154.7266  140.8378  160.9620 C   0  0  0  0  0  0  0  0  0  0  0  0
  153.7124  141.9462  160.7748 C   0  0  0  0  0  0  0  0  0  0  0  0
  153.1054  142.6030  161.8665 C   0  0  0  0  0  0  0  0  0  0  0  0
  152.1635  143.6229  161.6194 C   0  0  0  0  0  0  0  0  0  0  0  0
  151.8486  143.9670  160.2862 C   0  0  0  0  0  0  0  0  0  0  0  0
  150.8127  145.0353  159.9824 C   0  0  0  0  0  0  0  0  0  0  0  0
  149.4843  144.8413  160.7394 C   0  0  0  0  0  0  0  0  0  0  0  0
  148.3213  145.2069  159.9342 N   0  0  0  0  0  0  0  0  0  0  0  0
  147.0418  145.1817  160.3473 C   0  0  0  0  0  0  0  0  0  0  0  0
  146.7005  144.8516  161.4816 O   0  0  0  0  0  0  0  0  0  0  0  0
  146.1458  145.5651  159.4215 N   0  0  0  0  0  0  0  0  0  0  0  0
  144.6893  145.6460  159.5595 C   0  0  2  0  0  0  0  0  0  0  0  0
  144.0895  144.2761  159.9477 C   0  0  0  0  0  0  0  0  0  0  0  0
  143.0929  143.9951  158.8080 C   0  0  2  0  0  0  0  0  0  0  0  0
  143.8648  143.6654  157.5162 C   0  0  0  0  0  0  0  0  0  0  0  0
  144.4201  145.0378  157.0910 C   0  0  0  0  0  0  0  0  0  0  0  0
  143.9471  145.9616  158.2345 C   0  0  1  0  0  0  0  0  0  0  0  0
  142.5606  145.3910  158.5126 C   0  0  0  0  0  0  0  0  0  0  0  0
  152.4948  143.2823  159.2349 C   0  0  0  0  0  0  0  0  0  0  0  0
  153.3889  142.3090  159.5132 N   0  3  0  0  0  0  0  0  0  0  0  0
  154.6526  140.4064  161.9608 H   0  0  0  0  0  0  0  0  0  0  0  0
  155.7371  141.2245  160.8294 H   0  0  0  0  0  0  0  0  0  0  0  0
  154.5648  140.0397  160.2367 H   0  0  0  0  0  0  0  0  0  0  0  0
  153.3523  142.3268  162.8812 H   0  0  0  0  0  0  0  0  0  0  0  0
  151.6820  144.1253  162.4457 H   0  0  0  0  0  0  0  0  0  0  0  0
  151.2274  146.0168  160.2163 H   0  0  0  0  0  0  0  0  0  0  0  0
  150.6227  145.0361  158.9085 H   0  0  0  0  0  0  0  0  0  0  0  0
  149.3793  143.7937  161.0224 H   0  0  0  0  0  0  0  0  0  0  0  0
  149.4950  145.4060  161.6733 H   0  0  0  0  0  0  0  0  0  0  0  0
  148.5012  145.4927  158.9826 H   0  0  0  0  0  0  0  0  0  0  0  0
  146.5171  145.8570  158.5289 H   0  0  0  0  0  0  0  0  0  0  0  0
  144.4262  146.3777  160.3256 H   0  0  0  0  0  0  0  0  0  0  0  0
  144.8357  143.4855  160.0396 H   0  0  0  0  0  0  0  0  0  0  0  0
  143.5691  144.3471  160.9036 H   0  0  0  0  0  0  0  0  0  0  0  0
  142.3335  143.2560  159.0650 H   0  0  0  0  0  0  0  0  0  0  0  0
  144.6544  142.9322  157.6845 H   0  0  0  0  0  0  0  0  0  0  0  0
  143.1971  143.2683  156.7505 H   0  0  0  0  0  0  0  0  0  0  0  0
  145.5009  145.0301  156.9509 H   0  0  0  0  0  0  0  0  0  0  0  0
  143.9752  145.3474  156.1445 H   0  0  0  0  0  0  0  0  0  0  0  0
  143.9569  147.0191  157.9686 H   0  0  0  0  0  0  0  0  0  0  0  0
  141.8940  145.4267  157.6491 H   0  0  0  0  0  0  0  0  0  0  0  0
  142.0643  145.8551  159.3668 H   0  0  0  0  0  0  0  0  0  0  0  0
  152.3122  143.4709  158.1872 H   0  0  0  0  0  0  0  0  0  0  0  0
  153.8359  141.8224  158.7359 H   0  0  0  0  0  0  0  0  0  0  0  0
  1  2  1  0  0  0  0
  1 21  1  0  0  0  0
  1 22  1  0  0  0  0
  1 23  1  0  0  0  0
  2 20  1  0  0  0  0
  2  3  2  0  0  0  0
  3  4  1  0  0  0  0
  3 24  1  0  0  0  0
  4  5  2  0  0  0  0
  4 25  1  0  0  0  0
  5  6  1  0  0  0  0
  5 19  1  0  0  0  0
  6  7  1  0  0  0  0
  6 26  1  0  0  0  0
  6 27  1  0  0  0  0
  7  8  1  0  0  0  0
  7 28  1  0  0  0  0
  7 29  1  0  0  0  0
  8  9  1  0  0  0  0
  8 30  1  0  0  0  0
  9 10  2  0  0  0  0
  9 11  1  0  0  0  0
 11 12  1  0  0  0  0
 11 31  1  0  0  0  0
 12 17  1  0  0  0  0
 12 13  1  0  0  0  0
 12 32  1  0  0  0  0
 13 14  1  0  0  0  0
 13 33  1  0  0  0  0
 13 34  1  0  0  0  0
 14 18  1  0  0  0  0
 14 15  1  0  0  0  0
 14 35  1  0  0  0  0
 15 16  1  0  0  0  0
 15 36  1  0  0  0  0
 15 37  1  0  0  0  0
 16 17  1  0  0  0  0
 16 38  1  0  0  0  0
 16 39  1  0  0  0  0
 17 18  1  0  0  0  0
 17 40  1  0  0  0  0
 18 41  1  0  0  0  0
 18 42  1  0  0  0  0
 19 20  2  0  0  0  0
 19 43  1  0  0  0  0
 20 44  1  0  0  0  0
M  CHG  1  20   1
M  END
> <s_m_source_file>
AV-unprocessed.smi

> <i_m_source_file_index>
753

> <i_lp_mmshare_version>
43012

> <i_f3d_flags>
0

> <s_epik_input>
W0NIM11jMVtjSF1bY0hdYyhbY0hdbjEpW0NIMl1bQ0gyXVtOSF1DKD1PKVtOSF1bQ0BIXShbQ0gyXVtDQEBIXTIzKVtDQEBIXShbQ0gyXTMpW0NIMl1bQ0gyXTI=

> <s_epik_cmdline>
J2VwaWtfcHl0aG9uJywgJy1waCcsICc3LjAnLCAnLXRuJywgJzgnLCAnLW1hJywgJzIwMCcsICctbWV0YWxfYmluZGluZycsICctaW1hZScsICc8aW5maWxlLm1hZT4nLCAnLW9tYWUnLCAnPG91dGZpbGUubWFlPic=

> <r_epik_Ionization_Penalty>
1.41708

> <r_epik_Ionization_Penalty_Charging>
1.41702

> <r_epik_Ionization_Penalty_Neutral>
5.73163e-05

> <r_epik_State_Penalty>
1.50048

> <r_epik_Charging_Adjusted_Penalty>
2.9175

> <i_epik_Tot_Q>
1

> <i_epik_Tot_abs_Q>
1

> <r_epik_Metal_State_Penalty>
1.55295

> <b_epik_Metal_Only>
0

> <s_lp_Force_Field>
OPLS_2005

> <r_lp_Energy>
59.6045

> <b_lp_Chiralities_Consistent>
1

> <s_lp_Variant>
AV-unprocessed.smi:753-7

> <Gold.Version>
5.8.1

> <Gold.Id.Protein>
6NUR|6NUR_protein|mol2

> <Gold.PLP.Fitness>
45.5132

> <Gold.PLP.PLP>
-40.2334

> <Gold.PLP.part.hbond>
-2.6732

> <Gold.PLP.part.metal>
0.0000

> <Gold.PLP.part.buried>
-6.7446

> <Gold.PLP.part.nonpolar>
-31.9618

> <Gold.PLP.part.repulsive>
0.4877

> <Gold.PLP.ligand.clash>
0.0000

> <Gold.PLP.ligand.torsion>
0.3722

> <Gold.PLP.Chemscore.Hbond>
2.0000

> <Gold.PLP.Chemscore.CHOScore>
0.0000

> <Gold.PLP.Chemscore.Metal>
0.0000

> <Gold.Chemscore.Hbonds>
donor molecule, donor type, donor heavy atom, donor atom, acceptor molecule, acceptor atom, score
      L1  H     8    30       P1  8029  1.00
      L1  H    11    31       P1  8029  1.00

> <Gold.PLP.Chemscore.Internal.Correction>
0.0241

> <Gold.Rescore>
     Score         DG    S(hbond)    S(metal)    S(lipo)     H(rot)  DE(clash)    DE(int)     intcor
     20.39     -20.90       1.93        0.00     109.67       1.50       0.12       0.38       ----

> <Gold.Chemscore.Fitness>
20.3922

> <Gold.Chemscore.DG>
-20.9005

> <Gold.Chemscore.ZeroCoef>
-5.4800

> <Gold.Chemscore.Hbond>
1.9269

> <Gold.Chemscore.Metal>
0.0000

> <Gold.Chemscore.Lipo>
109.6708

> <Gold.Chemscore.Internal_Hbond>
0.0000

> <Gold.Chemscore.DEClash>
0.1239

> <Gold.Chemscore.DEInternal>
0.3843

> <Gold.Chemscore.Rot>
1.5027

> <Gold.Chemscore.Internal.Correction>
   9.000000E+99

> <Gold.Chemscore.Hbonds>
donor molecule, donor type, donor heavy atom, donor atom, acceptor molecule, acceptor atom, score
      L1  H     8    30       P1  8029  0.95
      L1  H    11    31       P1  8029  0.98

> <Gold.Chemscore.Hbond.Weighted>
-6.4358

> <Gold.Chemscore.Metal.Weighted>
-0.0000

> <Gold.Chemscore.Lipo.Weighted>
-12.8315

> <Gold.Chemscore.Internal_Hbond.Weighted>
0.0000

> <Gold.Chemscore.DEClash.Weighted>
0.1239

> <Gold.Chemscore.DEInternal.Weighted>
0.3843

> <Gold.Chemscore.Rot.Weighted>
3.8468

> <Gold.Chemscore.Internal.Correction.Weighted>
   9.000000E+99

> <Gold.Protein.RotatedTorsions>
[ 6907 6896 6895 6894 ] final -142.32 input  -60.11 | X-H torsion
[ 7974 7965 7964 7962 ] final   51.89 input  175.53 | X-H torsion
[ 8008 7997 7996 7995 ] final   23.22 input   59.86 | X-H torsion
[ 10167 10162 10161 10158 ] final  -81.02 input  -65.29 | X-H torsion
[ 10718 10713 10712 10709 ] final  150.52 input   66.30 | X-H torsion
[ 10763 10752 10751 10750 ] final  144.78 input  -60.55 | X-H torsion
[ 11005 11000 10999 10996 ] final -115.98 input  -57.11 | X-H torsion

> <Gold.Protein.ActiveResidues>
 VAL166  LYS551  ARG553  GLY616  TRP617  ASP618  TYR619  PRO620  LYS621  CYS622 
 ASP623  PHE694  ASN695  SER759  ASP760  ASP761  ALA762  ILE779  LEU786  VAL792 
 PHE793  MET794  SER795  GLU796  ALA797  LYS798  CYS799  TRP800  GLU811  SER814 

> <Gold.Protein.RotatedAtoms>
  151.0855  133.5356  159.2617 H   0  0  0  0  0  0  0  0  0  0  0  0  # atno 6907 bound_to 6896
  151.2243  135.0530  159.8972 H   0  0  0  0  0  0  0  0  0  0  0  0  # atno 6908 bound_to 6896
  152.5428  134.0653  159.8224 H   0  0  0  0  0  0  0  0  0  0  0  0  # atno 6909 bound_to 6896
  145.9868  139.4298  143.0098 H   0  0  0  0  0  0  0  0  0  0  0  0  # atno 7974 bound_to 7965
  154.9776  140.3098  155.4960 H   0  0  0  0  0  0  0  0  0  0  0  0  # atno 8008 bound_to 7997
  156.2958  140.2272  156.4812 H   0  0  0  0  0  0  0  0  0  0  0  0  # atno 8009 bound_to 7997
  154.7819  140.0445  157.1122 H   0  0  0  0  0  0  0  0  0  0  0  0  # atno 8010 bound_to 7997
  140.4450  143.2502  151.8572 H   0  0  0  0  0  0  0  0  0  0  0  0  # atno 10167 bound_to 10162
  157.2824  131.0838  151.1522 H   0  0  0  0  0  0  0  0  0  0  0  0  # atno 10718 bound_to 10713
  153.9945  135.2929  155.3409 H   0  0  0  0  0  0  0  0  0  0  0  0  # atno 10763 bound_to 10752
  154.7195  135.5115  153.8793 H   0  0  0  0  0  0  0  0  0  0  0  0  # atno 10764 bound_to 10752
  153.0794  135.6674  154.0194 H   0  0  0  0  0  0  0  0  0  0  0  0  # atno 10765 bound_to 10752
  141.0452  133.9773  157.2929 H   0  0  0  0  0  0  0  0  0  0  0  0  # atno 11005 bound_to 11000
  145.7689  140.9905  143.1160 LP  0  0  0  0  0  0  0  0  0  0  0  0  # atno 17320 bound_to 7965
  144.6877  139.9422  143.7475 LP  0  0  0  0  0  0  0  0  0  0  0  0  # atno 17321 bound_to 7965
  139.4792  144.5186  151.8833 LP  0  0  0  0  0  0  0  0  0  0  0  0  # atno 17342 bound_to 10162
  140.4274  144.2161  150.5887 LP  0  0  0  0  0  0  0  0  0  0  0  0  # atno 17343 bound_to 10162
  157.2951  130.6815  149.6134 LP  0  0  0  0  0  0  0  0  0  0  0  0  # atno 17370 bound_to 10713
  155.9664  130.4409  150.5318 LP  0  0  0  0  0  0  0  0  0  0  0  0  # atno 17371 bound_to 10713
  139.9306  135.0200  156.8388 LP  0  0  0  0  0  0  0  0  0  0  0  0  # atno 17394 bound_to 11000
  140.6160  134.0038  155.7597 LP  0  0  0  0  0  0  0  0  0  0  0  0  # atno 17395 bound_to 11000

$$$$
