AV-unprocessed.smi:1976|AV-procd|sdf|7990|dock2
  -GOLD-   2272010173D 1   1.00000     0.00000
 Structure written by MMmdl.
 45 47  0  0  0  0  0  0  0  0  2 V2000
  148.1959  139.8435  155.7568 O   0  0  0  0  0  0  0  0  0  0  0  0
  148.7983  140.1887  154.7397 C   0  0  0  0  0  0  0  0  0  0  0  0
  150.1522  140.9062  154.8329 C   0  0  0  0  0  0  0  0  0  0  0  0
  150.6510  141.0200  156.2135 N   0  0  0  0  0  0  0  0  0  0  0  0
  150.9873  142.3091  156.6716 C   0  0  0  0  0  0  0  0  0  0  0  0
  151.4645  142.5458  157.9086 C   0  0  0  0  0  0  0  0  0  0  0  0
  151.7593  143.9560  158.3957 C   0  0  0  0  0  0  0  0  0  0  0  0
  150.7602  144.4242  159.1437 F   0  0  0  0  0  0  0  0  0  0  0  0
  152.8673  143.9571  159.1354 F   0  0  0  0  0  0  0  0  0  0  0  0
  151.9430  144.7907  157.3722 F   0  0  0  0  0  0  0  0  0  0  0  0
  151.5925  141.3955  158.7817 C   0  0  0  0  0  0  0  0  0  0  0  0
  151.2623  140.1578  158.3640 C   0  0  0  0  0  0  0  0  0  0  0  0
  150.7594  139.9147  157.0100 C   0  0  0  0  0  0  0  0  0  0  0  0
  150.4529  138.7889  156.6162 O   0  0  0  0  0  0  0  0  0  0  0  0
  148.3200  139.9884  153.5031 N   0  0  0  0  0  0  0  0  0  0  0  0
  147.0571  139.3243  153.2003 C   0  0  1  0  0  0  0  0  0  0  0  0
  146.7158  139.2817  151.6983 C   0  0  0  0  0  0  0  0  0  0  0  0
  146.0687  137.9017  151.4662 C   0  0  0  0  0  0  0  0  0  0  0  0
  145.9774  137.2835  152.8028 N   0  3  1  0  0  0  0  0  0  0  0  0
  145.9235  135.8065  152.8625 C   0  0  0  0  0  0  0  0  0  0  0  0
  145.7502  135.3633  154.3293 C   0  0  0  0  0  0  0  0  0  0  0  0
  146.8263  135.9805  155.2467 C   0  0  0  0  0  0  0  0  0  0  0  0
  146.8977  137.5100  155.0709 C   0  0  0  0  0  0  0  0  0  0  0  0
  147.0895  137.8460  153.5832 C   0  0  2  0  0  0  0  0  0  0  0  0
  150.8861  140.3875  154.2128 H   0  0  0  0  0  0  0  0  0  0  0  0
  150.0443  141.8931  154.3810 H   0  0  0  0  0  0  0  0  0  0  0  0
  150.8210  143.0989  155.9535 H   0  0  0  0  0  0  0  0  0  0  0  0
  151.9626  141.5272  159.7878 H   0  0  0  0  0  0  0  0  0  0  0  0
  151.3718  139.3238  159.0416 H   0  0  0  0  0  0  0  0  0  0  0  0
  148.8743  140.3062  152.7212 H   0  0  0  0  0  0  0  0  0  0  0  0
  146.2422  139.8113  153.7403 H   0  0  0  0  0  0  0  0  0  0  0  0
  146.0446  140.0968  151.4258 H   0  0  0  0  0  0  0  0  0  0  0  0
  147.6123  139.3764  151.0835 H   0  0  0  0  0  0  0  0  0  0  0  0
  145.0825  137.9759  151.0071 H   0  0  0  0  0  0  0  0  0  0  0  0
  146.7020  137.2973  150.8147 H   0  0  0  0  0  0  0  0  0  0  0  0
  145.0904  135.4453  152.2586 H   0  0  0  0  0  0  0  0  0  0  0  0
  146.8365  135.3837  152.4400 H   0  0  0  0  0  0  0  0  0  0  0  0
  144.7629  135.6651  154.6821 H   0  0  0  0  0  0  0  0  0  0  0  0
  145.7805  134.2752  154.3964 H   0  0  0  0  0  0  0  0  0  0  0  0
  146.6204  135.7314  156.2882 H   0  0  0  0  0  0  0  0  0  0  0  0
  147.7974  135.5433  155.0105 H   0  0  0  0  0  0  0  0  0  0  0  0
  145.9824  137.9697  155.4464 H   0  0  0  0  0  0  0  0  0  0  0  0
  147.7188  137.9182  155.6610 H   0  0  0  0  0  0  0  0  0  0  0  0
  148.0229  137.4029  153.2271 H   0  0  0  0  0  0  0  0  0  0  0  0
  145.1284  137.6337  153.2230 H   0  0  0  0  0  0  0  0  0  0  0  0
  1  2  2  0  0  0  0
  2  3  1  0  0  0  0
  2 15  1  0  0  0  0
  3  4  1  0  0  0  0
  3 25  1  0  0  0  0
  3 26  1  0  0  0  0
  4 13  1  0  0  0  0
  4  5  1  0  0  0  0
  5  6  2  0  0  0  0
  5 27  1  0  0  0  0
  6  7  1  0  0  0  0
  6 11  1  0  0  0  0
  7  8  1  0  0  0  0
  7  9  1  0  0  0  0
  7 10  1  0  0  0  0
 11 12  2  0  0  0  0
 11 28  1  0  0  0  0
 12 13  1  0  0  0  0
 12 29  1  0  0  0  0
 13 14  2  0  0  0  0
 15 16  1  0  0  0  0
 15 30  1  0  0  0  0
 16 24  1  0  0  0  0
 16 17  1  0  0  0  0
 16 31  1  0  0  0  0
 17 18  1  0  0  0  0
 17 32  1  0  0  0  0
 17 33  1  0  0  0  0
 18 19  1  0  0  0  0
 18 34  1  0  0  0  0
 18 35  1  0  0  0  0
 19 24  1  0  0  0  0
 19 20  1  0  0  0  0
 19 45  1  0  0  0  0
 20 21  1  0  0  0  0
 20 36  1  0  0  0  0
 20 37  1  0  0  0  0
 21 22  1  0  0  0  0
 21 38  1  0  0  0  0
 21 39  1  0  0  0  0
 22 23  1  0  0  0  0
 22 40  1  0  0  0  0
 22 41  1  0  0  0  0
 23 24  1  0  0  0  0
 23 42  1  0  0  0  0
 23 43  1  0  0  0  0
 24 44  1  0  0  0  0
M  CHG  1  19   1
M  END
> <s_m_source_file>
AV-unprocessed.smi

> <i_m_source_file_index>
1976

> <i_lp_mmshare_version>
43012

> <i_f3d_flags>
0

> <s_epik_input>
W0NIMl0xW0NIMl1bQ0gyXVtDSDJdW0NASF0oTjEyKVtDQEBIXShbQ0gyXVtDSDJdMilbTkhdQyg9TylbQ0gyXW4zW2NIXWMoQyhGKShGKUYpW2NIXVtjSF1jMz1P

> <s_epik_cmdline>
J2VwaWtfcHl0aG9uJywgJy1waCcsICc3LjAnLCAnLXRuJywgJzgnLCAnLW1hJywgJzIwMCcsICctbWV0YWxfYmluZGluZycsICctaW1hZScsICc8aW5maWxlLm1hZT4nLCAnLW9tYWUnLCAnPG91dGZpbGUubWFlPic=

> <r_lp_tautomer_probability>
1

> <r_epik_Ionization_Penalty>
0.00171506

> <r_epik_Ionization_Penalty_Charging>
0.00171498

> <r_epik_Ionization_Penalty_Neutral>
7.81737e-08

> <r_epik_State_Penalty>
0.00115937

> <r_epik_Charging_Adjusted_Penalty>
0.00287436

> <i_epik_Tot_Q>
1

> <i_epik_Tot_abs_Q>
1

> <r_epik_Metal_State_Penalty>
-0

> <b_epik_Metal_Only>
0

> <s_lp_Force_Field>
OPLS_2005

> <r_lp_Energy>
46.2407

> <b_lp_Chiralities_Consistent>
1

> <s_lp_Variant>
AV-unprocessed.smi:1976-8

> <Gold.Version>
5.8.1

> <Gold.Id.Protein>
6NUR|6NUR_protein|mol2

> <Gold.PLP.Fitness>
42.0582

> <Gold.PLP.PLP>
-37.7306

> <Gold.PLP.part.hbond>
-1.1734

> <Gold.PLP.part.metal>
0.0000

> <Gold.PLP.part.buried>
3.1971

> <Gold.PLP.part.nonpolar>
-40.0600

> <Gold.PLP.part.repulsive>
0.1224

> <Gold.PLP.ligand.clash>
0.0000

> <Gold.PLP.ligand.torsion>
0.8800

> <Gold.PLP.Chemscore.Hbond>
1.0000

> <Gold.PLP.Chemscore.CHOScore>
1.0000

> <Gold.PLP.Chemscore.Metal>
0.0000

> <Gold.Chemscore.Hbonds>
donor molecule, donor type, donor heavy atom, donor atom, acceptor molecule, acceptor atom, score
      L1  H    15    30       P1  7957  1.00
      L1  C     5    27       P1  8028  1.00

> <Gold.PLP.Chemscore.Internal.Correction>
0.0877

> <Gold.Rescore>
     Score         DG    S(hbond)    S(metal)    S(lipo)     H(rot)  DE(clash)    DE(int)     intcor
     11.46     -13.28       0.97        0.00      73.63       1.58       0.14       1.67       ----

> <Gold.Chemscore.Fitness>
11.4642

> <Gold.Chemscore.DG>
-13.2784

> <Gold.Chemscore.ZeroCoef>
-5.4800

> <Gold.Chemscore.Hbond>
0.9690

> <Gold.Chemscore.Metal>
0.0000

> <Gold.Chemscore.Lipo>
73.6267

> <Gold.Chemscore.Internal_Hbond>
0.0000

> <Gold.Chemscore.DEClash>
0.1401

> <Gold.Chemscore.DEInternal>
1.6741

> <Gold.Chemscore.Rot>
1.5830

> <Gold.Chemscore.Internal.Correction>
   9.000000E+99

> <Gold.Chemscore.Hbonds>
donor molecule, donor type, donor heavy atom, donor atom, acceptor molecule, acceptor atom, score
      L1  H    15    30       P1  7957  0.95

> <Gold.Chemscore.Hbond.Weighted>
-3.2364

> <Gold.Chemscore.Metal.Weighted>
-0.0000

> <Gold.Chemscore.Lipo.Weighted>
-8.6143

> <Gold.Chemscore.Internal_Hbond.Weighted>
0.0000

> <Gold.Chemscore.DEClash.Weighted>
0.1401

> <Gold.Chemscore.DEInternal.Weighted>
1.6741

> <Gold.Chemscore.Rot.Weighted>
4.0524

> <Gold.Chemscore.Internal.Correction.Weighted>
   9.000000E+99

> <Gold.Protein.RotatedTorsions>
[ 6907 6896 6895 6894 ] final   17.69 input  -60.11 | X-H torsion
[ 7974 7965 7964 7962 ] final  126.06 input  175.53 | X-H torsion
[ 8008 7997 7996 7995 ] final  -66.82 input   59.86 | X-H torsion
[ 10167 10162 10161 10158 ] final  122.16 input  -65.29 | X-H torsion
[ 10718 10713 10712 10709 ] final  -99.91 input   66.30 | X-H torsion
[ 10763 10752 10751 10750 ] final -154.45 input  -60.55 | X-H torsion
[ 11005 11000 10999 10996 ] final   93.31 input  -57.11 | X-H torsion

> <Gold.Protein.ActiveResidues>
 VAL166  LYS551  ARG553  GLY616  TRP617  ASP618  TYR619  PRO620  LYS621  CYS622 
 ASP623  PHE694  ASN695  SER759  ASP760  ASP761  ALA762  ILE779  LEU786  VAL792 
 PHE793  MET794  SER795  GLU796  ALA797  LYS798  CYS799  TRP800  GLU811  SER814 

> <Gold.Protein.RotatedAtoms>
  151.8536  135.0549  160.0461 H   0  0  0  0  0  0  0  0  0  0  0  0  # atno 6907 bound_to 6896
  152.2717  133.5384  159.5452 H   0  0  0  0  0  0  0  0  0  0  0  0  # atno 6908 bound_to 6896
  150.7154  134.0604  159.3871 H   0  0  0  0  0  0  0  0  0  0  0  0  # atno 6909 bound_to 6896
  145.0659  139.3768  143.4982 H   0  0  0  0  0  0  0  0  0  0  0  0  # atno 7974 bound_to 7965
  154.4759  140.0905  156.7261 H   0  0  0  0  0  0  0  0  0  0  0  0  # atno 8008 bound_to 7997
  155.4597  140.3460  155.4293 H   0  0  0  0  0  0  0  0  0  0  0  0  # atno 8009 bound_to 7997
  156.1116  140.1449  156.9319 H   0  0  0  0  0  0  0  0  0  0  0  0  # atno 8010 bound_to 7997
  139.5876  144.7012  151.3371 H   0  0  0  0  0  0  0  0  0  0  0  0  # atno 10167 bound_to 10162
  156.0147  130.5303  150.6739 H   0  0  0  0  0  0  0  0  0  0  0  0  # atno 10718 bound_to 10713
  154.7857  135.3189  154.7890 H   0  0  0  0  0  0  0  0  0  0  0  0  # atno 10763 bound_to 10752
  153.8591  135.6855  153.4789 H   0  0  0  0  0  0  0  0  0  0  0  0  # atno 10764 bound_to 10752
  153.1508  135.4700  154.9573 H   0  0  0  0  0  0  0  0  0  0  0  0  # atno 10765 bound_to 10752
  139.8812  134.8783  156.3699 H   0  0  0  0  0  0  0  0  0  0  0  0  # atno 11005 bound_to 11000
  146.3526  140.0381  142.8645 LP  0  0  0  0  0  0  0  0  0  0  0  0  # atno 17320 bound_to 7965
  145.1351  140.9540  143.4521 LP  0  0  0  0  0  0  0  0  0  0  0  0  # atno 17321 bound_to 7965
  140.7145  143.7304  150.7628 LP  0  0  0  0  0  0  0  0  0  0  0  0  # atno 17342 bound_to 10162
  140.0852  143.4930  152.2509 LP  0  0  0  0  0  0  0  0  0  0  0  0  # atno 17343 bound_to 10162
  157.4456  131.0866  151.0899 LP  0  0  0  0  0  0  0  0  0  0  0  0  # atno 17370 bound_to 10713
  157.1430  130.6151  149.5560 LP  0  0  0  0  0  0  0  0  0  0  0  0  # atno 17371 bound_to 10713
  140.9471  133.7475  156.0223 LP  0  0  0  0  0  0  0  0  0  0  0  0  # atno 17394 bound_to 11000
  140.8150  134.3355  157.5400 LP  0  0  0  0  0  0  0  0  0  0  0  0  # atno 17395 bound_to 11000

$$$$
