AV-unprocessed.smi:2973|AV-procd|sdf|11340|dock4
  -GOLD-   2272016253D 1   1.00000     0.00000
 Structure written by MMmdl.
 49 51  0  0  0  0  0  0  0  0  1 V2000
  148.3828  136.3123  158.9389 C   0  0  0  0  0  0  0  0  0  0  0  0
  148.1246  135.5545  160.2585 C   0  0  1  0  0  0  0  0  0  0  0  0
  147.8541  136.5443  161.4123 C   0  0  0  0  0  0  0  0  0  0  0  0
  147.6915  135.8179  162.7566 C   0  0  0  0  0  0  0  0  0  0  0  0
  146.5822  134.7588  162.6926 C   0  0  0  0  0  0  0  0  0  0  0  0
  146.8302  133.7605  161.5473 C   0  0  0  0  0  0  0  0  0  0  0  0
  147.0257  134.4477  160.1720 C   0  0  2  0  0  0  0  0  0  0  0  0
  147.3648  133.4496  159.1724 N   0  0  0  0  0  0  0  0  0  0  0  0
  146.4509  133.3427  158.2000 C   0  0  0  0  0  0  0  0  0  0  0  0
  146.5134  132.5627  157.2512 O   0  0  0  0  0  0  0  0  0  0  0  0
  145.4703  134.2296  158.4431 N   0  0  0  0  0  0  0  0  0  0  0  0
  144.2810  134.3967  157.5973 C   0  0  0  0  0  0  0  0  0  0  0  0
  144.5772  135.0596  156.2445 C   0  0  0  0  0  0  0  0  0  0  0  0
  145.2541  136.0865  156.1724 O   0  0  0  0  0  0  0  0  0  0  0  0
  144.0614  134.4441  155.1702 N   0  0  0  0  0  0  0  0  0  0  0  0
  144.2148  134.8929  153.7913 C   0  0  0  0  0  0  0  0  0  0  0  0
  145.4927  134.3276  153.1488 C   0  0  0  0  0  0  0  0  0  0  0  0
  145.2027  133.5614  151.8720 C   0  0  0  0  0  0  0  0  0  0  0  0
  146.2558  133.0558  151.0794 C   0  0  0  0  0  0  0  0  0  0  0  0
  145.9318  132.3478  149.9059 C   0  0  0  0  0  0  0  0  0  0  0  0
  144.5751  132.1718  149.5724 C   0  0  0  0  0  0  0  0  0  0  0  0
  143.5982  132.7141  150.4312 C   0  0  0  0  0  0  0  0  0  0  0  0
  143.8980  133.3952  151.5582 N   0  0  0  0  0  0  0  0  0  0  0  0
  145.6994  134.9181  159.5699 C   0  0  0  0  0  0  0  0  0  0  0  0
  144.9797  135.7899  160.0576 O   0  0  0  0  0  0  0  0  0  0  0  0
  147.5143  136.8938  158.6285 H   0  0  0  0  0  0  0  0  0  0  0  0
  148.6377  135.6319  158.1263 H   0  0  0  0  0  0  0  0  0  0  0  0
  149.2159  137.0071  159.0483 H   0  0  0  0  0  0  0  0  0  0  0  0
  149.0598  135.0461  160.4984 H   0  0  0  0  0  0  0  0  0  0  0  0
  148.6771  137.2556  161.4889 H   0  0  0  0  0  0  0  0  0  0  0  0
  146.9631  137.1373  161.2046 H   0  0  0  0  0  0  0  0  0  0  0  0
  148.6343  135.3423  163.0299 H   0  0  0  0  0  0  0  0  0  0  0  0
  147.4709  136.5392  163.5439 H   0  0  0  0  0  0  0  0  0  0  0  0
  146.5292  134.2240  163.6411 H   0  0  0  0  0  0  0  0  0  0  0  0
  145.6155  135.2461  162.5669 H   0  0  0  0  0  0  0  0  0  0  0  0
  147.7167  133.1696  161.7823 H   0  0  0  0  0  0  0  0  0  0  0  0
  146.0028  133.0501  161.5048 H   0  0  0  0  0  0  0  0  0  0  0  0
  148.2044  132.8912  159.2236 H   0  0  0  0  0  0  0  0  0  0  0  0
  143.8110  133.4292  157.4136 H   0  0  0  0  0  0  0  0  0  0  0  0
  143.5346  134.9917  158.1268 H   0  0  0  0  0  0  0  0  0  0  0  0
  143.5183  133.6058  155.3191 H   0  0  0  0  0  0  0  0  0  0  0  0
  143.3410  134.5603  153.2304 H   0  0  0  0  0  0  0  0  0  0  0  0
  144.2128  135.9836  153.7506 H   0  0  0  0  0  0  0  0  0  0  0  0
  146.1922  135.1337  152.9224 H   0  0  0  0  0  0  0  0  0  0  0  0
  146.0031  133.6695  153.8532 H   0  0  0  0  0  0  0  0  0  0  0  0
  147.2876  133.2052  151.3623 H   0  0  0  0  0  0  0  0  0  0  0  0
  146.7099  131.9468  149.2731 H   0  0  0  0  0  0  0  0  0  0  0  0
  144.2894  131.6346  148.6802 H   0  0  0  0  0  0  0  0  0  0  0  0
  142.5481  132.5971  150.2075 H   0  0  0  0  0  0  0  0  0  0  0  0
  1  2  1  0  0  0  0
  1 26  1  0  0  0  0
  1 27  1  0  0  0  0
  1 28  1  0  0  0  0
  2  7  1  0  0  0  0
  2  3  1  0  0  0  0
  2 29  1  0  0  0  0
  3  4  1  0  0  0  0
  3 30  1  0  0  0  0
  3 31  1  0  0  0  0
  4  5  1  0  0  0  0
  4 32  1  0  0  0  0
  4 33  1  0  0  0  0
  5  6  1  0  0  0  0
  5 34  1  0  0  0  0
  5 35  1  0  0  0  0
  6  7  1  0  0  0  0
  6 36  1  0  0  0  0
  6 37  1  0  0  0  0
  7 24  1  0  0  0  0
  7  8  1  0  0  0  0
  8  9  1  0  0  0  0
  8 38  1  0  0  0  0
  9 10  2  0  0  0  0
  9 11  1  0  0  0  0
 11 12  1  0  0  0  0
 11 24  1  0  0  0  0
 12 13  1  0  0  0  0
 12 39  1  0  0  0  0
 12 40  1  0  0  0  0
 13 14  2  0  0  0  0
 13 15  1  0  0  0  0
 15 16  1  0  0  0  0
 15 41  1  0  0  0  0
 16 17  1  0  0  0  0
 16 42  1  0  0  0  0
 16 43  1  0  0  0  0
 17 18  1  0  0  0  0
 17 44  1  0  0  0  0
 17 45  1  0  0  0  0
 18 23  1  0  0  0  0
 18 19  2  0  0  0  0
 19 20  1  0  0  0  0
 19 46  1  0  0  0  0
 20 21  2  0  0  0  0
 20 47  1  0  0  0  0
 21 22  1  0  0  0  0
 21 48  1  0  0  0  0
 22 23  2  0  0  0  0
 22 49  1  0  0  0  0
 24 25  2  0  0  0  0
M  END
> <s_m_source_file>
AV-unprocessed.smi

> <i_m_source_file_index>
2973

> <i_lp_mmshare_version>
43012

> <i_f3d_flags>
0

> <s_epik_input>
W0NIMl0xW0NIMl1bQ0gyXVtDSDJdW0NAQEhdKFtDSDNdKVtDQF0xMltOSF1DKD1PKU4oQzI9TylbQ0gyXUMoPU8pW05IXVtDSDJdW0NIMl1jM1tjSF1bY0hdW2NIXVtjSF1uMw==

> <s_epik_cmdline>
J2VwaWtfcHl0aG9uJywgJy1waCcsICc3LjAnLCAnLXRuJywgJzgnLCAnLW1hJywgJzIwMCcsICctbWV0YWxfYmluZGluZycsICctaW1hZScsICc8aW5maWxlLm1hZT4nLCAnLW9tYWUnLCAnPG91dGZpbGUubWFlPic=

> <r_lp_tautomer_probability>
1

> <r_epik_Ionization_Penalty>
0.0245152

> <r_epik_Ionization_Penalty_Charging>
0

> <r_epik_Ionization_Penalty_Neutral>
0.0245152

> <r_epik_State_Penalty>
0.0198648

> <r_epik_Charging_Adjusted_Penalty>
0.0198648

> <i_epik_Tot_Q>
0

> <i_epik_Tot_abs_Q>
0

> <r_epik_Metal_State_Penalty>
0.0400162

> <b_epik_Metal_Only>
0

> <s_lp_Force_Field>
OPLS_2005

> <r_lp_Energy>
16.769

> <b_lp_Chiralities_Consistent>
1

> <s_lp_Variant>
AV-unprocessed.smi:2973-4

> <Gold.Version>
5.8.1

> <Gold.Id.Protein>
6NUR|6NUR_protein|mol2

> <Gold.PLP.Fitness>
40.5096

> <Gold.PLP.PLP>
-35.1434

> <Gold.PLP.part.hbond>
-1.0000

> <Gold.PLP.part.metal>
0.0000

> <Gold.PLP.part.buried>
-3.3951

> <Gold.PLP.part.nonpolar>
-30.9007

> <Gold.PLP.part.repulsive>
0.2245

> <Gold.PLP.ligand.clash>
0.0000

> <Gold.PLP.ligand.torsion>
0.8133

> <Gold.PLP.Chemscore.Hbond>
1.0000

> <Gold.PLP.Chemscore.CHOScore>
1.3196

> <Gold.PLP.Chemscore.Metal>
0.0000

> <Gold.Chemscore.Hbonds>
donor molecule, donor type, donor heavy atom, donor atom, acceptor molecule, acceptor atom, score
      L1  H    15    41       P1 10957  0.84
      L1  C    22    49       P1 10186  0.92
      L1  C    22    49       P1 10952  0.08

> <Gold.PLP.Chemscore.Internal.Correction>
0.0342

> <Gold.Rescore>
     Score         DG    S(hbond)    S(metal)    S(lipo)     H(rot)  DE(clash)    DE(int)     intcor
     14.72     -15.53       1.00        0.00      97.99       1.86       0.03       0.78       ----

> <Gold.Chemscore.Fitness>
14.7159

> <Gold.Chemscore.DG>
-15.5259

> <Gold.Chemscore.ZeroCoef>
-5.4800

> <Gold.Chemscore.Hbond>
0.9974

> <Gold.Chemscore.Metal>
0.0000

> <Gold.Chemscore.Lipo>
97.9858

> <Gold.Chemscore.Internal_Hbond>
0.0000

> <Gold.Chemscore.DEClash>
0.0299

> <Gold.Chemscore.DEInternal>
0.7802

> <Gold.Chemscore.Rot>
1.8553

> <Gold.Chemscore.Internal.Correction>
   9.000000E+99

> <Gold.Chemscore.Hbonds>
donor molecule, donor type, donor heavy atom, donor atom, acceptor molecule, acceptor atom, score
      L1  H    15    41       P1 10957  0.83

> <Gold.Chemscore.Hbond.Weighted>
-3.3313

> <Gold.Chemscore.Metal.Weighted>
-0.0000

> <Gold.Chemscore.Lipo.Weighted>
-11.4643

> <Gold.Chemscore.Internal_Hbond.Weighted>
0.0000

> <Gold.Chemscore.DEClash.Weighted>
0.0299

> <Gold.Chemscore.DEInternal.Weighted>
0.7802

> <Gold.Chemscore.Rot.Weighted>
4.7497

> <Gold.Chemscore.Internal.Correction.Weighted>
   9.000000E+99

> <Gold.Protein.RotatedTorsions>
[ 6907 6896 6895 6894 ] final -128.48 input  -60.11 | X-H torsion
[ 7974 7965 7964 7962 ] final  -77.22 input  175.53 | X-H torsion
[ 8008 7997 7996 7995 ] final   12.98 input   59.86 | X-H torsion
[ 10167 10162 10161 10158 ] final  -30.70 input  -65.29 | X-H torsion
[ 10718 10713 10712 10709 ] final  -43.00 input   66.30 | X-H torsion
[ 10763 10752 10751 10750 ] final   81.33 input  -60.55 | X-H torsion
[ 11005 11000 10999 10996 ] final   61.67 input  -57.11 | X-H torsion

> <Gold.Protein.ActiveResidues>
 VAL166  LYS551  ARG553  GLY616  TRP617  ASP618  TYR619  PRO620  LYS621  CYS622 
 ASP623  PHE694  ASN695  SER759  ASP760  ASP761  ALA762  ILE779  LEU786  VAL792 
 PHE793  MET794  SER795  GLU796  ALA797  LYS798  CYS799  TRP800  GLU811  SER814 

> <Gold.Protein.RotatedAtoms>
  150.9184  133.6910  159.2837 H   0  0  0  0  0  0  0  0  0  0  0  0  # atno 6907 bound_to 6896
  151.4373  135.1015  159.9669 H   0  0  0  0  0  0  0  0  0  0  0  0  # atno 6908 bound_to 6896
  152.4967  133.8600  159.7300 H   0  0  0  0  0  0  0  0  0  0  0  0  # atno 6909 bound_to 6896
  145.6025  140.9405  143.1233 H   0  0  0  0  0  0  0  0  0  0  0  0  # atno 7974 bound_to 7965
  154.8282  140.2895  155.5740 H   0  0  0  0  0  0  0  0  0  0  0  0  # atno 8008 bound_to 7997
  156.3003  140.2537  156.3132 H   0  0  0  0  0  0  0  0  0  0  0  0  # atno 8009 bound_to 7997
  154.9262  140.0384  157.2013 H   0  0  0  0  0  0  0  0  0  0  0  0  # atno 8010 bound_to 7997
  140.7246  143.3828  151.1569 H   0  0  0  0  0  0  0  0  0  0  0  0  # atno 10167 bound_to 10162
  156.2536  130.4190  149.8621 H   0  0  0  0  0  0  0  0  0  0  0  0  # atno 10718 bound_to 10713
  153.1108  135.4769  154.9031 H   0  0  0  0  0  0  0  0  0  0  0  0  # atno 10763 bound_to 10752
  154.7478  135.3098  154.8615 H   0  0  0  0  0  0  0  0  0  0  0  0  # atno 10764 bound_to 10752
  153.9205  135.6855  153.4801 H   0  0  0  0  0  0  0  0  0  0  0  0  # atno 10765 bound_to 10752
  140.0145  134.6246  155.9730 H   0  0  0  0  0  0  0  0  0  0  0  0  # atno 11005 bound_to 11000
  144.7304  139.7744  143.7349 LP  0  0  0  0  0  0  0  0  0  0  0  0  # atno 17320 bound_to 7965
  146.1565  139.4665  143.0015 LP  0  0  0  0  0  0  0  0  0  0  0  0  # atno 17321 bound_to 7965
  139.7420  143.8910  152.3052 LP  0  0  0  0  0  0  0  0  0  0  0  0  # atno 17342 bound_to 10162
  139.8734  144.7056  150.8961 LP  0  0  0  0  0  0  0  0  0  0  0  0  # atno 17343 bound_to 10162
  156.6161  130.8607  151.3465 LP  0  0  0  0  0  0  0  0  0  0  0  0  # atno 17370 bound_to 10713
  157.7224  130.9576  150.1493 LP  0  0  0  0  0  0  0  0  0  0  0  0  # atno 17371 bound_to 10713
  141.1733  133.6538  156.4734 LP  0  0  0  0  0  0  0  0  0  0  0  0  # atno 17394 bound_to 11000
  140.4495  134.6941  157.5032 LP  0  0  0  0  0  0  0  0  0  0  0  0  # atno 17395 bound_to 11000

$$$$
