AV-unprocessed.smi:713|AV-procd|sdf|3477|dock1
  -GOLD-   22720 0473D 1   1.00000     0.00000
 Structure written by MMmdl.
 41 42  0  0  0  0  0  0  0  0  1 V2000
  152.4412  144.4841  157.9114 C   0  0  0  0  0  0  0  0  0  0  0  0
  151.5960  143.8523  159.0326 C   0  0  1  0  0  0  0  0  0  0  0  0
  150.6474  142.7631  158.5110 C   0  0  0  0  0  0  0  0  0  0  0  0
  149.6893  142.3883  159.1886 O   0  0  0  0  0  0  0  0  0  0  0  0
  150.9271  142.2645  157.2963 N   0  0  0  0  0  0  0  0  0  0  0  0
  150.1546  141.2355  156.6078 C   0  0  1  0  0  0  0  0  0  0  0  0
  149.6295  141.7913  155.2718 C   0  0  0  0  0  0  0  0  0  0  0  0
  148.8467  140.7232  154.4928 C   0  0  0  0  0  0  0  0  0  0  0  0
  149.6969  139.4635  154.2662 C   0  0  0  0  0  0  0  0  0  0  0  0
  150.2286  138.8958  155.5951 C   0  0  1  0  0  0  0  0  0  0  0  0
  151.2811  137.4105  155.2628 S   0  0  0  0  0  0  0  0  0  0  0  0
  151.8384  136.9202  156.9477 C   0  0  0  0  0  0  0  0  0  0  0  0
  150.4185  136.3449  154.7304 O   0  0  0  0  0  0  0  0  0  0  0  0
  152.4650  137.8340  154.4996 O   0  0  0  0  0  0  0  0  0  0  0  0
  151.0090  139.9721  156.3757 C   0  0  0  0  0  0  0  0  0  0  0  0
  152.4426  143.3208  160.0929 N   0  0  0  0  0  0  0  0  0  0  0  0
  153.3823  142.3098  160.0291 C   0  0  0  0  0  0  0  0  0  0  0  0
  153.9187  142.1696  161.2768 C   0  0  0  0  0  0  0  0  0  0  0  0
  153.2360  143.1494  162.0494 C   0  0  0  0  0  0  0  0  0  0  0  0
  152.3549  143.8357  161.3398 N   0  0  0  0  0  0  0  0  0  0  0  0
  151.8084  144.8875  157.1203 H   0  0  0  0  0  0  0  0  0  0  0  0
  153.1218  143.7625  157.4577 H   0  0  0  0  0  0  0  0  0  0  0  0
  153.0440  145.3064  158.2982 H   0  0  0  0  0  0  0  0  0  0  0  0
  150.9790  144.6471  159.4575 H   0  0  0  0  0  0  0  0  0  0  0  0
  151.7314  142.6328  156.8087 H   0  0  0  0  0  0  0  0  0  0  0  0
  149.2941  140.9714  157.2258 H   0  0  0  0  0  0  0  0  0  0  0  0
  148.9903  142.6567  155.4511 H   0  0  0  0  0  0  0  0  0  0  0  0
  150.4637  142.1436  154.6631 H   0  0  0  0  0  0  0  0  0  0  0  0
  147.9418  140.4593  155.0416 H   0  0  0  0  0  0  0  0  0  0  0  0
  148.5201  141.1275  153.5344 H   0  0  0  0  0  0  0  0  0  0  0  0
  149.1026  138.7100  153.7487 H   0  0  0  0  0  0  0  0  0  0  0  0
  150.5331  139.7018  153.6077 H   0  0  0  0  0  0  0  0  0  0  0  0
  149.3839  138.5580  156.1966 H   0  0  0  0  0  0  0  0  0  0  0  0
  152.3969  135.9868  156.8826 H   0  0  0  0  0  0  0  0  0  0  0  0
  150.9721  136.7762  157.5929 H   0  0  0  0  0  0  0  0  0  0  0  0
  152.4853  137.6896  157.3671 H   0  0  0  0  0  0  0  0  0  0  0  0
  151.9138  140.2393  155.8281 H   0  0  0  0  0  0  0  0  0  0  0  0
  151.3357  139.5719  157.3348 H   0  0  0  0  0  0  0  0  0  0  0  0
  153.5890  141.7804  159.1103 H   0  0  0  0  0  0  0  0  0  0  0  0
  154.6826  141.4732  161.5892 H   0  0  0  0  0  0  0  0  0  0  0  0
  153.3540  143.3816  163.0975 H   0  0  0  0  0  0  0  0  0  0  0  0
  1  2  1  0  0  0  0
  1 21  1  0  0  0  0
  1 22  1  0  0  0  0
  1 23  1  0  0  0  0
  2  3  1  0  0  0  0
  2 16  1  0  0  0  0
  2 24  1  0  0  0  0
  3  4  2  0  0  0  0
  3  5  1  0  0  0  0
  5  6  1  0  0  0  0
  5 25  1  0  0  0  0
  6 15  1  0  0  0  0
  6  7  1  0  0  0  0
  6 26  1  0  0  0  0
  7  8  1  0  0  0  0
  7 27  1  0  0  0  0
  7 28  1  0  0  0  0
  8  9  1  0  0  0  0
  8 29  1  0  0  0  0
  8 30  1  0  0  0  0
  9 10  1  0  0  0  0
  9 31  1  0  0  0  0
  9 32  1  0  0  0  0
 10 11  1  0  0  0  0
 10 15  1  0  0  0  0
 10 33  1  0  0  0  0
 11 12  1  0  0  0  0
 11 13  2  0  0  0  0
 11 14  2  0  0  0  0
 12 34  1  0  0  0  0
 12 35  1  0  0  0  0
 12 36  1  0  0  0  0
 15 37  1  0  0  0  0
 15 38  1  0  0  0  0
 16 20  1  0  0  0  0
 16 17  1  0  0  0  0
 17 18  2  0  0  0  0
 17 39  1  0  0  0  0
 18 19  1  0  0  0  0
 18 40  1  0  0  0  0
 19 20  2  0  0  0  0
 19 41  1  0  0  0  0
M  END
> <s_m_source_file>
AV-unprocessed.smi

> <i_m_source_file_index>
713

> <i_lp_mmshare_version>
43012

> <i_f3d_flags>
0

> <s_epik_input>
bjFbY0hdW2NIXVtjSF1uMVtDQEhdKFtDSDNdKUMoPU8pW05IXVtDQEBIXTJbQ0gyXVtDSDJdW0NIMl1bQ0BIXShbQ0gyXTIpUyg9TykoPU8pW0NIM10=

> <s_epik_cmdline>
J2VwaWtfcHl0aG9uJywgJy1waCcsICc3LjAnLCAnLXRuJywgJzgnLCAnLW1hJywgJzIwMCcsICctbWV0YWxfYmluZGluZycsICctaW1hZScsICc8aW5maWxlLm1hZT4nLCAnLW9tYWUnLCAnPG91dGZpbGUubWFlPic=

> <r_lp_tautomer_probability>
1

> <r_epik_Ionization_Penalty>
4.07816e-05

> <r_epik_Ionization_Penalty_Charging>
0

> <r_epik_Ionization_Penalty_Neutral>
4.07816e-05

> <r_epik_State_Penalty>
-0

> <r_epik_Charging_Adjusted_Penalty>
0

> <i_epik_Tot_Q>
0

> <i_epik_Tot_abs_Q>
0

> <r_epik_Metal_State_Penalty>
-0

> <b_epik_Metal_Only>
0

> <s_lp_Force_Field>
OPLS_2005

> <r_lp_Energy>
7.49251

> <b_lp_Chiralities_Consistent>
1

> <s_lp_Variant>
AV-unprocessed.smi:713-4

> <Gold.Version>
5.8.1

> <Gold.Id.Protein>
6NUR|6NUR_protein|mol2

> <Gold.PLP.Fitness>
43.9818

> <Gold.PLP.PLP>
-42.8453

> <Gold.PLP.part.hbond>
-2.0000

> <Gold.PLP.part.metal>
0.0000

> <Gold.PLP.part.buried>
-5.7132

> <Gold.PLP.part.nonpolar>
-35.1454

> <Gold.PLP.part.repulsive>
0.4926

> <Gold.PLP.ligand.clash>
0.0000

> <Gold.PLP.ligand.torsion>
0.4949

> <Gold.PLP.Chemscore.Hbond>
0.6400

> <Gold.PLP.Chemscore.CHOScore>
0.0000

> <Gold.PLP.Chemscore.Metal>
0.0000

> <Gold.Chemscore.Hbonds>
donor molecule, donor type, donor heavy atom, donor atom, acceptor molecule, acceptor atom, score
      P1  H 10752 10763       L1    14  0.07

> <Gold.PLP.Chemscore.Internal.Correction>
0.2063

> <Gold.Rescore>
     Score         DG    S(hbond)    S(metal)    S(lipo)     H(rot)  DE(clash)    DE(int)     intcor
     14.78     -15.53       0.80        0.00     100.87       1.72       0.07       0.68       ----

> <Gold.Chemscore.Fitness>
14.7775

> <Gold.Chemscore.DG>
-15.5274

> <Gold.Chemscore.ZeroCoef>
-5.4800

> <Gold.Chemscore.Hbond>
0.7969

> <Gold.Chemscore.Metal>
0.0000

> <Gold.Chemscore.Lipo>
100.8684

> <Gold.Chemscore.Internal_Hbond>
0.0000

> <Gold.Chemscore.DEClash>
0.0679

> <Gold.Chemscore.DEInternal>
0.6821

> <Gold.Chemscore.Rot>
1.7249

> <Gold.Chemscore.Internal.Correction>
   9.000000E+99

> <Gold.Chemscore.Hbond.Weighted>
-2.6616

> <Gold.Chemscore.Metal.Weighted>
-0.0000

> <Gold.Chemscore.Lipo.Weighted>
-11.8016

> <Gold.Chemscore.Internal_Hbond.Weighted>
0.0000

> <Gold.Chemscore.DEClash.Weighted>
0.0679

> <Gold.Chemscore.DEInternal.Weighted>
0.6821

> <Gold.Chemscore.Rot.Weighted>
4.4157

> <Gold.Chemscore.Internal.Correction.Weighted>
   9.000000E+99

> <Gold.Protein.RotatedTorsions>
[ 6907 6896 6895 6894 ] final   29.42 input  -60.11 | X-H torsion
[ 7974 7965 7964 7962 ] final   86.69 input  175.53 | X-H torsion
[ 8008 7997 7996 7995 ] final   72.87 input   59.86 | X-H torsion
[ 10167 10162 10161 10158 ] final  127.90 input  -65.29 | X-H torsion
[ 10718 10713 10712 10709 ] final  130.03 input   66.30 | X-H torsion
[ 10763 10752 10751 10750 ] final   50.37 input  -60.55 | X-H torsion
[ 11005 11000 10999 10996 ] final  -38.60 input  -57.11 | X-H torsion

> <Gold.Protein.ActiveResidues>
 VAL166  LYS551  ARG553  GLY616  TRP617  ASP618  TYR619  PRO620  LYS621  CYS622 
 ASP623  PHE694  ASN695  SER759  ASP760  ASP761  ALA762  ILE779  LEU786  VAL792 
 PHE793  MET794  SER795  GLU796  ALA797  LYS798  CYS799  TRP800  GLU811  SER814 

> <Gold.Protein.RotatedAtoms>
  152.0313  134.9766  160.0572 H   0  0  0  0  0  0  0  0  0  0  0  0  # atno 6907 bound_to 6896
  152.1242  133.4365  159.4698 H   0  0  0  0  0  0  0  0  0  0  0  0  # atno 6908 bound_to 6896
  150.6851  134.2417  159.4518 H   0  0  0  0  0  0  0  0  0  0  0  0  # atno 6909 bound_to 6896
  145.5689  139.2311  143.2417 H   0  0  0  0  0  0  0  0  0  0  0  0  # atno 7974 bound_to 7965
  155.7753  140.3483  155.5268 H   0  0  0  0  0  0  0  0  0  0  0  0  # atno 8008 bound_to 7997
  155.8782  140.0997  157.1524 H   0  0  0  0  0  0  0  0  0  0  0  0  # atno 8009 bound_to 7997
  154.4022  140.1327  156.4151 H   0  0  0  0  0  0  0  0  0  0  0  0  # atno 8010 bound_to 7997
  139.5554  144.6845  151.4197 H   0  0  0  0  0  0  0  0  0  0  0  0  # atno 10167 bound_to 10162
  157.5099  131.1096  150.9307 H   0  0  0  0  0  0  0  0  0  0  0  0  # atno 10718 bound_to 10713
  152.9785  135.5881  154.4242 H   0  0  0  0  0  0  0  0  0  0  0  0  # atno 10763 bound_to 10752
  154.3862  135.2767  155.2184 H   0  0  0  0  0  0  0  0  0  0  0  0  # atno 10764 bound_to 10752
  154.4075  135.6089  153.5988 H   0  0  0  0  0  0  0  0  0  0  0  0  # atno 10765 bound_to 10752
  141.0039  133.6941  156.2074 H   0  0  0  0  0  0  0  0  0  0  0  0  # atno 11005 bound_to 11000
  146.1798  140.6515  142.9194 LP  0  0  0  0  0  0  0  0  0  0  0  0  # atno 17320 bound_to 7965
  144.7447  140.5037  143.6844 LP  0  0  0  0  0  0  0  0  0  0  0  0  # atno 17321 bound_to 7965
  140.6826  143.8047  150.7142 LP  0  0  0  0  0  0  0  0  0  0  0  0  # atno 17342 bound_to 10162
  140.1505  143.4362  152.2134 LP  0  0  0  0  0  0  0  0  0  0  0  0  # atno 17343 bound_to 10162
  156.9951  130.5578  149.5306 LP  0  0  0  0  0  0  0  0  0  0  0  0  # atno 17370 bound_to 10713
  156.0282  130.5375  150.8465 LP  0  0  0  0  0  0  0  0  0  0  0  0  # atno 17371 bound_to 10713
  140.6844  134.4733  157.5589 LP  0  0  0  0  0  0  0  0  0  0  0  0  # atno 17394 bound_to 11000
  139.9053  134.8463  156.1731 LP  0  0  0  0  0  0  0  0  0  0  0  0  # atno 17395 bound_to 11000

$$$$
