AV-unprocessed.smi:2523|AV-procd|sdf|9921|dock5
  -GOLD-   2272013553D 1   1.00000     0.00000
 Structure written by MMmdl.
 34 36  0  0  0  0  0  0  0  0  1 V2000
  146.4022  142.2921  153.9663 C   0  0  0  0  0  0  0  0  0  0  0  0
  147.3685  141.1990  154.0440 N   0  0  0  0  0  0  0  0  0  0  0  0
  146.9668  140.0150  153.4149 N   0  0  0  0  0  0  0  0  0  0  0  0
  147.7292  138.9665  153.4024 C   0  0  0  0  0  0  0  0  0  0  0  0
  149.0266  139.0479  154.0664 C   0  0  0  0  0  0  0  0  0  0  0  0
  150.1149  138.1548  154.2663 C   0  0  0  0  0  0  0  0  0  0  0  0
  151.1039  138.7192  154.9568 N   0  0  0  0  0  0  0  0  0  0  0  0
  150.6909  139.9847  155.2259 N   0  0  0  0  0  0  0  0  0  0  0  0
  151.5584  140.8781  155.9781 C   0  0  0  0  0  0  0  0  0  0  0  0
  151.8070  140.3956  157.4215 C   0  0  1  0  0  0  0  0  0  0  0  0
  152.8199  139.4078  157.4433 O   0  0  0  0  0  0  0  0  0  0  0  0
  152.1305  141.5618  158.3419 C   0  0  0  0  0  0  0  0  0  0  0  0
  151.9231  142.8913  157.9127 C   0  0  0  0  0  0  0  0  0  0  0  0
  152.2137  143.9684  158.7722 C   0  0  0  0  0  0  0  0  0  0  0  0
  152.7127  143.7228  160.0657 C   0  0  0  0  0  0  0  0  0  0  0  0
  152.9204  142.3991  160.4996 C   0  0  0  0  0  0  0  0  0  0  0  0
  153.5303  142.0967  162.0849 Cl  0  0  0  0  0  0  0  0  0  0  0  0
  152.6291  141.3214  159.6401 C   0  0  0  0  0  0  0  0  0  0  0  0
  149.4356  140.1828  154.6855 C   0  0  0  0  0  0  0  0  0  0  0  0
  148.5589  141.3789  154.6916 C   0  0  0  0  0  0  0  0  0  0  0  0
  148.8943  142.4307  155.2365 O   0  0  0  0  0  0  0  0  0  0  0  0
  146.1111  142.6206  154.9650 H   0  0  0  0  0  0  0  0  0  0  0  0
  145.4936  141.9981  153.4383 H   0  0  0  0  0  0  0  0  0  0  0  0
  146.8301  143.1447  153.4369 H   0  0  0  0  0  0  0  0  0  0  0  0
  147.4152  138.0459  152.9109 H   0  0  0  0  0  0  0  0  0  0  0  0
  150.2204  137.1312  153.9381 H   0  0  0  0  0  0  0  0  0  0  0  0
  152.4983  140.9976  155.4404 H   0  0  0  0  0  0  0  0  0  0  0  0
  151.0964  141.8665  155.9950 H   0  0  0  0  0  0  0  0  0  0  0  0
  150.8986  139.9135  157.7858 H   0  0  0  0  0  0  0  0  0  0  0  0
  152.8697  139.0496  158.3163 H   0  0  0  0  0  0  0  0  0  0  0  0
  151.5365  143.0878  156.9233 H   0  0  0  0  0  0  0  0  0  0  0  0
  152.0525  144.9831  158.4391 H   0  0  0  0  0  0  0  0  0  0  0  0
  152.9343  144.5503  160.7236 H   0  0  0  0  0  0  0  0  0  0  0  0
  152.7873  140.3089  159.9818 H   0  0  0  0  0  0  0  0  0  0  0  0
  1  2  1  0  0  0  0
  1 22  1  0  0  0  0
  1 23  1  0  0  0  0
  1 24  1  0  0  0  0
  2 20  1  0  0  0  0
  2  3  1  0  0  0  0
  3  4  2  0  0  0  0
  4  5  1  0  0  0  0
  4 25  1  0  0  0  0
  5 19  2  0  0  0  0
  5  6  1  0  0  0  0
  6  7  2  0  0  0  0
  6 26  1  0  0  0  0
  7  8  1  0  0  0  0
  8  9  1  0  0  0  0
  8 19  1  0  0  0  0
  9 10  1  0  0  0  0
  9 27  1  0  0  0  0
  9 28  1  0  0  0  0
 10 11  1  0  0  0  0
 10 12  1  0  0  0  0
 10 29  1  0  0  0  0
 11 30  1  0  0  0  0
 12 18  1  0  0  0  0
 12 13  2  0  0  0  0
 13 14  1  0  0  0  0
 13 31  1  0  0  0  0
 14 15  2  0  0  0  0
 14 32  1  0  0  0  0
 15 16  1  0  0  0  0
 15 33  1  0  0  0  0
 16 17  1  0  0  0  0
 16 18  2  0  0  0  0
 18 34  1  0  0  0  0
 19 20  1  0  0  0  0
 20 21  2  0  0  0  0
M  END
> <s_m_source_file>
AV-unprocessed.smi

> <i_m_source_file_index>
2523

> <i_lp_mmshare_version>
43012

> <i_f3d_flags>
0

> <s_epik_input>
W2NIXTFubihbQ0gzXSljKD1PKWMoYzEyKW4obltjSF0yKVtDSDJdW0NASF0oW09IXSljM1tjSF1bY0hdW2NIXWMoQ2wpW2NIXTM=

> <s_epik_cmdline>
J2VwaWtfcHl0aG9uJywgJy1waCcsICc3LjAnLCAnLXRuJywgJzgnLCAnLW1hJywgJzIwMCcsICctbWV0YWxfYmluZGluZycsICctaW1hZScsICc8aW5maWxlLm1hZT4nLCAnLW9tYWUnLCAnPG91dGZpbGUubWFlPic=

> <r_lp_tautomer_probability>
1

> <r_epik_Ionization_Penalty>
8.52698e-06

> <r_epik_Ionization_Penalty_Charging>
1.65421e-10

> <r_epik_Ionization_Penalty_Neutral>
8.52681e-06

> <r_epik_State_Penalty>
-0

> <r_epik_Charging_Adjusted_Penalty>
1.65421e-10

> <i_epik_Tot_Q>
0

> <i_epik_Tot_abs_Q>
0

> <r_epik_Metal_State_Penalty>
-0

> <b_epik_Metal_Only>
0

> <s_lp_Force_Field>
OPLS_2005

> <r_lp_Energy>
26.9154

> <b_lp_Chiralities_Consistent>
1

> <s_lp_Variant>
AV-unprocessed.smi:2523-2

> <Gold.Version>
5.8.1

> <Gold.Id.Protein>
6NUR|6NUR_protein|mol2

> <Gold.PLP.Fitness>
49.7495

> <Gold.PLP.PLP>
-43.1223

> <Gold.PLP.part.hbond>
-1.0000

> <Gold.PLP.part.metal>
0.0000

> <Gold.PLP.part.buried>
-4.3163

> <Gold.PLP.part.nonpolar>
-43.5906

> <Gold.PLP.part.repulsive>
5.5499

> <Gold.PLP.ligand.clash>
0.0000

> <Gold.PLP.ligand.torsion>
0.6062

> <Gold.PLP.Chemscore.Hbond>
1.0000

> <Gold.PLP.Chemscore.CHOScore>
1.6046

> <Gold.PLP.Chemscore.Metal>
0.0000

> <Gold.Chemscore.Hbonds>
donor molecule, donor type, donor heavy atom, donor atom, acceptor molecule, acceptor atom, score
      P1  H  7997  8008       L1    11  1.00
      L1  C     4    25       P1  7948  0.80
      L1  C     6    26       P1  7948  0.80
      L1  C     6    26       P1  7949  0.06

> <Gold.PLP.Chemscore.Internal.Correction>
0.0258

> <Gold.Rescore>
     Score         DG    S(hbond)    S(metal)    S(lipo)     H(rot)  DE(clash)    DE(int)     intcor
     15.13     -18.13       0.94        0.00     123.45       1.93       2.44       0.56       ----

> <Gold.Chemscore.Fitness>
15.1305

> <Gold.Chemscore.DG>
-18.1345

> <Gold.Chemscore.ZeroCoef>
-5.4800

> <Gold.Chemscore.Hbond>
0.9411

> <Gold.Chemscore.Metal>
0.0000

> <Gold.Chemscore.Lipo>
123.4452

> <Gold.Chemscore.Internal_Hbond>
0.0000

> <Gold.Chemscore.DEClash>
2.4421

> <Gold.Chemscore.DEInternal>
0.5619

> <Gold.Chemscore.Rot>
1.9265

> <Gold.Chemscore.Internal.Correction>
   9.000000E+99

> <Gold.Chemscore.Hbonds>
donor molecule, donor type, donor heavy atom, donor atom, acceptor molecule, acceptor atom, score
      P1  H  7997  8008       L1    11  0.54

> <Gold.Chemscore.Hbond.Weighted>
-3.1431

> <Gold.Chemscore.Metal.Weighted>
-0.0000

> <Gold.Chemscore.Lipo.Weighted>
-14.4431

> <Gold.Chemscore.Internal_Hbond.Weighted>
0.0000

> <Gold.Chemscore.DEClash.Weighted>
2.4421

> <Gold.Chemscore.DEInternal.Weighted>
0.5619

> <Gold.Chemscore.Rot.Weighted>
4.9317

> <Gold.Chemscore.Internal.Correction.Weighted>
   9.000000E+99

> <Gold.Protein.RotatedTorsions>
[ 6907 6896 6895 6894 ] final  -52.88 input  -60.11 | X-H torsion
[ 7974 7965 7964 7962 ] final  179.63 input  175.53 | X-H torsion
[ 8008 7997 7996 7995 ] final  -85.33 input   59.86 | X-H torsion
[ 10167 10162 10161 10158 ] final  -13.07 input  -65.29 | X-H torsion
[ 10718 10713 10712 10709 ] final -151.50 input   66.30 | X-H torsion
[ 10763 10752 10751 10750 ] final  -36.35 input  -60.55 | X-H torsion
[ 11005 11000 10999 10996 ] final    2.83 input  -57.11 | X-H torsion

> <Gold.Protein.ActiveResidues>
 VAL166  LYS551  ARG553  GLY616  TRP617  ASP618  TYR619  PRO620  LYS621  CYS622 
 ASP623  PHE694  ASN695  SER759  ASP760  ASP761  ALA762  ILE779  LEU786  VAL792 
 PHE793  MET794  SER795  GLU796  ALA797  LYS798  CYS799  TRP800  GLU811  SER814 

> <Gold.Protein.RotatedAtoms>
  150.8477  134.7791  159.6983 H   0  0  0  0  0  0  0  0  0  0  0  0  # atno 6907 bound_to 6896
  152.4550  134.5309  159.9820 H   0  0  0  0  0  0  0  0  0  0  0  0  # atno 6908 bound_to 6896
  151.5436  133.3391  159.2975 H   0  0  0  0  0  0  0  0  0  0  0  0  # atno 6909 bound_to 6896
  144.7144  140.0577  143.6433 H   0  0  0  0  0  0  0  0  0  0  0  0  # atno 7974 bound_to 7965
  154.6396  140.0593  156.9829 H   0  0  0  0  0  0  0  0  0  0  0  0  # atno 8008 bound_to 7997
  155.1538  140.3276  155.4407 H   0  0  0  0  0  0  0  0  0  0  0  0  # atno 8009 bound_to 7997
  156.2524  140.1943  156.6648 H   0  0  0  0  0  0  0  0  0  0  0  0  # atno 8010 bound_to 7997
  140.7174  143.5465  150.9349 H   0  0  0  0  0  0  0  0  0  0  0  0  # atno 10167 bound_to 10162
  156.4601  130.8209  151.2440 H   0  0  0  0  0  0  0  0  0  0  0  0  # atno 10718 bound_to 10713
  153.8783  135.6824  153.4769 H   0  0  0  0  0  0  0  0  0  0  0  0  # atno 10763 bound_to 10752
  153.1248  135.4723  154.9252 H   0  0  0  0  0  0  0  0  0  0  0  0  # atno 10764 bound_to 10752
  154.7681  135.3230  154.8196 H   0  0  0  0  0  0  0  0  0  0  0  0  # atno 10765 bound_to 10752
  140.5999  133.9845  155.8127 H   0  0  0  0  0  0  0  0  0  0  0  0  # atno 11005 bound_to 11000
  145.9890  139.3000  143.0996 LP  0  0  0  0  0  0  0  0  0  0  0  0  # atno 17320 bound_to 7965
  145.8924  140.9295  143.0545 LP  0  0  0  0  0  0  0  0  0  0  0  0  # atno 17321 bound_to 7965
  139.9189  143.6630  152.3101 LP  0  0  0  0  0  0  0  0  0  0  0  0  # atno 17342 bound_to 10162
  139.7040  144.7631  151.1225 LP  0  0  0  0  0  0  0  0  0  0  0  0  # atno 17343 bound_to 10162
  157.7498  131.0110  150.3327 LP  0  0  0  0  0  0  0  0  0  0  0  0  # atno 17370 bound_to 10713
  156.3725  130.3866  149.7164 LP  0  0  0  0  0  0  0  0  0  0  0  0  # atno 17371 bound_to 10713
  141.0879  133.9962  157.3284 LP  0  0  0  0  0  0  0  0  0  0  0  0  # atno 17394 bound_to 11000
  139.9237  135.0201  156.8157 LP  0  0  0  0  0  0  0  0  0  0  0  0  # atno 17395 bound_to 11000

$$$$
