#       Name:                AV-unprocessed.smi:2702
#       Creating user name   scv26
#       Creation time:       Fri Mar 27 14:47:02 2020


#       File generated by GOLD software.
#

@<TRIPOS>MOLECULE
AV-unprocessed.smi:2702
    54    55     1
SMALL
NO_CHARGES


@<TRIPOS>ATOM
      1 ****        -7.9707  -0.4444  -0.6350 C.3            1 S1                 0.0000
      2 ****        -6.5564  -0.3811  -0.6839 O.3            1 S1                 0.0000
      3 ****        -6.0363  -0.8103  -1.9306 C.3            1 S1                 0.0000
      4 ****        -4.5244  -0.7128  -1.9342 C.2            1 S1                 0.0000
      5 ****        -3.8809   0.3742  -2.4196 C.2            1 S1                 0.0000
      6 ****        -2.4193   0.4355  -2.4253 C.2            1 S1                 0.0000
      7 ****        -1.7981   1.4120  -2.8457 O.2            1 S1                 0.0000
      8 ****        -1.7957  -0.6734  -1.9287 N.am           1 S1                 0.0000
      9 ****        -0.3252  -0.7604  -1.8600 C.3            1 S1                 0.0000
     10 ****         0.2711  -0.1117  -0.6015 C.2            1 S1                 0.0000
     11 ****        -0.4490   0.2265   0.3390 O.2            1 S1                 0.0000
     12 ****         1.6055   0.0324  -0.5992 N.am           1 S1                 0.0000
     13 ****         2.4070   0.5999   0.4847 C.3            1 S1                 0.0000
     14 ****         3.2868   1.7269  -0.0903 C.3            1 S1                 0.0000
     15 ****         4.2187   2.3245   0.9729 C.3            1 S1                 0.0000
     16 ****         5.0767   1.2337   1.6326 C.3            1 S1                 0.0000
     17 ****         4.2186   0.1049   2.2392 C.3            1 S1                 0.0000
     18 ****         3.5010   0.5647   3.5251 C.3            1 S1                 0.0000
     19 ****         3.2724  -0.4948   1.1643 C.3            1 S1                 0.0000
     20 ****         2.4425  -1.6747   1.7085 C.3            1 S1                 0.0000
     21 ****        -2.5156  -1.7832  -1.4426 C.2            1 S1                 0.0000
     22 ****        -3.8103  -1.8115  -1.4456 N.2            1 S1                 0.0000
     23 ****        -8.3184  -0.1098   0.3422 H              1 S1                 0.0000
     24 ****        -8.3258  -1.4645  -0.7877 H              1 S1                 0.0000
     25 ****        -8.4208   0.2004  -1.3910 H              1 S1                 0.0000
     26 ****        -6.3314  -1.8430  -2.1246 H              1 S1                 0.0000
     27 ****        -6.4434  -0.2014  -2.7396 H              1 S1                 0.0000
     28 ****        -4.4464   1.2105  -2.8041 H              1 S1                 0.0000
     29 ****         0.0095  -1.7987  -1.9001 H              1 S1                 0.0000
     30 ****         0.1179  -0.2912  -2.7405 H              1 S1                 0.0000
     31 ****         2.1113  -0.2801  -1.4153 H              1 S1                 0.0000
     32 ****         1.7510   1.0417   1.2361 H              1 S1                 0.0000
     33 ****         3.8880   1.3413  -0.9152 H              1 S1                 0.0000
     34 ****         2.6589   2.5141  -0.5094 H              1 S1                 0.0000
     35 ****         4.8632   3.0770   0.5178 H              1 S1                 0.0000
     36 ****         3.6296   2.8456   1.7280 H              1 S1                 0.0000
     37 ****         5.7485   0.8108   0.8843 H              1 S1                 0.0000
     38 ****         5.7180   1.6742   2.3968 H              1 S1                 0.0000
     39 ****         4.9084  -0.6842   2.5420 H              1 S1                 0.0000
     40 ****         2.7419   1.3204   3.3263 H              1 S1                 0.0000
     41 ****         4.2106   0.9926   4.2337 H              1 S1                 0.0000
     42 ****         3.0131  -0.2681   4.0310 H              1 S1                 0.0000
     43 ****         3.9179  -0.9138   0.3903 H              1 S1                 0.0000
     44 ****         1.6660  -1.3362   2.3948 H              1 S1                 0.0000
     45 ****         3.0734  -2.3874   2.2399 H              1 S1                 0.0000
     46 ****         1.9501  -2.2213   0.9040 H              1 S1                 0.0000
     47 ****        -1.9077  -2.6065  -1.0636 H              1 S1                 0.0000
     48 ****        -6.1842  -0.9655   0.0371 LP             1 S1                 0.0000
     49 ****        -6.2722   0.5646  -0.5264 LP             1 S1                 0.0000
     50 ****        -2.2935   2.2045  -3.2014 LP             1 S1                 0.0000
     51 ****        -0.7982   1.4126  -2.8314 LP             1 S1                 0.0000
     52 ****        -1.4370   0.0800   0.2901 LP             1 S1                 0.0000
     53 ****        -0.0456   0.6476   1.1514 LP             1 S1                 0.0000
     54 ****        -4.2966  -2.6143  -1.1006 LP             1 S1                 0.0000
@<TRIPOS>BOND
    1    1    2 1     
    2    1   23 1     
    3    1   24 1     
    4    1   25 1     
    5    2    3 1     
    6    3    4 1     
    7    3   26 1     
    8    3   27 1     
    9    4   22 1     
   10    4    5 2     
   11    5    6 1     
   12    5   28 1     
   13    6    7 2     
   14    6    8 am    
   15    8    9 1     
   16    8   21 1     
   17    9   10 1     
   18    9   29 1     
   19    9   30 1     
   20   10   11 2     
   21   10   12 am    
   22   12   13 1     
   23   12   31 1     
   24   13   19 1     
   25   13   14 1     
   26   13   32 1     
   27   14   15 1     
   28   14   33 1     
   29   14   34 1     
   30   15   16 1     
   31   15   35 1     
   32   15   36 1     
   33   16   17 1     
   34   16   37 1     
   35   16   38 1     
   36   17   18 1     
   37   17   19 1     
   38   17   39 1     
   39   18   40 1     
   40   18   41 1     
   41   18   42 1     
   42   19   20 1     
   43   19   43 1     
   44   20   44 1     
   45   20   45 1     
   46   20   46 1     
   47   21   22 2     
   48   21   47 1     
   49    2   48 1     
   50    2   49 1     
   51    7   50 1     
   52    7   51 1     
   53   11   52 1     
   54   11   53 1     
   55   22   54 1     
@<TRIPOS>SUBSTRUCTURE
      1 S1             1
@<TRIPOS>SET
LONE_PAIRS      STATIC     ATOMS    <user>   **** ""
7 48 49 50 51 52 53 54
DONOR_HYDROGENS      STATIC     ATOMS    <user>   **** ""
1 31
ATOM$BLUE        STATIC     ATOMS    COLORGROUP SYSTEM
7 48 49 50 51 52 53 54
ATOM$RED        STATIC     ATOMS    COLORGROUP SYSTEM
1 31
