AV-unprocessed.smi:2463|AV-procd|sdf|9720|dock9
  -GOLD-   2272013363D 1   1.00000     0.00000
 Structure written by MMmdl.
 47 48  0  0  0  0  0  0  0  0  1 V2000
  145.5354  131.2574  150.9552 C   0  0  0  0  0  0  0  0  0  0  0  0
  145.5013  132.1761  149.7291 C   0  0  0  0  0  0  0  0  0  0  0  0
  144.2042  132.9943  149.6456 C   0  0  0  0  0  0  0  0  0  0  0  0
  144.1782  134.0622  150.6262 N   0  0  0  0  0  0  0  0  0  0  0  0
  144.8358  135.2755  150.5830 C   0  0  0  0  0  0  0  0  0  0  0  0
  144.4918  135.9229  151.7359 C   0  0  0  0  0  0  0  0  0  0  0  0
  144.8819  137.2051  152.1982 N   0  0  0  0  0  0  0  0  0  0  0  0
  145.5867  137.4926  153.3045 C   0  0  0  0  0  0  0  0  0  0  0  0
  145.9995  136.6641  154.1160 O   0  0  0  0  0  0  0  0  0  0  0  0
  145.7858  138.8123  153.4242 N   0  0  0  0  0  0  0  0  0  0  0  0
  146.4946  139.4593  154.5263 C   0  0  1  0  0  0  0  0  0  0  0  0
  147.8830  138.8805  154.7142 C   0  0  0  0  0  0  0  0  0  0  0  0
  148.6361  140.0096  155.4285 C   0  0  0  0  0  0  0  0  0  0  0  0
  148.5223  139.8984  156.9588 C   0  0  0  0  0  0  0  0  0  0  0  0
  150.1063  140.0976  154.9914 C   0  0  0  0  0  0  0  0  0  0  0  0
  147.9745  141.2129  155.0402 O   0  0  0  0  0  0  0  0  0  0  0  0
  146.7887  140.9564  154.2887 C   0  0  0  0  0  0  0  0  0  0  0  0
  147.1126  141.3162  152.8233 C   0  0  0  0  0  0  0  0  0  0  0  0
  145.6766  141.8639  154.8371 C   0  0  0  0  0  0  0  0  0  0  0  0
  143.6229  135.0420  152.4304 C   0  0  0  0  0  0  0  0  0  0  0  0
  143.4393  133.9182  151.7541 N   0  0  0  0  0  0  0  0  0  0  0  0
  146.4649  130.6883  150.9885 H   0  0  0  0  0  0  0  0  0  0  0  0
  144.7094  130.5455  150.9376 H   0  0  0  0  0  0  0  0  0  0  0  0
  145.4642  131.8322  151.8791 H   0  0  0  0  0  0  0  0  0  0  0  0
  146.3597  132.8485  149.7611 H   0  0  0  0  0  0  0  0  0  0  0  0
  145.6138  131.5747  148.8260 H   0  0  0  0  0  0  0  0  0  0  0  0
  144.0967  133.4342  148.6531 H   0  0  0  0  0  0  0  0  0  0  0  0
  143.3360  132.3524  149.8032 H   0  0  0  0  0  0  0  0  0  0  0  0
  145.4697  135.5549  149.7547 H   0  0  0  0  0  0  0  0  0  0  0  0
  144.5955  137.9850  151.6249 H   0  0  0  0  0  0  0  0  0  0  0  0
  145.4094  139.4175  152.7093 H   0  0  0  0  0  0  0  0  0  0  0  0
  145.9457  139.3281  155.4609 H   0  0  0  0  0  0  0  0  0  0  0  0
  147.8797  137.9447  155.2745 H   0  0  0  0  0  0  0  0  0  0  0  0
  148.3367  138.6777  153.7428 H   0  0  0  0  0  0  0  0  0  0  0  0
  148.9953  138.9865  157.3244 H   0  0  0  0  0  0  0  0  0  0  0  0
  147.4815  139.8844  157.2835 H   0  0  0  0  0  0  0  0  0  0  0  0
  149.0064  140.7422  157.4511 H   0  0  0  0  0  0  0  0  0  0  0  0
  150.6492  139.1875  155.2482 H   0  0  0  0  0  0  0  0  0  0  0  0
  150.6112  140.9343  155.4751 H   0  0  0  0  0  0  0  0  0  0  0  0
  150.1911  140.2430  153.9141 H   0  0  0  0  0  0  0  0  0  0  0  0
  146.2433  141.1916  152.1772 H   0  0  0  0  0  0  0  0  0  0  0  0
  147.9164  140.6971  152.4244 H   0  0  0  0  0  0  0  0  0  0  0  0
  147.4315  142.3555  152.7398 H   0  0  0  0  0  0  0  0  0  0  0  0
  144.7413  141.7146  154.2975 H   0  0  0  0  0  0  0  0  0  0  0  0
  145.9469  142.9163  154.7458 H   0  0  0  0  0  0  0  0  0  0  0  0
  145.4876  141.6648  155.8924 H   0  0  0  0  0  0  0  0  0  0  0  0
  143.1300  135.1765  153.3819 H   0  0  0  0  0  0  0  0  0  0  0  0
  1  2  1  0  0  0  0
  1 22  1  0  0  0  0
  1 23  1  0  0  0  0
  1 24  1  0  0  0  0
  2  3  1  0  0  0  0
  2 25  1  0  0  0  0
  2 26  1  0  0  0  0
  3  4  1  0  0  0  0
  3 27  1  0  0  0  0
  3 28  1  0  0  0  0
  4 21  1  0  0  0  0
  4  5  1  0  0  0  0
  5  6  2  0  0  0  0
  5 29  1  0  0  0  0
  6  7  1  0  0  0  0
  6 20  1  0  0  0  0
  7  8  1  0  0  0  0
  7 30  1  0  0  0  0
  8  9  2  0  0  0  0
  8 10  1  0  0  0  0
 10 11  1  0  0  0  0
 10 31  1  0  0  0  0
 11 17  1  0  0  0  0
 11 12  1  0  0  0  0
 11 32  1  0  0  0  0
 12 13  1  0  0  0  0
 12 33  1  0  0  0  0
 12 34  1  0  0  0  0
 13 14  1  0  0  0  0
 13 15  1  0  0  0  0
 13 16  1  0  0  0  0
 14 35  1  0  0  0  0
 14 36  1  0  0  0  0
 14 37  1  0  0  0  0
 15 38  1  0  0  0  0
 15 39  1  0  0  0  0
 15 40  1  0  0  0  0
 16 17  1  0  0  0  0
 17 18  1  0  0  0  0
 17 19  1  0  0  0  0
 18 41  1  0  0  0  0
 18 42  1  0  0  0  0
 18 43  1  0  0  0  0
 19 44  1  0  0  0  0
 19 45  1  0  0  0  0
 19 46  1  0  0  0  0
 20 21  2  0  0  0  0
 20 47  1  0  0  0  0
M  END
> <s_m_source_file>
AV-unprocessed.smi

> <i_m_source_file_index>
2463

> <i_lp_mmshare_version>
43012

> <i_f3d_flags>
0

> <s_epik_input>
W0NIM11bQ0gyXVtDSDJdbjFbY0hdYyhbY0hdbjEpW05IXUMoPU8pW05IXVtDQEBIXShDKE8yKShbQ0gzXSlbQ0gzXSlbQ0gyXUMyKFtDSDNdKVtDSDNd

> <s_epik_cmdline>
J2VwaWtfcHl0aG9uJywgJy1waCcsICc3LjAnLCAnLXRuJywgJzgnLCAnLW1hJywgJzIwMCcsICctbWV0YWxfYmluZGluZycsICctaW1hZScsICc8aW5maWxlLm1hZT4nLCAnLW9tYWUnLCAnPG91dGZpbGUubWFlPic=

> <r_lp_tautomer_probability>
1

> <r_epik_Ionization_Penalty>
3.69628e-05

> <r_epik_Ionization_Penalty_Charging>
0

> <r_epik_Ionization_Penalty_Neutral>
3.69628e-05

> <r_epik_State_Penalty>
-0

> <r_epik_Charging_Adjusted_Penalty>
0

> <i_epik_Tot_Q>
0

> <i_epik_Tot_abs_Q>
0

> <r_epik_Metal_State_Penalty>
-0

> <b_epik_Metal_Only>
0

> <s_lp_Force_Field>
OPLS_2005

> <r_lp_Energy>
21.7925

> <b_lp_Chiralities_Consistent>
1

> <s_lp_Variant>
AV-unprocessed.smi:2463-2

> <Gold.Version>
5.8.1

> <Gold.Id.Protein>
6NUR|6NUR_protein|mol2

> <Gold.PLP.Fitness>
36.6602

> <Gold.PLP.PLP>
-30.6429

> <Gold.PLP.part.hbond>
-2.0000

> <Gold.PLP.part.metal>
0.0000

> <Gold.PLP.part.buried>
-6.0933

> <Gold.PLP.part.nonpolar>
-23.1121

> <Gold.PLP.part.repulsive>
0.3630

> <Gold.PLP.ligand.clash>
0.0000

> <Gold.PLP.ligand.torsion>
0.9385

> <Gold.PLP.Chemscore.Hbond>
1.6248

> <Gold.PLP.Chemscore.CHOScore>
1.0000

> <Gold.PLP.Chemscore.Metal>
0.0000

> <Gold.Chemscore.Hbonds>
donor molecule, donor type, donor heavy atom, donor atom, acceptor molecule, acceptor atom, score
      L1  H     7    30       P1 10171  0.92
      L1  H    10    31       P1 10175  0.71
      L1  C     5    29       P1  7921  1.00

> <Gold.PLP.Chemscore.Internal.Correction>
0.0200

> <Gold.Rescore>
     Score         DG    S(hbond)    S(metal)    S(lipo)     H(rot)  DE(clash)    DE(int)     intcor
     14.75     -17.89       1.67        0.00      86.54       1.29       1.28       1.86       ----

> <Gold.Chemscore.Fitness>
14.7472

> <Gold.Chemscore.DG>
-17.8939

> <Gold.Chemscore.ZeroCoef>
-5.4800

> <Gold.Chemscore.Hbond>
1.6708

> <Gold.Chemscore.Metal>
0.0000

> <Gold.Chemscore.Lipo>
86.5428

> <Gold.Chemscore.Internal_Hbond>
0.0000

> <Gold.Chemscore.DEClash>
1.2824

> <Gold.Chemscore.DEInternal>
1.8644

> <Gold.Chemscore.Rot>
1.2859

> <Gold.Chemscore.Internal.Correction>
   9.000000E+99

> <Gold.Chemscore.Hbonds>
donor molecule, donor type, donor heavy atom, donor atom, acceptor molecule, acceptor atom, score
      L1  H     7    30       P1 10171  0.83
      L1  H    10    31       P1 10175  0.66

> <Gold.Chemscore.Hbond.Weighted>
-5.5804

> <Gold.Chemscore.Metal.Weighted>
-0.0000

> <Gold.Chemscore.Lipo.Weighted>
-10.1255

> <Gold.Chemscore.Internal_Hbond.Weighted>
0.0000

> <Gold.Chemscore.DEClash.Weighted>
1.2824

> <Gold.Chemscore.DEInternal.Weighted>
1.8644

> <Gold.Chemscore.Rot.Weighted>
3.2919

> <Gold.Chemscore.Internal.Correction.Weighted>
   9.000000E+99

> <Gold.Protein.RotatedTorsions>
[ 6907 6896 6895 6894 ] final  -26.52 input  -60.11 | X-H torsion
[ 7974 7965 7964 7962 ] final -142.60 input  175.53 | X-H torsion
[ 8008 7997 7996 7995 ] final  101.27 input   59.86 | X-H torsion
[ 10167 10162 10161 10158 ] final   33.56 input  -65.29 | X-H torsion
[ 10718 10713 10712 10709 ] final  -64.96 input   66.30 | X-H torsion
[ 10763 10752 10751 10750 ] final   16.22 input  -60.55 | X-H torsion
[ 11005 11000 10999 10996 ] final -112.68 input  -57.11 | X-H torsion

> <Gold.Protein.ActiveResidues>
 VAL166  LYS551  ARG553  GLY616  TRP617  ASP618  TYR619  PRO620  LYS621  CYS622 
 ASP623  PHE694  ASN695  SER759  ASP760  ASP761  ALA762  ILE779  LEU786  VAL792 
 PHE793  MET794  SER795  GLU796  ALA797  LYS798  CYS799  TRP800  GLU811  SER814 

> <Gold.Protein.RotatedAtoms>
  151.1599  135.0268  159.8705 H   0  0  0  0  0  0  0  0  0  0  0  0  # atno 6907 bound_to 6896
  152.5451  134.1292  159.8442 H   0  0  0  0  0  0  0  0  0  0  0  0  # atno 6908 bound_to 6896
  151.1386  133.4941  159.2630 H   0  0  0  0  0  0  0  0  0  0  0  0  # atno 6909 bound_to 6896
  144.8431  140.5938  143.5439 H   0  0  0  0  0  0  0  0  0  0  0  0  # atno 7974 bound_to 7965
  156.1283  140.3200  155.8310 H   0  0  0  0  0  0  0  0  0  0  0  0  # atno 8008 bound_to 7997
  155.4379  140.0523  157.3030 H   0  0  0  0  0  0  0  0  0  0  0  0  # atno 8009 bound_to 7997
  154.4879  140.2080  155.9626 H   0  0  0  0  0  0  0  0  0  0  0  0  # atno 8010 bound_to 7997
  140.4396  144.1207  150.6172 H   0  0  0  0  0  0  0  0  0  0  0  0  # atno 10167 bound_to 10162
  156.0698  130.4240  150.1495 H   0  0  0  0  0  0  0  0  0  0  0  0  # atno 10718 bound_to 10713
  153.1452  135.6768  153.8966 H   0  0  0  0  0  0  0  0  0  0  0  0  # atno 10763 bound_to 10752
  153.8410  135.3105  155.3427 H   0  0  0  0  0  0  0  0  0  0  0  0  # atno 10764 bound_to 10752
  154.7819  135.4883  153.9947 H   0  0  0  0  0  0  0  0  0  0  0  0  # atno 10765 bound_to 10752
  141.0660  133.9457  157.2577 H   0  0  0  0  0  0  0  0  0  0  0  0  # atno 11005 bound_to 11000
  145.4652  139.1509  143.3844 LP  0  0  0  0  0  0  0  0  0  0  0  0  # atno 17320 bound_to 7965
  146.2720  140.4783  142.8810 LP  0  0  0  0  0  0  0  0  0  0  0  0  # atno 17321 bound_to 7965
  140.4334  143.2558  151.9566 LP  0  0  0  0  0  0  0  0  0  0  0  0  # atno 17342 bound_to 10162
  139.4789  144.5723  151.8069 LP  0  0  0  0  0  0  0  0  0  0  0  0  # atno 17343 bound_to 10162
  156.9549  130.9786  151.3491 LP  0  0  0  0  0  0  0  0  0  0  0  0  # atno 17370 bound_to 10713
  157.5761  130.8344  149.8458 LP  0  0  0  0  0  0  0  0  0  0  0  0  # atno 17371 bound_to 10713
  139.9477  135.0181  156.8902 LP  0  0  0  0  0  0  0  0  0  0  0  0  # atno 17394 bound_to 11000
  140.5771  134.0387  155.7451 LP  0  0  0  0  0  0  0  0  0  0  0  0  # atno 17395 bound_to 11000

$$$$
