#       Name:                AV-unprocessed.smi:2908
#       Creating user name   scv26
#       Creation time:       Fri Mar 27 16:06:11 2020


#       File generated by GOLD software.
#

@<TRIPOS>MOLECULE
AV-unprocessed.smi:2908
    48    49     1
SMALL
NO_CHARGES


@<TRIPOS>ATOM
      1 ****        -1.2692   0.7372  -0.9498 O.2            1 S1                 0.0000
      2 ****        -0.7064  -0.2204  -0.4166 C.2            1 S1                 0.0000
      3 ****        -1.2097  -1.4661  -0.4736 N.am           1 S1                 0.0000
      4 ****        -2.4405  -1.8621  -1.1544 C.3            1 S1                 0.0000
      5 ****        -3.6544  -1.8994  -0.2050 C.3            1 S1                 0.0000
      6 ****        -3.9612  -0.5627   0.4473 C.ar           1 S1                 0.0000
      7 ****        -3.6233  -0.2849   1.7901 C.ar           1 S1                 0.0000
      8 ****        -3.9125   0.9883   2.3235 C.ar           1 S1                 0.0000
      9 ****        -4.5348   1.9545   1.5062 C.ar           1 S1                 0.0000
     10 ****        -4.8535   1.6223   0.1738 C.ar           1 S1                 0.0000
     11 ****        -4.5604   0.3918  -0.3010 N.pl3          1 S1                 1.0000
     12 ****         0.4299  -0.1003   0.3151 N.am           1 S1                 0.0000
     13 ****         1.2775  -1.2029   0.7968 C.3            1 S1                 0.0000
     14 ****         2.5543  -1.2537  -0.0605 C.3            1 S1                 0.0000
     15 ****         3.3139   0.0948  -0.0320 C.3            1 S1                 0.0000
     16 ****         4.5819   0.0498  -0.9252 C.3            1 S1                 0.0000
     17 ****         4.2184  -0.0526  -2.2891 O.3            1 S1                 0.0000
     18 ****         5.5641   1.2286  -0.7471 C.3            1 S1                 0.0000
     19 ****         6.6764   0.9906  -1.4423 F              1 S1                 0.0000
     20 ****         5.0379   2.3831  -1.1546 F              1 S1                 0.0000
     21 ****         5.9023   1.3419   0.5372 F              1 S1                 0.0000
     22 ****         2.3528   1.2727  -0.3329 C.3            1 S1                 0.0000
     23 ****         1.0810   1.1965   0.5318 C.3            1 S1                 0.0000
     24 ****        -0.6964  -2.1983  -0.0044 H              1 S1                 0.0000
     25 ****        -2.6419  -1.2019  -1.9998 H              1 S1                 0.0000
     26 ****        -2.2829  -2.8538  -1.5786 H              1 S1                 0.0000
     27 ****        -4.5369  -2.2308  -0.7537 H              1 S1                 0.0000
     28 ****        -3.4873  -2.6444   0.5742 H              1 S1                 0.0000
     29 ****        -3.1389  -1.0326   2.4012 H              1 S1                 0.0000
     30 ****        -3.6572   1.2218   3.3468 H              1 S1                 0.0000
     31 ****        -4.7624   2.9364   1.8948 H              1 S1                 0.0000
     32 ****        -5.3269   2.2991  -0.5223 H              1 S1                 0.0000
     33 ****         1.5380  -1.0255   1.8415 H              1 S1                 0.0000
     34 ****         0.7883  -2.1768   0.7845 H              1 S1                 0.0000
     35 ****         3.2028  -2.0543   0.2966 H              1 S1                 0.0000
     36 ****         2.2846  -1.5104  -1.0859 H              1 S1                 0.0000
     37 ****         3.6550   0.2251   0.9959 H              1 S1                 0.0000
     38 ****         5.1269  -0.8622  -0.6767 H              1 S1                 0.0000
     39 ****         3.7858   0.7482  -2.5438 H              1 S1                 0.0000
     40 ****         2.8440   2.2258  -0.1432 H              1 S1                 0.0000
     41 ****         2.0696   1.2704  -1.3862 H              1 S1                 0.0000
     42 ****         0.4259   2.0393   0.3068 H              1 S1                 0.0000
     43 ****         1.3391   1.3000   1.5868 H              1 S1                 0.0000
     44 ****        -4.7933   0.1759  -1.2705 H              1 S1                 0.0000
     45 ****        -2.1277   0.6008  -1.4442 LP             1 S1                 0.0000
     46 ****        -0.8675   1.6509  -0.8883 LP             1 S1                 0.0000
     47 ****         3.5980  -0.8265  -2.4161 LP             1 S1                 0.0000
     48 ****         5.0370  -0.1865  -2.8476 LP             1 S1                 0.0000
@<TRIPOS>BOND
    1    1    2 2     
    2    2    3 am    
    3    2   12 am    
    4    3    4 1     
    5    3   24 1     
    6    4    5 1     
    7    4   25 1     
    8    4   26 1     
    9    5    6 1     
   10    5   27 1     
   11    5   28 1     
   12    6   11 ar    
   13    6    7 ar    
   14    7    8 ar    
   15    7   29 1     
   16    8    9 ar    
   17    8   30 1     
   18    9   10 ar    
   19    9   31 1     
   20   10   11 ar    
   21   10   32 1     
   22   11   44 1     
   23   12   23 1     
   24   12   13 1     
   25   13   14 1     
   26   13   33 1     
   27   13   34 1     
   28   14   15 1     
   29   14   35 1     
   30   14   36 1     
   31   15   16 1     
   32   15   22 1     
   33   15   37 1     
   34   16   17 1     
   35   16   18 1     
   36   16   38 1     
   37   17   39 1     
   38   18   19 1     
   39   18   20 1     
   40   18   21 1     
   41   22   23 1     
   42   22   40 1     
   43   22   41 1     
   44   23   42 1     
   45   23   43 1     
   46    1   45 1     
   47    1   46 1     
   48   17   47 1     
   49   17   48 1     
@<TRIPOS>SUBSTRUCTURE
      1 S1             1
@<TRIPOS>SET
LONE_PAIRS      STATIC     ATOMS    <user>   **** ""
4 45 46 47 48
DONOR_HYDROGENS      STATIC     ATOMS    <user>   **** ""
3 24 44 39
ATOM$BLUE        STATIC     ATOMS    COLORGROUP SYSTEM
4 45 46 47 48
ATOM$RED        STATIC     ATOMS    COLORGROUP SYSTEM
3 24 44 39
