AV-unprocessed.smi:1199|AV-procd|sdf|5015|dock4
  -GOLD-   22720 4 33D 1   1.00000     0.00000
 Structure written by MMmdl.
 40 41  0  0  0  0  0  0  0  0  2 V2000
  151.4074  138.0709  156.9250 C   0  0  0  0  0  0  0  0  0  0  0  0
  150.8140  139.0427  157.9603 C   0  0  1  0  0  0  0  0  0  0  0  0
  150.6785  140.4862  157.4147 C   0  0  0  0  0  0  0  0  0  0  0  0
  151.1022  141.5586  158.3182 N   0  0  0  0  0  0  0  0  0  0  0  0
  152.5055  141.4684  158.7120 C   0  0  0  0  0  0  0  0  0  0  0  0
  152.9302  142.6358  159.6209 C   0  0  0  0  0  0  0  0  0  0  0  0
  152.6541  143.8754  158.9781 O   0  0  0  0  0  0  0  0  0  0  0  0
  151.2788  144.0188  158.6412 C   0  0  0  0  0  0  0  0  0  0  0  0
  150.8572  142.8653  157.7155 C   0  0  0  0  0  0  0  0  0  0  0  0
  149.4997  138.5264  158.3335 N   0  0  0  0  0  0  0  0  0  0  0  0
  149.2326  137.2576  158.6806 C   0  0  0  0  0  0  0  0  0  0  0  0
  150.0922  136.3755  158.7179 O   0  0  0  0  0  0  0  0  0  0  0  0
  147.7655  136.9568  159.0256 C   0  0  0  0  0  0  0  0  0  0  0  0
  147.5694  136.3872  160.3668 N   0  0  0  0  0  0  0  0  0  0  0  0
  147.8893  137.3098  161.4523 N   0  5  0  0  0  0  0  0  0  0  0  0
  147.7147  136.9053  162.7384 C   0  0  0  0  0  0  0  0  0  0  0  0
  147.9409  137.6331  163.7023 O   0  0  0  0  0  0  0  0  0  0  0  0
  147.2458  135.5493  162.9714 C   0  0  0  0  0  0  0  0  0  0  0  0
  146.9868  134.7091  161.9501 C   0  0  0  0  0  0  0  0  0  0  0  0
  147.1514  135.1029  160.5561 C   0  0  0  0  0  0  0  0  0  0  0  0
  146.9255  134.3377  159.6184 O   0  0  0  0  0  0  0  0  0  0  0  0
  152.4045  138.3643  156.6028 H   0  0  0  0  0  0  0  0  0  0  0  0
  150.7819  138.0122  156.0335 H   0  0  0  0  0  0  0  0  0  0  0  0
  151.4873  137.0646  157.3378 H   0  0  0  0  0  0  0  0  0  0  0  0
  151.4505  139.0420  158.8473 H   0  0  0  0  0  0  0  0  0  0  0  0
  151.2025  140.5720  156.4614 H   0  0  0  0  0  0  0  0  0  0  0  0
  149.6283  140.6607  157.1754 H   0  0  0  0  0  0  0  0  0  0  0  0
  152.6811  140.5413  159.2551 H   0  0  0  0  0  0  0  0  0  0  0  0
  153.1402  141.4472  157.8247 H   0  0  0  0  0  0  0  0  0  0  0  0
  152.4054  142.5900  160.5764 H   0  0  0  0  0  0  0  0  0  0  0  0
  153.9964  142.5772  159.8395 H   0  0  0  0  0  0  0  0  0  0  0  0
  150.6718  144.0298  159.5480 H   0  0  0  0  0  0  0  0  0  0  0  0
  151.1310  144.9778  158.1445 H   0  0  0  0  0  0  0  0  0  0  0  0
  151.4010  142.9450  156.7727 H   0  0  0  0  0  0  0  0  0  0  0  0
  149.7988  142.9692  157.4741 H   0  0  0  0  0  0  0  0  0  0  0  0
  148.7328  139.1828  158.3256 H   0  0  0  0  0  0  0  0  0  0  0  0
  147.1811  137.8741  158.9335 H   0  0  0  0  0  0  0  0  0  0  0  0
  147.3718  136.2820  158.2636 H   0  0  0  0  0  0  0  0  0  0  0  0
  147.1047  135.2076  163.9861 H   0  0  0  0  0  0  0  0  0  0  0  0
  146.6420  133.7098  162.1698 H   0  0  0  0  0  0  0  0  0  0  0  0
  1  2  1  0  0  0  0
  1 22  1  0  0  0  0
  1 23  1  0  0  0  0
  1 24  1  0  0  0  0
  2  3  1  0  0  0  0
  2 10  1  0  0  0  0
  2 25  1  0  0  0  0
  3  4  1  0  0  0  0
  3 26  1  0  0  0  0
  3 27  1  0  0  0  0
  4  9  1  0  0  0  0
  4  5  1  0  0  0  0
  5  6  1  0  0  0  0
  5 28  1  0  0  0  0
  5 29  1  0  0  0  0
  6  7  1  0  0  0  0
  6 30  1  0  0  0  0
  6 31  1  0  0  0  0
  7  8  1  0  0  0  0
  8  9  1  0  0  0  0
  8 32  1  0  0  0  0
  8 33  1  0  0  0  0
  9 34  1  0  0  0  0
  9 35  1  0  0  0  0
 10 11  1  0  0  0  0
 10 36  1  0  0  0  0
 11 12  2  0  0  0  0
 11 13  1  0  0  0  0
 13 37  1  0  0  0  0
 13 38  1  0  0  0  0
 13 14  1  0  0  0  0
 14 15  1  0  0  0  0
 14 20  1  0  0  0  0
 15 16  1  0  0  0  0
 16 17  2  0  0  0  0
 16 18  1  0  0  0  0
 18 39  1  0  0  0  0
 18 19  2  0  0  0  0
 19 40  1  0  0  0  0
 19 20  1  0  0  0  0
 20 21  2  0  0  0  0
M  CHG  1  15  -1
M  END
> <s_m_source_file>
AV-unprocessed.smi

> <i_m_source_file_index>
1199

> <i_lp_mmshare_version>
43012

> <i_f3d_flags>
0

> <s_epik_input>
W0NIMl0xW0NIMl1PW0NIMl1bQ0gyXU4xW0NIMl1bQ0BASF0oW0NIM10pW05IXUMoPU8pW0NIMl1uMltuSF1jKD1PKVtjSF1bY0hdYzI9Tw==

> <s_epik_cmdline>
J2VwaWtfcHl0aG9uJywgJy1waCcsICc3LjAnLCAnLXRuJywgJzgnLCAnLW1hJywgJzIwMCcsICctbWV0YWxfYmluZGluZycsICctaW1hZScsICc8aW5maWxlLm1hZT4nLCAnLW9tYWUnLCAnPG91dGZpbGUubWFlPic=

> <r_lp_tautomer_probability>
1

> <r_epik_Ionization_Penalty>
0.334996

> <r_epik_Ionization_Penalty_Charging>
0.0976136

> <r_epik_Ionization_Penalty_Neutral>
0.237382

> <r_epik_State_Penalty>
0.26804

> <r_epik_Charging_Adjusted_Penalty>
0.365653

> <i_epik_Tot_Q>
-1

> <i_epik_Tot_abs_Q>
1

> <r_epik_Metal_State_Penalty>
0.26804

> <b_epik_Metal_Only>
0

> <s_lp_Force_Field>
OPLS_2005

> <r_lp_Energy>
39.9629

> <b_lp_Chiralities_Consistent>
1

> <s_lp_Variant>
AV-unprocessed.smi:1199-2

> <Gold.Version>
5.8.1

> <Gold.Id.Protein>
6NUR|6NUR_protein|mol2

> <Gold.PLP.Fitness>
49.8380

> <Gold.PLP.PLP>
-38.4434

> <Gold.PLP.part.hbond>
-3.9442

> <Gold.PLP.part.metal>
0.0000

> <Gold.PLP.part.buried>
-4.6396

> <Gold.PLP.part.nonpolar>
-30.9840

> <Gold.PLP.part.repulsive>
0.2783

> <Gold.PLP.ligand.clash>
0.0000

> <Gold.PLP.ligand.torsion>
0.7935

> <Gold.PLP.Chemscore.Hbond>
4.3104

> <Gold.PLP.Chemscore.CHOScore>
0.0000

> <Gold.PLP.Chemscore.Metal>
0.0000

> <Gold.Chemscore.Hbonds>
donor molecule, donor type, donor heavy atom, donor atom, acceptor molecule, acceptor atom, score
      P1  H  6896  6908       L1    12  1.00
      P1  H  6931  6943       L1    15  1.00
      P1  H  6934  6947       L1    15  1.34

> <Gold.PLP.Chemscore.Internal.Correction>
0.0504

> <Gold.Rescore>
     Score         DG    S(hbond)    S(metal)    S(lipo)     H(rot)  DE(clash)    DE(int)     intcor
     12.32     -14.49       1.90        0.00      73.01       2.30       0.04       2.13       ----

> <Gold.Chemscore.Fitness>
12.3163

> <Gold.Chemscore.DG>
-14.4943

> <Gold.Chemscore.ZeroCoef>
-5.4800

> <Gold.Chemscore.Hbond>
1.9008

> <Gold.Chemscore.Metal>
0.0000

> <Gold.Chemscore.Lipo>
73.0115

> <Gold.Chemscore.Internal_Hbond>
0.0000

> <Gold.Chemscore.DEClash>
0.0446

> <Gold.Chemscore.DEInternal>
2.1335

> <Gold.Chemscore.Rot>
2.2955

> <Gold.Chemscore.Internal.Correction>
   9.000000E+99

> <Gold.Chemscore.Hbonds>
donor molecule, donor type, donor heavy atom, donor atom, acceptor molecule, acceptor atom, score
      P1  H  6896  6908       L1    12  0.94
      P1  H  6931  6943       L1    15  0.02
      P1  H  6934  6947       L1    15  0.39

> <Gold.Chemscore.Hbond.Weighted>
-6.3486

> <Gold.Chemscore.Metal.Weighted>
-0.0000

> <Gold.Chemscore.Lipo.Weighted>
-8.5423

> <Gold.Chemscore.Internal_Hbond.Weighted>
0.0000

> <Gold.Chemscore.DEClash.Weighted>
0.0446

> <Gold.Chemscore.DEInternal.Weighted>
2.1335

> <Gold.Chemscore.Rot.Weighted>
5.8766

> <Gold.Chemscore.Internal.Correction.Weighted>
   9.000000E+99

> <Gold.Protein.RotatedTorsions>
[ 6907 6896 6895 6894 ] final -151.31 input  -60.11 | X-H torsion
[ 7974 7965 7964 7962 ] final   87.42 input  175.53 | X-H torsion
[ 8008 7997 7996 7995 ] final -147.85 input   59.86 | X-H torsion
[ 10167 10162 10161 10158 ] final   77.21 input  -65.29 | X-H torsion
[ 10718 10713 10712 10709 ] final -100.08 input   66.30 | X-H torsion
[ 10763 10752 10751 10750 ] final   65.70 input  -60.55 | X-H torsion
[ 11005 11000 10999 10996 ] final  112.06 input  -57.11 | X-H torsion

> <Gold.Protein.ActiveResidues>
 VAL166  LYS551  ARG553  GLY616  TRP617  ASP618  TYR619  PRO620  LYS621  CYS622 
 ASP623  PHE694  ASN695  SER759  ASP760  ASP761  ALA762  ILE779  LEU786  VAL792 
 PHE793  MET794  SER795  GLU796  ALA797  LYS798  CYS799  TRP800  GLU811  SER814 

> <Gold.Protein.RotatedAtoms>
  151.2112  133.4555  159.2598 H   0  0  0  0  0  0  0  0  0  0  0  0  # atno 6907 bound_to 6896
  151.0974  134.9952  159.8442 H   0  0  0  0  0  0  0  0  0  0  0  0  # atno 6908 bound_to 6896
  152.5440  134.2041  159.8777 H   0  0  0  0  0  0  0  0  0  0  0  0  # atno 6909 bound_to 6896
  145.5592  139.2302  143.2469 H   0  0  0  0  0  0  0  0  0  0  0  0  # atno 7974 bound_to 7965
  155.5821  140.0644  157.2780 H   0  0  0  0  0  0  0  0  0  0  0  0  # atno 8008 bound_to 7997
  154.4329  140.1850  156.1034 H   0  0  0  0  0  0  0  0  0  0  0  0  # atno 8009 bound_to 7997
  156.0297  140.3308  155.7130 H   0  0  0  0  0  0  0  0  0  0  0  0  # atno 8010 bound_to 7997
  139.9840  144.5806  150.7875 H   0  0  0  0  0  0  0  0  0  0  0  0  # atno 10167 bound_to 10162
  156.0152  130.5312  150.6765 H   0  0  0  0  0  0  0  0  0  0  0  0  # atno 10718 bound_to 10713
  153.0107  135.5347  154.6708 H   0  0  0  0  0  0  0  0  0  0  0  0  # atno 10763 bound_to 10752
  154.5893  135.2857  155.0654 H   0  0  0  0  0  0  0  0  0  0  0  0  # atno 10764 bound_to 10752
  154.1754  135.6525  153.5072 H   0  0  0  0  0  0  0  0  0  0  0  0  # atno 10765 bound_to 10752
  139.8918  134.9521  156.6527 H   0  0  0  0  0  0  0  0  0  0  0  0  # atno 11005 bound_to 11000
  146.1863  140.6417  142.9166 LP  0  0  0  0  0  0  0  0  0  0  0  0  # atno 17320 bound_to 7965
  144.7491  140.5145  143.6814 LP  0  0  0  0  0  0  0  0  0  0  0  0  # atno 17321 bound_to 7965
  140.7479  143.2913  151.3322 LP  0  0  0  0  0  0  0  0  0  0  0  0  # atno 17342 bound_to 10162
  139.6389  144.0578  152.2538 LP  0  0  0  0  0  0  0  0  0  0  0  0  # atno 17343 bound_to 10162
  157.4477  131.0869  151.0879 LP  0  0  0  0  0  0  0  0  0  0  0  0  # atno 17370 bound_to 10713
  157.1404  130.6140  149.5553 LP  0  0  0  0  0  0  0  0  0  0  0  0  # atno 17371 bound_to 10713
  140.7508  133.8899  155.8345 LP  0  0  0  0  0  0  0  0  0  0  0  0  # atno 17394 bound_to 11000
  141.0002  134.1160  157.4324 LP  0  0  0  0  0  0  0  0  0  0  0  0  # atno 17395 bound_to 11000

$$$$
