#       Name:                AV-unprocessed.smi:1
#       Creating user name   scv26
#       Creation time:       Thu Mar 26 15:11:48 2020


#       File generated by GOLD software.
#

@<TRIPOS>MOLECULE
AV-unprocessed.smi:1
    66    71     1
SMALL
NO_CHARGES


@<TRIPOS>ATOM
      1 ****        -3.7781   0.4715  -2.0261 O.2            1 S1                 0.0000
      2 ****        -4.2289  -0.4389  -1.3278 C.2            1 S1                 0.0000
      3 ****        -3.5932  -1.1313  -0.3489 N.pl3          1 S1                -1.0000
      4 ****        -2.3006  -0.8855  -0.0852 C.ar           1 S1                 0.0000
      5 ****        -1.9536  -0.0537   0.9296 N.ar           1 S1                 0.0000
      6 ****        -0.6648   0.1849   1.1982 C.ar           1 S1                 0.0000
      7 ****         0.4250  -0.3007   0.5949 N.ar           1 S1                 0.0000
      8 ****         0.0884  -1.1463  -0.4223 C.ar           1 S1                 0.0000
      9 ****        -1.2390  -1.4857  -0.8162 C.ar           1 S1                 0.0000
     10 ****        -1.2243  -2.3716  -1.8836 N.2            1 S1                 0.0000
     11 ****         0.0823  -2.5247  -2.0878 C.2            1 S1                 0.0000
     12 ****         0.9209  -1.8523  -1.2746 N.pl3          1 S1                 0.0000
     13 ****         2.4117  -1.8498  -1.3056 C.3            1 S1                 0.0000
     14 ****         2.8414  -0.5330  -1.4484 O.3            1 S1                 0.0000
     15 ****         4.0596  -0.3849  -0.7380 C.3            1 S1                 0.0000
     16 ****         4.4030   1.0942  -0.5118 C.3            1 S1                 0.0000
     17 ****         3.5049   1.6929   0.4098 O.3            1 S1                 0.0000
     18 ****         3.5098   3.0288   0.5856 C.2            1 S1                 0.0000
     19 ****         4.2282   3.7993  -0.0547 O.2            1 S1                 0.0000
     20 ****         2.5553   3.4801   1.6381 C.ar           1 S1                 0.0000
     21 ****         2.3517   4.8648   1.8424 C.ar           1 S1                 0.0000
     22 ****         1.4584   5.3201   2.8316 C.ar           1 S1                 0.0000
     23 ****         0.7598   4.3959   3.6303 C.ar           1 S1                 0.0000
     24 ****         0.9577   3.0159   3.4401 C.ar           1 S1                 0.0000
     25 ****         1.8504   2.5591   2.4510 C.ar           1 S1                 0.0000
     26 ****         3.8634  -1.2355   0.5201 C.3            1 S1                 0.0000
     27 ****         5.0902  -1.7380   1.0189 O.3            1 S1                 0.0000
     28 ****         5.3217  -3.2865   0.4380 S.o2           1 S1                 0.0000
     29 ****         6.3454  -3.2344  -0.6167 O.2            1 S1                 0.0000
     30 ****         5.4142  -4.1997   1.5871 O.2            1 S1                 0.0000
     31 ****         3.8361  -3.5103  -0.2911 O.3            1 S1                 0.0000
     32 ****         3.0042  -2.4015   0.0019 C.3            1 S1                 0.0000
     33 ****        -5.6730  -0.8314  -1.4920 C.ar           1 S1                 0.0000
     34 ****        -6.6372   0.1564  -1.7971 C.ar           1 S1                 0.0000
     35 ****        -7.9890  -0.1942  -1.9804 C.ar           1 S1                 0.0000
     36 ****        -8.3900  -1.5388  -1.8698 C.ar           1 S1                 0.0000
     37 ****        -7.4370  -2.5330  -1.5797 C.ar           1 S1                 0.0000
     38 ****        -6.0850  -2.1832  -1.3962 C.ar           1 S1                 0.0000
     39 ****        -0.4826   0.8593   2.0208 H              1 S1                 0.0000
     40 ****         0.4511  -3.1669  -2.8741 H              1 S1                 0.0000
     41 ****         2.6817  -2.4388  -2.1835 H              1 S1                 0.0000
     42 ****         4.8386  -0.8312  -1.3586 H              1 S1                 0.0000
     43 ****         5.4159   1.1797  -0.1165 H              1 S1                 0.0000
     44 ****         4.3815   1.6235  -1.4656 H              1 S1                 0.0000
     45 ****         2.8764   5.5930   1.2405 H              1 S1                 0.0000
     46 ****         1.3093   6.3799   2.9771 H              1 S1                 0.0000
     47 ****         0.0741   4.7448   4.3883 H              1 S1                 0.0000
     48 ****         0.4235   2.3052   4.0532 H              1 S1                 0.0000
     49 ****         1.9827   1.4935   2.3333 H              1 S1                 0.0000
     50 ****         3.3225  -0.6942   1.2964 H              1 S1                 0.0000
     51 ****         2.2312  -2.6931   0.7141 H              1 S1                 0.0000
     52 ****        -6.3452   1.1927  -1.8875 H              1 S1                 0.0000
     53 ****        -8.7178   0.5696  -2.2074 H              1 S1                 0.0000
     54 ****        -9.4263  -1.8076  -2.0109 H              1 S1                 0.0000
     55 ****        -7.7415  -3.5660  -1.5001 H              1 S1                 0.0000
     56 ****        -5.3677  -2.9633  -1.1853 H              1 S1                 0.0000
     57 ****        -2.8348   0.7786  -1.8995 LP             1 S1                 0.0000
     58 ****        -4.3556   0.9030  -2.7191 LP             1 S1                 0.0000
     59 ****        -4.0877  -1.8243   0.1757 LP             1 S1                 0.0000
     60 ****        -2.6652   0.3833   1.4797 LP             1 S1                 0.0000
     61 ****         1.3637  -0.0741   0.8549 LP             1 S1                 0.0000
     62 ****        -1.9927  -2.7860  -2.3712 LP             1 S1                 0.0000
     63 ****         2.1539   0.0898  -1.0749 LP             1 S1                 0.0000
     64 ****         2.9868  -0.3274  -2.4161 LP             1 S1                 0.0000
     65 ****         4.8517   3.4407  -0.7494 LP             1 S1                 0.0000
     66 ****         4.1876   4.7830   0.1207 LP             1 S1                 0.0000
@<TRIPOS>BOND
    1    1    2 2     
    2    2    3 1     
    3    2   33 1     
    4    3    4 1     
    5    4    9 ar    
    6    4    5 ar    
    7    5    6 ar    
    8    6    7 ar    
    9    6   39 1     
   10    7    8 ar    
   11    8   12 1     
   12    8    9 ar    
   13    9   10 1     
   14   10   11 2     
   15   11   12 1     
   16   11   40 1     
   17   12   13 1     
   18   13   32 1     
   19   13   14 1     
   20   13   41 1     
   21   14   15 1     
   22   15   16 1     
   23   15   26 1     
   24   15   42 1     
   25   16   17 1     
   26   16   43 1     
   27   16   44 1     
   28   17   18 1     
   29   18   19 2     
   30   18   20 1     
   31   20   25 ar    
   32   20   21 ar    
   33   21   22 ar    
   34   21   45 1     
   35   22   23 ar    
   36   22   46 1     
   37   23   24 ar    
   38   23   47 1     
   39   24   25 ar    
   40   24   48 1     
   41   25   49 1     
   42   26   32 1     
   43   26   27 1     
   44   26   50 1     
   45   27   28 1     
   46   28   29 2     
   47   28   30 2     
   48   28   31 1     
   49   31   32 1     
   50   32   51 1     
   51   33   38 ar    
   52   33   34 ar    
   53   34   35 ar    
   54   34   52 1     
   55   35   36 ar    
   56   35   53 1     
   57   36   37 ar    
   58   36   54 1     
   59   37   38 ar    
   60   37   55 1     
   61   38   56 1     
   62    1   57 1     
   63    1   58 1     
   64    3   59 1     
   65    5   60 1     
   66    7   61 1     
   67   10   62 1     
   68   14   63 1     
   69   14   64 1     
   70   19   65 1     
   71   19   66 1     
@<TRIPOS>SUBSTRUCTURE
      1 S1             1
@<TRIPOS>SET
LONE_PAIRS      STATIC     ATOMS    <user>   **** ""
12 57 58 59 60 61 62 63 64 65 66 29 30
ATOM$BLUE        STATIC     ATOMS    COLORGROUP SYSTEM
12 57 58 59 60 61 62 63 64 65 66 29 30
