AV-unprocessed.smi:2910|AV-procd|sdf|11175|dock9
  -GOLD-   2272016 63D 1   1.00000     0.00000
 Structure written by MMmdl.
 47 48  0  0  0  0  0  0  0  0  1 V2000
  153.6270  141.3765  160.1343 C   0  0  0  0  0  0  0  0  0  0  0  0
  152.5449  142.0778  159.3678 C   0  0  0  0  0  0  0  0  0  0  0  0
  151.5011  141.4953  158.5918 C   0  0  0  0  0  0  0  0  0  0  0  0
  150.8197  142.5896  158.1338 C   0  0  0  0  0  0  0  0  0  0  0  0
  149.7143  142.6397  157.3439 N   0  0  0  0  0  0  0  0  0  0  0  0
  148.8461  141.6560  157.0512 C   0  0  0  0  0  0  0  0  0  0  0  0
  148.9300  140.4917  157.4422 O   0  0  0  0  0  0  0  0  0  0  0  0
  147.8583  142.1053  156.2620 N   0  0  0  0  0  0  0  0  0  0  0  0
  146.7314  141.3157  155.7570 C   0  0  2  0  0  0  0  0  0  0  0  0
  147.2050  140.4831  154.5416 C   0  0  0  0  0  0  0  0  0  0  0  0
  147.8645  141.3136  153.4262 C   0  0  0  0  0  0  0  0  0  0  0  0
  149.2484  141.0403  153.3833 O   0  0  0  0  0  0  0  0  0  0  0  0
  145.5259  142.2493  155.4430 C   0  0  0  0  0  0  0  0  0  0  0  0
  145.8927  143.3530  154.4169 C   0  0  0  0  0  0  0  0  0  0  0  0
  144.7113  144.2862  154.1089 C   0  0  0  0  0  0  0  0  0  0  0  0
  144.1618  144.9271  155.3886 C   0  0  0  0  0  0  0  0  0  0  0  0
  143.7628  143.8481  156.4025 C   0  0  0  0  0  0  0  0  0  0  0  0
  144.9398  142.9099  156.7157 C   0  0  0  0  0  0  0  0  0  0  0  0
  151.4301  143.7268  158.6143 N   0  0  0  0  0  0  0  0  0  0  0  0
  151.0794  145.1182  158.4057 C   0  0  0  0  0  0  0  0  0  0  0  0
  152.4980  143.4053  159.3760 N   0  0  0  0  0  0  0  0  0  0  0  0
  153.5515  140.2949  160.0214 H   0  0  0  0  0  0  0  0  0  0  0  0
  153.5635  141.6033  161.1988 H   0  0  0  0  0  0  0  0  0  0  0  0
  154.6150  141.6783  159.7858 H   0  0  0  0  0  0  0  0  0  0  0  0
  151.3034  140.4485  158.4171 H   0  0  0  0  0  0  0  0  0  0  0  0
  149.5208  143.5408  156.9326 H   0  0  0  0  0  0  0  0  0  0  0  0
  147.8775  143.0784  155.9936 H   0  0  0  0  0  0  0  0  0  0  0  0
  146.4047  140.6111  156.5240 H   0  0  0  0  0  0  0  0  0  0  0  0
  147.9331  139.7412  154.8668 H   0  0  0  0  0  0  0  0  0  0  0  0
  146.3630  139.9252  154.1293 H   0  0  0  0  0  0  0  0  0  0  0  0
  147.4368  141.0809  152.4510 H   0  0  0  0  0  0  0  0  0  0  0  0
  147.7181  142.3796  153.6026 H   0  0  0  0  0  0  0  0  0  0  0  0
  149.3956  140.3277  152.7801 H   0  0  0  0  0  0  0  0  0  0  0  0
  144.7399  141.6373  154.9975 H   0  0  0  0  0  0  0  0  0  0  0  0
  146.7299  143.9406  154.7960 H   0  0  0  0  0  0  0  0  0  0  0  0
  146.2285  142.9143  153.4775 H   0  0  0  0  0  0  0  0  0  0  0  0
  145.0245  145.0625  153.4104 H   0  0  0  0  0  0  0  0  0  0  0  0
  143.9203  143.7232  153.6117 H   0  0  0  0  0  0  0  0  0  0  0  0
  144.9161  145.5825  155.8257 H   0  0  0  0  0  0  0  0  0  0  0  0
  143.3024  145.5554  155.1530 H   0  0  0  0  0  0  0  0  0  0  0  0
  143.4077  144.3163  157.3210 H   0  0  0  0  0  0  0  0  0  0  0  0
  142.9276  143.2674  156.0090 H   0  0  0  0  0  0  0  0  0  0  0  0
  144.5841  142.1558  157.4160 H   0  0  0  0  0  0  0  0  0  0  0  0
  145.7213  143.4683  157.2329 H   0  0  0  0  0  0  0  0  0  0  0  0
  150.0418  145.2818  158.6972 H   0  0  0  0  0  0  0  0  0  0  0  0
  151.1988  145.3708  157.3519 H   0  0  0  0  0  0  0  0  0  0  0  0
  151.7199  145.7700  159.0017 H   0  0  0  0  0  0  0  0  0  0  0  0
  1  2  1  0  0  0  0
  1 22  1  0  0  0  0
  1 23  1  0  0  0  0
  1 24  1  0  0  0  0
  2 21  2  0  0  0  0
  2  3  1  0  0  0  0
  3  4  2  0  0  0  0
  3 25  1  0  0  0  0
  4  5  1  0  0  0  0
  4 19  1  0  0  0  0
  5  6  1  0  0  0  0
  5 26  1  0  0  0  0
  6  7  2  0  0  0  0
  6  8  1  0  0  0  0
  8  9  1  0  0  0  0
  8 27  1  0  0  0  0
  9 10  1  0  0  0  0
  9 13  1  0  0  0  0
  9 28  1  0  0  0  0
 10 11  1  0  0  0  0
 10 29  1  0  0  0  0
 10 30  1  0  0  0  0
 11 12  1  0  0  0  0
 11 31  1  0  0  0  0
 11 32  1  0  0  0  0
 12 33  1  0  0  0  0
 13 18  1  0  0  0  0
 13 14  1  0  0  0  0
 13 34  1  0  0  0  0
 14 15  1  0  0  0  0
 14 35  1  0  0  0  0
 14 36  1  0  0  0  0
 15 16  1  0  0  0  0
 15 37  1  0  0  0  0
 15 38  1  0  0  0  0
 16 17  1  0  0  0  0
 16 39  1  0  0  0  0
 16 40  1  0  0  0  0
 17 18  1  0  0  0  0
 17 41  1  0  0  0  0
 17 42  1  0  0  0  0
 18 43  1  0  0  0  0
 18 44  1  0  0  0  0
 19 20  1  0  0  0  0
 19 21  1  0  0  0  0
 20 45  1  0  0  0  0
 20 46  1  0  0  0  0
 20 47  1  0  0  0  0
M  END
> <s_m_source_file>
AV-unprocessed.smi

> <i_m_source_file_index>
2910

> <i_lp_mmshare_version>
43012

> <i_f3d_flags>
0

> <s_epik_input>
W0NIM11jMVtjSF1jKG4objEpW0NIM10pW05IXUMoPU8pW05IXVtDQEhdKFtDSDJdW0NIMl1bT0hdKVtDSF0yW0NIMl1bQ0gyXVtDSDJdW0NIMl1bQ0gyXTI=

> <s_epik_cmdline>
J2VwaWtfcHl0aG9uJywgJy1waCcsICc3LjAnLCAnLXRuJywgJzgnLCAnLW1hJywgJzIwMCcsICctbWV0YWxfYmluZGluZycsICctaW1hZScsICc8aW5maWxlLm1hZT4nLCAnLW9tYWUnLCAnPG91dGZpbGUubWFlPic=

> <r_lp_tautomer_probability>
1

> <r_epik_Ionization_Penalty>
0.000101449

> <r_epik_Ionization_Penalty_Charging>
0

> <r_epik_Ionization_Penalty_Neutral>
0.000101449

> <r_epik_State_Penalty>
-0

> <r_epik_Charging_Adjusted_Penalty>
0

> <i_epik_Tot_Q>
0

> <i_epik_Tot_abs_Q>
0

> <r_epik_Metal_State_Penalty>
-0

> <b_epik_Metal_Only>
0

> <s_lp_Force_Field>
OPLS_2005

> <r_lp_Energy>
16.2269

> <b_lp_Chiralities_Consistent>
1

> <s_lp_Variant>
AV-unprocessed.smi:2910-1

> <Gold.Version>
5.8.1

> <Gold.Id.Protein>
6NUR|6NUR_protein|mol2

> <Gold.PLP.Fitness>
48.5264

> <Gold.PLP.PLP>
-38.7572

> <Gold.PLP.part.hbond>
-4.7925

> <Gold.PLP.part.metal>
0.0000

> <Gold.PLP.part.buried>
-7.2222

> <Gold.PLP.part.nonpolar>
-26.9921

> <Gold.PLP.part.repulsive>
0.0530

> <Gold.PLP.ligand.clash>
0.0000

> <Gold.PLP.ligand.torsion>
0.7852

> <Gold.PLP.Chemscore.Hbond>
3.7500

> <Gold.PLP.Chemscore.CHOScore>
0.0000

> <Gold.PLP.Chemscore.Metal>
0.0000

> <Gold.Chemscore.Hbonds>
donor molecule, donor type, donor heavy atom, donor atom, acceptor molecule, acceptor atom, score
      L1  H     5    26       P1  8028  1.00
      L1  H     8    27       P1  8028  1.00
      L1  H    12    33       P1  7957  0.80
      P1  H  8011  8017       L1    12  0.95

> <Gold.PLP.Chemscore.Internal.Correction>
0.0896

> <Gold.Rescore>
     Score         DG    S(hbond)    S(metal)    S(lipo)     H(rot)  DE(clash)    DE(int)     intcor
     13.98     -17.23       2.43        0.00      80.79       2.27       0.34       2.91       ----

> <Gold.Chemscore.Fitness>
13.9824

> <Gold.Chemscore.DG>
-17.2322

> <Gold.Chemscore.ZeroCoef>
-5.4800

> <Gold.Chemscore.Hbond>
2.4318

> <Gold.Chemscore.Metal>
0.0000

> <Gold.Chemscore.Lipo>
80.7873

> <Gold.Chemscore.Internal_Hbond>
0.0000

> <Gold.Chemscore.DEClash>
0.3436

> <Gold.Chemscore.DEInternal>
2.9061

> <Gold.Chemscore.Rot>
2.2743

> <Gold.Chemscore.Internal.Correction>
   9.000000E+99

> <Gold.Chemscore.Hbonds>
donor molecule, donor type, donor heavy atom, donor atom, acceptor molecule, acceptor atom, score
      L1  H     5    26       P1  8028  0.95
      L1  H     8    27       P1  8028  0.38
      L1  H    12    33       P1  7957  0.79
      P1  H  8011  8017       L1    12  0.05

> <Gold.Chemscore.Hbond.Weighted>
-8.1223

> <Gold.Chemscore.Metal.Weighted>
-0.0000

> <Gold.Chemscore.Lipo.Weighted>
-9.4521

> <Gold.Chemscore.Internal_Hbond.Weighted>
0.0000

> <Gold.Chemscore.DEClash.Weighted>
0.3436

> <Gold.Chemscore.DEInternal.Weighted>
2.9061

> <Gold.Chemscore.Rot.Weighted>
5.8223

> <Gold.Chemscore.Internal.Correction.Weighted>
   9.000000E+99

> <Gold.Protein.RotatedTorsions>
[ 6907 6896 6895 6894 ] final  -22.07 input  -60.11 | X-H torsion
[ 7974 7965 7964 7962 ] final   39.08 input  175.53 | X-H torsion
[ 8008 7997 7996 7995 ] final  -66.66 input   59.86 | X-H torsion
[ 10167 10162 10161 10158 ] final -149.85 input  -65.29 | X-H torsion
[ 10718 10713 10712 10709 ] final  108.25 input   66.30 | X-H torsion
[ 10763 10752 10751 10750 ] final -124.02 input  -60.55 | X-H torsion
[ 11005 11000 10999 10996 ] final   24.48 input  -57.11 | X-H torsion

> <Gold.Protein.ActiveResidues>
 VAL166  LYS551  ARG553  GLY616  TRP617  ASP618  TYR619  PRO620  LYS621  CYS622 
 ASP623  PHE694  ASN695  SER759  ASP760  ASP761  ALA762  ILE779  LEU786  VAL792 
 PHE793  MET794  SER795  GLU796  ALA797  LYS798  CYS799  TRP800  GLU811  SER814 

> <Gold.Protein.RotatedAtoms>
  151.2240  135.0529  159.8960 H   0  0  0  0  0  0  0  0  0  0  0  0  # atno 6907 bound_to 6896
  152.5412  134.0610  159.8162 H   0  0  0  0  0  0  0  0  0  0  0  0  # atno 6908 bound_to 6896
  151.0780  133.5364  159.2654 H   0  0  0  0  0  0  0  0  0  0  0  0  # atno 6909 bound_to 6896
  146.1012  139.5695  142.9413 H   0  0  0  0  0  0  0  0  0  0  0  0  # atno 7974 bound_to 7965
  154.4749  140.0908  156.7236 H   0  0  0  0  0  0  0  0  0  0  0  0  # atno 8008 bound_to 7997
  155.4624  140.3461  155.4296 H   0  0  0  0  0  0  0  0  0  0  0  0  # atno 8009 bound_to 7997
  156.1099  140.1445  156.9341 H   0  0  0  0  0  0  0  0  0  0  0  0  # atno 8010 bound_to 7997
  139.7406  143.8668  152.2561 H   0  0  0  0  0  0  0  0  0  0  0  0  # atno 10167 bound_to 10162
  157.6594  131.0889  150.6277 H   0  0  0  0  0  0  0  0  0  0  0  0  # atno 10718 bound_to 10713
  154.8717  135.4078  154.3037 H   0  0  0  0  0  0  0  0  0  0  0  0  # atno 10763 bound_to 10752
  153.3892  135.7014  153.6512 H   0  0  0  0  0  0  0  0  0  0  0  0  # atno 10764 bound_to 10752
  153.5302  135.3669  155.2643 H   0  0  0  0  0  0  0  0  0  0  0  0  # atno 10765 bound_to 10752
  140.3582  134.2154  155.7674 H   0  0  0  0  0  0  0  0  0  0  0  0  # atno 11005 bound_to 11000
  145.5850  141.0377  143.2101 LP  0  0  0  0  0  0  0  0  0  0  0  0  # atno 17320 bound_to 7965
  144.7434  139.7385  143.7301 LP  0  0  0  0  0  0  0  0  0  0  0  0  # atno 17321 bound_to 7965
  139.8617  144.7113  150.9091 LP  0  0  0  0  0  0  0  0  0  0  0  0  # atno 17342 bound_to 10162
  140.7785  143.3812  151.1474 LP  0  0  0  0  0  0  0  0  0  0  0  0  # atno 17343 bound_to 10162
  156.6581  130.4504  149.5697 LP  0  0  0  0  0  0  0  0  0  0  0  0  # atno 17370 bound_to 10713
  156.2088  130.6666  151.1247 LP  0  0  0  0  0  0  0  0  0  0  0  0  # atno 17371 bound_to 10713
  141.1992  133.8017  157.0547 LP  0  0  0  0  0  0  0  0  0  0  0  0  # atno 17394 bound_to 11000
  140.0648  134.9735  157.1367 LP  0  0  0  0  0  0  0  0  0  0  0  0  # atno 17395 bound_to 11000

$$$$
