#       Name:                AV-unprocessed.smi:1838
#       Creating user name   scv26
#       Creation time:       Fri Mar 27 09:18:05 2020


#       File generated by GOLD software.
#

@<TRIPOS>MOLECULE
AV-unprocessed.smi:1838
    42    43     1
SMALL
NO_CHARGES


@<TRIPOS>ATOM
      1 ****        -1.9198   4.7528   0.1983 C.3            1 S1                 0.0000
      2 ****        -1.1622   3.5508   0.1104 O.3            1 S1                 0.0000
      3 ****         0.2121   3.6255   0.2368 C.ar           1 S1                 0.0000
      4 ****         0.7737   4.8439   0.4396 N.ar           1 S1                 0.0000
      5 ****         2.1139   4.9216   0.5629 C.ar           1 S1                 0.0000
      6 ****         2.9589   3.7998   0.4917 C.ar           1 S1                 0.0000
      7 ****         2.3795   2.5348   0.2811 C.ar           1 S1                 0.0000
      8 ****         0.9718   2.4346   0.1497 C.ar           1 S1                 0.0000
      9 ****         0.2644   1.2171  -0.0671 N.am           1 S1                 0.0000
     10 ****         0.7246  -0.0413  -0.1762 C.2            1 S1                 0.0000
     11 ****         1.9026  -0.3866  -0.0948 O.2            1 S1                 0.0000
     12 ****        -0.2815  -0.9017  -0.3870 N.am           1 S1                 0.0000
     13 ****        -0.1382  -2.3431  -0.5830 C.3            1 S1                 0.0000
     14 ****         0.0098  -3.0718   0.7661 C.3            1 S1                 0.0000
     15 ****        -0.0346  -4.5882   0.5588 C.3            1 S1                 0.0000
     16 ****        -1.3480  -4.9982  -0.1269 C.3            1 S1                 0.0000
     17 ****        -1.6965  -4.1469  -1.2656 N.am           1 S1                 0.0000
     18 ****        -1.2444  -2.9014  -1.4962 C.2            1 S1                 0.0000
     19 ****        -1.6683  -2.2309  -2.4363 O.2            1 S1                 0.0000
     20 ****        -2.9776   4.5222   0.0733 H              1 S1                 0.0000
     21 ****        -1.6410   5.4585  -0.5858 H              1 S1                 0.0000
     22 ****        -1.7983   5.2310   1.1714 H              1 S1                 0.0000
     23 ****         2.5247   5.9075   0.7229 H              1 S1                 0.0000
     24 ****         4.0286   3.9065   0.5958 H              1 S1                 0.0000
     25 ****         3.0337   1.6804   0.2262 H              1 S1                 0.0000
     26 ****        -0.7362   1.3227  -0.1528 H              1 S1                 0.0000
     27 ****        -1.2189  -0.5314  -0.4446 H              1 S1                 0.0000
     28 ****         0.7816  -2.5130  -1.1460 H              1 S1                 0.0000
     29 ****         0.9468  -2.7910   1.2484 H              1 S1                 0.0000
     30 ****        -0.7918  -2.7731   1.4433 H              1 S1                 0.0000
     31 ****         0.8123  -4.8945  -0.0569 H              1 S1                 0.0000
     32 ****         0.0708  -5.1072   1.5120 H              1 S1                 0.0000
     33 ****        -1.2915  -6.0351  -0.4590 H              1 S1                 0.0000
     34 ****        -2.1676  -4.9437   0.5906 H              1 S1                 0.0000
     35 ****        -2.3921  -4.5108  -1.9009 H              1 S1                 0.0000
     36 ****        -1.3547   3.1455  -0.7833 LP             1 S1                 0.0000
     37 ****        -1.4920   2.9409   0.8310 LP             1 S1                 0.0000
     38 ****         0.2064   5.6655   0.4963 LP             1 S1                 0.0000
     39 ****         2.6141   0.2973   0.0663 LP             1 S1                 0.0000
     40 ****         2.1486  -1.3512  -0.1897 LP             1 S1                 0.0000
     41 ****        -1.2942  -1.3198  -2.6094 LP             1 S1                 0.0000
     42 ****        -2.3871  -2.5969  -3.0275 LP             1 S1                 0.0000
@<TRIPOS>BOND
    1    1    2 1     
    2    1   20 1     
    3    1   21 1     
    4    1   22 1     
    5    2    3 1     
    6    3    8 ar    
    7    3    4 ar    
    8    4    5 ar    
    9    5    6 ar    
   10    5   23 1     
   11    6    7 ar    
   12    6   24 1     
   13    7    8 ar    
   14    7   25 1     
   15    8    9 1     
   16    9   10 am    
   17    9   26 1     
   18   10   11 2     
   19   10   12 am    
   20   12   13 1     
   21   12   27 1     
   22   13   18 1     
   23   13   14 1     
   24   13   28 1     
   25   14   15 1     
   26   14   29 1     
   27   14   30 1     
   28   15   16 1     
   29   15   31 1     
   30   15   32 1     
   31   16   17 1     
   32   16   33 1     
   33   16   34 1     
   34   17   18 am    
   35   17   35 1     
   36   18   19 2     
   37    2   36 1     
   38    2   37 1     
   39    4   38 1     
   40   11   39 1     
   41   11   40 1     
   42   19   41 1     
   43   19   42 1     
@<TRIPOS>SUBSTRUCTURE
      1 S1             1
@<TRIPOS>SET
LONE_PAIRS      STATIC     ATOMS    <user>   **** ""
7 36 37 38 39 40 41 42
DONOR_HYDROGENS      STATIC     ATOMS    <user>   **** ""
3 26 27 35
ATOM$BLUE        STATIC     ATOMS    COLORGROUP SYSTEM
7 36 37 38 39 40 41 42
ATOM$RED        STATIC     ATOMS    COLORGROUP SYSTEM
3 26 27 35
