AV-unprocessed.smi:102|AV-procd|sdf|953|dock8
  -GOLD-   2262017483D 1   1.00000     0.00000
 Structure written by MMmdl.
 44 45  0  0  0  0  0  0  0  0  1 V2000
  147.3174  135.8952  162.8101 C   0  0  0  0  0  0  0  0  0  0  0  0
  147.4412  135.8597  161.2920 C   0  0  0  0  0  0  0  0  0  0  0  0
  146.8867  134.9865  160.6244 O   0  0  0  0  0  0  0  0  0  0  0  0
  148.1978  136.8586  160.8113 O   0  0  0  0  0  0  0  0  0  0  0  0
  148.4814  136.9146  159.4230 C   0  0  0  0  0  0  0  0  0  0  0  0
  149.7766  137.7059  159.1945 C   0  0  2  0  0  0  0  0  0  0  0  0
  149.5295  138.8691  158.4080 O   0  0  0  0  0  0  0  0  0  0  0  0
  150.6391  139.1743  157.6159 C   0  0  1  0  0  0  0  0  0  0  0  0
  151.1394  140.5726  157.9443 N   0  0  0  0  0  0  0  0  0  0  0  0
  151.7552  140.8047  159.1677 C   0  0  0  0  0  0  0  0  0  0  0  0
  152.2477  142.0111  159.5350 C   0  0  0  0  0  0  0  0  0  0  0  0
  152.8226  142.1541  160.7411 F   0  0  0  0  0  0  0  0  0  0  0  0
  152.1621  143.1552  158.6336 C   0  0  0  0  0  0  0  0  0  0  0  0
  152.5736  144.2877  158.8769 O   0  0  0  0  0  0  0  0  0  0  0  0
  151.5536  142.8763  157.4074 N   0  0  0  0  0  0  0  0  0  0  0  0
  151.0444  141.6370  157.0153 C   0  0  0  0  0  0  0  0  0  0  0  0
  150.5345  141.5189  155.9045 O   0  0  0  0  0  0  0  0  0  0  0  0
  151.6715  138.0297  157.7479 C   0  0  1  0  0  0  0  0  0  0  0  0
  152.8318  138.3629  158.5032 O   0  0  0  0  0  0  0  0  0  0  0  0
  153.5612  137.4001  159.0966 C   0  0  0  0  0  0  0  0  0  0  0  0
  154.5472  137.9636  160.1105 C   0  0  0  0  0  0  0  0  0  0  0  0
  153.4926  136.1926  158.8681 O   0  0  0  0  0  0  0  0  0  0  0  0
  150.8783  136.9392  158.4542 C   0  0  2  0  0  0  0  0  0  0  0  0
  150.3325  136.0337  157.4991 O   0  0  0  0  0  0  0  0  0  0  0  0
  151.1318  135.4274  156.6029 C   0  0  0  0  0  0  0  0  0  0  0  0
  150.3512  134.5728  155.6133 C   0  0  0  0  0  0  0  0  0  0  0  0
  152.3575  135.5249  156.5428 O   0  0  0  0  0  0  0  0  0  0  0  0
  151.4774  143.6366  156.7474 H   0  0  0  0  0  0  0  0  0  0  0  0
  147.8604  136.7437  163.2274 H   0  0  0  0  0  0  0  0  0  0  0  0
  147.7230  134.9803  163.2420 H   0  0  0  0  0  0  0  0  0  0  0  0
  146.2702  135.9795  163.1010 H   0  0  0  0  0  0  0  0  0  0  0  0
  148.6010  135.8968  159.0488 H   0  0  0  0  0  0  0  0  0  0  0  0
  147.6521  137.3705  158.8801 H   0  0  0  0  0  0  0  0  0  0  0  0
  150.1774  138.0106  160.1603 H   0  0  0  0  0  0  0  0  0  0  0  0
  150.2643  139.2328  156.5936 H   0  0  0  0  0  0  0  0  0  0  0  0
  151.8448  139.9950  159.8775 H   0  0  0  0  0  0  0  0  0  0  0  0
  151.9603  137.6993  156.7486 H   0  0  0  0  0  0  0  0  0  0  0  0
  155.0987  138.7994  159.6792 H   0  0  0  0  0  0  0  0  0  0  0  0
  155.2620  137.1991  160.4154 H   0  0  0  0  0  0  0  0  0  0  0  0
  154.0180  138.3158  160.9959 H   0  0  0  0  0  0  0  0  0  0  0  0
  151.4923  136.3870  159.1680 H   0  0  0  0  0  0  0  0  0  0  0  0
  149.6843  133.8920  156.1425 H   0  0  0  0  0  0  0  0  0  0  0  0
  151.0307  133.9813  154.9991 H   0  0  0  0  0  0  0  0  0  0  0  0
  149.7533  135.2049  154.9568 H   0  0  0  0  0  0  0  0  0  0  0  0
  1  2  1  0  0  0  0
  1 29  1  0  0  0  0
  1 30  1  0  0  0  0
  1 31  1  0  0  0  0
  2  3  2  0  0  0  0
  2  4  1  0  0  0  0
  4  5  1  0  0  0  0
  5  6  1  0  0  0  0
  5 32  1  0  0  0  0
  5 33  1  0  0  0  0
  6 23  1  0  0  0  0
  6  7  1  0  0  0  0
  6 34  1  0  0  0  0
  7  8  1  0  0  0  0
  8  9  1  0  0  0  0
  8 18  1  0  0  0  0
  8 35  1  0  0  0  0
  9 16  1  0  0  0  0
  9 10  1  0  0  0  0
 10 11  2  0  0  0  0
 10 36  1  0  0  0  0
 11 12  1  0  0  0  0
 11 13  1  0  0  0  0
 13 14  2  0  0  0  0
 13 15  1  0  0  0  0
 15 28  1  0  0  0  0
 15 16  1  0  0  0  0
 16 17  2  0  0  0  0
 18 19  1  0  0  0  0
 18 23  1  0  0  0  0
 18 37  1  0  0  0  0
 19 20  1  0  0  0  0
 20 21  1  0  0  0  0
 20 22  2  0  0  0  0
 21 38  1  0  0  0  0
 21 39  1  0  0  0  0
 21 40  1  0  0  0  0
 23 24  1  0  0  0  0
 23 41  1  0  0  0  0
 24 25  1  0  0  0  0
 25 26  1  0  0  0  0
 25 27  2  0  0  0  0
 26 42  1  0  0  0  0
 26 43  1  0  0  0  0
 26 44  1  0  0  0  0
M  END
> <s_m_source_file>
AV-unprocessed.smi

> <i_m_source_file_index>
102

> <i_lp_mmshare_version>
43012

> <i_f3d_flags>
0

> <s_epik_input>
W0NIM11DKD1PKU9bQ0gyXVtDQEBIXTFPW0NASF0oW0NAQEhdKE9DKD1PKVtDSDNdKVtDQEhdMU9DKD1PKVtDSDNdKW4yW2NIXWMoRiljKD1PKVtuSF1jMj1P

> <s_epik_cmdline>
J2VwaWtfcHl0aG9uJywgJy1waCcsICc3LjAnLCAnLXRuJywgJzgnLCAnLW1hJywgJzIwMCcsICctbWV0YWxfYmluZGluZycsICctaW1hZScsICc8aW5maWxlLm1hZT4nLCAnLW9tYWUnLCAnPG91dGZpbGUubWFlPic=

> <r_lp_tautomer_probability>
0.999537

> <r_epik_Ionization_Penalty>
0.058267

> <r_epik_Ionization_Penalty_Charging>
0.058267

> <r_epik_Ionization_Penalty_Neutral>
6.57791e-16

> <r_epik_State_Penalty>
0.0503774

> <r_epik_Charging_Adjusted_Penalty>
0.108644

> <i_epik_Tot_Q>
0

> <i_epik_Tot_abs_Q>
0

> <r_epik_Metal_State_Penalty>
2.6644

> <b_epik_Metal_Only>
0

> <s_epik_Chemistry_Notes>
This compound has an ester and may undergo hydrolysis at high or low pH. This compound contains an acetal/aminal-like group ( X-CH(R)-Y where X, Y are N, S, or O) that may be acid/base labile, releasing an aldehyde.

> <s_lp_Force_Field>
OPLS_2005

> <r_lp_Energy>
10.5548

> <b_lp_Chiralities_Consistent>
1

> <s_lp_Variant>
AV-unprocessed.smi:102-9

> <Gold.Version>
5.8.1

> <Gold.Id.Protein>
6NUR|6NUR_protein|mol2

> <Gold.PLP.Fitness>
40.7845

> <Gold.PLP.PLP>
-38.6526

> <Gold.PLP.part.hbond>
-3.5586

> <Gold.PLP.part.metal>
0.0000

> <Gold.PLP.part.buried>
-5.7981

> <Gold.PLP.part.nonpolar>
-30.8208

> <Gold.PLP.part.repulsive>
0.1069

> <Gold.PLP.ligand.clash>
0.0009

> <Gold.PLP.ligand.torsion>
1.4310

> <Gold.PLP.Chemscore.Hbond>
1.5988

> <Gold.PLP.Chemscore.CHOScore>
0.0000

> <Gold.PLP.Chemscore.Metal>
0.0000

> <Gold.Chemscore.Hbonds>
donor molecule, donor type, donor heavy atom, donor atom, acceptor molecule, acceptor atom, score
      P1  H  6896  6909       L1    22  0.59
      P1  H 10752 10763       L1    27  1.00

> <Gold.PLP.Chemscore.Internal.Correction>
0.1985

> <Gold.Rescore>
     Score         DG    S(hbond)    S(metal)    S(lipo)     H(rot)  DE(clash)    DE(int)     intcor
     -0.53      -7.80       2.12        0.00      47.87       4.05       1.60       6.72       ----

> <Gold.Chemscore.Fitness>
-0.5272

> <Gold.Chemscore.DG>
-7.7954

> <Gold.Chemscore.ZeroCoef>
-5.4800

> <Gold.Chemscore.Hbond>
2.1221

> <Gold.Chemscore.Metal>
0.0000

> <Gold.Chemscore.Lipo>
47.8696

> <Gold.Chemscore.Internal_Hbond>
0.0000

> <Gold.Chemscore.DEClash>
1.6036

> <Gold.Chemscore.DEInternal>
6.7190

> <Gold.Chemscore.Rot>
4.0520

> <Gold.Chemscore.Internal.Correction>
   9.000000E+99

> <Gold.Chemscore.Hbonds>
donor molecule, donor type, donor heavy atom, donor atom, acceptor molecule, acceptor atom, score
      P1  H  6896  6909       L1    22  0.58
      P1  H 10752 10763       L1    27  0.92

> <Gold.Chemscore.Hbond.Weighted>
-7.0878

> <Gold.Chemscore.Metal.Weighted>
-0.0000

> <Gold.Chemscore.Lipo.Weighted>
-5.6007

> <Gold.Chemscore.Internal_Hbond.Weighted>
0.0000

> <Gold.Chemscore.DEClash.Weighted>
1.6036

> <Gold.Chemscore.DEInternal.Weighted>
6.7190

> <Gold.Chemscore.Rot.Weighted>
10.3732

> <Gold.Chemscore.Internal.Correction.Weighted>
   9.000000E+99

> <Gold.Protein.RotatedTorsions>
[ 6907 6896 6895 6894 ] final  176.44 input  -60.11 | X-H torsion
[ 7974 7965 7964 7962 ] final  177.94 input  175.53 | X-H torsion
[ 8008 7997 7996 7995 ] final -105.56 input   59.86 | X-H torsion
[ 10167 10162 10161 10158 ] final   52.47 input  -65.29 | X-H torsion
[ 10718 10713 10712 10709 ] final  142.17 input   66.30 | X-H torsion
[ 10763 10752 10751 10750 ] final   84.73 input  -60.55 | X-H torsion
[ 11005 11000 10999 10996 ] final  166.54 input  -57.11 | X-H torsion

> <Gold.Protein.ActiveResidues>
 VAL166  LYS551  ARG553  GLY616  TRP617  ASP618  TYR619  PRO620  LYS621  CYS622 
 ASP623  PHE694  ASN695  SER759  ASP760  ASP761  ALA762  ILE779  LEU786  VAL792 
 PHE793  MET794  SER795  GLU796  ALA797  LYS798  CYS799  TRP800  GLU811  SER814 

> <Gold.Protein.RotatedAtoms>
  151.7200  133.3314  159.3312 H   0  0  0  0  0  0  0  0  0  0  0  0  # atno 6907 bound_to 6896
  150.7657  134.6456  159.6270 H   0  0  0  0  0  0  0  0  0  0  0  0  # atno 6908 bound_to 6896
  152.3658  134.6809  160.0244 H   0  0  0  0  0  0  0  0  0  0  0  0  # atno 6909 bound_to 6896
  144.7162  140.0323  143.6439 H   0  0  0  0  0  0  0  0  0  0  0  0  # atno 7974 bound_to 7965
  154.9016  140.0412  157.1896 H   0  0  0  0  0  0  0  0  0  0  0  0  # atno 8008 bound_to 7997
  154.8438  140.2918  155.5621 H   0  0  0  0  0  0  0  0  0  0  0  0  # atno 8009 bound_to 7997
  156.2993  140.2478  156.3385 H   0  0  0  0  0  0  0  0  0  0  0  0  # atno 8010 bound_to 7997
  140.2510  144.3479  150.6348 H   0  0  0  0  0  0  0  0  0  0  0  0  # atno 10167 bound_to 10162
  157.3837  131.0995  151.0714 H   0  0  0  0  0  0  0  0  0  0  0  0  # atno 10718 bound_to 10713
  153.1409  135.4643  154.9494 H   0  0  0  0  0  0  0  0  0  0  0  0  # atno 10763 bound_to 10752
  154.7746  135.3169  154.8121 H   0  0  0  0  0  0  0  0  0  0  0  0  # atno 10764 bound_to 10752
  153.8644  135.6909  153.4834 H   0  0  0  0  0  0  0  0  0  0  0  0  # atno 10765 bound_to 10752
  140.2675  134.7853  157.3646 H   0  0  0  0  0  0  0  0  0  0  0  0  # atno 11005 bound_to 11000
  146.0092  139.3155  143.0880 LP  0  0  0  0  0  0  0  0  0  0  0  0  # atno 17320 bound_to 7965
  145.8702  140.9424  143.0655 LP  0  0  0  0  0  0  0  0  0  0  0  0  # atno 17321 bound_to 7965
  140.6040  143.2167  151.7016 LP  0  0  0  0  0  0  0  0  0  0  0  0  # atno 17342 bound_to 10162
  139.5046  144.3748  152.0435 LP  0  0  0  0  0  0  0  0  0  0  0  0  # atno 17343 bound_to 10162
  157.1774  130.6294  149.5660 LP  0  0  0  0  0  0  0  0  0  0  0  0  # atno 17370 bound_to 10713
  155.9781  130.4765  150.6638 LP  0  0  0  0  0  0  0  0  0  0  0  0  # atno 17371 bound_to 10713
  140.1405  134.4978  155.8035 LP  0  0  0  0  0  0  0  0  0  0  0  0  # atno 17394 bound_to 11000
  141.2182  133.6823  156.7201 LP  0  0  0  0  0  0  0  0  0  0  0  0  # atno 17395 bound_to 11000

$$$$
