#       Name:                AV-unprocessed.smi:1590
#       Creating user name   scv26
#       Creation time:       Fri Mar 27 07:03:19 2020


#       File generated by GOLD software.
#

@<TRIPOS>MOLECULE
AV-unprocessed.smi:1590
    39    40     1
SMALL
NO_CHARGES


@<TRIPOS>ATOM
      1 ****        -5.4639   1.1321   1.5903 C.3            1 S1                 0.0000
      2 ****        -5.3714   0.6853   0.1243 C.3            1 S1                 0.0000
      3 ****        -6.1568  -0.6062  -0.1464 C.3            1 S1                 0.0000
      4 ****        -3.9507   0.5832  -0.3383 C.2            1 S1                 0.0000
      5 ****        -3.4485   1.3601  -1.3023 N.2            1 S1                 0.0000
      6 ****        -2.1127   1.0860  -1.5559 N.2            1 S1                 0.0000
      7 ****        -1.6175   0.1148  -0.7763 C.2            1 S1                 0.0000
      8 ****        -0.3430  -0.3003  -0.8653 N.pl3          1 S1                -1.0000
      9 ****         0.5795   0.1570   0.0120 C.2            1 S1                 0.0000
     10 ****         0.3803   0.9485   0.9366 O.2            1 S1                 0.0000
     11 ****         1.8094  -0.3333  -0.1919 N.am           1 S1                 0.0000
     12 ****         2.9848  -0.0072   0.6044 C.3            1 S1                 0.0000
     13 ****         4.2097  -0.7407   0.0715 C.3            1 S1                 0.0000
     14 ****         5.5964  -0.4190   0.6480 C.3            1 S1                 0.0000
     15 ****         6.1809  -0.6514  -0.7481 C.3            1 S1                 0.0000
     16 ****         4.7826  -0.3735  -1.3061 C.3            1 S1                 0.0000
     17 ****        -2.8026  -0.5638   0.3384 S.3            1 S1                 0.0000
     18 ****        -4.9572   2.0858   1.7408 H              1 S1                 0.0000
     19 ****        -5.0062   0.4025   2.2592 H              1 S1                 0.0000
     20 ****        -6.5023   1.2578   1.8974 H              1 S1                 0.0000
     21 ****        -5.8442   1.4680  -0.4710 H              1 S1                 0.0000
     22 ****        -6.1325  -0.8643  -1.2055 H              1 S1                 0.0000
     23 ****        -7.2024  -0.4969   0.1422 H              1 S1                 0.0000
     24 ****        -5.7452  -1.4480   0.4112 H              1 S1                 0.0000
     25 ****         1.9362  -0.9777  -0.9584 H              1 S1                 0.0000
     26 ****         3.1457   1.0716   0.5840 H              1 S1                 0.0000
     27 ****         2.8020  -0.2819   1.6441 H              1 S1                 0.0000
     28 ****         4.0600  -1.8220   0.1117 H              1 S1                 0.0000
     29 ****         5.6896   0.6179   0.9753 H              1 S1                 0.0000
     30 ****         5.9456  -1.1142   1.4121 H              1 S1                 0.0000
     31 ****         6.9449   0.0657  -1.0495 H              1 S1                 0.0000
     32 ****         6.5031  -1.6817  -0.9071 H              1 S1                 0.0000
     33 ****         4.4740  -1.0321  -2.1183 H              1 S1                 0.0000
     34 ****         4.6315   0.6767  -1.5617 H              1 S1                 0.0000
     35 ****        -3.9754   2.0592  -1.7857 LP             1 S1                 0.0000
     36 ****        -1.5741   1.5642  -2.2496 LP             1 S1                 0.0000
     37 ****        -0.0763  -0.9471  -1.5799 LP             1 S1                 0.0000
     38 ****        -0.5370   1.3152   1.0920 LP             1 S1                 0.0000
     39 ****         1.1361   1.2237   1.5308 LP             1 S1                 0.0000
@<TRIPOS>BOND
    1    1    2 1     
    2    1   18 1     
    3    1   19 1     
    4    1   20 1     
    5    2    3 1     
    6    2    4 1     
    7    2   21 1     
    8    3   22 1     
    9    3   23 1     
   10    3   24 1     
   11    4   17 1     
   12    4    5 2     
   13    5    6 1     
   14    6    7 2     
   15    7    8 1     
   16    7   17 1     
   17    8    9 1     
   18    9   10 2     
   19    9   11 am    
   20   11   12 1     
   21   11   25 1     
   22   12   13 1     
   23   12   26 1     
   24   12   27 1     
   25   13   16 1     
   26   13   14 1     
   27   13   28 1     
   28   14   15 1     
   29   14   29 1     
   30   14   30 1     
   31   15   16 1     
   32   15   31 1     
   33   15   32 1     
   34   16   33 1     
   35   16   34 1     
   36    5   35 1     
   37    6   36 1     
   38    8   37 1     
   39   10   38 1     
   40   10   39 1     
@<TRIPOS>SUBSTRUCTURE
      1 S1             1
@<TRIPOS>SET
LONE_PAIRS      STATIC     ATOMS    <user>   **** ""
5 35 36 37 38 39
DONOR_HYDROGENS      STATIC     ATOMS    <user>   **** ""
1 25
ATOM$BLUE        STATIC     ATOMS    COLORGROUP SYSTEM
5 35 36 37 38 39
ATOM$RED        STATIC     ATOMS    COLORGROUP SYSTEM
1 25
