AV-unprocessed.smi:203|AV-procd|sdf|1582|dock10
  -GOLD-   2262019473D 1   1.00000     0.00000
 Structure written by MMmdl.
 57 61  0  0  0  0  0  0  0  0  1 V2000
  150.4193  145.6551  159.0979 O   0  0  0  0  0  0  0  0  0  0  0  0
  150.8244  144.5609  158.7129 C   0  0  0  0  0  0  0  0  0  0  0  0
  152.2548  144.0843  158.8966 C   0  0  0  0  0  0  0  0  0  0  0  0
  152.2002  142.6009  158.4768 C   0  0  1  0  0  0  0  0  0  0  0  0
  152.3969  141.5880  159.6492 C   0  0  2  0  0  0  0  0  0  0  0  0
  153.3617  142.1156  160.7443 C   0  0  0  0  0  0  0  0  0  0  0  0
  153.5321  141.1052  161.8862 C   0  0  0  0  0  0  0  0  0  0  0  0
  154.0022  139.7594  161.3246 C   0  0  0  0  0  0  0  0  0  0  0  0
  153.0288  139.2607  160.2488 C   0  0  0  0  0  0  0  0  0  0  0  0
  152.8415  140.2579  159.1950 N   0  0  0  0  0  0  0  0  0  0  0  0
  152.1639  139.7173  158.1578 C   0  0  0  0  0  0  0  0  0  0  0  0
  152.4616  140.1763  156.9176 N   0  0  0  0  0  0  0  0  0  0  0  0
  151.8236  139.6811  155.8527 C   0  0  0  0  0  0  0  0  0  0  0  0
  150.8796  138.7379  155.8083 N   0  0  0  0  0  0  0  0  0  0  0  0
  150.5867  138.2691  157.0553 C   0  0  0  0  0  0  0  0  0  0  0  0
  151.1739  138.7017  158.2767 C   0  0  0  0  0  0  0  0  0  0  0  0
  150.6225  138.0025  159.3434 N   0  0  0  0  0  0  0  0  0  0  0  0
  149.7605  137.1988  158.7838 C   0  0  0  0  0  0  0  0  0  0  0  0
  149.6877  137.2790  157.4112 N   0  0  0  0  0  0  0  0  0  0  0  0
  148.8309  136.4953  156.5384 C   0  0  0  0  0  0  0  0  0  0  0  0
  149.6046  135.7193  155.4470 C   0  0  2  0  0  0  0  0  0  0  0  0
  149.9395  136.6178  154.4098 O   0  0  0  0  0  0  0  0  0  0  0  0
  148.9039  134.4855  154.8293 C   0  0  2  0  0  0  0  0  0  0  0  0
  149.7224  133.6509  153.8414 C   0  0  0  0  0  0  0  0  0  0  0  0
  148.6280  132.9311  153.0855 C   0  0  0  0  0  0  0  0  0  0  0  0
  147.5456  134.0044  152.9894 C   0  0  0  0  0  0  0  0  0  0  0  0
  147.7118  134.8393  154.1327 O   0  0  0  0  0  0  0  0  0  0  0  0
  150.8455  142.4421  157.7534 C   0  0  0  0  0  0  0  0  0  0  0  0
  150.0970  143.6383  158.0865 N   0  0  0  0  0  0  0  0  0  0  0  0
  152.9102  144.6543  158.2372 H   0  0  0  0  0  0  0  0  0  0  0  0
  152.5964  144.2331  159.9211 H   0  0  0  0  0  0  0  0  0  0  0  0
  152.9709  142.4264  157.7258 H   0  0  0  0  0  0  0  0  0  0  0  0
  151.4251  141.4512  160.1245 H   0  0  0  0  0  0  0  0  0  0  0  0
  154.3418  142.3255  160.3159 H   0  0  0  0  0  0  0  0  0  0  0  0
  153.0035  143.0570  161.1590 H   0  0  0  0  0  0  0  0  0  0  0  0
  154.2493  141.4796  162.6171 H   0  0  0  0  0  0  0  0  0  0  0  0
  152.5850  140.9775  162.4119 H   0  0  0  0  0  0  0  0  0  0  0  0
  154.9998  139.8659  160.8965 H   0  0  0  0  0  0  0  0  0  0  0  0
  154.0825  139.0251  162.1265 H   0  0  0  0  0  0  0  0  0  0  0  0
  153.4072  138.3314  159.8200 H   0  0  0  0  0  0  0  0  0  0  0  0
  152.0648  139.0298  160.7047 H   0  0  0  0  0  0  0  0  0  0  0  0
  152.1125  140.0986  154.8994 H   0  0  0  0  0  0  0  0  0  0  0  0
  149.1609  136.5106  159.3617 H   0  0  0  0  0  0  0  0  0  0  0  0
  148.2489  135.8084  157.1541 H   0  0  0  0  0  0  0  0  0  0  0  0
  148.1119  137.1723  156.0753 H   0  0  0  0  0  0  0  0  0  0  0  0
  150.5503  135.3819  155.8714 H   0  0  0  0  0  0  0  0  0  0  0  0
  149.7600  136.2002  153.5817 H   0  0  0  0  0  0  0  0  0  0  0  0
  148.5797  133.8287  155.6388 H   0  0  0  0  0  0  0  0  0  0  0  0
  150.2879  134.2779  153.1532 H   0  0  0  0  0  0  0  0  0  0  0  0
  150.4183  132.9718  154.3343 H   0  0  0  0  0  0  0  0  0  0  0  0
  148.9487  132.5614  152.1113 H   0  0  0  0  0  0  0  0  0  0  0  0
  148.2656  132.0846  153.6705 H   0  0  0  0  0  0  0  0  0  0  0  0
  147.6869  134.6113  152.0948 H   0  0  0  0  0  0  0  0  0  0  0  0
  146.5428  133.5784  152.9519 H   0  0  0  0  0  0  0  0  0  0  0  0
  150.9852  142.4082  156.6720 H   0  0  0  0  0  0  0  0  0  0  0  0
  150.3044  141.5406  158.0414 H   0  0  0  0  0  0  0  0  0  0  0  0
  149.1188  143.7476  157.8610 H   0  0  0  0  0  0  0  0  0  0  0  0
  1  2  2  0  0  0  0
  2 29  1  0  0  0  0
  2  3  1  0  0  0  0
  3  4  1  0  0  0  0
  3 30  1  0  0  0  0
  3 31  1  0  0  0  0
  4  5  1  0  0  0  0
  4 28  1  0  0  0  0
  4 32  1  0  0  0  0
  5 10  1  0  0  0  0
  5  6  1  0  0  0  0
  5 33  1  0  0  0  0
  6  7  1  0  0  0  0
  6 34  1  0  0  0  0
  6 35  1  0  0  0  0
  7  8  1  0  0  0  0
  7 36  1  0  0  0  0
  7 37  1  0  0  0  0
  8  9  1  0  0  0  0
  8 38  1  0  0  0  0
  8 39  1  0  0  0  0
  9 10  1  0  0  0  0
  9 40  1  0  0  0  0
  9 41  1  0  0  0  0
 10 11  1  0  0  0  0
 11 16  1  0  0  0  0
 11 12  2  0  0  0  0
 12 13  1  0  0  0  0
 13 14  2  0  0  0  0
 13 42  1  0  0  0  0
 14 15  1  0  0  0  0
 15 19  1  0  0  0  0
 15 16  2  0  0  0  0
 16 17  1  0  0  0  0
 17 18  2  0  0  0  0
 18 19  1  0  0  0  0
 18 43  1  0  0  0  0
 19 20  1  0  0  0  0
 20 21  1  0  0  0  0
 20 44  1  0  0  0  0
 20 45  1  0  0  0  0
 21 22  1  0  0  0  0
 21 23  1  0  0  0  0
 21 46  1  0  0  0  0
 22 47  1  0  0  0  0
 23 27  1  0  0  0  0
 23 24  1  0  0  0  0
 23 48  1  0  0  0  0
 24 25  1  0  0  0  0
 24 49  1  0  0  0  0
 24 50  1  0  0  0  0
 25 26  1  0  0  0  0
 25 51  1  0  0  0  0
 25 52  1  0  0  0  0
 26 27  1  0  0  0  0
 26 53  1  0  0  0  0
 26 54  1  0  0  0  0
 28 29  1  0  0  0  0
 28 55  1  0  0  0  0
 28 56  1  0  0  0  0
 29 57  1  0  0  0  0
M  END
> <s_m_source_file>
AV-unprocessed.smi

> <i_m_source_file_index>
203

> <i_lp_mmshare_version>
43012

> <i_f3d_flags>
0

> <s_epik_input>
Tz1DMVtDSDJdW0NASF0oW0NIMl1bTkhdMSlbQ0BASF0yW0NIMl1bQ0gyXVtDSDJdW0NIMl1OMmMobltjSF1uMyljKGMzNCluW2NIXW40W0NIMl1bQ0BIXShbT0hdKVtDQEBIXTVbQ0gyXVtDSDJdW0NIMl1PNQ==

> <s_epik_cmdline>
J2VwaWtfcHl0aG9uJywgJy1waCcsICc3LjAnLCAnLXRuJywgJzgnLCAnLW1hJywgJzIwMCcsICctbWV0YWxfYmluZGluZycsICctaW1hZScsICc8aW5maWxlLm1hZT4nLCAnLW9tYWUnLCAnPG91dGZpbGUubWFlPic=

> <r_lp_tautomer_probability>
1

> <r_epik_Ionization_Penalty>
0.00175146

> <r_epik_Ionization_Penalty_Charging>
0

> <r_epik_Ionization_Penalty_Neutral>
0.00175146

> <r_epik_State_Penalty>
0.00109045

> <r_epik_Charging_Adjusted_Penalty>
0.00109045

> <i_epik_Tot_Q>
0

> <i_epik_Tot_abs_Q>
0

> <r_epik_Metal_State_Penalty>
-0

> <b_epik_Metal_Only>
0

> <s_lp_Force_Field>
OPLS_2005

> <r_lp_Energy>
56.5802

> <b_lp_Chiralities_Consistent>
1

> <s_lp_Variant>
AV-unprocessed.smi:203-1

> <Gold.Version>
5.8.1

> <Gold.Id.Protein>
6NUR|6NUR_protein|mol2

> <Gold.PLP.Fitness>
50.4024

> <Gold.PLP.PLP>
-46.8455

> <Gold.PLP.part.hbond>
-5.7705

> <Gold.PLP.part.metal>
0.0000

> <Gold.PLP.part.buried>
-3.8910

> <Gold.PLP.part.nonpolar>
-38.0799

> <Gold.PLP.part.repulsive>
0.3453

> <Gold.PLP.ligand.clash>
0.0000

> <Gold.PLP.ligand.torsion>
1.3647

> <Gold.PLP.Chemscore.Hbond>
2.0000

> <Gold.PLP.Chemscore.CHOScore>
0.0000

> <Gold.PLP.Chemscore.Metal>
0.0000

> <Gold.Chemscore.Hbonds>
donor molecule, donor type, donor heavy atom, donor atom, acceptor molecule, acceptor atom, score
      L1  H    22    47       P1  7948  1.00
      L1  H    29    57       P1  8028  0.02
      P1  H  7997  8010       L1    12  1.00

> <Gold.PLP.Chemscore.Internal.Correction>
0.2862

> <Gold.Rescore>
     Score         DG    S(hbond)    S(metal)    S(lipo)     H(rot)  DE(clash)    DE(int)     intcor
     12.61     -14.92       1.73        0.00      90.88       2.72       0.07       2.24       ----

> <Gold.Chemscore.Fitness>
12.6070

> <Gold.Chemscore.DG>
-14.9199

> <Gold.Chemscore.ZeroCoef>
-5.4800

> <Gold.Chemscore.Hbond>
1.7252

> <Gold.Chemscore.Metal>
0.0000

> <Gold.Chemscore.Lipo>
90.8839

> <Gold.Chemscore.Internal_Hbond>
0.0000

> <Gold.Chemscore.DEClash>
0.0706

> <Gold.Chemscore.DEInternal>
2.2422

> <Gold.Chemscore.Rot>
2.7171

> <Gold.Chemscore.Internal.Correction>
   9.000000E+99

> <Gold.Chemscore.Hbonds>
donor molecule, donor type, donor heavy atom, donor atom, acceptor molecule, acceptor atom, score
      L1  H    22    47       P1  7948  0.24
      P1  H  7997  8010       L1    12  0.47

> <Gold.Chemscore.Hbond.Weighted>
-5.7622

> <Gold.Chemscore.Metal.Weighted>
-0.0000

> <Gold.Chemscore.Lipo.Weighted>
-10.6334

> <Gold.Chemscore.Internal_Hbond.Weighted>
0.0000

> <Gold.Chemscore.DEClash.Weighted>
0.0706

> <Gold.Chemscore.DEInternal.Weighted>
2.2422

> <Gold.Chemscore.Rot.Weighted>
6.9557

> <Gold.Chemscore.Internal.Correction.Weighted>
   9.000000E+99

> <Gold.Protein.RotatedTorsions>
[ 6907 6896 6895 6894 ] final  -34.38 input  -60.11 | X-H torsion
[ 7974 7965 7964 7962 ] final  142.50 input  175.53 | X-H torsion
[ 8008 7997 7996 7995 ] final   69.83 input   59.86 | X-H torsion
[ 10167 10162 10161 10158 ] final  -66.45 input  -65.29 | X-H torsion
[ 10718 10713 10712 10709 ] final  -11.90 input   66.30 | X-H torsion
[ 10763 10752 10751 10750 ] final -177.80 input  -60.55 | X-H torsion
[ 11005 11000 10999 10996 ] final  118.87 input  -57.11 | X-H torsion

> <Gold.Protein.ActiveResidues>
 VAL166  LYS551  ARG553  GLY616  TRP617  ASP618  TYR619  PRO620  LYS621  CYS622 
 ASP623  PHE694  ASN695  SER759  ASP760  ASP761  ALA762  ILE779  LEU786  VAL792 
 PHE793  MET794  SER795  GLU796  ALA797  LYS798  CYS799  TRP800  GLU811  SER814 

> <Gold.Protein.RotatedAtoms>
  151.0533  134.9688  159.8222 H   0  0  0  0  0  0  0  0  0  0  0  0  # atno 6907 bound_to 6896
  152.5384  134.2509  159.8908 H   0  0  0  0  0  0  0  0  0  0  0  0  # atno 6908 bound_to 6896
  151.2526  133.4299  159.2646 H   0  0  0  0  0  0  0  0  0  0  0  0  # atno 6909 bound_to 6896
  144.9002  139.5433  143.5757 H   0  0  0  0  0  0  0  0  0  0  0  0  # atno 7974 bound_to 7965
  155.7296  140.3492  155.5053 H   0  0  0  0  0  0  0  0  0  0  0  0  # atno 8008 bound_to 7997
  155.9195  140.1064  157.1239 H   0  0  0  0  0  0  0  0  0  0  0  0  # atno 8009 bound_to 7997
  154.4067  140.1252  156.4648 H   0  0  0  0  0  0  0  0  0  0  0  0  # atno 8010 bound_to 7997
  140.5656  143.2314  151.6641 H   0  0  0  0  0  0  0  0  0  0  0  0  # atno 10167 bound_to 10162
  156.6523  130.4958  149.6058 H   0  0  0  0  0  0  0  0  0  0  0  0  # atno 10718 bound_to 10713
  154.5556  135.2816  155.0967 H   0  0  0  0  0  0  0  0  0  0  0  0  # atno 10763 bound_to 10752
  154.2396  135.6359  153.5206 H   0  0  0  0  0  0  0  0  0  0  0  0  # atno 10764 bound_to 10752
  153.0015  135.5557  154.6135 H   0  0  0  0  0  0  0  0  0  0  0  0  # atno 10765 bound_to 10752
  139.9125  134.9624  156.7569 H   0  0  0  0  0  0  0  0  0  0  0  0  # atno 11005 bound_to 11000
  146.3104  139.7726  142.9024 LP  0  0  0  0  0  0  0  0  0  0  0  0  # atno 17320 bound_to 7965
  145.3629  141.0329  143.3274 LP  0  0  0  0  0  0  0  0  0  0  0  0  # atno 17321 bound_to 7965
  139.5091  144.3587  152.0583 LP  0  0  0  0  0  0  0  0  0  0  0  0  # atno 17342 bound_to 10162
  140.2719  144.3955  150.6148 LP  0  0  0  0  0  0  0  0  0  0  0  0  # atno 17343 bound_to 10162
  156.2074  130.6658  151.1233 LP  0  0  0  0  0  0  0  0  0  0  0  0  # atno 17370 bound_to 10713
  157.7137  131.0721  150.6408 LP  0  0  0  0  0  0  0  0  0  0  0  0  # atno 17371 bound_to 10713
  140.6729  133.9543  155.7866 LP  0  0  0  0  0  0  0  0  0  0  0  0  # atno 17394 bound_to 11000
  141.0565  134.0409  157.3716 LP  0  0  0  0  0  0  0  0  0  0  0  0  # atno 17395 bound_to 11000

$$$$
