AV-unprocessed.smi:66|AV-procd|sdf|626|dock1
  -GOLD-   2262016513D 1   1.00000     0.00000
 Structure written by MMmdl.
 27 29  0  0  0  0  0  0  0  0  3 V2000
  151.8476  137.1176  159.7141 O   0  0  0  0  0  0  0  0  0  0  0  0
  151.1615  137.9397  159.0681 C   0  0  0  0  0  0  0  0  0  0  0  0
  149.9293  138.1148  159.1992 O   0  5  0  0  0  0  0  0  0  0  0  0
  151.9009  138.7835  158.0193 C   0  0  1  0  0  0  0  0  0  0  0  0
  151.4202  138.4824  156.5921 C   0  0  0  0  0  0  0  0  0  0  0  0
  151.7241  139.7867  155.8613 C   0  0  1  0  0  0  0  0  0  0  0  0
  150.9591  139.9446  154.6846 O   0  0  0  0  0  0  0  0  0  0  0  0
  151.4244  140.8579  156.9123 C   0  0  0  0  0  0  0  0  0  0  0  0
  151.6914  140.2230  158.1978 N   0  0  0  0  0  0  0  0  0  0  0  0
  152.3492  140.9520  159.2142 C   0  0  0  0  0  0  0  0  0  0  0  0
  153.1499  140.2748  160.0770 N   0  0  0  0  0  0  0  0  0  0  0  0
  153.7732  140.9719  161.0332 C   0  0  0  0  0  0  0  0  0  0  0  0
  153.7033  142.2895  161.2440 N   0  0  0  0  0  0  0  0  0  0  0  0
  152.9083  142.9770  160.3990 C   0  0  0  0  0  0  0  0  0  0  0  0
  152.6005  144.2614  160.3171 N   0  5  0  0  0  0  0  0  0  0  0  0
  151.7403  144.4053  159.2768 C   0  0  0  0  0  0  0  0  0  0  0  0
  151.4572  143.2463  158.6480 N   0  0  0  0  0  0  0  0  0  0  0  0
  152.2074  142.3568  159.3650 C   0  0  0  0  0  0  0  0  0  0  0  0
  152.9704  138.5750  158.0754 H   0  0  0  0  0  0  0  0  0  0  0  0
  151.9270  137.6246  156.1493 H   0  0  0  0  0  0  0  0  0  0  0  0
  150.3462  138.2864  156.5728 H   0  0  0  0  0  0  0  0  0  0  0  0
  152.7844  139.8159  155.6060 H   0  0  0  0  0  0  0  0  0  0  0  0
  150.0981  140.2475  154.9279 H   0  0  0  0  0  0  0  0  0  0  0  0
  152.0319  141.7471  156.7394 H   0  0  0  0  0  0  0  0  0  0  0  0
  150.3740  141.1518  156.8903 H   0  0  0  0  0  0  0  0  0  0  0  0
  154.4064  140.4097  161.7033 H   0  0  0  0  0  0  0  0  0  0  0  0
  151.3546  145.3864  159.0292 H   0  0  0  0  0  0  0  0  0  0  0  0
  1  2  2  0  0  0  0
  2  3  1  0  0  0  0
  2  4  1  0  0  0  0
  4  5  1  0  0  0  0
  4 19  1  0  0  0  0
  4  9  1  0  0  0  0
  5  6  1  0  0  0  0
  5 20  1  0  0  0  0
  5 21  1  0  0  0  0
  6  7  1  0  0  0  0
  6  8  1  0  0  0  0
  6 22  1  0  0  0  0
  7 23  1  0  0  0  0
  8 24  1  0  0  0  0
  8 25  1  0  0  0  0
  8  9  1  0  0  0  0
  9 10  1  0  0  0  0
 10 11  1  0  0  0  0
 10 18  2  0  0  0  0
 11 12  2  0  0  0  0
 12 26  1  0  0  0  0
 12 13  1  0  0  0  0
 13 14  2  0  0  0  0
 14 15  1  0  0  0  0
 14 18  1  0  0  0  0
 15 16  1  0  0  0  0
 16 17  2  0  0  0  0
 16 27  1  0  0  0  0
 17 18  1  0  0  0  0
M  CHG  1   3  -1
M  CHG  1  15  -1
M  END
> <s_m_source_file>
AV-unprocessed.smi

> <i_m_source_file_index>
66

> <i_lp_mmshare_version>
43012

> <i_f3d_flags>
0

> <s_epik_input>
Tz1DKFtPSF0pW0NAQEhdMVtDSDJdW0NAQEhdKFtPSF0pW0NIMl1OMWMobltjSF1uMiljKGMyMylbbkhdW2NIXW4z

> <s_epik_cmdline>
J2VwaWtfcHl0aG9uJywgJy1waCcsICc3LjAnLCAnLXRuJywgJzgnLCAnLW1hJywgJzIwMCcsICctbWV0YWxfYmluZGluZycsICctaW1hZScsICc8aW5maWxlLm1hZT4nLCAnLW9tYWUnLCAnPG91dGZpbGUubWFlPic=

> <r_lp_tautomer_probability>
0.955585

> <r_epik_Ionization_Penalty>
7.65809

> <r_epik_Ionization_Penalty_Charging>
3.4974

> <r_epik_Ionization_Penalty_Neutral>
4.16069

> <r_epik_State_Penalty>
3.51624

> <r_epik_Charging_Adjusted_Penalty>
7.01364

> <i_epik_Tot_Q>
-2

> <i_epik_Tot_abs_Q>
2

> <r_epik_Metal_State_Penalty>
0.522662

> <b_epik_Metal_Only>
1

> <s_lp_Force_Field>
OPLS_2005

> <r_lp_Energy>
45.116

> <b_lp_Chiralities_Consistent>
1

> <s_lp_Variant>
AV-unprocessed.smi:66-10

> <Gold.Version>
5.8.1

> <Gold.Id.Protein>
6NUR|6NUR_protein|mol2

> <Gold.PLP.Fitness>
40.8376

> <Gold.PLP.PLP>
-32.0910

> <Gold.PLP.part.hbond>
-2.8736

> <Gold.PLP.part.metal>
0.0000

> <Gold.PLP.part.buried>
-4.9848

> <Gold.PLP.part.nonpolar>
-23.7609

> <Gold.PLP.part.repulsive>
0.1134

> <Gold.PLP.ligand.clash>
0.0000

> <Gold.PLP.ligand.torsion>
0.2616

> <Gold.PLP.Chemscore.Hbond>
3.0000

> <Gold.PLP.Chemscore.CHOScore>
0.0000

> <Gold.PLP.Chemscore.Metal>
0.0000

> <Gold.Chemscore.Hbonds>
donor molecule, donor type, donor heavy atom, donor atom, acceptor molecule, acceptor atom, score
      P1  H  6896  6907       L1     1  2.00
      P1  H  7989  7998       L1     7  1.00

> <Gold.PLP.Chemscore.Internal.Correction>
0.2697

> <Gold.Rescore>
     Score         DG    S(hbond)    S(metal)    S(lipo)     H(rot)  DE(clash)    DE(int)     intcor
      9.73     -11.16       1.96        0.00      31.55       1.78       0.00       1.43       ----

> <Gold.Chemscore.Fitness>
9.7299

> <Gold.Chemscore.DG>
-11.1566

> <Gold.Chemscore.ZeroCoef>
-5.4800

> <Gold.Chemscore.Hbond>
1.9553

> <Gold.Chemscore.Metal>
0.0000

> <Gold.Chemscore.Lipo>
31.5459

> <Gold.Chemscore.Internal_Hbond>
0.0000

> <Gold.Chemscore.DEClash>
0.0000

> <Gold.Chemscore.DEInternal>
1.4267

> <Gold.Chemscore.Rot>
1.7754

> <Gold.Chemscore.Internal.Correction>
   9.000000E+99

> <Gold.Chemscore.Hbonds>
donor molecule, donor type, donor heavy atom, donor atom, acceptor molecule, acceptor atom, score
      P1  H  6896  6907       L1     1  0.97
      P1  H  7989  7998       L1     7  0.76

> <Gold.Chemscore.Hbond.Weighted>
-6.5308

> <Gold.Chemscore.Metal.Weighted>
-0.0000

> <Gold.Chemscore.Lipo.Weighted>
-3.6909

> <Gold.Chemscore.Internal_Hbond.Weighted>
0.0000

> <Gold.Chemscore.DEClash.Weighted>
0.0000

> <Gold.Chemscore.DEInternal.Weighted>
1.4267

> <Gold.Chemscore.Rot.Weighted>
4.5451

> <Gold.Chemscore.Internal.Correction.Weighted>
   9.000000E+99

> <Gold.Protein.RotatedTorsions>
[ 6907 6896 6895 6894 ] final    6.02 input  -60.11 | X-H torsion
[ 7974 7965 7964 7962 ] final  129.75 input  175.53 | X-H torsion
[ 8008 7997 7996 7995 ] final   41.30 input   59.86 | X-H torsion
[ 10167 10162 10161 10158 ] final -175.06 input  -65.29 | X-H torsion
[ 10718 10713 10712 10709 ] final  -47.15 input   66.30 | X-H torsion
[ 10763 10752 10751 10750 ] final -165.57 input  -60.55 | X-H torsion
[ 11005 11000 10999 10996 ] final   24.57 input  -57.11 | X-H torsion

> <Gold.Protein.ActiveResidues>
 VAL166  LYS551  ARG553  GLY616  TRP617  ASP618  TYR619  PRO620  LYS621  CYS622 
 ASP623  PHE694  ASN695  SER759  ASP760  ASP761  ALA762  ILE779  LEU786  VAL792 
 PHE793  MET794  SER795  GLU796  ALA797  LYS798  CYS799  TRP800  GLU811  SER814 

> <Gold.Protein.RotatedAtoms>
  151.6669  135.0981  160.0190 H   0  0  0  0  0  0  0  0  0  0  0  0  # atno 6907 bound_to 6896
  152.3914  133.6680  159.6249 H   0  0  0  0  0  0  0  0  0  0  0  0  # atno 6908 bound_to 6896
  150.7829  133.8865  159.3342 H   0  0  0  0  0  0  0  0  0  0  0  0  # atno 6909 bound_to 6896
  145.0253  139.4095  143.5177 H   0  0  0  0  0  0  0  0  0  0  0  0  # atno 7974 bound_to 7965
  155.2673  140.3363  155.4268 H   0  0  0  0  0  0  0  0  0  0  0  0  # atno 8008 bound_to 7997
  156.2148  140.1784  156.7656 H   0  0  0  0  0  0  0  0  0  0  0  0  # atno 8009 bound_to 7997
  154.5738  140.0665  156.8988 H   0  0  0  0  0  0  0  0  0  0  0  0  # atno 8010 bound_to 7997
  139.5601  144.1892  152.1224 H   0  0  0  0  0  0  0  0  0  0  0  0  # atno 10167 bound_to 10162
  156.2113  130.4161  149.9111 H   0  0  0  0  0  0  0  0  0  0  0  0  # atno 10718 bound_to 10713
  154.6919  135.2972  154.9467 H   0  0  0  0  0  0  0  0  0  0  0  0  # atno 10763 bound_to 10752
  154.0428  135.6655  153.4796 H   0  0  0  0  0  0  0  0  0  0  0  0  # atno 10764 bound_to 10752
  153.0618  135.5111  154.8016 H   0  0  0  0  0  0  0  0  0  0  0  0  # atno 10765 bound_to 10752
  140.3572  134.2164  155.7675 H   0  0  0  0  0  0  0  0  0  0  0  0  # atno 11005 bound_to 11000
  146.3491  139.9773  142.8699 LP  0  0  0  0  0  0  0  0  0  0  0  0  # atno 17320 bound_to 7965
  145.1842  140.9781  143.4248 LP  0  0  0  0  0  0  0  0  0  0  0  0  # atno 17321 bound_to 7965
  140.1404  144.5207  150.6748 LP  0  0  0  0  0  0  0  0  0  0  0  0  # atno 17342 bound_to 10162
  140.6879  143.2360  151.5210 LP  0  0  0  0  0  0  0  0  0  0  0  0  # atno 17343 bound_to 10162
  156.6789  130.8850  151.3573 LP  0  0  0  0  0  0  0  0  0  0  0  0  # atno 17370 bound_to 10713
  157.7040  130.9364  150.0872 LP  0  0  0  0  0  0  0  0  0  0  0  0  # atno 17371 bound_to 10713
  141.1995  133.8011  157.0535 LP  0  0  0  0  0  0  0  0  0  0  0  0  # atno 17394 bound_to 11000
  140.0655  134.9731  157.1379 LP  0  0  0  0  0  0  0  0  0  0  0  0  # atno 17395 bound_to 11000

$$$$
