AV-unprocessed.smi:1292|AV-procd|sdf|5395|dock8
  -GOLD-   22720 4553D 1   1.00000     0.00000
 Structure written by MMmdl.
 40 41  0  0  0  0  0  0  0  0  1 V2000
  149.8977  133.8347  154.7544 C   0  0  0  0  0  0  0  0  0  0  0  0
  150.3464  134.9646  155.6915 C   0  0  2  0  0  0  0  0  0  0  0  0
  149.2857  135.2622  156.7610 C   0  0  0  0  0  0  0  0  0  0  0  0
  149.7759  136.3891  157.6750 C   0  0  0  0  0  0  0  0  0  0  0  0
  150.1330  137.6473  156.8677 C   0  0  0  0  0  0  0  0  0  0  0  0
  151.1076  137.3394  155.8041 N   0  0  0  0  0  0  0  0  0  0  0  0
  151.9713  138.6706  155.1044 S   0  0  0  0  0  0  0  0  0  0  0  0
  153.1513  138.1374  154.4071 O   0  0  0  0  0  0  0  0  0  0  0  0
  151.0116  139.5516  154.4208 O   0  0  0  0  0  0  0  0  0  0  0  0
  152.4956  139.4624  156.5456 N   0  0  0  0  0  0  0  0  0  0  0  0
  151.8727  140.7255  156.9421 C   0  0  0  0  0  0  0  0  0  0  0  0
  152.1750  141.0324  158.4143 C   0  0  0  0  0  0  0  0  0  0  0  0
  152.0397  142.5105  158.7278 C   0  0  0  0  0  0  0  0  0  0  0  0
  152.4723  143.0249  159.9689 C   0  0  0  0  0  0  0  0  0  0  0  0
  152.3113  144.4018  160.2172 C   0  0  0  0  0  0  0  0  0  0  0  0
  151.7259  145.2069  159.2211 C   0  0  0  0  0  0  0  0  0  0  0  0
  151.3248  144.5963  158.0161 C   0  0  0  0  0  0  0  0  0  0  0  0
  151.4741  143.2769  157.7680 N   0  0  0  0  0  0  0  0  0  0  0  0
  150.6878  136.2447  154.9043 C   0  0  0  0  0  0  0  0  0  0  0  0
  148.9901  134.1049  154.2137 H   0  0  0  0  0  0  0  0  0  0  0  0
  149.6937  132.9202  155.3118 H   0  0  0  0  0  0  0  0  0  0  0  0
  150.6683  133.6062  154.0177 H   0  0  0  0  0  0  0  0  0  0  0  0
  151.2536  134.6299  156.1971 H   0  0  0  0  0  0  0  0  0  0  0  0
  148.3455  135.5508  156.2886 H   0  0  0  0  0  0  0  0  0  0  0  0
  149.0802  134.3686  157.3513 H   0  0  0  0  0  0  0  0  0  0  0  0
  149.0111  136.6276  158.4144 H   0  0  0  0  0  0  0  0  0  0  0  0
  150.6508  136.0535  158.2336 H   0  0  0  0  0  0  0  0  0  0  0  0
  149.2391  138.0792  156.4161 H   0  0  0  0  0  0  0  0  0  0  0  0
  150.5444  138.4008  157.5392 H   0  0  0  0  0  0  0  0  0  0  0  0
  152.6534  138.8155  157.3176 H   0  0  0  0  0  0  0  0  0  0  0  0
  152.2431  141.5235  156.2977 H   0  0  0  0  0  0  0  0  0  0  0  0
  150.7948  140.6602  156.7912 H   0  0  0  0  0  0  0  0  0  0  0  0
  151.5003  140.4678  159.0595 H   0  0  0  0  0  0  0  0  0  0  0  0
  153.1854  140.7063  158.6662 H   0  0  0  0  0  0  0  0  0  0  0  0
  152.9133  142.3805  160.7151 H   0  0  0  0  0  0  0  0  0  0  0  0
  152.6296  144.8320  161.1553 H   0  0  0  0  0  0  0  0  0  0  0  0
  151.5863  146.2664  159.3772 H   0  0  0  0  0  0  0  0  0  0  0  0
  150.8720  145.1831  157.2308 H   0  0  0  0  0  0  0  0  0  0  0  0
  151.4815  136.0291  154.1897 H   0  0  0  0  0  0  0  0  0  0  0  0
  149.8269  136.5780  154.3229 H   0  0  0  0  0  0  0  0  0  0  0  0
  1  2  1  0  0  0  0
  1 20  1  0  0  0  0
  1 21  1  0  0  0  0
  1 22  1  0  0  0  0
  2 19  1  0  0  0  0
  2  3  1  0  0  0  0
  2 23  1  0  0  0  0
  3  4  1  0  0  0  0
  3 24  1  0  0  0  0
  3 25  1  0  0  0  0
  4  5  1  0  0  0  0
  4 26  1  0  0  0  0
  4 27  1  0  0  0  0
  5  6  1  0  0  0  0
  5 28  1  0  0  0  0
  5 29  1  0  0  0  0
  6  7  1  0  0  0  0
  6 19  1  0  0  0  0
  7  8  2  0  0  0  0
  7  9  2  0  0  0  0
  7 10  1  0  0  0  0
 10 11  1  0  0  0  0
 10 30  1  0  0  0  0
 11 12  1  0  0  0  0
 11 31  1  0  0  0  0
 11 32  1  0  0  0  0
 12 13  1  0  0  0  0
 12 33  1  0  0  0  0
 12 34  1  0  0  0  0
 13 18  1  0  0  0  0
 13 14  2  0  0  0  0
 14 15  1  0  0  0  0
 14 35  1  0  0  0  0
 15 16  2  0  0  0  0
 15 36  1  0  0  0  0
 16 17  1  0  0  0  0
 16 37  1  0  0  0  0
 17 18  2  0  0  0  0
 17 38  1  0  0  0  0
 19 39  1  0  0  0  0
 19 40  1  0  0  0  0
M  END
> <s_m_source_file>
AV-unprocessed.smi

> <i_m_source_file_index>
1292

> <i_lp_mmshare_version>
43012

> <i_f3d_flags>
0

> <s_epik_input>
W0NIM11bQ0BASF0xW0NIMl1bQ0gyXVtDSDJdTihbQ0gyXTEpUyg9TykoPU8pW05IXVtDSDJdW0NIMl1jMltjSF1bY0hdW2NIXVtjSF1uMg==

> <s_epik_cmdline>
J2VwaWtfcHl0aG9uJywgJy1waCcsICc3LjAnLCAnLXRuJywgJzgnLCAnLW1hJywgJzIwMCcsICctbWV0YWxfYmluZGluZycsICctaW1hZScsICc8aW5maWxlLm1hZT4nLCAnLW9tYWUnLCAnPG91dGZpbGUubWFlPic=

> <r_epik_Ionization_Penalty>
0.0252758

> <r_epik_Ionization_Penalty_Charging>
0

> <r_epik_Ionization_Penalty_Neutral>
0.0252758

> <r_epik_State_Penalty>
0.0138562

> <r_epik_Charging_Adjusted_Penalty>
0.0138562

> <i_epik_Tot_Q>
0

> <i_epik_Tot_abs_Q>
0

> <r_epik_Metal_State_Penalty>
0.204365

> <b_epik_Metal_Only>
0

> <s_lp_Force_Field>
OPLS_2005

> <r_lp_Energy>
7.0541

> <b_lp_Chiralities_Consistent>
1

> <s_lp_Variant>
AV-unprocessed.smi:1292-1

> <Gold.Version>
5.8.1

> <Gold.Id.Protein>
6NUR|6NUR_protein|mol2

> <Gold.PLP.Fitness>
44.5670

> <Gold.PLP.PLP>
-36.6104

> <Gold.PLP.part.hbond>
-3.0000

> <Gold.PLP.part.metal>
0.0000

> <Gold.PLP.part.buried>
-6.2116

> <Gold.PLP.part.nonpolar>
-26.9622

> <Gold.PLP.part.repulsive>
0.3105

> <Gold.PLP.ligand.clash>
0.0000

> <Gold.PLP.ligand.torsion>
0.8676

> <Gold.PLP.Chemscore.Hbond>
1.9500

> <Gold.PLP.Chemscore.CHOScore>
1.0000

> <Gold.PLP.Chemscore.Metal>
0.0000

> <Gold.Chemscore.Hbonds>
donor molecule, donor type, donor heavy atom, donor atom, acceptor molecule, acceptor atom, score
      P1  H  7989  7998       L1     9  1.00
      P1  H  7997  8008       L1    10  0.90
      L1  C    17    38       P1  8028  1.00

> <Gold.PLP.Chemscore.Internal.Correction>
0.8418

> <Gold.Rescore>
     Score         DG    S(hbond)    S(metal)    S(lipo)     H(rot)  DE(clash)    DE(int)     intcor
     15.80     -16.74       1.25        0.00      96.55       1.64       0.06       0.88       ----

> <Gold.Chemscore.Fitness>
15.8013

> <Gold.Chemscore.DG>
-16.7390

> <Gold.Chemscore.ZeroCoef>
-5.4800

> <Gold.Chemscore.Hbond>
1.2455

> <Gold.Chemscore.Metal>
0.0000

> <Gold.Chemscore.Lipo>
96.5470

> <Gold.Chemscore.Internal_Hbond>
0.0000

> <Gold.Chemscore.DEClash>
0.0553

> <Gold.Chemscore.DEInternal>
0.8825

> <Gold.Chemscore.Rot>
1.6394

> <Gold.Chemscore.Internal.Correction>
   9.000000E+99

> <Gold.Chemscore.Hbonds>
donor molecule, donor type, donor heavy atom, donor atom, acceptor molecule, acceptor atom, score
      P1  H  7989  7998       L1     9  0.96
      P1  H  7997  8008       L1    10  0.04
      P1  H 10752 10764       L1     8  0.01

> <Gold.Chemscore.Hbond.Weighted>
-4.1599

> <Gold.Chemscore.Metal.Weighted>
-0.0000

> <Gold.Chemscore.Lipo.Weighted>
-11.2960

> <Gold.Chemscore.Internal_Hbond.Weighted>
0.0000

> <Gold.Chemscore.DEClash.Weighted>
0.0553

> <Gold.Chemscore.DEInternal.Weighted>
0.8825

> <Gold.Chemscore.Rot.Weighted>
4.1968

> <Gold.Chemscore.Internal.Correction.Weighted>
   9.000000E+99

> <Gold.Protein.RotatedTorsions>
[ 6907 6896 6895 6894 ] final  105.66 input  -60.11 | X-H torsion
[ 7974 7965 7964 7962 ] final  -39.18 input  175.53 | X-H torsion
[ 8008 7997 7996 7995 ] final  -33.71 input   59.86 | X-H torsion
[ 10167 10162 10161 10158 ] final  155.38 input  -65.29 | X-H torsion
[ 10718 10713 10712 10709 ] final  -22.87 input   66.30 | X-H torsion
[ 10763 10752 10751 10750 ] final  -99.66 input  -60.55 | X-H torsion
[ 11005 11000 10999 10996 ] final -127.64 input  -57.11 | X-H torsion

> <Gold.Protein.ActiveResidues>
 VAL166  LYS551  ARG553  GLY616  TRP617  ASP618  TYR619  PRO620  LYS621  CYS622 
 ASP623  PHE694  ASN695  SER759  ASP760  ASP761  ALA762  ILE779  LEU786  VAL792 
 PHE793  MET794  SER795  GLU796  ALA797  LYS798  CYS799  TRP800  GLU811  SER814 

> <Gold.Protein.RotatedAtoms>
  152.5222  133.9495  159.7664 H   0  0  0  0  0  0  0  0  0  0  0  0  # atno 6907 bound_to 6896
  150.9808  133.6239  159.2730 H   0  0  0  0  0  0  0  0  0  0  0  0  # atno 6908 bound_to 6896
  151.3417  135.0871  159.9426 H   0  0  0  0  0  0  0  0  0  0  0  0  # atno 6909 bound_to 6896
  146.0420  140.6596  142.9083 H   0  0  0  0  0  0  0  0  0  0  0  0  # atno 7974 bound_to 7965
  154.4141  140.1703  156.1933 H   0  0  0  0  0  0  0  0  0  0  0  0  # atno 8008 bound_to 7997
  155.9585  140.3395  155.6446 H   0  0  0  0  0  0  0  0  0  0  0  0  # atno 8009 bound_to 7997
  155.6778  140.0719  157.2486 H   0  0  0  0  0  0  0  0  0  0  0  0  # atno 8010 bound_to 7997
  139.4821  144.5103  151.8034 H   0  0  0  0  0  0  0  0  0  0  0  0  # atno 10167 bound_to 10162
  156.4987  130.4583  149.6713 H   0  0  0  0  0  0  0  0  0  0  0  0  # atno 10718 bound_to 10713
  154.7516  135.4964  153.9300 H   0  0  0  0  0  0  0  0  0  0  0  0  # atno 10763 bound_to 10752
  153.1150  135.6718  153.9442 H   0  0  0  0  0  0  0  0  0  0  0  0  # atno 10764 bound_to 10752
  153.9190  135.3090  155.3427 H   0  0  0  0  0  0  0  0  0  0  0  0  # atno 10765 bound_to 10752
  140.9582  134.0972  157.3994 H   0  0  0  0  0  0  0  0  0  0  0  0  # atno 11005 bound_to 11000
  144.7079  140.3924  143.7104 LP  0  0  0  0  0  0  0  0  0  0  0  0  # atno 17320 bound_to 7965
  145.6869  139.1630  143.2669 LP  0  0  0  0  0  0  0  0  0  0  0  0  # atno 17321 bound_to 7965
  140.4606  144.1727  150.5906 LP  0  0  0  0  0  0  0  0  0  0  0  0  # atno 17342 bound_to 10162
  140.4489  143.2495  151.9375 LP  0  0  0  0  0  0  0  0  0  0  0  0  # atno 17343 bound_to 10162
  156.3354  130.7354  151.2290 LP  0  0  0  0  0  0  0  0  0  0  0  0  # atno 17370 bound_to 10713
  157.7465  131.0418  150.4665 LP  0  0  0  0  0  0  0  0  0  0  0  0  # atno 17371 bound_to 10713
  139.8869  135.0085  156.6529 LP  0  0  0  0  0  0  0  0  0  0  0  0  # atno 17394 bound_to 11000
  140.7505  133.8901  155.8343 LP  0  0  0  0  0  0  0  0  0  0  0  0  # atno 17395 bound_to 11000

$$$$
