AV-unprocessed.smi:178|AV-procd|sdf|1448|dock8
  -GOLD-   2262019243D 1   1.00000     0.00000
 Structure written by MMmdl.
 50 52  0  0  0  0  0  0  0  0  1 V2000
  153.2945  143.1411  159.9634 C   0  0  0  0  0  0  0  0  0  0  0  0
  151.9669  142.6545  160.0807 O   0  0  0  0  0  0  0  0  0  0  0  0
  151.7472  141.3874  159.4716 C   0  0  0  0  0  0  0  0  0  0  0  0
  151.9558  141.3961  157.9401 C   0  0  0  0  0  0  0  0  0  0  0  0
  151.2291  140.3413  157.2313 N   0  0  0  0  0  0  0  0  0  0  0  0
  149.9427  140.7493  156.6708 C   0  0  0  0  0  0  0  0  0  0  0  0
  149.6695  140.1569  155.2791 C   0  0  0  0  0  0  0  0  0  0  0  0
  148.8553  141.0502  154.4422 C   0  0  0  0  0  0  0  0  0  0  0  0
  148.2149  141.7536  153.7837 N   0  0  0  0  0  0  0  0  0  0  0  0
  151.1594  139.1788  157.9181 C   0  0  0  0  0  0  0  0  0  0  0  0
  152.3314  138.5779  158.2397 N   0  0  0  0  0  0  0  0  0  0  0  0
  152.3264  137.4433  158.9456 C   0  0  0  0  0  0  0  0  0  0  0  0
  151.2830  136.7588  159.4197 N   0  0  0  0  0  0  0  0  0  0  0  0
  150.1032  137.3598  159.0912 C   0  0  0  0  0  0  0  0  0  0  0  0
  149.9500  138.5586  158.3411 C   0  0  0  0  0  0  0  0  0  0  0  0
  148.6014  138.8621  158.1996 N   0  0  0  0  0  0  0  0  0  0  0  0
  147.9918  137.9005  158.8375 C   0  0  0  0  0  0  0  0  0  0  0  0
  148.8178  136.9612  159.4131 N   0  0  0  0  0  0  0  0  0  0  0  0
  148.4100  135.7993  160.1881 C   0  0  0  0  0  0  0  0  0  0  0  0
  147.4941  136.1544  161.3889 C   0  0  2  0  0  0  0  0  0  0  0  0
  148.0180  137.3211  162.0020 O   0  0  0  0  0  0  0  0  0  0  0  0
  147.4210  135.0622  162.4516 C   0  0  0  0  0  0  0  0  0  0  0  0
  146.0624  135.3033  163.0912 C   0  0  0  0  0  0  0  0  0  0  0  0
  145.2493  135.6279  161.9770 O   0  0  0  0  0  0  0  0  0  0  0  0
  145.9984  136.4273  161.0636 C   0  0  2  0  0  0  0  0  0  0  0  0
  145.5233  136.0667  159.6473 C   0  0  0  0  0  0  0  0  0  0  0  0
  153.3752  144.0951  160.4841 H   0  0  0  0  0  0  0  0  0  0  0  0
  153.5787  143.3091  158.9252 H   0  0  0  0  0  0  0  0  0  0  0  0
  154.0088  142.4520  160.4152 H   0  0  0  0  0  0  0  0  0  0  0  0
  152.4023  140.6473  159.9336 H   0  0  0  0  0  0  0  0  0  0  0  0
  150.7288  141.0692  159.6975 H   0  0  0  0  0  0  0  0  0  0  0  0
  151.7307  142.3714  157.5102 H   0  0  0  0  0  0  0  0  0  0  0  0
  153.0173  141.2320  157.7520 H   0  0  0  0  0  0  0  0  0  0  0  0
  149.1383  140.4782  157.3557 H   0  0  0  0  0  0  0  0  0  0  0  0
  149.9285  141.8373  156.5981 H   0  0  0  0  0  0  0  0  0  0  0  0
  150.6059  139.9707  154.7529 H   0  0  0  0  0  0  0  0  0  0  0  0
  149.1399  139.2066  155.3506 H   0  0  0  0  0  0  0  0  0  0  0  0
  153.2980  137.0265  159.1665 H   0  0  0  0  0  0  0  0  0  0  0  0
  146.9152  137.8538  158.9150 H   0  0  0  0  0  0  0  0  0  0  0  0
  147.9068  135.1015  159.5175 H   0  0  0  0  0  0  0  0  0  0  0  0
  149.3159  135.2991  160.5308 H   0  0  0  0  0  0  0  0  0  0  0  0
  147.3842  137.6405  162.6260 H   0  0  0  0  0  0  0  0  0  0  0  0
  147.4157  134.0791  161.9794 H   0  0  0  0  0  0  0  0  0  0  0  0
  148.2448  135.0836  163.1664 H   0  0  0  0  0  0  0  0  0  0  0  0
  145.6849  134.4310  163.6249 H   0  0  0  0  0  0  0  0  0  0  0  0
  146.0950  136.1466  163.7828 H   0  0  0  0  0  0  0  0  0  0  0  0
  145.7510  137.4736  161.2523 H   0  0  0  0  0  0  0  0  0  0  0  0
  146.0465  136.6506  158.8900 H   0  0  0  0  0  0  0  0  0  0  0  0
  144.4579  136.2703  159.5364 H   0  0  0  0  0  0  0  0  0  0  0  0
  145.6766  135.0090  159.4313 H   0  0  0  0  0  0  0  0  0  0  0  0
  1  2  1  0  0  0  0
  1 27  1  0  0  0  0
  1 28  1  0  0  0  0
  1 29  1  0  0  0  0
  2  3  1  0  0  0  0
  3  4  1  0  0  0  0
  3 30  1  0  0  0  0
  3 31  1  0  0  0  0
  4  5  1  0  0  0  0
  4 32  1  0  0  0  0
  4 33  1  0  0  0  0
  5  6  1  0  0  0  0
  5 10  1  0  0  0  0
  6  7  1  0  0  0  0
  6 34  1  0  0  0  0
  6 35  1  0  0  0  0
  7  8  1  0  0  0  0
  7 36  1  0  0  0  0
  7 37  1  0  0  0  0
  8  9  3  0  0  0  0
 10 15  1  0  0  0  0
 10 11  2  0  0  0  0
 11 12  1  0  0  0  0
 12 13  2  0  0  0  0
 12 38  1  0  0  0  0
 13 14  1  0  0  0  0
 14 18  1  0  0  0  0
 14 15  2  0  0  0  0
 15 16  1  0  0  0  0
 16 17  2  0  0  0  0
 17 18  1  0  0  0  0
 17 39  1  0  0  0  0
 18 19  1  0  0  0  0
 19 20  1  0  0  0  0
 19 40  1  0  0  0  0
 19 41  1  0  0  0  0
 20 25  1  0  0  0  0
 20 21  1  0  0  0  0
 20 22  1  0  0  0  0
 21 42  1  0  0  0  0
 22 23  1  0  0  0  0
 22 43  1  0  0  0  0
 22 44  1  0  0  0  0
 23 24  1  0  0  0  0
 23 45  1  0  0  0  0
 23 46  1  0  0  0  0
 24 25  1  0  0  0  0
 25 26  1  0  0  0  0
 25 47  1  0  0  0  0
 26 48  1  0  0  0  0
 26 49  1  0  0  0  0
 26 50  1  0  0  0  0
M  END
> <s_m_source_file>
AV-unprocessed.smi

> <i_m_source_file_index>
178

> <i_lp_mmshare_version>
43012

> <i_f3d_flags>
0

> <s_epik_input>
W0NIM11PW0NIMl1bQ0gyXU4oW0NIMl1bQ0gyXUMjTiljKG5bY0hdbjEpYyhjMTIpbltjSF1uMltDSDJdW0NAQF0zKFtPSF0pW0NIMl1bQ0gyXU9bQ0BIXTNbQ0gzXQ==

> <s_epik_cmdline>
J2VwaWtfcHl0aG9uJywgJy1waCcsICc3LjAnLCAnLXRuJywgJzgnLCAnLW1hJywgJzIwMCcsICctbWV0YWxfYmluZGluZycsICctaW1hZScsICc8aW5maWxlLm1hZT4nLCAnLW9tYWUnLCAnPG91dGZpbGUubWFlPic=

> <r_lp_tautomer_probability>
1

> <r_epik_Ionization_Penalty>
0.000885317

> <r_epik_Ionization_Penalty_Charging>
0

> <r_epik_Ionization_Penalty_Neutral>
0.000885317

> <r_epik_State_Penalty>
0.00047273

> <r_epik_Charging_Adjusted_Penalty>
0.00047273

> <i_epik_Tot_Q>
0

> <i_epik_Tot_abs_Q>
0

> <r_epik_Metal_State_Penalty>
-0

> <b_epik_Metal_Only>
0

> <s_lp_Force_Field>
OPLS_2005

> <r_lp_Energy>
31.3349

> <b_lp_Chiralities_Consistent>
1

> <s_lp_Variant>
AV-unprocessed.smi:178-4

> <Gold.Version>
5.8.1

> <Gold.Id.Protein>
6NUR|6NUR_protein|mol2

> <Gold.PLP.Fitness>
43.4060

> <Gold.PLP.PLP>
-38.4357

> <Gold.PLP.part.hbond>
-4.0674

> <Gold.PLP.part.metal>
0.0000

> <Gold.PLP.part.buried>
-5.2238

> <Gold.PLP.part.nonpolar>
-29.6827

> <Gold.PLP.part.repulsive>
0.1940

> <Gold.PLP.ligand.clash>
0.0000

> <Gold.PLP.ligand.torsion>
1.5937

> <Gold.PLP.Chemscore.Hbond>
2.5868

> <Gold.PLP.Chemscore.CHOScore>
0.0000

> <Gold.PLP.Chemscore.Metal>
0.0000

> <Gold.Chemscore.Hbonds>
donor molecule, donor type, donor heavy atom, donor atom, acceptor molecule, acceptor atom, score
      P1  H  6896  6909       L1    13  1.00
      P1  H  6931  6943       L1    21  0.60
      P1  H  8011  8017       L1     9  0.26

> <Gold.PLP.Chemscore.Internal.Correction>
0.3972

> <Gold.Rescore>
     Score         DG    S(hbond)    S(metal)    S(lipo)     H(rot)  DE(clash)    DE(int)     intcor
      8.65     -11.50       2.22        0.00      68.82       3.69       0.09       2.76       ----

> <Gold.Chemscore.Fitness>
8.6543

> <Gold.Chemscore.DG>
-11.5007

> <Gold.Chemscore.ZeroCoef>
-5.4800

> <Gold.Chemscore.Hbond>
2.2217

> <Gold.Chemscore.Metal>
0.0000

> <Gold.Chemscore.Lipo>
68.8249

> <Gold.Chemscore.Internal_Hbond>
0.0000

> <Gold.Chemscore.DEClash>
0.0884

> <Gold.Chemscore.DEInternal>
2.7580

> <Gold.Chemscore.Rot>
3.6923

> <Gold.Chemscore.Internal.Correction>
   9.000000E+99

> <Gold.Chemscore.Hbonds>
donor molecule, donor type, donor heavy atom, donor atom, acceptor molecule, acceptor atom, score
      P1  H  6896  6909       L1    13  0.87
      P1  H  6931  6943       L1    21  0.36
      P1  H  8011  8017       L1     9  0.07

> <Gold.Chemscore.Hbond.Weighted>
-7.4206

> <Gold.Chemscore.Metal.Weighted>
-0.0000

> <Gold.Chemscore.Lipo.Weighted>
-8.0525

> <Gold.Chemscore.Internal_Hbond.Weighted>
0.0000

> <Gold.Chemscore.DEClash.Weighted>
0.0884

> <Gold.Chemscore.DEInternal.Weighted>
2.7580

> <Gold.Chemscore.Rot.Weighted>
9.4524

> <Gold.Chemscore.Internal.Correction.Weighted>
   9.000000E+99

> <Gold.Protein.RotatedTorsions>
[ 6907 6896 6895 6894 ] final   93.64 input  -60.11 | X-H torsion
[ 7974 7965 7964 7962 ] final  -62.11 input  175.53 | X-H torsion
[ 8008 7997 7996 7995 ] final   55.73 input   59.86 | X-H torsion
[ 10167 10162 10161 10158 ] final   68.40 input  -65.29 | X-H torsion
[ 10718 10713 10712 10709 ] final  -92.13 input   66.30 | X-H torsion
[ 10763 10752 10751 10750 ] final    1.16 input  -60.55 | X-H torsion
[ 11005 11000 10999 10996 ] final -148.69 input  -57.11 | X-H torsion

> <Gold.Protein.ActiveResidues>
 VAL166  LYS551  ARG553  GLY616  TRP617  ASP618  TYR619  PRO620  LYS621  CYS622 
 ASP623  PHE694  ASN695  SER759  ASP760  ASP761  ALA762  ILE779  LEU786  VAL792 
 PHE793  MET794  SER795  GLU796  ALA797  LYS798  CYS799  TRP800  GLU811  SER814 

> <Gold.Protein.RotatedAtoms>
  152.5452  134.1317  159.8441 H   0  0  0  0  0  0  0  0  0  0  0  0  # atno 6907 bound_to 6896
  151.1362  133.4996  159.2605 H   0  0  0  0  0  0  0  0  0  0  0  0  # atno 6908 bound_to 6896
  151.1622  135.0289  159.8770 H   0  0  0  0  0  0  0  0  0  0  0  0  # atno 6909 bound_to 6896
  145.7953  140.8686  143.0259 H   0  0  0  0  0  0  0  0  0  0  0  0  # atno 7974 bound_to 7965
  155.5059  140.3476  155.4379 H   0  0  0  0  0  0  0  0  0  0  0  0  # atno 8008 bound_to 7997
  156.0882  140.1404  156.9654 H   0  0  0  0  0  0  0  0  0  0  0  0  # atno 8009 bound_to 7997
  154.4619  140.0932  156.6893 H   0  0  0  0  0  0  0  0  0  0  0  0  # atno 8010 bound_to 7997
  140.0791  144.5086  150.7174 H   0  0  0  0  0  0  0  0  0  0  0  0  # atno 10167 bound_to 10162
  155.9999  130.4975  150.5578 H   0  0  0  0  0  0  0  0  0  0  0  0  # atno 10718 bound_to 10713
  153.3115  135.6963  153.7111 H   0  0  0  0  0  0  0  0  0  0  0  0  # atno 10763 bound_to 10752
  153.5987  135.3466  155.2938 H   0  0  0  0  0  0  0  0  0  0  0  0  # atno 10764 bound_to 10752
  154.8576  135.4335  154.2254 H   0  0  0  0  0  0  0  0  0  0  0  0  # atno 10765 bound_to 10752
  140.7586  134.3324  157.5107 H   0  0  0  0  0  0  0  0  0  0  0  0  # atno 11005 bound_to 11000
  144.6776  140.0182  143.7484 LP  0  0  0  0  0  0  0  0  0  0  0  0  # atno 17320 bound_to 7965
  145.9934  139.3033  143.0971 LP  0  0  0  0  0  0  0  0  0  0  0  0  # atno 17321 bound_to 7965
  140.7087  143.2488  151.4648 LP  0  0  0  0  0  0  0  0  0  0  0  0  # atno 17342 bound_to 10162
  139.5790  144.1753  152.1943 LP  0  0  0  0  0  0  0  0  0  0  0  0  # atno 17343 bound_to 10162
  157.3492  131.0730  151.1727 LP  0  0  0  0  0  0  0  0  0  0  0  0  # atno 17370 bound_to 10713
  157.2549  130.6631  149.5948 LP  0  0  0  0  0  0  0  0  0  0  0  0  # atno 17371 bound_to 10713
  139.8775  134.9187  156.3210 LP  0  0  0  0  0  0  0  0  0  0  0  0  # atno 17394 bound_to 11000
  140.9684  133.7343  156.0500 LP  0  0  0  0  0  0  0  0  0  0  0  0  # atno 17395 bound_to 11000

$$$$
