AV-unprocessed.smi:625|AV-procd|sdf|3107|dock1
  -GOLD-   22720 0 33D 1   1.00000     0.00000
 Structure written by MMmdl.
 49 51  0  0  0  0  0  0  0  0  1 V2000
  151.2454  136.0821  155.7214 C   0  0  0  0  0  0  0  0  0  0  0  0
  151.3686  134.6354  155.6249 N   0  0  0  0  0  0  0  0  0  0  0  0
  150.5416  133.8460  154.9196 C   0  0  0  0  0  0  0  0  0  0  0  0
  149.5902  134.3075  154.2872 O   0  0  0  0  0  0  0  0  0  0  0  0
  150.8841  132.4228  154.9832 C   0  0  0  0  0  0  0  0  0  0  0  0
  151.9854  131.9040  155.7811 C   0  0  0  0  0  0  0  0  0  0  0  0
  152.2609  130.5851  155.7938 C   0  0  0  0  0  0  0  0  0  0  0  0
  151.4732  129.6242  155.0168 C   0  0  0  0  0  0  0  0  0  0  0  0
  151.7235  128.4183  155.0221 O   0  0  0  0  0  0  0  0  0  0  0  0
  150.4440  130.1523  154.2860 N   0  0  0  0  0  0  0  0  0  0  0  0
  149.5875  129.2833  153.4621 C   0  0  0  0  0  0  0  0  0  0  0  0
  148.0986  129.6228  153.6060 C   0  0  0  0  0  0  0  0  0  0  0  0
  147.5908  129.7350  154.7224 O   0  0  0  0  0  0  0  0  0  0  0  0
  147.4168  129.7787  152.4608 N   0  0  0  0  0  0  0  0  0  0  0  0
  146.0188  130.1873  152.3444 C   0  0  2  0  0  0  0  0  0  0  0  0
  145.1629  128.9566  152.0070 C   0  0  0  0  0  0  0  0  0  0  0  0
  145.8899  131.2999  151.2772 C   0  0  1  0  0  0  0  0  0  0  0  0
  144.4476  131.7913  151.0200 C   0  0  0  0  0  0  0  0  0  0  0  0
  144.5832  133.3235  151.1041 C   0  0  1  0  0  0  0  0  0  0  0  0
  144.7589  133.7330  152.5778 C   0  0  0  0  0  0  0  0  0  0  0  0
  146.1935  133.2690  152.8878 C   0  0  0  0  0  0  0  0  0  0  0  0
  146.6409  132.6269  151.5582 C   0  0  2  0  0  0  0  0  0  0  0  0
  145.9819  133.5570  150.5448 C   0  0  0  0  0  0  0  0  0  0  0  0
  150.1629  131.5326  154.2737 C   0  0  0  0  0  0  0  0  0  0  0  0
  152.0323  136.4793  156.3623 H   0  0  0  0  0  0  0  0  0  0  0  0
  150.2825  136.3629  156.1497 H   0  0  0  0  0  0  0  0  0  0  0  0
  151.3391  136.5458  154.7387 H   0  0  0  0  0  0  0  0  0  0  0  0
  152.1325  134.2033  156.1239 H   0  0  0  0  0  0  0  0  0  0  0  0
  152.6048  132.5578  156.3773 H   0  0  0  0  0  0  0  0  0  0  0  0
  153.0840  130.2237  156.3926 H   0  0  0  0  0  0  0  0  0  0  0  0
  149.8875  129.3542  152.4144 H   0  0  0  0  0  0  0  0  0  0  0  0
  149.7233  128.2342  153.7278 H   0  0  0  0  0  0  0  0  0  0  0  0
  147.9219  129.6538  151.5955 H   0  0  0  0  0  0  0  0  0  0  0  0
  145.6609  130.5788  153.2974 H   0  0  0  0  0  0  0  0  0  0  0  0
  144.1062  129.2151  151.9373 H   0  0  0  0  0  0  0  0  0  0  0  0
  145.2604  128.1896  152.7760 H   0  0  0  0  0  0  0  0  0  0  0  0
  145.4599  128.5132  151.0559 H   0  0  0  0  0  0  0  0  0  0  0  0
  146.2830  130.9032  150.3391 H   0  0  0  0  0  0  0  0  0  0  0  0
  144.1098  131.4812  150.0305 H   0  0  0  0  0  0  0  0  0  0  0  0
  143.7294  131.4109  151.7474 H   0  0  0  0  0  0  0  0  0  0  0  0
  143.7844  133.8623  150.5935 H   0  0  0  0  0  0  0  0  0  0  0  0
  144.6724  134.8141  152.6953 H   0  0  0  0  0  0  0  0  0  0  0  0
  144.0202  133.2653  153.2296 H   0  0  0  0  0  0  0  0  0  0  0  0
  146.8248  134.1259  153.1261 H   0  0  0  0  0  0  0  0  0  0  0  0
  146.2413  132.5887  153.7368 H   0  0  0  0  0  0  0  0  0  0  0  0
  147.7238  132.5467  151.4577 H   0  0  0  0  0  0  0  0  0  0  0  0
  146.0959  133.2265  149.5110 H   0  0  0  0  0  0  0  0  0  0  0  0
  146.3140  134.5936  150.6267 H   0  0  0  0  0  0  0  0  0  0  0  0
  149.3302  131.8121  153.6433 H   0  0  0  0  0  0  0  0  0  0  0  0
  1  2  1  0  0  0  0
  1 25  1  0  0  0  0
  1 26  1  0  0  0  0
  1 27  1  0  0  0  0
  2  3  1  0  0  0  0
  2 28  1  0  0  0  0
  3  4  2  0  0  0  0
  3  5  1  0  0  0  0
  5 24  2  0  0  0  0
  5  6  1  0  0  0  0
  6  7  2  0  0  0  0
  6 29  1  0  0  0  0
  7  8  1  0  0  0  0
  7 30  1  0  0  0  0
  8  9  2  0  0  0  0
  8 10  1  0  0  0  0
 10 11  1  0  0  0  0
 10 24  1  0  0  0  0
 11 12  1  0  0  0  0
 11 31  1  0  0  0  0
 11 32  1  0  0  0  0
 12 13  2  0  0  0  0
 12 14  1  0  0  0  0
 14 15  1  0  0  0  0
 14 33  1  0  0  0  0
 15 16  1  0  0  0  0
 15 17  1  0  0  0  0
 15 34  1  0  0  0  0
 16 35  1  0  0  0  0
 16 36  1  0  0  0  0
 16 37  1  0  0  0  0
 17 22  1  0  0  0  0
 17 18  1  0  0  0  0
 17 38  1  0  0  0  0
 18 19  1  0  0  0  0
 18 39  1  0  0  0  0
 18 40  1  0  0  0  0
 19 23  1  0  0  0  0
 19 20  1  0  0  0  0
 19 41  1  0  0  0  0
 20 21  1  0  0  0  0
 20 42  1  0  0  0  0
 20 43  1  0  0  0  0
 21 22  1  0  0  0  0
 21 44  1  0  0  0  0
 21 45  1  0  0  0  0
 22 23  1  0  0  0  0
 22 46  1  0  0  0  0
 23 47  1  0  0  0  0
 23 48  1  0  0  0  0
 24 49  1  0  0  0  0
M  END
> <s_m_source_file>
AV-unprocessed.smi

> <i_m_source_file_index>
625

> <i_lp_mmshare_version>
43012

> <i_f3d_flags>
0

> <s_epik_input>
W0NIM11bTkhdQyg9TyljMVtjSF1bY0hdYyg9TyluKFtjSF0xKVtDSDJdQyg9TylbTkhdW0NASF0oW0NIM10pW0NASF0oW0NIMl1bQ0BIXTIzKVtDQEhdKFtDSDJdMylbQ0gyXVtDSDJdMg==

> <s_epik_cmdline>
J2VwaWtfcHl0aG9uJywgJy1waCcsICc3LjAnLCAnLXRuJywgJzgnLCAnLW1hJywgJzIwMCcsICctbWV0YWxfYmluZGluZycsICctaW1hZScsICc8aW5maWxlLm1hZT4nLCAnLW9tYWUnLCAnPG91dGZpbGUubWFlPic=

> <r_lp_tautomer_probability>
1

> <r_epik_Ionization_Penalty>
3.7129e-07

> <r_epik_Ionization_Penalty_Charging>
5.04114e-08

> <r_epik_Ionization_Penalty_Neutral>
3.20879e-07

> <r_epik_State_Penalty>
-0

> <r_epik_Charging_Adjusted_Penalty>
5.04114e-08

> <i_epik_Tot_Q>
0

> <i_epik_Tot_abs_Q>
0

> <r_epik_Metal_State_Penalty>
-0

> <b_epik_Metal_Only>
0

> <s_lp_Force_Field>
OPLS_2005

> <r_lp_Energy>
63.4891

> <b_lp_Chiralities_Consistent>
1

> <s_lp_Variant>
AV-unprocessed.smi:625-7

> <Gold.Version>
5.8.1

> <Gold.Id.Protein>
6NUR|6NUR_protein|mol2

> <Gold.PLP.Fitness>
42.6157

> <Gold.PLP.PLP>
-40.7533

> <Gold.PLP.part.hbond>
-1.0000

> <Gold.PLP.part.metal>
0.0000

> <Gold.PLP.part.buried>
-5.8600

> <Gold.PLP.part.nonpolar>
-34.0917

> <Gold.PLP.part.repulsive>
1.3869

> <Gold.PLP.ligand.clash>
0.0000

> <Gold.PLP.ligand.torsion>
0.4833

> <Gold.PLP.Chemscore.Hbond>
0.9120

> <Gold.PLP.Chemscore.CHOScore>
0.0000

> <Gold.PLP.Chemscore.Metal>
0.0000

> <Gold.Chemscore.Hbonds>
donor molecule, donor type, donor heavy atom, donor atom, acceptor molecule, acceptor atom, score
      L1  H    14    33       P1 10747  0.75

> <Gold.PLP.Chemscore.Internal.Correction>
0.0931

> <Gold.Rescore>
     Score         DG    S(hbond)    S(metal)    S(lipo)     H(rot)  DE(clash)    DE(int)     intcor
     14.59     -15.07       0.90        0.00      92.97       1.67       0.02       0.45       ----

> <Gold.Chemscore.Fitness>
14.5931

> <Gold.Chemscore.DG>
-15.0724

> <Gold.Chemscore.ZeroCoef>
-5.4800

> <Gold.Chemscore.Hbond>
0.8958

> <Gold.Chemscore.Metal>
0.0000

> <Gold.Chemscore.Lipo>
92.9714

> <Gold.Chemscore.Internal_Hbond>
0.0000

> <Gold.Chemscore.DEClash>
0.0243

> <Gold.Chemscore.DEInternal>
0.4550

> <Gold.Chemscore.Rot>
1.6709

> <Gold.Chemscore.Internal.Correction>
   9.000000E+99

> <Gold.Chemscore.Hbonds>
donor molecule, donor type, donor heavy atom, donor atom, acceptor molecule, acceptor atom, score
      L1  H    14    33       P1 10747  0.61

> <Gold.Chemscore.Hbond.Weighted>
-2.9921

> <Gold.Chemscore.Metal.Weighted>
-0.0000

> <Gold.Chemscore.Lipo.Weighted>
-10.8777

> <Gold.Chemscore.Internal_Hbond.Weighted>
0.0000

> <Gold.Chemscore.DEClash.Weighted>
0.0243

> <Gold.Chemscore.DEInternal.Weighted>
0.4550

> <Gold.Chemscore.Rot.Weighted>
4.2774

> <Gold.Chemscore.Internal.Correction.Weighted>
   9.000000E+99

> <Gold.Protein.RotatedTorsions>
[ 6907 6896 6895 6894 ] final  120.51 input  -60.11 | X-H torsion
[ 7974 7965 7964 7962 ] final   32.63 input  175.53 | X-H torsion
[ 8008 7997 7996 7995 ] final  168.10 input   59.86 | X-H torsion
[ 10167 10162 10161 10158 ] final   24.75 input  -65.29 | X-H torsion
[ 10718 10713 10712 10709 ] final  128.33 input   66.30 | X-H torsion
[ 10763 10752 10751 10750 ] final -158.54 input  -60.55 | X-H torsion
[ 11005 11000 10999 10996 ] final  112.81 input  -57.11 | X-H torsion

> <Gold.Protein.ActiveResidues>
 VAL166  LYS551  ARG553  GLY616  TRP617  ASP618  TYR619  PRO620  LYS621  CYS622 
 ASP623  PHE694  ASN695  SER759  ASP760  ASP761  ALA762  ILE779  LEU786  VAL792 
 PHE793  MET794  SER795  GLU796  ALA797  LYS798  CYS799  TRP800  GLU811  SER814 

> <Gold.Protein.RotatedAtoms>
  152.4392  133.7417  159.6644 H   0  0  0  0  0  0  0  0  0  0  0  0  # atno 6907 bound_to 6896
  150.8280  133.8128  159.3116 H   0  0  0  0  0  0  0  0  0  0  0  0  # atno 6908 bound_to 6896
  151.5791  135.1061  160.0064 H   0  0  0  0  0  0  0  0  0  0  0  0  # atno 6909 bound_to 6896
  146.1474  139.6501  142.9122 H   0  0  0  0  0  0  0  0  0  0  0  0  # atno 7974 bound_to 7965
  156.1576  140.1599  156.8666 H   0  0  0  0  0  0  0  0  0  0  0  0  # atno 8008 bound_to 7997
  154.5130  140.0796  156.8063 H   0  0  0  0  0  0  0  0  0  0  0  0  # atno 8009 bound_to 7997
  155.3771  140.3403  155.4247 H   0  0  0  0  0  0  0  0  0  0  0  0  # atno 8010 bound_to 7997
  140.5163  144.0078  150.6395 H   0  0  0  0  0  0  0  0  0  0  0  0  # atno 10167 bound_to 10162
  157.5254  131.1098  150.9090 H   0  0  0  0  0  0  0  0  0  0  0  0  # atno 10718 bound_to 10713
  154.7548  135.3102  154.8490 H   0  0  0  0  0  0  0  0  0  0  0  0  # atno 10763 bound_to 10752
  153.9267  135.6789  153.4750 H   0  0  0  0  0  0  0  0  0  0  0  0  # atno 10764 bound_to 10752
  153.1145  135.4851  154.9021 H   0  0  0  0  0  0  0  0  0  0  0  0  # atno 10765 bound_to 10752
  139.8937  134.9537  156.6643 H   0  0  0  0  0  0  0  0  0  0  0  0  # atno 11005 bound_to 11000
  145.4905  141.0438  143.2595 LP  0  0  0  0  0  0  0  0  0  0  0  0  # atno 17320 bound_to 7965
  144.7862  139.6421  143.7133 LP  0  0  0  0  0  0  0  0  0  0  0  0  # atno 17321 bound_to 7965
  140.3414  143.3017  152.0584 LP  0  0  0  0  0  0  0  0  0  0  0  0  # atno 17342 bound_to 10162
  139.4910  144.6440  151.6818 LP  0  0  0  0  0  0  0  0  0  0  0  0  # atno 17343 bound_to 10162
  156.9688  130.5483  149.5289 LP  0  0  0  0  0  0  0  0  0  0  0  0  # atno 17370 bound_to 10713
  156.0383  130.5468  150.8709 LP  0  0  0  0  0  0  0  0  0  0  0  0  # atno 17371 bound_to 10713
  140.7423  133.8967  155.8287 LP  0  0  0  0  0  0  0  0  0  0  0  0  # atno 17394 bound_to 11000
  141.0068  134.1075  157.4262 LP  0  0  0  0  0  0  0  0  0  0  0  0  # atno 17395 bound_to 11000

$$$$
