#       Name:                AV-unprocessed.smi:390
#       Creating user name   scv26
#       Creation time:       Thu Mar 26 22:41:58 2020


#       File generated by GOLD software.
#

@<TRIPOS>MOLECULE
AV-unprocessed.smi:390
    40    41     1
SMALL
NO_CHARGES


@<TRIPOS>ATOM
      1 ****        -3.2981  -4.0419   0.0588 N.1            1 S1                 0.0000
      2 ****        -2.7073  -3.0512   0.1523 C.1            1 S1                 0.0000
      3 ****        -2.0066  -1.8157   0.2705 C.2            1 S1                 0.0000
      4 ****        -2.6561  -0.6331   0.3322 C.2            1 S1                 0.0000
      5 ****        -2.0011   0.5755   0.4522 N.am           1 S1                 0.0000
      6 ****        -2.7074   1.8212   0.3524 C.3            1 S1                 0.0000
      7 ****        -2.5674   2.8702   1.4383 C.3            1 S1                 0.0000
      8 ****        -3.8536   2.0923   1.3022 C.3            1 S1                 0.0000
      9 ****        -0.5899   0.6241   0.4364 C.2            1 S1                 0.0000
     10 ****         0.0147   1.6998   0.4355 O.2            1 S1                 0.0000
     11 ****         0.0928  -0.6163   0.4019 N.am           1 S1                 0.0000
     12 ****         1.5494  -0.5909   0.3935 C.3            1 S1                 0.0000
     13 ****         2.1774  -0.5264  -1.0081 C.2            1 S1                 0.0000
     14 ****         1.4611  -0.4399  -2.0092 O.2            1 S1                 0.0000
     15 ****         3.5249  -0.5716  -1.0248 N.am           1 S1                 0.0000
     16 ****         4.3324  -0.5320  -2.1023 C.2            1 S1                 0.0000
     17 ****         5.6192  -0.6008  -1.7564 N.am           1 S1                 0.0000
     18 ****         3.9739  -0.4439  -3.2768 O.2            1 S1                 0.0000
     19 ****        -0.5474  -1.8791   0.3133 C.2            1 S1                 0.0000
     20 ****         0.0924  -2.9313   0.2597 O.2            1 S1                 0.0000
     21 ****        -3.7358  -0.6299   0.2894 H              1 S1                 0.0000
     22 ****        -2.8307   2.2032  -0.6595 H              1 S1                 0.0000
     23 ****        -1.9381   2.6427   2.2968 H              1 S1                 0.0000
     24 ****        -2.5750   3.9139   1.1306 H              1 S1                 0.0000
     25 ****        -4.7197   2.6184   0.9061 H              1 S1                 0.0000
     26 ****        -4.0700   1.3517   2.0699 H              1 S1                 0.0000
     27 ****         1.8739   0.2573   0.9985 H              1 S1                 0.0000
     28 ****         1.9015  -1.4708   0.9344 H              1 S1                 0.0000
     29 ****         3.9777  -0.6437  -0.1259 H              1 S1                 0.0000
     30 ****         5.8844  -0.6717  -0.7852 H              1 S1                 0.0000
     31 ****         6.3277  -0.5812  -2.4758 H              1 S1                 0.0000
     32 ****        -3.8086  -4.8979  -0.0220 LP             1 S1                 0.0000
     33 ****        -0.4952   2.5600   0.4461 LP             1 S1                 0.0000
     34 ****         1.0146   1.7114   0.4241 LP             1 S1                 0.0000
     35 ****         0.4663  -0.4114  -1.9113 LP             1 S1                 0.0000
     36 ****         1.8754  -0.3983  -2.9184 LP             1 S1                 0.0000
     37 ****         3.0004  -0.3943  -3.5001 LP             1 S1                 0.0000
     38 ****         4.6562  -0.4219  -4.0076 LP             1 S1                 0.0000
     39 ****        -0.3877  -3.8050   0.1824 LP             1 S1                 0.0000
     40 ****         1.0917  -2.9111   0.2935 LP             1 S1                 0.0000
@<TRIPOS>BOND
    1    1    2 3     
    2    2    3 1     
    3    3   19 1     
    4    3    4 2     
    5    4    5 1     
    6    4   21 1     
    7    5    6 1     
    8    5    9 am    
    9    6    8 1     
   10    6    7 1     
   11    6   22 1     
   12    7    8 1     
   13    7   23 1     
   14    7   24 1     
   15    8   25 1     
   16    8   26 1     
   17    9   10 2     
   18    9   11 am    
   19   11   12 1     
   20   11   19 am    
   21   12   13 1     
   22   12   27 1     
   23   12   28 1     
   24   13   14 2     
   25   13   15 1     
   26   15   16 1     
   27   15   29 1     
   28   16   17 1     
   29   16   18 2     
   30   17   30 1     
   31   17   31 1     
   32   19   20 2     
   33    1   32 1     
   34   10   33 1     
   35   10   34 1     
   36   14   35 1     
   37   14   36 1     
   38   18   37 1     
   39   18   38 1     
   40   20   39 1     
   41   20   40 1     
@<TRIPOS>SUBSTRUCTURE
      1 S1             1
@<TRIPOS>SET
LONE_PAIRS      STATIC     ATOMS    <user>   **** ""
9 32 33 34 35 36 37 38 39 40
DONOR_HYDROGENS      STATIC     ATOMS    <user>   **** ""
3 29 30 31
ATOM$BLUE        STATIC     ATOMS    COLORGROUP SYSTEM
9 32 33 34 35 36 37 38 39 40
ATOM$RED        STATIC     ATOMS    COLORGROUP SYSTEM
3 29 30 31
