AV-unprocessed.smi:3215|AV-procd|sdf|12285|dock10
  -GOLD-   2272018123D 1   1.00000     0.00000
 Structure written by MMmdl.
 38 39  0  0  0  0  0  0  0  0  2 V2000
  146.6929  141.5666  153.8101 C   0  0  0  0  0  0  0  0  0  0  0  0
  148.0354  141.0097  154.1876 C   0  0  0  0  0  0  0  0  0  0  0  0
  149.1926  141.7242  154.6094 C   0  0  0  0  0  0  0  0  0  0  0  0
  150.2187  140.9310  154.8708 N   0  0  0  0  0  0  0  0  0  0  0  0
  149.7538  139.6864  154.6319 N   0  0  0  0  0  0  0  0  0  0  0  0
  150.6262  138.5393  154.8148 C   0  0  0  0  0  0  0  0  0  0  0  0
  152.0580  138.9404  155.2091 C   0  0  0  0  0  0  0  0  0  0  0  0
  152.2472  138.8929  156.6728 N   0  3  0  0  0  0  0  0  0  0  0  0
  151.8475  140.1270  157.3789 C   0  0  0  0  0  0  0  0  0  0  0  0
  152.7580  140.4309  158.5772 C   0  0  0  0  0  0  0  0  0  0  0  0
  153.6708  139.6534  158.8613 O   0  0  0  0  0  0  0  0  0  0  0  0
  152.5242  141.5527  159.2888 N   0  0  0  0  0  0  0  0  0  0  0  0
  153.3077  141.9437  160.4592 C   0  0  0  0  0  0  0  0  0  0  0  0
  152.5501  143.1103  161.0929 C   0  0  0  0  0  0  0  0  0  0  0  0
  151.7737  143.7208  159.9347 C   0  0  0  0  0  0  0  0  0  0  0  0
  151.4737  142.5339  159.0181 C   0  0  0  0  0  0  0  0  0  0  0  0
  148.4423  139.7058  154.2067 C   0  0  0  0  0  0  0  0  0  0  0  0
  146.6637  142.6527  153.9009 H   0  0  0  0  0  0  0  0  0  0  0  0
  145.9001  141.1703  154.4449 H   0  0  0  0  0  0  0  0  0  0  0  0
  146.4321  141.3235  152.7801 H   0  0  0  0  0  0  0  0  0  0  0  0
  149.3159  142.7900  154.7329 H   0  0  0  0  0  0  0  0  0  0  0  0
  150.1938  137.8880  155.5757 H   0  0  0  0  0  0  0  0  0  0  0  0
  150.6393  137.9688  153.8853 H   0  0  0  0  0  0  0  0  0  0  0  0
  152.7704  138.2639  154.7357 H   0  0  0  0  0  0  0  0  0  0  0  0
  152.2846  139.9438  154.8455 H   0  0  0  0  0  0  0  0  0  0  0  0
  151.6984  138.1282  157.0402 H   0  0  0  0  0  0  0  0  0  0  0  0
  151.8792  140.9621  156.6781 H   0  0  0  0  0  0  0  0  0  0  0  0
  150.8189  140.0218  157.7267 H   0  0  0  0  0  0  0  0  0  0  0  0
  153.4315  141.1214  161.1657 H   0  0  0  0  0  0  0  0  0  0  0  0
  154.2986  142.2627  160.1326 H   0  0  0  0  0  0  0  0  0  0  0  0
  151.8515  142.7298  161.8393 H   0  0  0  0  0  0  0  0  0  0  0  0
  153.2090  143.8253  161.5864 H   0  0  0  0  0  0  0  0  0  0  0  0
  150.8739  144.2452  160.2577 H   0  0  0  0  0  0  0  0  0  0  0  0
  152.4079  144.4367  159.4101 H   0  0  0  0  0  0  0  0  0  0  0  0
  151.4514  142.8456  157.9731 H   0  0  0  0  0  0  0  0  0  0  0  0
  150.5052  142.0970  159.2661 H   0  0  0  0  0  0  0  0  0  0  0  0
  147.9088  138.7994  153.9598 H   0  0  0  0  0  0  0  0  0  0  0  0
  153.2208  138.7120  156.8717 H   0  0  0  0  0  0  0  0  0  0  0  0
  1  2  1  0  0  0  0
  1 18  1  0  0  0  0
  1 19  1  0  0  0  0
  1 20  1  0  0  0  0
  2 17  2  0  0  0  0
  2  3  1  0  0  0  0
  3  4  2  0  0  0  0
  3 21  1  0  0  0  0
  4  5  1  0  0  0  0
  5  6  1  0  0  0  0
  5 17  1  0  0  0  0
  6  7  1  0  0  0  0
  6 22  1  0  0  0  0
  6 23  1  0  0  0  0
  7  8  1  0  0  0  0
  7 24  1  0  0  0  0
  7 25  1  0  0  0  0
  8  9  1  0  0  0  0
  8 26  1  0  0  0  0
  8 38  1  0  0  0  0
  9 10  1  0  0  0  0
  9 27  1  0  0  0  0
  9 28  1  0  0  0  0
 10 11  2  0  0  0  0
 10 12  1  0  0  0  0
 12 16  1  0  0  0  0
 12 13  1  0  0  0  0
 13 14  1  0  0  0  0
 13 29  1  0  0  0  0
 13 30  1  0  0  0  0
 14 15  1  0  0  0  0
 14 31  1  0  0  0  0
 14 32  1  0  0  0  0
 15 16  1  0  0  0  0
 15 33  1  0  0  0  0
 15 34  1  0  0  0  0
 16 35  1  0  0  0  0
 16 36  1  0  0  0  0
 17 37  1  0  0  0  0
M  CHG  1   8   1
M  END
> <s_m_source_file>
AV-unprocessed.smi

> <i_m_source_file_index>
3215

> <i_lp_mmshare_version>
43012

> <i_f3d_flags>
0

> <s_epik_input>
W0NIM11jMVtjSF1ubihbY0hdMSlbQ0gyXVtDSDJdW05IXVtDSDJdQyg9TylOMltDSDJdW0NIMl1bQ0gyXVtDSDJdMg==

> <s_epik_cmdline>
J2VwaWtfcHl0aG9uJywgJy1waCcsICc3LjAnLCAnLXRuJywgJzgnLCAnLW1hJywgJzIwMCcsICctbWV0YWxfYmluZGluZycsICctaW1hZScsICc8aW5maWxlLm1hZT4nLCAnLW9tYWUnLCAnPG91dGZpbGUubWFlPic=

> <r_lp_tautomer_probability>
1

> <r_epik_Ionization_Penalty>
0.203173

> <r_epik_Ionization_Penalty_Charging>
0.203168

> <r_epik_Ionization_Penalty_Neutral>
4.79177e-06

> <r_epik_State_Penalty>
0.193773

> <r_epik_Charging_Adjusted_Penalty>
0.396942

> <i_epik_Tot_Q>
1

> <i_epik_Tot_abs_Q>
1

> <r_epik_Metal_State_Penalty>
0.194058

> <b_epik_Metal_Only>
0

> <s_lp_Force_Field>
OPLS_2005

> <r_lp_Energy>
25.9096

> <b_lp_Chiralities_Consistent>
1

> <s_lp_Variant>
AV-unprocessed.smi:3215-1

> <Gold.Version>
5.8.1

> <Gold.Id.Protein>
6NUR|6NUR_protein|mol2

> <Gold.PLP.Fitness>
45.2168

> <Gold.PLP.PLP>
-38.3366

> <Gold.PLP.part.hbond>
-2.0000

> <Gold.PLP.part.metal>
0.0000

> <Gold.PLP.part.buried>
-2.0750

> <Gold.PLP.part.nonpolar>
-34.2856

> <Gold.PLP.part.repulsive>
0.2257

> <Gold.PLP.ligand.clash>
0.0000

> <Gold.PLP.ligand.torsion>
0.6461

> <Gold.PLP.Chemscore.Hbond>
1.7144

> <Gold.PLP.Chemscore.CHOScore>
1.0000

> <Gold.PLP.Chemscore.Metal>
0.0000

> <Gold.Chemscore.Hbonds>
donor molecule, donor type, donor heavy atom, donor atom, acceptor molecule, acceptor atom, score
      P1  H  7989  7998       L1     4  0.59
      P1  H  7997  8009       L1    11  0.91
      L1  C     3    21       P1  8028  1.00

> <Gold.PLP.Chemscore.Internal.Correction>
0.0290

> <Gold.Rescore>
     Score         DG    S(hbond)    S(metal)    S(lipo)     H(rot)  DE(clash)    DE(int)     intcor
     14.81     -15.56       1.29        0.00      88.96       1.81       0.06       0.69       ----

> <Gold.Chemscore.Fitness>
14.8127

> <Gold.Chemscore.DG>
-15.5607

> <Gold.Chemscore.ZeroCoef>
-5.4800

> <Gold.Chemscore.Hbond>
1.2920

> <Gold.Chemscore.Metal>
0.0000

> <Gold.Chemscore.Lipo>
88.9627

> <Gold.Chemscore.Internal_Hbond>
0.0000

> <Gold.Chemscore.DEClash>
0.0593

> <Gold.Chemscore.DEInternal>
0.6886

> <Gold.Chemscore.Rot>
1.8137

> <Gold.Chemscore.Internal.Correction>
   9.000000E+99

> <Gold.Chemscore.Hbonds>
donor molecule, donor type, donor heavy atom, donor atom, acceptor molecule, acceptor atom, score
      P1  H  7989  7998       L1     4  0.08
      P1  H  7997  8009       L1    11  0.22

> <Gold.Chemscore.Hbond.Weighted>
-4.3152

> <Gold.Chemscore.Metal.Weighted>
-0.0000

> <Gold.Chemscore.Lipo.Weighted>
-10.4086

> <Gold.Chemscore.Internal_Hbond.Weighted>
0.0000

> <Gold.Chemscore.DEClash.Weighted>
0.0593

> <Gold.Chemscore.DEInternal.Weighted>
0.6886

> <Gold.Chemscore.Rot.Weighted>
4.6431

> <Gold.Chemscore.Internal.Correction.Weighted>
   9.000000E+99

> <Gold.Protein.RotatedTorsions>
[ 6907 6896 6895 6894 ] final   19.90 input  -60.11 | X-H torsion
[ 7974 7965 7964 7962 ] final   53.72 input  175.53 | X-H torsion
[ 8008 7997 7996 7995 ] final  127.56 input   59.86 | X-H torsion
[ 10167 10162 10161 10158 ] final  -21.09 input  -65.29 | X-H torsion
[ 10718 10713 10712 10709 ] final  141.55 input   66.30 | X-H torsion
[ 10763 10752 10751 10750 ] final  161.17 input  -60.55 | X-H torsion
[ 11005 11000 10999 10996 ] final   -7.62 input  -57.11 | X-H torsion

> <Gold.Protein.ActiveResidues>
 VAL166  LYS551  ARG553  GLY616  TRP617  ASP618  TYR619  PRO620  LYS621  CYS622 
 ASP623  PHE694  ASN695  SER759  ASP760  ASP761  ALA762  ILE779  LEU786  VAL792 
 PHE793  MET794  SER795  GLU796  ALA797  LYS798  CYS799  TRP800  GLU811  SER814 

> <Gold.Protein.RotatedAtoms>
  151.8880  135.0428  160.0494 H   0  0  0  0  0  0  0  0  0  0  0  0  # atno 6907 bound_to 6896
  152.2459  133.5170  159.5305 H   0  0  0  0  0  0  0  0  0  0  0  0  # atno 6908 bound_to 6896
  150.7068  134.0942  159.3985 H   0  0  0  0  0  0  0  0  0  0  0  0  # atno 6909 bound_to 6896
  145.9682  139.4124  143.0206 H   0  0  0  0  0  0  0  0  0  0  0  0  # atno 7974 bound_to 7965
  156.2894  140.2666  156.2294 H   0  0  0  0  0  0  0  0  0  0  0  0  # atno 8008 bound_to 7997
  155.0088  140.0387  157.2409 H   0  0  0  0  0  0  0  0  0  0  0  0  # atno 8009 bound_to 7997
  154.7536  140.2747  155.6277 H   0  0  0  0  0  0  0  0  0  0  0  0  # atno 8010 bound_to 7997
  140.7280  143.4661  151.0312 H   0  0  0  0  0  0  0  0  0  0  0  0  # atno 10167 bound_to 10162
  157.3907  131.1004  151.0649 H   0  0  0  0  0  0  0  0  0  0  0  0  # atno 10718 bound_to 10713
  154.2587  135.2769  155.2787 H   0  0  0  0  0  0  0  0  0  0  0  0  # atno 10763 bound_to 10752
  154.5402  135.5704  153.6836 H   0  0  0  0  0  0  0  0  0  0  0  0  # atno 10764 bound_to 10752
  152.9966  135.6249  154.2737 H   0  0  0  0  0  0  0  0  0  0  0  0  # atno 10765 bound_to 10752
  140.7147  133.8879  155.8776 H   0  0  0  0  0  0  0  0  0  0  0  0  # atno 11005 bound_to 11000
  145.7943  140.9800  143.1032 LP  0  0  0  0  0  0  0  0  0  0  0  0  # atno 17320 bound_to 7965
  144.6830  139.9722  143.7482 LP  0  0  0  0  0  0  0  0  0  0  0  0  # atno 17321 bound_to 7965
  139.8349  143.7641  152.3180 LP  0  0  0  0  0  0  0  0  0  0  0  0  # atno 17342 bound_to 10162
  139.7770  144.7457  151.0143 LP  0  0  0  0  0  0  0  0  0  0  0  0  # atno 17343 bound_to 10162
  157.1684  130.6256  149.5632 LP  0  0  0  0  0  0  0  0  0  0  0  0  # atno 17370 bound_to 10713
  155.9797  130.4793  150.6734 LP  0  0  0  0  0  0  0  0  0  0  0  0  # atno 17371 bound_to 10713
  141.0054  134.1093  157.4275 LP  0  0  0  0  0  0  0  0  0  0  0  0  # atno 17394 bound_to 11000
  139.8863  135.0080  156.6488 LP  0  0  0  0  0  0  0  0  0  0  0  0  # atno 17395 bound_to 11000

$$$$
