AV-unprocessed.smi:3084|AV-procd|sdf|11749|dock2
  -GOLD-   2272017143D 1   1.00000     0.00000
 Structure written by MMmdl.
 27 28  0  0  0  0  0  0  0  0  2 V2000
  152.3609  139.3192  155.3153 C   0  0  0  0  0  0  0  0  0  0  0  0
  152.9555  139.2748  156.5446 N   0  0  0  0  0  0  0  0  0  0  0  0
  152.1807  140.1296  157.1972 C   0  0  0  0  0  0  0  0  0  0  0  0
  151.1997  140.6431  156.4529 N   0  0  0  0  0  0  0  0  0  0  0  0
  150.1671  141.6075  156.7849 C   0  0  0  0  0  0  0  0  0  0  0  0
  150.5024  142.4477  158.0343 C   0  0  1  0  0  0  0  0  0  0  0  0
  151.9169  143.0698  157.9840 C   0  0  0  0  0  0  0  0  0  0  0  0
  152.1903  143.9432  159.2184 C   0  0  0  0  0  0  0  0  0  0  0  0
  151.0889  145.0002  159.3810 C   0  0  0  0  0  0  0  0  0  0  0  0
  149.7025  144.3379  159.4197 C   0  0  0  0  0  0  0  0  0  0  0  0
  149.4842  143.5093  158.2138 N   0  3  0  0  0  0  0  0  0  0  0  0
  151.3071  140.1285  155.2054 N   0  0  0  0  0  0  0  0  0  0  0  0
  152.7166  138.7399  154.4758 H   0  0  0  0  0  0  0  0  0  0  0  0
  152.3306  140.3836  158.2364 H   0  0  0  0  0  0  0  0  0  0  0  0
  150.0183  142.2588  155.9224 H   0  0  0  0  0  0  0  0  0  0  0  0
  149.2321  141.0649  156.9318 H   0  0  0  0  0  0  0  0  0  0  0  0
  150.4433  141.7968  158.9083 H   0  0  0  0  0  0  0  0  0  0  0  0
  152.6761  142.2892  157.9247 H   0  0  0  0  0  0  0  0  0  0  0  0
  152.0232  143.6723  157.0808 H   0  0  0  0  0  0  0  0  0  0  0  0
  152.2320  143.3161  160.1100 H   0  0  0  0  0  0  0  0  0  0  0  0
  153.1646  144.4251  159.1306 H   0  0  0  0  0  0  0  0  0  0  0  0
  151.2541  145.5762  160.2922 H   0  0  0  0  0  0  0  0  0  0  0  0
  151.1355  145.7092  158.5533 H   0  0  0  0  0  0  0  0  0  0  0  0
  149.6044  143.7129  160.3084 H   0  0  0  0  0  0  0  0  0  0  0  0
  148.9222  145.0971  159.4758 H   0  0  0  0  0  0  0  0  0  0  0  0
  149.5028  144.1116  157.4035 H   0  0  0  0  0  0  0  0  0  0  0  0
  148.5729  143.0781  158.2780 H   0  0  0  0  0  0  0  0  0  0  0  0
  1 12  2  0  0  0  0
  1  2  1  0  0  0  0
  1 13  1  0  0  0  0
  2  3  2  0  0  0  0
  3  4  1  0  0  0  0
  3 14  1  0  0  0  0
  4  5  1  0  0  0  0
  4 12  1  0  0  0  0
  5  6  1  0  0  0  0
  5 15  1  0  0  0  0
  5 16  1  0  0  0  0
  6 11  1  0  0  0  0
  6  7  1  0  0  0  0
  6 17  1  0  0  0  0
  7  8  1  0  0  0  0
  7 18  1  0  0  0  0
  7 19  1  0  0  0  0
  8  9  1  0  0  0  0
  8 20  1  0  0  0  0
  8 21  1  0  0  0  0
  9 10  1  0  0  0  0
  9 22  1  0  0  0  0
  9 23  1  0  0  0  0
 10 11  1  0  0  0  0
 10 24  1  0  0  0  0
 10 25  1  0  0  0  0
 11 26  1  0  0  0  0
 11 27  1  0  0  0  0
M  CHG  1  11   1
M  END
> <s_m_source_file>
AV-unprocessed.smi

> <i_m_source_file_index>
3084

> <i_lp_mmshare_version>
43012

> <i_f3d_flags>
0

> <s_epik_input>
bjFbY0hdbltjSF1uMVtDSDJdW0NAQEhdMltDSDJdW0NIMl1bQ0gyXVtDSDJdW05IXTI=

> <s_epik_cmdline>
J2VwaWtfcHl0aG9uJywgJy1waCcsICc3LjAnLCAnLXRuJywgJzgnLCAnLW1hJywgJzIwMCcsICctbWV0YWxfYmluZGluZycsICctaW1hZScsICc8aW5maWxlLm1hZT4nLCAnLW9tYWUnLCAnPG91dGZpbGUubWFlPic=

> <r_lp_tautomer_probability>
1

> <r_epik_Ionization_Penalty>
0.000475214

> <r_epik_Ionization_Penalty_Charging>
0.000474443

> <r_epik_Ionization_Penalty_Neutral>
7.70992e-07

> <r_epik_State_Penalty>
0.000294136

> <r_epik_Charging_Adjusted_Penalty>
0.000768579

> <i_epik_Tot_Q>
1

> <i_epik_Tot_abs_Q>
1

> <r_epik_Metal_State_Penalty>
-0

> <b_epik_Metal_Only>
0

> <s_lp_Force_Field>
OPLS_2005

> <r_lp_Energy>
15.8084

> <b_lp_Chiralities_Consistent>
1

> <s_lp_Variant>
AV-unprocessed.smi:3084-2

> <Gold.Version>
5.8.1

> <Gold.Id.Protein>
6NUR|6NUR_protein|mol2

> <Gold.PLP.Fitness>
38.4632

> <Gold.PLP.PLP>
-27.1084

> <Gold.PLP.part.hbond>
-3.9468

> <Gold.PLP.part.metal>
0.0000

> <Gold.PLP.part.buried>
-3.1497

> <Gold.PLP.part.nonpolar>
-20.5457

> <Gold.PLP.part.repulsive>
0.0863

> <Gold.PLP.ligand.clash>
0.0000

> <Gold.PLP.ligand.torsion>
0.3250

> <Gold.PLP.Chemscore.Hbond>
4.0000

> <Gold.PLP.Chemscore.CHOScore>
0.0000

> <Gold.PLP.Chemscore.Metal>
0.0000

> <Gold.Chemscore.Hbonds>
donor molecule, donor type, donor heavy atom, donor atom, acceptor molecule, acceptor atom, score
      L1  H    11    26       P1  8028  2.00
      P1  H  7989  7998       L1    12  1.00
      P1  H  7997  8010       L1     2  1.00

> <Gold.PLP.Chemscore.Internal.Correction>
0.0048

> <Gold.Rescore>
     Score         DG    S(hbond)    S(metal)    S(lipo)     H(rot)  DE(clash)    DE(int)     intcor
     12.95     -13.59       1.88        0.00      48.64       1.51       0.28       0.35       ----

> <Gold.Chemscore.Fitness>
12.9533

> <Gold.Chemscore.DG>
-13.5862

> <Gold.Chemscore.ZeroCoef>
-5.4800

> <Gold.Chemscore.Hbond>
1.8780

> <Gold.Chemscore.Metal>
0.0000

> <Gold.Chemscore.Lipo>
48.6386

> <Gold.Chemscore.Internal_Hbond>
0.0000

> <Gold.Chemscore.DEClash>
0.2796

> <Gold.Chemscore.DEInternal>
0.3533

> <Gold.Chemscore.Rot>
1.5066

> <Gold.Chemscore.Internal.Correction>
   9.000000E+99

> <Gold.Chemscore.Hbonds>
donor molecule, donor type, donor heavy atom, donor atom, acceptor molecule, acceptor atom, score
      L1  H    11    26       P1  8028  0.25
      P1  H  7989  7998       L1    12  0.25
      P1  H  7997  8010       L1     2  0.13

> <Gold.Chemscore.Hbond.Weighted>
-6.2724

> <Gold.Chemscore.Metal.Weighted>
-0.0000

> <Gold.Chemscore.Lipo.Weighted>
-5.6907

> <Gold.Chemscore.Internal_Hbond.Weighted>
0.0000

> <Gold.Chemscore.DEClash.Weighted>
0.2796

> <Gold.Chemscore.DEInternal.Weighted>
0.3533

> <Gold.Chemscore.Rot.Weighted>
3.8569

> <Gold.Chemscore.Internal.Correction.Weighted>
   9.000000E+99

> <Gold.Protein.RotatedTorsions>
[ 6907 6896 6895 6894 ] final  -41.37 input  -60.11 | X-H torsion
[ 7974 7965 7964 7962 ] final  116.68 input  175.53 | X-H torsion
[ 8008 7997 7996 7995 ] final   84.98 input   59.86 | X-H torsion
[ 10167 10162 10161 10158 ] final -155.88 input  -65.29 | X-H torsion
[ 10718 10713 10712 10709 ] final -111.35 input   66.30 | X-H torsion
[ 10763 10752 10751 10750 ] final  -22.04 input  -60.55 | X-H torsion
[ 11005 11000 10999 10996 ] final  -16.91 input  -57.11 | X-H torsion

> <Gold.Protein.ActiveResidues>
 VAL166  LYS551  ARG553  GLY616  TRP617  ASP618  TYR619  PRO620  LYS621  CYS622 
 ASP623  PHE694  ASN695  SER759  ASP760  ASP761  ALA762  ILE779  LEU786  VAL792 
 PHE793  MET794  SER795  GLU796  ALA797  LYS798  CYS799  TRP800  GLU811  SER814 

> <Gold.Protein.RotatedAtoms>
  150.9675  134.9053  159.7767 H   0  0  0  0  0  0  0  0  0  0  0  0  # atno 6907 bound_to 6896
  152.5178  134.3587  159.9287 H   0  0  0  0  0  0  0  0  0  0  0  0  # atno 6908 bound_to 6896
  151.3597  133.3853  159.2723 H   0  0  0  0  0  0  0  0  0  0  0  0  # atno 6909 bound_to 6896
  145.1767  139.3072  143.4439 H   0  0  0  0  0  0  0  0  0  0  0  0  # atno 7974 bound_to 7965
  155.9441  140.3406  155.6352 H   0  0  0  0  0  0  0  0  0  0  0  0  # atno 8008 bound_to 7997
  155.7003  140.0759  157.2431 H   0  0  0  0  0  0  0  0  0  0  0  0  # atno 8009 bound_to 7997
  154.4108  140.1641  156.2171 H   0  0  0  0  0  0  0  0  0  0  0  0  # atno 8010 bound_to 7997
  139.6895  143.9444  152.2378 H   0  0  0  0  0  0  0  0  0  0  0  0  # atno 10167 bound_to 10162
  156.0642  130.5863  150.8361 H   0  0  0  0  0  0  0  0  0  0  0  0  # atno 10718 bound_to 10713
  153.6456  135.6983  153.5226 H   0  0  0  0  0  0  0  0  0  0  0  0  # atno 10763 bound_to 10752
  153.2747  135.4204  155.1021 H   0  0  0  0  0  0  0  0  0  0  0  0  # atno 10764 bound_to 10752
  154.8489  135.3587  154.6000 H   0  0  0  0  0  0  0  0  0  0  0  0  # atno 10765 bound_to 10752
  140.8115  133.8137  155.9568 H   0  0  0  0  0  0  0  0  0  0  0  0  # atno 11005 bound_to 11000
  146.3460  140.1931  142.8589 LP  0  0  0  0  0  0  0  0  0  0  0  0  # atno 17320 bound_to 7965
  145.0178  140.8768  143.5185 LP  0  0  0  0  0  0  0  0  0  0  0  0  # atno 17321 bound_to 7965
  139.9256  144.6773  150.8415 LP  0  0  0  0  0  0  0  0  0  0  0  0  # atno 17342 bound_to 10162
  140.7678  143.3344  151.2341 LP  0  0  0  0  0  0  0  0  0  0  0  0  # atno 17343 bound_to 10162
  157.5672  131.0946  150.9472 LP  0  0  0  0  0  0  0  0  0  0  0  0  # atno 17370 bound_to 10713
  156.9696  130.5486  149.5290 LP  0  0  0  0  0  0  0  0  0  0  0  0  # atno 17371 bound_to 10713
  140.9192  134.2162  157.4937 LP  0  0  0  0  0  0  0  0  0  0  0  0  # atno 17394 bound_to 11000
  139.8714  134.9785  156.4999 LP  0  0  0  0  0  0  0  0  0  0  0  0  # atno 17395 bound_to 11000

$$$$
