AV-unprocessed.smi:2403|AV-procd|sdf|9509|dock6
  -GOLD-   2272013133D 1   1.00000     0.00000
 Structure written by MMmdl.
 47 49  0  0  0  0  0  0  0  0  1 V2000
  144.9639  135.9984  150.7923 C   0  0  0  0  0  0  0  0  0  0  0  0
  144.5609  134.5584  151.0559 C   0  0  0  0  0  0  0  0  0  0  0  0
  143.4815  133.9906  150.3477 C   0  0  0  0  0  0  0  0  0  0  0  0
  143.1276  132.6539  150.6133 C   0  0  0  0  0  0  0  0  0  0  0  0
  143.7658  131.8857  151.5198 N   0  0  0  0  0  0  0  0  0  0  0  0
  144.7997  132.4303  152.1954 C   0  0  0  0  0  0  0  0  0  0  0  0
  145.2512  133.7591  151.9985 C   0  0  0  0  0  0  0  0  0  0  0  0
  146.3267  134.3264  152.7364 N   0  0  0  0  0  0  0  0  0  0  0  0
  146.6181  134.1508  154.0360 C   0  0  0  0  0  0  0  0  0  0  0  0
  145.9800  133.4428  154.8149 O   0  0  0  0  0  0  0  0  0  0  0  0
  147.7326  134.8217  154.3775 N   0  0  0  0  0  0  0  0  0  0  0  0
  148.4055  134.8563  155.6900 C   0  0  0  0  0  0  0  0  0  0  0  0
  149.6978  135.7235  155.6901 C   0  0  0  0  0  0  0  0  0  0  0  0
  150.3800  135.8091  156.7123 O   0  0  0  0  0  0  0  0  0  0  0  0
  150.0245  136.3767  154.5630 N   0  0  0  0  0  0  0  0  0  0  0  0
  151.1979  137.2187  154.3932 C   0  0  0  0  0  0  0  0  0  0  0  0
  150.9468  138.6797  154.7007 C   0  0  0  0  0  0  0  0  0  0  0  0
  150.8583  139.6959  153.5869 C   0  0  0  0  0  0  0  0  0  0  0  0
  152.0388  139.7094  154.5286 C   0  0  0  0  0  0  0  0  0  0  0  0
  147.4146  135.4460  156.7234 C   0  0  0  0  0  0  0  0  0  0  0  0
  147.6445  134.6841  158.0270 C   0  0  0  0  0  0  0  0  0  0  0  0
  147.9547  133.2654  157.5695 C   0  0  0  0  0  0  0  0  0  0  0  0
  148.6792  133.4156  156.2257 C   0  0  0  0  0  0  0  0  0  0  0  0
  144.3539  136.4434  150.0057 H   0  0  0  0  0  0  0  0  0  0  0  0
  146.0068  136.0513  150.4789 H   0  0  0  0  0  0  0  0  0  0  0  0
  144.8425  136.5982  151.6944 H   0  0  0  0  0  0  0  0  0  0  0  0
  142.9323  134.5637  149.6149 H   0  0  0  0  0  0  0  0  0  0  0  0
  142.3058  132.1912  150.0872 H   0  0  0  0  0  0  0  0  0  0  0  0
  145.2546  131.7803  152.9270 H   0  0  0  0  0  0  0  0  0  0  0  0
  146.9967  134.8524  152.1947 H   0  0  0  0  0  0  0  0  0  0  0  0
  148.1760  135.3639  153.6509 H   0  0  0  0  0  0  0  0  0  0  0  0
  149.4220  136.2643  153.7607 H   0  0  0  0  0  0  0  0  0  0  0  0
  152.0031  136.8459  155.0283 H   0  0  0  0  0  0  0  0  0  0  0  0
  151.5456  137.1432  153.3616 H   0  0  0  0  0  0  0  0  0  0  0  0
  150.2630  138.8391  155.5327 H   0  0  0  0  0  0  0  0  0  0  0  0
  151.0313  139.3501  152.5698 H   0  0  0  0  0  0  0  0  0  0  0  0
  150.1239  140.4920  153.6907 H   0  0  0  0  0  0  0  0  0  0  0  0
  152.0903  140.5121  155.2613 H   0  0  0  0  0  0  0  0  0  0  0  0
  152.9968  139.3732  154.1369 H   0  0  0  0  0  0  0  0  0  0  0  0
  147.5235  136.5227  156.8639 H   0  0  0  0  0  0  0  0  0  0  0  0
  146.3850  135.2793  156.4018 H   0  0  0  0  0  0  0  0  0  0  0  0
  148.5027  135.0995  158.5566 H   0  0  0  0  0  0  0  0  0  0  0  0
  146.7860  134.7301  158.6977 H   0  0  0  0  0  0  0  0  0  0  0  0
  148.5432  132.7121  158.3021 H   0  0  0  0  0  0  0  0  0  0  0  0
  147.0213  132.7214  157.4193 H   0  0  0  0  0  0  0  0  0  0  0  0
  148.3316  132.6369  155.5462 H   0  0  0  0  0  0  0  0  0  0  0  0
  149.7456  133.2295  156.3616 H   0  0  0  0  0  0  0  0  0  0  0  0
  1  2  1  0  0  0  0
  1 24  1  0  0  0  0
  1 25  1  0  0  0  0
  1 26  1  0  0  0  0
  2  7  1  0  0  0  0
  2  3  2  0  0  0  0
  3  4  1  0  0  0  0
  3 27  1  0  0  0  0
  4  5  2  0  0  0  0
  4 28  1  0  0  0  0
  5  6  1  0  0  0  0
  6  7  2  0  0  0  0
  6 29  1  0  0  0  0
  7  8  1  0  0  0  0
  8  9  1  0  0  0  0
  8 30  1  0  0  0  0
  9 10  2  0  0  0  0
  9 11  1  0  0  0  0
 11 12  1  0  0  0  0
 11 31  1  0  0  0  0
 12 23  1  0  0  0  0
 12 13  1  0  0  0  0
 12 20  1  0  0  0  0
 13 14  2  0  0  0  0
 13 15  1  0  0  0  0
 15 16  1  0  0  0  0
 15 32  1  0  0  0  0
 16 17  1  0  0  0  0
 16 33  1  0  0  0  0
 16 34  1  0  0  0  0
 17 19  1  0  0  0  0
 17 18  1  0  0  0  0
 17 35  1  0  0  0  0
 18 19  1  0  0  0  0
 18 36  1  0  0  0  0
 18 37  1  0  0  0  0
 19 38  1  0  0  0  0
 19 39  1  0  0  0  0
 20 21  1  0  0  0  0
 20 40  1  0  0  0  0
 20 41  1  0  0  0  0
 21 22  1  0  0  0  0
 21 42  1  0  0  0  0
 21 43  1  0  0  0  0
 22 23  1  0  0  0  0
 22 44  1  0  0  0  0
 22 45  1  0  0  0  0
 23 46  1  0  0  0  0
 23 47  1  0  0  0  0
M  END
> <s_m_source_file>
AV-unprocessed.smi

> <i_m_source_file_index>
2403

> <i_lp_mmshare_version>
43012

> <i_f3d_flags>
0

> <s_epik_input>
W0NIM11jMVtjSF1bY0hdbltjSF1jMVtOSF1DKD1PKVtOSF1DMihbQ0gyXVtDSDJdW0NIMl1bQ0gyXTIpQyg9TylbTkhdW0NIMl1bQ0hdM1tDSDJdW0NIMl0z

> <s_epik_cmdline>
J2VwaWtfcHl0aG9uJywgJy1waCcsICc3LjAnLCAnLXRuJywgJzgnLCAnLW1hJywgJzIwMCcsICctbWV0YWxfYmluZGluZycsICctaW1hZScsICc8aW5maWxlLm1hZT4nLCAnLW9tYWUnLCAnPG91dGZpbGUubWFlPic=

> <r_epik_Ionization_Penalty>
0.0192934

> <r_epik_Ionization_Penalty_Charging>
0

> <r_epik_Ionization_Penalty_Neutral>
0.0192934

> <r_epik_State_Penalty>
0.0153733

> <r_epik_Charging_Adjusted_Penalty>
0.0153733

> <i_epik_Tot_Q>
0

> <i_epik_Tot_abs_Q>
0

> <r_epik_Metal_State_Penalty>
0.014888

> <b_epik_Metal_Only>
0

> <s_lp_Force_Field>
OPLS_2005

> <r_lp_Energy>
32.7874

> <b_lp_Chiralities_Consistent>
1

> <s_lp_Variant>
AV-unprocessed.smi:2403-1

> <Gold.Version>
5.8.1

> <Gold.Id.Protein>
6NUR|6NUR_protein|mol2

> <Gold.PLP.Fitness>
53.3532

> <Gold.PLP.PLP>
-39.3389

> <Gold.PLP.part.hbond>
-5.0000

> <Gold.PLP.part.metal>
0.0000

> <Gold.PLP.part.buried>
-3.0785

> <Gold.PLP.part.nonpolar>
-31.6318

> <Gold.PLP.part.repulsive>
0.2726

> <Gold.PLP.ligand.clash>
0.0000

> <Gold.PLP.ligand.torsion>
0.9384

> <Gold.PLP.Chemscore.Hbond>
4.0000

> <Gold.PLP.Chemscore.CHOScore>
1.0816

> <Gold.PLP.Chemscore.Metal>
0.0000

> <Gold.Chemscore.Hbonds>
donor molecule, donor type, donor heavy atom, donor atom, acceptor molecule, acceptor atom, score
      L1  H     8    30       P1  7948  0.13
      L1  H    11    31       P1  7948  0.78
      L1  H    15    32       P1  7948  1.00
      L1  C     4    28       P1 10186  0.26
      L1  C     4    28       P1 10952  1.00

> <Gold.PLP.Chemscore.Internal.Correction>
0.6461

> <Gold.Rescore>
     Score         DG    S(hbond)    S(metal)    S(lipo)     H(rot)  DE(clash)    DE(int)     intcor
     17.25     -20.48       2.61        0.00      88.45       1.59       0.02       3.20       ----

> <Gold.Chemscore.Fitness>
17.2530

> <Gold.Chemscore.DG>
-20.4766

> <Gold.Chemscore.ZeroCoef>
-5.4800

> <Gold.Chemscore.Hbond>
2.6136

> <Gold.Chemscore.Metal>
0.0000

> <Gold.Chemscore.Lipo>
88.4461

> <Gold.Chemscore.Internal_Hbond>
0.0000

> <Gold.Chemscore.DEClash>
0.0234

> <Gold.Chemscore.DEInternal>
3.2001

> <Gold.Chemscore.Rot>
1.5941

> <Gold.Chemscore.Internal.Correction>
   9.000000E+99

> <Gold.Chemscore.Hbonds>
donor molecule, donor type, donor heavy atom, donor atom, acceptor molecule, acceptor atom, score
      L1  H     8    30       P1  7948  0.14
      L1  H    11    31       P1  7948  0.77
      L1  H    15    32       P1  7948  0.77

> <Gold.Chemscore.Hbond.Weighted>
-8.7293

> <Gold.Chemscore.Metal.Weighted>
-0.0000

> <Gold.Chemscore.Lipo.Weighted>
-10.3482

> <Gold.Chemscore.Internal_Hbond.Weighted>
0.0000

> <Gold.Chemscore.DEClash.Weighted>
0.0234

> <Gold.Chemscore.DEInternal.Weighted>
3.2001

> <Gold.Chemscore.Rot.Weighted>
4.0809

> <Gold.Chemscore.Internal.Correction.Weighted>
   9.000000E+99

> <Gold.Protein.RotatedTorsions>
[ 6907 6896 6895 6894 ] final -128.72 input  -60.11 | X-H torsion
[ 7974 7965 7964 7962 ] final  -60.17 input  175.53 | X-H torsion
[ 8008 7997 7996 7995 ] final  -84.81 input   59.86 | X-H torsion
[ 10167 10162 10161 10158 ] final -152.85 input  -65.29 | X-H torsion
[ 10718 10713 10712 10709 ] final  -24.56 input   66.30 | X-H torsion
[ 10763 10752 10751 10750 ] final -147.99 input  -60.55 | X-H torsion
[ 11005 11000 10999 10996 ] final -115.55 input  -57.11 | X-H torsion

> <Gold.Protein.ActiveResidues>
 VAL166  LYS551  ARG553  GLY616  TRP617  ASP618  TYR619  PRO620  LYS621  CYS622 
 ASP623  PHE694  ASN695  SER759  ASP760  ASP761  ALA762  ILE779  LEU786  VAL792 
 PHE793  MET794  SER795  GLU796  ALA797  LYS798  CYS799  TRP800  GLU811  SER814 

> <Gold.Protein.RotatedAtoms>
  150.9209  133.6882  159.2832 H   0  0  0  0  0  0  0  0  0  0  0  0  # atno 6907 bound_to 6896
  151.4337  135.1011  159.9659 H   0  0  0  0  0  0  0  0  0  0  0  0  # atno 6908 bound_to 6896
  152.4979  133.8633  159.7316 H   0  0  0  0  0  0  0  0  0  0  0  0  # atno 6909 bound_to 6896
  145.8188  140.8553  143.0144 H   0  0  0  0  0  0  0  0  0  0  0  0  # atno 7974 bound_to 7965
  154.6339  140.0600  156.9765 H   0  0  0  0  0  0  0  0  0  0  0  0  # atno 8008 bound_to 7997
  155.1623  140.3283  155.4390 H   0  0  0  0  0  0  0  0  0  0  0  0  # atno 8009 bound_to 7997
  156.2497  140.1928  156.6729 H   0  0  0  0  0  0  0  0  0  0  0  0  # atno 8010 bound_to 7997
  139.7147  143.9053  152.2481 H   0  0  0  0  0  0  0  0  0  0  0  0  # atno 10167 bound_to 10162
  156.4760  130.4535  149.6840 H   0  0  0  0  0  0  0  0  0  0  0  0  # atno 10718 bound_to 10713
  154.8257  135.3346  154.6904 H   0  0  0  0  0  0  0  0  0  0  0  0  # atno 10763 bound_to 10752
  153.7531  135.6938  153.4946 H   0  0  0  0  0  0  0  0  0  0  0  0  # atno 10764 bound_to 10752
  153.2163  135.4464  155.0388 H   0  0  0  0  0  0  0  0  0  0  0  0  # atno 10765 bound_to 10752
  141.0480  133.9732  157.2885 H   0  0  0  0  0  0  0  0  0  0  0  0  # atno 11005 bound_to 11000
  144.6750  140.0502  143.7479 LP  0  0  0  0  0  0  0  0  0  0  0  0  # atno 17320 bound_to 7965
  145.9698  139.2861  143.1106 LP  0  0  0  0  0  0  0  0  0  0  0  0  # atno 17321 bound_to 7965
  139.8932  144.6954  150.8747 LP  0  0  0  0  0  0  0  0  0  0  0  0  # atno 17342 bound_to 10162
  140.7741  143.3570  151.1901 LP  0  0  0  0  0  0  0  0  0  0  0  0  # atno 17343 bound_to 10162
  156.3569  130.7461  151.2428 LP  0  0  0  0  0  0  0  0  0  0  0  0  # atno 17370 bound_to 10713
  157.7487  131.0361  150.4394 LP  0  0  0  0  0  0  0  0  0  0  0  0  # atno 17371 bound_to 10713
  139.9327  135.0199  156.8455 LP  0  0  0  0  0  0  0  0  0  0  0  0  # atno 17394 bound_to 11000
  140.6110  134.0083  155.7576 LP  0  0  0  0  0  0  0  0  0  0  0  0  # atno 17395 bound_to 11000

$$$$
