AV-unprocessed.smi:1213|AV-procd|sdf|5087|dock6
  -GOLD-   22720 4133D 1   1.00000     0.00000
 Structure written by MMmdl.
 35 36  0  0  0  0  0  0  0  0  2 V2000
  142.7687  133.0510  148.2920 N   0  0  0  0  0  0  0  0  0  0  0  0
  143.9230  132.6598  148.8379 C   0  0  0  0  0  0  0  0  0  0  0  0
  144.8051  132.1057  148.1859 O   0  0  0  0  0  0  0  0  0  0  0  0
  144.1101  132.9206  150.3370 C   0  0  0  0  0  0  0  0  0  0  0  0
  145.2751  132.2371  150.9450 N   0  0  0  0  0  0  0  0  0  0  0  0
  144.9283  130.9175  151.4943 C   0  0  0  0  0  0  0  0  0  0  0  0
  146.1791  130.2178  152.0556 C   0  0  0  0  0  0  0  0  0  0  0  0
  146.8538  131.0687  153.1403 C   0  0  0  0  0  0  0  0  0  0  0  0
  148.0949  130.4316  153.5727 N   0  0  0  0  0  0  0  0  0  0  0  0
  149.0723  131.0103  154.2855 C   0  0  0  0  0  0  0  0  0  0  0  0
  148.9662  132.1887  154.6340 O   0  0  0  0  0  0  0  0  0  0  0  0
  150.1122  130.1868  154.5505 N   0  5  0  0  0  0  0  0  0  0  0  0
  151.1334  130.6166  155.3095 C   0  0  0  0  0  0  0  0  0  0  0  0
  151.0279  131.6441  156.1598 N   0  0  0  0  0  0  0  0  0  0  0  0
  152.2132  131.9243  156.8423 C   0  0  0  0  0  0  0  0  0  0  0  0
  153.2482  131.0964  156.4964 C   0  0  0  0  0  0  0  0  0  0  0  0
  152.7621  129.9336  155.2960 S   0  0  0  0  0  0  0  0  0  0  0  0
  147.1230  132.4720  152.5736 C   0  0  0  0  0  0  0  0  0  0  0  0
  145.8378  133.0908  151.9973 C   0  0  0  0  0  0  0  0  0  0  0  0
  142.6045  132.9079  147.3061 H   0  0  0  0  0  0  0  0  0  0  0  0
  142.0686  133.4967  148.8674 H   0  0  0  0  0  0  0  0  0  0  0  0
  144.2130  133.9992  150.4660 H   0  0  0  0  0  0  0  0  0  0  0  0
  143.1985  132.6324  150.8640 H   0  0  0  0  0  0  0  0  0  0  0  0
  144.1719  131.0219  152.2741 H   0  0  0  0  0  0  0  0  0  0  0  0
  144.5003  130.2752  150.7249 H   0  0  0  0  0  0  0  0  0  0  0  0
  145.9040  129.2446  152.4639 H   0  0  0  0  0  0  0  0  0  0  0  0
  146.8805  130.0243  151.2421 H   0  0  0  0  0  0  0  0  0  0  0  0
  146.1718  131.1468  153.9891 H   0  0  0  0  0  0  0  0  0  0  0  0
  148.2269  129.4661  153.3089 H   0  0  0  0  0  0  0  0  0  0  0  0
  152.2297  132.7333  157.5571 H   0  0  0  0  0  0  0  0  0  0  0  0
  154.2608  131.0997  156.8704 H   0  0  0  0  0  0  0  0  0  0  0  0
  147.5246  133.1217  153.3523 H   0  0  0  0  0  0  0  0  0  0  0  0
  147.8836  132.4200  151.7927 H   0  0  0  0  0  0  0  0  0  0  0  0
  146.0753  134.0738  151.5881 H   0  0  0  0  0  0  0  0  0  0  0  0
  145.1063  133.2472  152.7924 H   0  0  0  0  0  0  0  0  0  0  0  0
  1  2  1  0  0  0  0
  1 20  1  0  0  0  0
  1 21  1  0  0  0  0
  2  3  2  0  0  0  0
  2  4  1  0  0  0  0
  4  5  1  0  0  0  0
  4 22  1  0  0  0  0
  4 23  1  0  0  0  0
  5 19  1  0  0  0  0
  5  6  1  0  0  0  0
  6  7  1  0  0  0  0
  6 24  1  0  0  0  0
  6 25  1  0  0  0  0
  7  8  1  0  0  0  0
  7 26  1  0  0  0  0
  7 27  1  0  0  0  0
  8  9  1  0  0  0  0
  8 18  1  0  0  0  0
  8 28  1  0  0  0  0
  9 10  1  0  0  0  0
  9 29  1  0  0  0  0
 10 11  2  0  0  0  0
 10 12  1  0  0  0  0
 12 13  1  0  0  0  0
 13 17  1  0  0  0  0
 13 14  2  0  0  0  0
 14 15  1  0  0  0  0
 15 16  2  0  0  0  0
 15 30  1  0  0  0  0
 16 17  1  0  0  0  0
 16 31  1  0  0  0  0
 18 19  1  0  0  0  0
 18 32  1  0  0  0  0
 18 33  1  0  0  0  0
 19 34  1  0  0  0  0
 19 35  1  0  0  0  0
M  CHG  1  12  -1
M  END
> <s_m_source_file>
AV-unprocessed.smi

> <i_m_source_file_index>
1213

> <i_lp_mmshare_version>
43012

> <i_f3d_flags>
0

> <s_epik_input>
W05IMl1DKD1PKVtDSDJdTjFbQ0gyXVtDSDJdW0NIXShbQ0gyXVtDSDJdMSlbTkhdQyg9TylbTkhdYzJuW2NIXVtjSF1zMg==

> <s_epik_cmdline>
J2VwaWtfcHl0aG9uJywgJy1waCcsICc3LjAnLCAnLXRuJywgJzgnLCAnLW1hJywgJzIwMCcsICctbWV0YWxfYmluZGluZycsICctaW1hZScsICc8aW5maWxlLm1hZT4nLCAnLW9tYWUnLCAnPG91dGZpbGUubWFlPic=

> <r_lp_tautomer_probability>
0.999

> <r_epik_Ionization_Penalty>
7.12626

> <r_epik_Ionization_Penalty_Charging>
5.84953

> <r_epik_Ionization_Penalty_Neutral>
1.27674

> <r_epik_State_Penalty>
5.99619

> <r_epik_Charging_Adjusted_Penalty>
11.8457

> <i_epik_Tot_Q>
-1

> <i_epik_Tot_abs_Q>
1

> <r_epik_Metal_State_Penalty>
1.98285

> <b_epik_Metal_Only>
1

> <s_lp_Force_Field>
OPLS_2005

> <r_lp_Energy>
7.2689

> <b_lp_Chiralities_Consistent>
1

> <s_lp_Variant>
AV-unprocessed.smi:1213-4

> <Gold.Version>
5.8.1

> <Gold.Id.Protein>
6NUR|6NUR_protein|mol2

> <Gold.PLP.Fitness>
37.6989

> <Gold.PLP.PLP>
-33.3556

> <Gold.PLP.part.hbond>
-3.9404

> <Gold.PLP.part.metal>
0.0000

> <Gold.PLP.part.buried>
-6.2455

> <Gold.PLP.part.nonpolar>
-24.5014

> <Gold.PLP.part.repulsive>
1.2068

> <Gold.PLP.ligand.clash>
0.0000

> <Gold.PLP.ligand.torsion>
0.8430

> <Gold.PLP.Chemscore.Hbond>
2.0000

> <Gold.PLP.Chemscore.CHOScore>
0.0000

> <Gold.PLP.Chemscore.Metal>
0.0000

> <Gold.Chemscore.Hbonds>
donor molecule, donor type, donor heavy atom, donor atom, acceptor molecule, acceptor atom, score
      L1  H     1    20       P1 10195  1.00
      L1  H     1    21       P1 10186  1.00

> <Gold.PLP.Chemscore.Internal.Correction>
0.0292

> <Gold.Rescore>
     Score         DG    S(hbond)    S(metal)    S(lipo)     H(rot)  DE(clash)    DE(int)     intcor
     10.06     -13.85       1.97        0.00      59.26       2.01       0.19       3.60       ----

> <Gold.Chemscore.Fitness>
10.0608

> <Gold.Chemscore.DG>
-13.8506

> <Gold.Chemscore.ZeroCoef>
-5.4800

> <Gold.Chemscore.Hbond>
1.9716

> <Gold.Chemscore.Metal>
0.0000

> <Gold.Chemscore.Lipo>
59.2551

> <Gold.Chemscore.Internal_Hbond>
0.0000

> <Gold.Chemscore.DEClash>
0.1942

> <Gold.Chemscore.DEInternal>
3.5956

> <Gold.Chemscore.Rot>
2.0107

> <Gold.Chemscore.Internal.Correction>
   9.000000E+99

> <Gold.Chemscore.Hbonds>
donor molecule, donor type, donor heavy atom, donor atom, acceptor molecule, acceptor atom, score
      L1  H     1    20       P1 10195  0.98
      L1  H     1    21       P1 10186  0.95

> <Gold.Chemscore.Hbond.Weighted>
-6.5852

> <Gold.Chemscore.Metal.Weighted>
-0.0000

> <Gold.Chemscore.Lipo.Weighted>
-6.9328

> <Gold.Chemscore.Internal_Hbond.Weighted>
0.0000

> <Gold.Chemscore.DEClash.Weighted>
0.1942

> <Gold.Chemscore.DEInternal.Weighted>
3.5956

> <Gold.Chemscore.Rot.Weighted>
5.1474

> <Gold.Chemscore.Internal.Correction.Weighted>
   9.000000E+99

> <Gold.Protein.RotatedTorsions>
[ 6907 6896 6895 6894 ] final   84.68 input  -60.11 | X-H torsion
[ 7974 7965 7964 7962 ] final  132.26 input  175.53 | X-H torsion
[ 8008 7997 7996 7995 ] final  -11.27 input   59.86 | X-H torsion
[ 10167 10162 10161 10158 ] final  -73.99 input  -65.29 | X-H torsion
[ 10718 10713 10712 10709 ] final -116.57 input   66.30 | X-H torsion
[ 10763 10752 10751 10750 ] final  -11.47 input  -60.55 | X-H torsion
[ 11005 11000 10999 10996 ] final   87.52 input  -57.11 | X-H torsion

> <Gold.Protein.ActiveResidues>
 VAL166  LYS551  ARG553  GLY616  TRP617  ASP618  TYR619  PRO620  LYS621  CYS622 
 ASP623  PHE694  ASN695  SER759  ASP760  ASP761  ALA762  ILE779  LEU786  VAL792 
 PHE793  MET794  SER795  GLU796  ALA797  LYS798  CYS799  TRP800  GLU811  SER814 

> <Gold.Protein.RotatedAtoms>
  152.5358  134.2704  159.8968 H   0  0  0  0  0  0  0  0  0  0  0  0  # atno 6907 bound_to 6896
  151.2661  133.4271  159.2626 H   0  0  0  0  0  0  0  0  0  0  0  0  # atno 6908 bound_to 6896
  151.0409  134.9621  159.8218 H   0  0  0  0  0  0  0  0  0  0  0  0  # atno 6909 bound_to 6896
  144.9987  139.4333  143.5303 H   0  0  0  0  0  0  0  0  0  0  0  0  # atno 7974 bound_to 7965
  154.5480  140.2307  155.8532 H   0  0  0  0  0  0  0  0  0  0  0  0  # atno 8008 bound_to 7997
  156.1920  140.3074  155.9313 H   0  0  0  0  0  0  0  0  0  0  0  0  # atno 8009 bound_to 7997
  155.3127  140.0436  157.3026 H   0  0  0  0  0  0  0  0  0  0  0  0  # atno 8010 bound_to 7997
  140.5064  143.2352  151.7666 H   0  0  0  0  0  0  0  0  0  0  0  0  # atno 10167 bound_to 10162
  156.0973  130.6143  150.9053 H   0  0  0  0  0  0  0  0  0  0  0  0  # atno 10718 bound_to 10713
  153.4843  135.7017  153.5920 H   0  0  0  0  0  0  0  0  0  0  0  0  # atno 10763 bound_to 10752
  153.4120  135.3846  155.2056 H   0  0  0  0  0  0  0  0  0  0  0  0  # atno 10764 bound_to 10752
  154.8720  135.3907  154.4296 H   0  0  0  0  0  0  0  0  0  0  0  0  # atno 10765 bound_to 10752
  139.8917  134.8428  156.2872 H   0  0  0  0  0  0  0  0  0  0  0  0  # atno 11005 bound_to 11000
  146.3447  139.9362  142.8747 LP  0  0  0  0  0  0  0  0  0  0  0  0  # atno 17320 bound_to 7965
  145.2183  140.9924  143.4060 LP  0  0  0  0  0  0  0  0  0  0  0  0  # atno 17321 bound_to 7965
  139.4885  144.4451  151.9719 LP  0  0  0  0  0  0  0  0  0  0  0  0  # atno 17342 bound_to 10162
  140.3542  144.3052  150.5944 LP  0  0  0  0  0  0  0  0  0  0  0  0  # atno 17343 bound_to 10162
  157.6136  131.0935  150.8750 LP  0  0  0  0  0  0  0  0  0  0  0  0  # atno 17370 bound_to 10713
  156.8885  130.5204  149.5287 LP  0  0  0  0  0  0  0  0  0  0  0  0  # atno 17371 bound_to 10713
  141.0000  133.7157  156.0945 LP  0  0  0  0  0  0  0  0  0  0  0  0  # atno 17394 bound_to 11000
  140.7511  134.4044  157.5541 LP  0  0  0  0  0  0  0  0  0  0  0  0  # atno 17395 bound_to 11000

$$$$
