AV-unprocessed.smi:1490|AV-procd|sdf|6029|dock3
  -GOLD-   22720 6133D 1   1.00000     0.00000
 Structure written by MMmdl.
 37 38  0  0  0  0  0  0  0  0  1 V2000
  154.3462  138.2349  154.3207 C   0  0  0  0  0  0  0  0  0  0  0  0
  153.5971  139.3729  154.7077 O   0  0  0  0  0  0  0  0  0  0  0  0
  152.2407  139.0656  154.9855 C   0  0  0  0  0  0  0  0  0  0  0  0
  151.9634  139.2383  156.4855 C   0  0  0  0  0  0  0  0  0  0  0  0
  151.2926  140.4981  156.7730 N   0  0  0  0  0  0  0  0  0  0  0  0
  150.1523  140.9880  156.2249 C   0  0  0  0  0  0  0  0  0  0  0  0
  149.2669  140.1007  154.9778 S   0  0  0  0  0  0  0  0  0  0  0  0
  148.7904  141.4835  153.8997 C   0  0  0  0  0  0  0  0  0  0  0  0
  147.3661  141.9607  154.1675 C   0  0  0  0  0  0  0  0  0  0  0  0
  146.4741  141.1460  154.4003 O   0  0  0  0  0  0  0  0  0  0  0  0
  147.1613  143.2853  154.1368 N   0  0  0  0  0  0  0  0  0  0  0  0
  145.8740  143.9231  154.3725 C   0  0  0  0  0  0  0  0  0  0  0  0
  145.4628  144.7960  153.2613 C   0  0  0  0  0  0  0  0  0  0  0  0
  145.1402  145.4829  152.3880 N   0  0  0  0  0  0  0  0  0  0  0  0
  149.7611  142.1777  156.6860 N   0  0  0  0  0  0  0  0  0  0  0  0
  150.7289  142.4804  157.6230 C   0  0  0  0  0  0  0  0  0  0  0  0
  150.8741  143.6072  158.4634 C   0  0  0  0  0  0  0  0  0  0  0  0
  151.9616  143.6956  159.3572 C   0  0  0  0  0  0  0  0  0  0  0  0
  152.1239  145.0778  160.3767 Cl  0  0  0  0  0  0  0  0  0  0  0  0
  152.9167  142.6599  159.4225 C   0  0  0  0  0  0  0  0  0  0  0  0
  152.7905  141.5290  158.5932 C   0  0  0  0  0  0  0  0  0  0  0  0
  151.7034  141.4473  157.7026 C   0  0  0  0  0  0  0  0  0  0  0  0
  155.3781  138.5261  154.1248 H   0  0  0  0  0  0  0  0  0  0  0  0
  153.9433  137.7891  153.4103 H   0  0  0  0  0  0  0  0  0  0  0  0
  154.3523  137.4801  155.1080 H   0  0  0  0  0  0  0  0  0  0  0  0
  151.5854  139.7212  154.4096 H   0  0  0  0  0  0  0  0  0  0  0  0
  152.0212  138.0400  154.6853 H   0  0  0  0  0  0  0  0  0  0  0  0
  151.3347  138.4224  156.8431 H   0  0  0  0  0  0  0  0  0  0  0  0
  152.8902  139.1767  157.0552 H   0  0  0  0  0  0  0  0  0  0  0  0
  149.4825  142.3122  154.0560 H   0  0  0  0  0  0  0  0  0  0  0  0
  148.8769  141.1816  152.8553 H   0  0  0  0  0  0  0  0  0  0  0  0
  147.9467  143.8879  153.9380 H   0  0  0  0  0  0  0  0  0  0  0  0
  145.1125  143.1536  154.4974 H   0  0  0  0  0  0  0  0  0  0  0  0
  145.8970  144.5115  155.2910 H   0  0  0  0  0  0  0  0  0  0  0  0
  150.1464  144.4040  158.4199 H   0  0  0  0  0  0  0  0  0  0  0  0
  153.7471  142.7331  160.1095 H   0  0  0  0  0  0  0  0  0  0  0  0
  153.5197  140.7341  158.6417 H   0  0  0  0  0  0  0  0  0  0  0  0
  1  2  1  0  0  0  0
  1 23  1  0  0  0  0
  1 24  1  0  0  0  0
  1 25  1  0  0  0  0
  2  3  1  0  0  0  0
  3  4  1  0  0  0  0
  3 26  1  0  0  0  0
  3 27  1  0  0  0  0
  4  5  1  0  0  0  0
  4 28  1  0  0  0  0
  4 29  1  0  0  0  0
  5 22  1  0  0  0  0
  5  6  1  0  0  0  0
  6  7  1  0  0  0  0
  6 15  2  0  0  0  0
  7  8  1  0  0  0  0
  8  9  1  0  0  0  0
  8 30  1  0  0  0  0
  8 31  1  0  0  0  0
  9 10  2  0  0  0  0
  9 11  1  0  0  0  0
 11 12  1  0  0  0  0
 11 32  1  0  0  0  0
 12 13  1  0  0  0  0
 12 33  1  0  0  0  0
 12 34  1  0  0  0  0
 13 14  3  0  0  0  0
 15 16  1  0  0  0  0
 16 22  2  0  0  0  0
 16 17  1  0  0  0  0
 17 18  2  0  0  0  0
 17 35  1  0  0  0  0
 18 19  1  0  0  0  0
 18 20  1  0  0  0  0
 20 21  2  0  0  0  0
 20 36  1  0  0  0  0
 21 22  1  0  0  0  0
 21 37  1  0  0  0  0
M  END
> <s_m_source_file>
AV-unprocessed.smi

> <i_m_source_file_index>
1490

> <i_lp_mmshare_version>
43012

> <i_f3d_flags>
0

> <s_epik_input>
W2NIXTFjKENsKVtjSF1bY0hdYyhjMTIpbihbQ0gyXVtDSDJdT1tDSDNdKWMobjIpU1tDSDJdQyg9TylbTkhdW0NIMl1DI04=

> <s_epik_cmdline>
J2VwaWtfcHl0aG9uJywgJy1waCcsICc3LjAnLCAnLXRuJywgJzgnLCAnLW1hJywgJzIwMCcsICctbWV0YWxfYmluZGluZycsICctaW1hZScsICc8aW5maWxlLm1hZT4nLCAnLW9tYWUnLCAnPG91dGZpbGUubWFlPic=

> <r_epik_Ionization_Penalty>
0.00952472

> <r_epik_Ionization_Penalty_Charging>
0

> <r_epik_Ionization_Penalty_Neutral>
0.00952472

> <r_epik_State_Penalty>
0.0072333

> <r_epik_Charging_Adjusted_Penalty>
0.0072333

> <i_epik_Tot_Q>
0

> <i_epik_Tot_abs_Q>
0

> <r_epik_Metal_State_Penalty>
0.00711889

> <b_epik_Metal_Only>
0

> <s_lp_Force_Field>
OPLS_2005

> <r_lp_Energy>
2.86895

> <b_lp_Chiralities_Consistent>
1

> <s_lp_Variant>
AV-unprocessed.smi:1490-1

> <Gold.Version>
5.8.1

> <Gold.Id.Protein>
6NUR|6NUR_protein|mol2

> <Gold.PLP.Fitness>
45.9224

> <Gold.PLP.PLP>
-45.0598

> <Gold.PLP.part.hbond>
-3.5926

> <Gold.PLP.part.metal>
0.0000

> <Gold.PLP.part.buried>
-4.9967

> <Gold.PLP.part.nonpolar>
-37.9799

> <Gold.PLP.part.repulsive>
1.1837

> <Gold.PLP.ligand.clash>
0.0000

> <Gold.PLP.ligand.torsion>
1.5465

> <Gold.PLP.Chemscore.Hbond>
1.2746

> <Gold.PLP.Chemscore.CHOScore>
0.0000

> <Gold.PLP.Chemscore.Metal>
0.0000

> <Gold.Chemscore.Hbonds>
donor molecule, donor type, donor heavy atom, donor atom, acceptor molecule, acceptor atom, score
      L1  H    11    32       P1  8028  0.28
      P1  H  7997  8008       L1     2  1.00

> <Gold.PLP.Chemscore.Internal.Correction>
0.1319

> <Gold.Rescore>
     Score         DG    S(hbond)    S(metal)    S(lipo)     H(rot)  DE(clash)    DE(int)     intcor
     11.22     -14.27       0.90        0.00     109.80       2.76       1.47       1.58       ----

> <Gold.Chemscore.Fitness>
11.2204

> <Gold.Chemscore.DG>
-14.2743

> <Gold.Chemscore.ZeroCoef>
-5.4800

> <Gold.Chemscore.Hbond>
0.9004

> <Gold.Chemscore.Metal>
0.0000

> <Gold.Chemscore.Lipo>
109.8029

> <Gold.Chemscore.Internal_Hbond>
0.0000

> <Gold.Chemscore.DEClash>
1.4741

> <Gold.Chemscore.DEInternal>
1.5798

> <Gold.Chemscore.Rot>
2.7577

> <Gold.Chemscore.Internal.Correction>
   9.000000E+99

> <Gold.Chemscore.Hbonds>
donor molecule, donor type, donor heavy atom, donor atom, acceptor molecule, acceptor atom, score
      L1  H    11    32       P1  8028  0.13
      P1  H  7997  8008       L1     2  0.59

> <Gold.Chemscore.Hbond.Weighted>
-3.0072

> <Gold.Chemscore.Metal.Weighted>
-0.0000

> <Gold.Chemscore.Lipo.Weighted>
-12.8469

> <Gold.Chemscore.Internal_Hbond.Weighted>
0.0000

> <Gold.Chemscore.DEClash.Weighted>
1.4741

> <Gold.Chemscore.DEInternal.Weighted>
1.5798

> <Gold.Chemscore.Rot.Weighted>
7.0598

> <Gold.Chemscore.Internal.Correction.Weighted>
   9.000000E+99

> <Gold.Protein.RotatedTorsions>
[ 6907 6896 6895 6894 ] final  175.15 input  -60.11 | X-H torsion
[ 7974 7965 7964 7962 ] final  116.76 input  175.53 | X-H torsion
[ 8008 7997 7996 7995 ] final  -11.37 input   59.86 | X-H torsion
[ 10167 10162 10161 10158 ] final  -10.73 input  -65.29 | X-H torsion
[ 10718 10713 10712 10709 ] final -103.95 input   66.30 | X-H torsion
[ 10763 10752 10751 10750 ] final  143.06 input  -60.55 | X-H torsion
[ 11005 11000 10999 10996 ] final -172.85 input  -57.11 | X-H torsion

> <Gold.Protein.ActiveResidues>
 VAL166  LYS551  ARG553  GLY616  TRP617  ASP618  TYR619  PRO620  LYS621  CYS622 
 ASP623  PHE694  ASN695  SER759  ASP760  ASP761  ALA762  ILE779  LEU786  VAL792 
 PHE793  MET794  SER795  GLU796  ALA797  LYS798  CYS799  TRP800  GLU811  SER814 

> <Gold.Protein.RotatedAtoms>
  151.7409  133.3322  159.3365 H   0  0  0  0  0  0  0  0  0  0  0  0  # atno 6907 bound_to 6896
  150.7574  134.6279  159.6180 H   0  0  0  0  0  0  0  0  0  0  0  0  # atno 6908 bound_to 6896
  152.3531  134.6980  160.0282 H   0  0  0  0  0  0  0  0  0  0  0  0  # atno 6909 bound_to 6896
  145.1756  139.3077  143.4444 H   0  0  0  0  0  0  0  0  0  0  0  0  # atno 7974 bound_to 7965
  154.5470  140.2304  155.8546 H   0  0  0  0  0  0  0  0  0  0  0  0  # atno 8008 bound_to 7997
  156.1912  140.3076  155.9298 H   0  0  0  0  0  0  0  0  0  0  0  0  # atno 8009 bound_to 7997
  155.3144  140.0437  157.3027 H   0  0  0  0  0  0  0  0  0  0  0  0  # atno 8010 bound_to 7997
  140.7121  143.5717  150.9086 H   0  0  0  0  0  0  0  0  0  0  0  0  # atno 10167 bound_to 10162
  156.0285  130.5492  150.7327 H   0  0  0  0  0  0  0  0  0  0  0  0  # atno 10718 bound_to 10713
  153.9660  135.2955  155.3430 H   0  0  0  0  0  0  0  0  0  0  0  0  # atno 10763 bound_to 10752
  154.7348  135.5051  153.9027 H   0  0  0  0  0  0  0  0  0  0  0  0  # atno 10764 bound_to 10752
  153.0923  135.6711  153.9941 H   0  0  0  0  0  0  0  0  0  0  0  0  # atno 10765 bound_to 10752
  140.4923  134.5972  157.4959 H   0  0  0  0  0  0  0  0  0  0  0  0  # atno 11005 bound_to 11000
  146.3461  140.1918  142.8589 LP  0  0  0  0  0  0  0  0  0  0  0  0  # atno 17320 bound_to 7965
  145.0188  140.8776  143.5179 LP  0  0  0  0  0  0  0  0  0  0  0  0  # atno 17321 bound_to 7965
  139.9443  143.6346  152.3046 LP  0  0  0  0  0  0  0  0  0  0  0  0  # atno 17342 bound_to 10162
  139.6842  144.7653  151.1554 LP  0  0  0  0  0  0  0  0  0  0  0  0  # atno 17343 bound_to 10162
  157.4915  131.0911  151.0421 LP  0  0  0  0  0  0  0  0  0  0  0  0  # atno 17370 bound_to 10713
  157.0826  130.5909  149.5423 LP  0  0  0  0  0  0  0  0  0  0  0  0  # atno 17371 bound_to 10713
  139.9762  134.7212  155.9946 LP  0  0  0  0  0  0  0  0  0  0  0  0  # atno 17394 bound_to 11000
  141.1477  133.6553  156.3919 LP  0  0  0  0  0  0  0  0  0  0  0  0  # atno 17395 bound_to 11000

$$$$
