#       Name:                AV-unprocessed.smi:1315
#       Creating user name   scv26
#       Creation time:       Fri Mar 27 05:02:40 2020


#       File generated by GOLD software.
#

@<TRIPOS>MOLECULE
AV-unprocessed.smi:1315
    28    29     1
SMALL
NO_CHARGES


@<TRIPOS>ATOM
      1 ****        -4.6707  -1.0881  -0.9459 N.pl3          1 S1                 0.0000
      2 ****        -3.5304  -0.2786  -1.1072 C.2            1 S1                 0.0000
      3 ****        -3.4406   1.0971  -1.4599 C.2            1 S1                 0.0000
      4 ****        -2.1907   1.5272  -1.5195 N.2            1 S1                 0.0000
      5 ****        -1.4438   0.4461  -1.2039 N.pl3          1 S1                 0.0000
      6 ****         0.0059   0.5533  -1.1711 C.3            1 S1                 0.0000
      7 ****         0.5615   0.5831   0.2580 C.2            1 S1                 0.0000
      8 ****        -0.1287   0.9845   1.1963 O.2            1 S1                 0.0000
      9 ****         1.8245   0.1559   0.4026 N.am           1 S1                 0.0000
     10 ****         2.5451   0.0982   1.6333 C.3            1 S1                 0.0000
     11 ****         4.0289   0.3931   1.5930 C.3            1 S1                 0.0000
     12 ****         3.5532  -1.0175   1.8051 C.3            1 S1                 0.0000
     13 ****        -2.2285  -0.6610  -0.9530 C.2            1 S1                 0.0000
     14 ****        -4.6000  -2.0629  -0.6905 H              1 S1                 0.0000
     15 ****        -5.6022  -0.7402  -1.1221 H              1 S1                 0.0000
     16 ****        -4.2401   1.7910  -1.6738 H              1 S1                 0.0000
     17 ****         0.4233  -0.2939  -1.7170 H              1 S1                 0.0000
     18 ****         0.3161   1.4583  -1.6956 H              1 S1                 0.0000
     19 ****         2.3153  -0.1522  -0.4242 H              1 S1                 0.0000
     20 ****         2.0211   0.4111   2.5355 H              1 S1                 0.0000
     21 ****         4.4747   0.6334   0.6295 H              1 S1                 0.0000
     22 ****         4.4604   0.9111   2.4471 H              1 S1                 0.0000
     23 ****         3.6673  -1.4415   2.8006 H              1 S1                 0.0000
     24 ****         3.6824  -1.7191   0.9831 H              1 S1                 0.0000
     25 ****        -1.7983  -1.6153  -0.6869 H              1 S1                 0.0000
     26 ****        -1.8703   2.4468  -1.7472 LP             1 S1                 0.0000
     27 ****        -1.0643   1.2965   1.0311 LP             1 S1                 0.0000
     28 ****         0.2467   0.9984   2.1231 LP             1 S1                 0.0000
@<TRIPOS>BOND
    1    1    2 1     
    2    1   14 1     
    3    1   15 1     
    4    2   13 2     
    5    2    3 1     
    6    3    4 2     
    7    3   16 1     
    8    4    5 1     
    9    5    6 1     
   10    5   13 1     
   11    6    7 1     
   12    6   17 1     
   13    6   18 1     
   14    7    8 2     
   15    7    9 am    
   16    9   10 1     
   17    9   19 1     
   18   10   12 1     
   19   10   11 1     
   20   10   20 1     
   21   11   12 1     
   22   11   21 1     
   23   11   22 1     
   24   12   23 1     
   25   12   24 1     
   26   13   25 1     
   27    4   26 1     
   28    8   27 1     
   29    8   28 1     
@<TRIPOS>SUBSTRUCTURE
      1 S1             1
@<TRIPOS>SET
LONE_PAIRS      STATIC     ATOMS    <user>   **** ""
3 26 27 28
DONOR_HYDROGENS      STATIC     ATOMS    <user>   **** ""
3 14 15 19
ATOM$BLUE        STATIC     ATOMS    COLORGROUP SYSTEM
3 26 27 28
ATOM$RED        STATIC     ATOMS    COLORGROUP SYSTEM
3 14 15 19
