#       Name:                AV-unprocessed.smi:1286
#       Creating user name   scv26
#       Creation time:       Fri Mar 27 04:52:11 2020


#       File generated by GOLD software.
#

@<TRIPOS>MOLECULE
AV-unprocessed.smi:1286
    39    40     1
SMALL
NO_CHARGES


@<TRIPOS>ATOM
      1 ****        -3.0299  -0.9380   2.6882 C.3            1 S1                 0.0000
      2 ****        -2.3999  -0.3269   1.4293 C.3            1 S1                 0.0000
      3 ****        -2.9142  -1.0171   0.1488 C.3            1 S1                 0.0000
      4 ****        -2.3867  -0.4185  -1.0652 N.pl3          1 S1                 0.0000
      5 ****        -1.4819  -0.9522  -1.9589 C.2            1 S1                 0.0000
      6 ****        -1.2867  -0.0252  -2.9420 C.2            1 S1                 0.0000
      7 ****        -2.1278   1.0563  -2.5579 C.2            1 S1                 0.0000
      8 ****        -2.7897   0.8154  -1.4379 N.2            1 S1                 0.0000
      9 ****        -0.9444  -0.4403   1.5166 N.am           1 S1                 0.0000
     10 ****        -0.0680   0.5699   1.3982 C.2            1 S1                 0.0000
     11 ****        -0.4014   1.7463   1.2560 O.2            1 S1                 0.0000
     12 ****         1.4159   0.1849   1.4321 C.3            1 S1                 0.0000
     13 ****         2.2928   0.9752   0.4344 C.3            1 S1                 0.0000
     14 ****         1.8683   0.8184  -1.0061 C.2            1 S1                 0.0000
     15 ****         2.8613   0.4178  -1.7962 C.2            1 S1                 0.0000
     16 ****         4.1503   0.2258  -1.0471 C.3            1 S1                 0.0000
     17 ****         3.7724   0.5114   0.4239 C.3            1 S1                 0.0000
     18 ****        -4.1165  -0.8509   2.6636 H              1 S1                 0.0000
     19 ****        -2.6802  -0.4310   3.5880 H              1 S1                 0.0000
     20 ****        -2.7833  -1.9961   2.7836 H              1 S1                 0.0000
     21 ****        -2.6978   0.7226   1.3973 H              1 S1                 0.0000
     22 ****        -2.6526  -2.0762   0.1559 H              1 S1                 0.0000
     23 ****        -4.0031  -0.9664   0.1053 H              1 S1                 0.0000
     24 ****        -1.0541  -1.9341  -1.8201 H              1 S1                 0.0000
     25 ****        -0.6388  -0.1057  -3.8021 H              1 S1                 0.0000
     26 ****        -2.2778   2.0021  -3.0571 H              1 S1                 0.0000
     27 ****        -0.5716  -1.3707   1.6374 H              1 S1                 0.0000
     28 ****         1.7832   0.3425   2.4467 H              1 S1                 0.0000
     29 ****         1.5118  -0.8836   1.2319 H              1 S1                 0.0000
     30 ****         2.2524   2.0391   0.6729 H              1 S1                 0.0000
     31 ****         0.8636   1.0346  -1.3375 H              1 S1                 0.0000
     32 ****         2.7830   0.2544  -2.8610 H              1 S1                 0.0000
     33 ****         4.5242  -0.7896  -1.1810 H              1 S1                 0.0000
     34 ****         4.9012   0.9263  -1.4142 H              1 S1                 0.0000
     35 ****         4.4239   1.2712   0.8567 H              1 S1                 0.0000
     36 ****         3.9038  -0.3932   1.0188 H              1 S1                 0.0000
     37 ****        -3.4422   1.4131  -0.9719 LP             1 S1                 0.0000
     38 ****        -1.3705   1.9910   1.2235 LP             1 S1                 0.0000
     39 ****         0.2968   2.4574   1.1729 LP             1 S1                 0.0000
@<TRIPOS>BOND
    1    1    2 1     
    2    1   18 1     
    3    1   19 1     
    4    1   20 1     
    5    2    3 1     
    6    2    9 1     
    7    2   21 1     
    8    3    4 1     
    9    3   22 1     
   10    3   23 1     
   11    4    8 1     
   12    4    5 1     
   13    5    6 2     
   14    5   24 1     
   15    6    7 1     
   16    6   25 1     
   17    7    8 2     
   18    7   26 1     
   19    9   10 am    
   20    9   27 1     
   21   10   11 2     
   22   10   12 1     
   23   12   13 1     
   24   12   28 1     
   25   12   29 1     
   26   13   17 1     
   27   13   14 1     
   28   13   30 1     
   29   14   15 2     
   30   14   31 1     
   31   15   16 1     
   32   15   32 1     
   33   16   17 1     
   34   16   33 1     
   35   16   34 1     
   36   17   35 1     
   37   17   36 1     
   38    8   37 1     
   39   11   38 1     
   40   11   39 1     
@<TRIPOS>SUBSTRUCTURE
      1 S1             1
@<TRIPOS>SET
LONE_PAIRS      STATIC     ATOMS    <user>   **** ""
3 37 38 39
DONOR_HYDROGENS      STATIC     ATOMS    <user>   **** ""
1 27
ATOM$BLUE        STATIC     ATOMS    COLORGROUP SYSTEM
3 37 38 39
ATOM$RED        STATIC     ATOMS    COLORGROUP SYSTEM
1 27
