AV-unprocessed.smi:100|AV-procd|sdf|901|dock2
  -GOLD-   2262017393D 1   1.00000     0.00000
 Structure written by MMmdl.
 31 33  0  0  0  0  0  0  0  0  1 V2000
  149.6472  137.3028  154.1439 N   0  0  0  0  0  0  0  0  0  0  0  0
  150.6277  138.0686  154.6422 C   0  0  0  0  0  0  0  0  0  0  0  0
  151.9086  137.6660  154.4702 N   0  0  0  0  0  0  0  0  0  0  0  0
  152.9046  138.4123  154.9591 C   0  0  0  0  0  0  0  0  0  0  0  0
  152.8336  139.5640  155.6326 N   0  0  0  0  0  0  0  0  0  0  0  0
  151.5402  139.9677  155.8050 C   0  0  0  0  0  0  0  0  0  0  0  0
  150.3860  139.2786  155.3409 C   0  0  0  0  0  0  0  0  0  0  0  0
  149.2428  139.9805  155.6960 N   0  0  0  0  0  0  0  0  0  0  0  0
  149.7002  141.0224  156.3372 C   0  0  0  0  0  0  0  0  0  0  0  0
  151.0741  141.0969  156.4459 N   0  0  0  0  0  0  0  0  0  0  0  0
  151.9170  142.1387  157.1164 C   0  0  2  0  0  0  0  0  0  0  0  0
  152.4055  141.5907  158.3072 O   0  0  0  0  0  0  0  0  0  0  0  0
  151.7288  142.1657  159.4225 C   0  0  1  0  0  0  0  0  0  0  0  0
  152.5779  142.0570  160.6989 C   0  0  0  0  0  0  0  0  0  0  0  0
  151.8650  142.5811  161.7987 O   0  0  0  0  0  0  0  0  0  0  0  0
  151.4929  143.5960  158.9400 C   0  0  1  0  0  0  0  0  0  0  0  0
  152.6482  144.2668  158.9905 F   0  0  0  0  0  0  0  0  0  0  0  0
  151.0659  143.3615  157.4991 C   0  0  1  0  0  0  0  0  0  0  0  0
  151.3175  144.5053  156.7075 O   0  0  0  0  0  0  0  0  0  0  0  0
  148.6838  137.5826  154.2606 H   0  0  0  0  0  0  0  0  0  0  0  0
  149.8729  136.4470  153.6581 H   0  0  0  0  0  0  0  0  0  0  0  0
  153.9009  138.0329  154.7858 H   0  0  0  0  0  0  0  0  0  0  0  0
  149.0354  141.7672  156.7467 H   0  0  0  0  0  0  0  0  0  0  0  0
  152.7436  142.3551  156.4390 H   0  0  0  0  0  0  0  0  0  0  0  0
  150.7627  141.6820  159.5696 H   0  0  0  0  0  0  0  0  0  0  0  0
  152.8729  141.0258  160.8950 H   0  0  0  0  0  0  0  0  0  0  0  0
  153.4915  142.6426  160.5926 H   0  0  0  0  0  0  0  0  0  0  0  0
  152.3408  143.3227  162.1401 H   0  0  0  0  0  0  0  0  0  0  0  0
  150.7570  144.1420  159.5310 H   0  0  0  0  0  0  0  0  0  0  0  0
  150.0050  143.1089  157.4619 H   0  0  0  0  0  0  0  0  0  0  0  0
  150.4961  144.8095  156.3524 H   0  0  0  0  0  0  0  0  0  0  0  0
  1  2  1  0  0  0  0
  1 20  1  0  0  0  0
  1 21  1  0  0  0  0
  2  7  1  0  0  0  0
  2  3  2  0  0  0  0
  3  4  1  0  0  0  0
  4  5  2  0  0  0  0
  4 22  1  0  0  0  0
  5  6  1  0  0  0  0
  6 10  1  0  0  0  0
  6  7  2  0  0  0  0
  7  8  1  0  0  0  0
  8  9  2  0  0  0  0
  9 10  1  0  0  0  0
  9 23  1  0  0  0  0
 10 11  1  0  0  0  0
 11 18  1  0  0  0  0
 11 12  1  0  0  0  0
 11 24  1  0  0  0  0
 12 13  1  0  0  0  0
 13 14  1  0  0  0  0
 13 16  1  0  0  0  0
 13 25  1  0  0  0  0
 14 15  1  0  0  0  0
 14 26  1  0  0  0  0
 14 27  1  0  0  0  0
 15 28  1  0  0  0  0
 16 17  1  0  0  0  0
 16 18  1  0  0  0  0
 16 29  1  0  0  0  0
 18 19  1  0  0  0  0
 18 30  1  0  0  0  0
 19 31  1  0  0  0  0
M  END
> <s_m_source_file>
AV-unprocessed.smi

> <i_m_source_file_index>
100

> <i_lp_mmshare_version>
43012

> <i_f3d_flags>
0

> <s_epik_input>
bjFbY0hdbmMoW05IMl0pYyhjMTIpbltjSF1uMltDQEBIXTNPW0NAQEhdKFtDSDJdW09IXSlbQ0BIXShGKVtDQEhdM1tPSF0=

> <s_epik_cmdline>
J2VwaWtfcHl0aG9uJywgJy1waCcsICc3LjAnLCAnLXRuJywgJzgnLCAnLW1hJywgJzIwMCcsICctbWV0YWxfYmluZGluZycsICctaW1hZScsICc8aW5maWxlLm1hZT4nLCAnLW9tYWUnLCAnPG91dGZpbGUubWFlPic=

> <r_lp_tautomer_probability>
1

> <r_epik_Ionization_Penalty>
0.000750324

> <r_epik_Ionization_Penalty_Charging>
0

> <r_epik_Ionization_Penalty_Neutral>
0.000750324

> <r_epik_State_Penalty>
-0

> <r_epik_Charging_Adjusted_Penalty>
0

> <i_epik_Tot_Q>
0

> <i_epik_Tot_abs_Q>
0

> <r_epik_Metal_State_Penalty>
-0

> <b_epik_Metal_Only>
0

> <s_epik_Chemistry_Notes>
This compound contains an acetal/aminal-like group ( X-CH(R)-Y where X, Y are N, S, or O) that may be acid/base labile, releasing an aldehyde.

> <s_lp_Force_Field>
OPLS_2005

> <r_lp_Energy>
31.3803

> <b_lp_Chiralities_Consistent>
1

> <s_lp_Variant>
AV-unprocessed.smi:100-5

> <Gold.Version>
5.8.1

> <Gold.Id.Protein>
6NUR|6NUR_protein|mol2

> <Gold.PLP.Fitness>
43.6376

> <Gold.PLP.PLP>
-33.6482

> <Gold.PLP.part.hbond>
-5.1464

> <Gold.PLP.part.metal>
0.0000

> <Gold.PLP.part.buried>
-3.3141

> <Gold.PLP.part.nonpolar>
-25.6631

> <Gold.PLP.part.repulsive>
0.1827

> <Gold.PLP.ligand.clash>
0.0000

> <Gold.PLP.ligand.torsion>
0.2805

> <Gold.PLP.Chemscore.Hbond>
3.5101

> <Gold.PLP.Chemscore.CHOScore>
0.0000

> <Gold.PLP.Chemscore.Metal>
0.0000

> <Gold.Chemscore.Hbonds>
donor molecule, donor type, donor heavy atom, donor atom, acceptor molecule, acceptor atom, score
      L1  H     1    21       P1  7948  0.30
      L1  H    19    31       P1  8028  1.00
      P1  H  6933  6945       L1    15  0.76
      P1  H  7997  8008       L1     5  1.00
      P1  H 10752 10765       L1     3  0.39

> <Gold.PLP.Chemscore.Internal.Correction>
0.0199

> <Gold.Rescore>
     Score         DG    S(hbond)    S(metal)    S(lipo)     H(rot)  DE(clash)    DE(int)     intcor
     10.90     -13.24       3.15        0.00      46.31       3.19       2.04       0.30       ----

> <Gold.Chemscore.Fitness>
10.8989

> <Gold.Chemscore.DG>
-13.2371

> <Gold.Chemscore.ZeroCoef>
-5.4800

> <Gold.Chemscore.Hbond>
3.1454

> <Gold.Chemscore.Metal>
0.0000

> <Gold.Chemscore.Lipo>
46.3070

> <Gold.Chemscore.Internal_Hbond>
0.0000

> <Gold.Chemscore.DEClash>
2.0379

> <Gold.Chemscore.DEInternal>
0.3003

> <Gold.Chemscore.Rot>
3.1901

> <Gold.Chemscore.Internal.Correction>
   9.000000E+99

> <Gold.Chemscore.Hbonds>
donor molecule, donor type, donor heavy atom, donor atom, acceptor molecule, acceptor atom, score
      L1  H     1    21       P1  7948  0.08
      L1  H    19    31       P1  8028  0.94
      P1  H  6933  6945       L1    15  0.68
      P1  H  7997  8008       L1     5  0.90
      P1  H 10752 10765       L1     3  0.10

> <Gold.Chemscore.Hbond.Weighted>
-10.5058

> <Gold.Chemscore.Metal.Weighted>
-0.0000

> <Gold.Chemscore.Lipo.Weighted>
-5.4179

> <Gold.Chemscore.Internal_Hbond.Weighted>
0.0000

> <Gold.Chemscore.DEClash.Weighted>
2.0379

> <Gold.Chemscore.DEInternal.Weighted>
0.3003

> <Gold.Chemscore.Rot.Weighted>
8.1667

> <Gold.Chemscore.Internal.Correction.Weighted>
   9.000000E+99

> <Gold.Protein.RotatedTorsions>
[ 6907 6896 6895 6894 ] final  145.87 input  -60.11 | X-H torsion
[ 7974 7965 7964 7962 ] final   98.82 input  175.53 | X-H torsion
[ 8008 7997 7996 7995 ] final  -42.54 input   59.86 | X-H torsion
[ 10167 10162 10161 10158 ] final   49.04 input  -65.29 | X-H torsion
[ 10718 10713 10712 10709 ] final   16.56 input   66.30 | X-H torsion
[ 10763 10752 10751 10750 ] final  156.27 input  -60.55 | X-H torsion
[ 11005 11000 10999 10996 ] final   23.74 input  -57.11 | X-H torsion

> <Gold.Protein.ActiveResidues>
 VAL166  LYS551  ARG553  GLY616  TRP617  ASP618  TYR619  PRO620  LYS621  CYS622 
 ASP623  PHE694  ASN695  SER759  ASP760  ASP761  ALA762  ILE779  LEU786  VAL792 
 PHE793  MET794  SER795  GLU796  ALA797  LYS798  CYS799  TRP800  GLU811  SER814 

> <Gold.Protein.RotatedAtoms>
  152.1753  133.4670  159.4929 H   0  0  0  0  0  0  0  0  0  0  0  0  # atno 6907 bound_to 6896
  150.6926  134.1902  159.4291 H   0  0  0  0  0  0  0  0  0  0  0  0  # atno 6908 bound_to 6896
  151.9811  135.0028  160.0608 H   0  0  0  0  0  0  0  0  0  0  0  0  # atno 6909 bound_to 6896
  145.4070  139.2339  143.3269 H   0  0  0  0  0  0  0  0  0  0  0  0  # atno 7974 bound_to 7965
  154.3999  140.1471  156.3371 H   0  0  0  0  0  0  0  0  0  0  0  0  # atno 8008 bound_to 7997
  155.8390  140.3463  155.5599 H   0  0  0  0  0  0  0  0  0  0  0  0  # atno 8009 bound_to 7997
  155.8107  140.0883  157.1896 H   0  0  0  0  0  0  0  0  0  0  0  0  # atno 8010 bound_to 7997
  140.2870  144.3090  150.6250 H   0  0  0  0  0  0  0  0  0  0  0  0  # atno 10167 bound_to 10162
  157.0696  130.6342  149.5803 H   0  0  0  0  0  0  0  0  0  0  0  0  # atno 10718 bound_to 10713
  154.1817  135.2799  155.3050 H   0  0  0  0  0  0  0  0  0  0  0  0  # atno 10763 bound_to 10752
  154.5997  135.5533  153.7365 H   0  0  0  0  0  0  0  0  0  0  0  0  # atno 10764 bound_to 10752
  153.0136  135.6389  154.1956 H   0  0  0  0  0  0  0  0  0  0  0  0  # atno 10765 bound_to 10752
  140.3663  134.2071  155.7669 H   0  0  0  0  0  0  0  0  0  0  0  0  # atno 11005 bound_to 11000
  146.2724  140.4776  142.8809 LP  0  0  0  0  0  0  0  0  0  0  0  0  # atno 17320 bound_to 7965
  144.8335  140.6744  143.6276 LP  0  0  0  0  0  0  0  0  0  0  0  0  # atno 17321 bound_to 7965
  140.5764  143.2176  151.7507 LP  0  0  0  0  0  0  0  0  0  0  0  0  # atno 17342 bound_to 10162
  139.4947  144.4143  152.0047 LP  0  0  0  0  0  0  0  0  0  0  0  0  # atno 17343 bound_to 10162
  155.9954  130.5021  150.7458 LP  0  0  0  0  0  0  0  0  0  0  0  0  # atno 17370 bound_to 10713
  157.4889  131.0909  151.0450 LP  0  0  0  0  0  0  0  0  0  0  0  0  # atno 17371 bound_to 10713
  141.1968  133.8073  157.0653 LP  0  0  0  0  0  0  0  0  0  0  0  0  # atno 17394 bound_to 11000
  140.0587  134.9766  157.1266 LP  0  0  0  0  0  0  0  0  0  0  0  0  # atno 17395 bound_to 11000

$$$$
