AV-unprocessed.smi:1167|AV-procd|sdf|4938|dock7
  -GOLD-   22720 3523D 1   1.00000     0.00000
 Structure written by MMmdl.
 41 42  0  0  0  0  0  0  0  0  1 V2000
  151.6171  139.8059  155.7384 C   0  0  0  0  0  0  0  0  0  0  0  0
  150.7324  140.8017  155.2367 O   0  0  0  0  0  0  0  0  0  0  0  0
  149.5481  140.3945  154.6573 C   0  0  0  0  0  0  0  0  0  0  0  0
  148.5988  141.3734  154.3046 C   0  0  0  0  0  0  0  0  0  0  0  0
  147.3860  140.9675  153.7149 C   0  0  0  0  0  0  0  0  0  0  0  0
  147.1593  139.5867  153.4950 C   0  0  0  0  0  0  0  0  0  0  0  0
  145.9863  139.0321  152.9107 N   0  0  0  0  0  0  0  0  0  0  0  0
  145.6764  137.7478  152.6608 C   0  0  0  0  0  0  0  0  0  0  0  0
  146.3882  136.7752  152.9079 O   0  0  0  0  0  0  0  0  0  0  0  0
  144.4655  137.6481  152.0942 N   0  0  0  0  0  0  0  0  0  0  0  0
  143.8227  136.4003  151.6926 C   0  0  0  0  0  0  0  0  0  0  0  0
  143.9446  135.3653  152.8316 C   0  0  0  0  0  0  0  0  0  0  0  0
  143.4518  133.9779  152.3831 C   0  0  0  0  0  0  0  0  0  0  0  0
  144.2013  133.5722  151.1885 N   0  0  0  0  0  0  0  0  0  0  0  0
  145.1269  132.5831  151.2051 C   0  0  0  0  0  0  0  0  0  0  0  0
  145.9121  132.2708  149.9291 C   0  0  0  0  0  0  0  0  0  0  0  0
  145.3699  131.9161  152.2110 O   0  0  0  0  0  0  0  0  0  0  0  0
  143.9212  134.4555  150.0497 C   0  0  0  0  0  0  0  0  0  0  0  0
  144.4383  135.8675  150.3776 C   0  0  0  0  0  0  0  0  0  0  0  0
  148.1762  138.6893  153.8824 C   0  0  0  0  0  0  0  0  0  0  0  0
  149.3402  139.0713  154.4487 N   0  0  0  0  0  0  0  0  0  0  0  0
  152.4985  140.2873  156.1619 H   0  0  0  0  0  0  0  0  0  0  0  0
  151.9548  139.1360  154.9462 H   0  0  0  0  0  0  0  0  0  0  0  0
  151.1489  139.2182  156.5295 H   0  0  0  0  0  0  0  0  0  0  0  0
  148.7963  142.4201  154.4838 H   0  0  0  0  0  0  0  0  0  0  0  0
  146.6691  141.7267  153.4489 H   0  0  0  0  0  0  0  0  0  0  0  0
  145.2883  139.7087  152.6385 H   0  0  0  0  0  0  0  0  0  0  0  0
  143.9477  138.4986  151.9270 H   0  0  0  0  0  0  0  0  0  0  0  0
  142.7593  136.5831  151.5262 H   0  0  0  0  0  0  0  0  0  0  0  0
  144.9850  135.2863  153.1512 H   0  0  0  0  0  0  0  0  0  0  0  0
  143.3780  135.6973  153.7022 H   0  0  0  0  0  0  0  0  0  0  0  0
  143.5480  133.2666  153.2045 H   0  0  0  0  0  0  0  0  0  0  0  0
  142.3873  134.0156  152.1474 H   0  0  0  0  0  0  0  0  0  0  0  0
  146.4659  133.1470  149.5907 H   0  0  0  0  0  0  0  0  0  0  0  0
  145.2418  131.9442  149.1333 H   0  0  0  0  0  0  0  0  0  0  0  0
  146.6315  131.4707  150.1069 H   0  0  0  0  0  0  0  0  0  0  0  0
  144.3545  134.1113  149.1118 H   0  0  0  0  0  0  0  0  0  0  0  0
  142.8446  134.4859  149.8768 H   0  0  0  0  0  0  0  0  0  0  0  0
  144.2107  136.5443  149.5532 H   0  0  0  0  0  0  0  0  0  0  0  0
  145.5258  135.8390  150.4624 H   0  0  0  0  0  0  0  0  0  0  0  0
  148.0534  137.6261  153.7345 H   0  0  0  0  0  0  0  0  0  0  0  0
  1  2  1  0  0  0  0
  1 22  1  0  0  0  0
  1 23  1  0  0  0  0
  1 24  1  0  0  0  0
  2  3  1  0  0  0  0
  3 21  1  0  0  0  0
  3  4  2  0  0  0  0
  4  5  1  0  0  0  0
  4 25  1  0  0  0  0
  5  6  2  0  0  0  0
  5 26  1  0  0  0  0
  6  7  1  0  0  0  0
  6 20  1  0  0  0  0
  7  8  1  0  0  0  0
  7 27  1  0  0  0  0
  8  9  2  0  0  0  0
  8 10  1  0  0  0  0
 10 11  1  0  0  0  0
 10 28  1  0  0  0  0
 11 19  1  0  0  0  0
 11 12  1  0  0  0  0
 11 29  1  0  0  0  0
 12 13  1  0  0  0  0
 12 30  1  0  0  0  0
 12 31  1  0  0  0  0
 13 14  1  0  0  0  0
 13 32  1  0  0  0  0
 13 33  1  0  0  0  0
 14 15  1  0  0  0  0
 14 18  1  0  0  0  0
 15 16  1  0  0  0  0
 15 17  2  0  0  0  0
 16 34  1  0  0  0  0
 16 35  1  0  0  0  0
 16 36  1  0  0  0  0
 18 19  1  0  0  0  0
 18 37  1  0  0  0  0
 18 38  1  0  0  0  0
 19 39  1  0  0  0  0
 19 40  1  0  0  0  0
 20 21  2  0  0  0  0
 20 41  1  0  0  0  0
M  END
> <s_m_source_file>
AV-unprocessed.smi

> <i_m_source_file_index>
1167

> <i_lp_mmshare_version>
43012

> <i_f3d_flags>
0

> <s_epik_input>
W0NIM11PYzFbY0hdW2NIXWMoW2NIXW4xKVtOSF1DKD1PKVtOSF1bQ0hdMltDSDJdW0NIMl1OKEMoPU8pW0NIM10pW0NIMl1bQ0gyXTI=

> <s_epik_cmdline>
J2VwaWtfcHl0aG9uJywgJy1waCcsICc3LjAnLCAnLXRuJywgJzgnLCAnLW1hJywgJzIwMCcsICctbWV0YWxfYmluZGluZycsICctaW1hZScsICc8aW5maWxlLm1hZT4nLCAnLW9tYWUnLCAnPG91dGZpbGUubWFlPic=

> <r_lp_tautomer_probability>
1

> <r_epik_Ionization_Penalty>
9.6092e-05

> <r_epik_Ionization_Penalty_Charging>
0

> <r_epik_Ionization_Penalty_Neutral>
9.6092e-05

> <r_epik_State_Penalty>
-0

> <r_epik_Charging_Adjusted_Penalty>
0

> <i_epik_Tot_Q>
0

> <i_epik_Tot_abs_Q>
0

> <r_epik_Metal_State_Penalty>
-0

> <b_epik_Metal_Only>
0

> <s_lp_Force_Field>
OPLS_2005

> <r_lp_Energy>
24.5609

> <b_lp_Chiralities_Consistent>
1

> <s_lp_Variant>
AV-unprocessed.smi:1167-1

> <Gold.Version>
5.8.1

> <Gold.Id.Protein>
6NUR|6NUR_protein|mol2

> <Gold.PLP.Fitness>
41.2668

> <Gold.PLP.PLP>
-32.0268

> <Gold.PLP.part.hbond>
-3.9760

> <Gold.PLP.part.metal>
0.0000

> <Gold.PLP.part.buried>
0.6262

> <Gold.PLP.part.nonpolar>
-32.3630

> <Gold.PLP.part.repulsive>
2.4504

> <Gold.PLP.ligand.clash>
0.0000

> <Gold.PLP.ligand.torsion>
0.2448

> <Gold.PLP.Chemscore.Hbond>
2.3184

> <Gold.PLP.Chemscore.CHOScore>
0.9192

> <Gold.PLP.Chemscore.Metal>
0.0000

> <Gold.Chemscore.Hbonds>
donor molecule, donor type, donor heavy atom, donor atom, acceptor molecule, acceptor atom, score
      L1  H     7    27       P1 10175  1.00
      L1  H    10    28       P1 10175  0.96
      P1  H  7989  7998       L1     2  0.32
      L1  C    20    41       P1  7948  0.94

> <Gold.PLP.Chemscore.Internal.Correction>
0.0168

> <Gold.Rescore>
     Score         DG    S(hbond)    S(metal)    S(lipo)     H(rot)  DE(clash)    DE(int)     intcor
     11.89     -16.90       1.95        0.00      69.97       1.27       2.23       2.78       ----

> <Gold.Chemscore.Fitness>
11.8894

> <Gold.Chemscore.DG>
-16.9027

> <Gold.Chemscore.ZeroCoef>
-5.4800

> <Gold.Chemscore.Hbond>
1.9460

> <Gold.Chemscore.Metal>
0.0000

> <Gold.Chemscore.Lipo>
69.9663

> <Gold.Chemscore.Internal_Hbond>
0.0000

> <Gold.Chemscore.DEClash>
2.2321

> <Gold.Chemscore.DEInternal>
2.7811

> <Gold.Chemscore.Rot>
1.2746

> <Gold.Chemscore.Internal.Correction>
   9.000000E+99

> <Gold.Chemscore.Hbonds>
donor molecule, donor type, donor heavy atom, donor atom, acceptor molecule, acceptor atom, score
      L1  H     7    27       P1 10175  0.99
      L1  H    10    28       P1 10175  0.86

> <Gold.Chemscore.Hbond.Weighted>
-6.4996

> <Gold.Chemscore.Metal.Weighted>
-0.0000

> <Gold.Chemscore.Lipo.Weighted>
-8.1861

> <Gold.Chemscore.Internal_Hbond.Weighted>
0.0000

> <Gold.Chemscore.DEClash.Weighted>
2.2321

> <Gold.Chemscore.DEInternal.Weighted>
2.7811

> <Gold.Chemscore.Rot.Weighted>
3.2630

> <Gold.Chemscore.Internal.Correction.Weighted>
   9.000000E+99

> <Gold.Protein.RotatedTorsions>
[ 6907 6896 6895 6894 ] final   60.74 input  -60.11 | X-H torsion
[ 7974 7965 7964 7962 ] final  -83.18 input  175.53 | X-H torsion
[ 8008 7997 7996 7995 ] final   48.00 input   59.86 | X-H torsion
[ 10167 10162 10161 10158 ] final   64.75 input  -65.29 | X-H torsion
[ 10718 10713 10712 10709 ] final  -17.52 input   66.30 | X-H torsion
[ 10763 10752 10751 10750 ] final  164.25 input  -60.55 | X-H torsion
[ 11005 11000 10999 10996 ] final   88.09 input  -57.11 | X-H torsion

> <Gold.Protein.ActiveResidues>
 VAL166  LYS551  ARG553  GLY616  TRP617  ASP618  TYR619  PRO620  LYS621  CYS622 
 ASP623  PHE694  ASN695  SER759  ASP760  ASP761  ALA762  ILE779  LEU786  VAL792 
 PHE793  MET794  SER795  GLU796  ALA797  LYS798  CYS799  TRP800  GLU811  SER814 

> <Gold.Protein.RotatedAtoms>
  152.4029  134.6255  160.0061 H   0  0  0  0  0  0  0  0  0  0  0  0  # atno 6907 bound_to 6896
  151.6455  133.3318  159.3148 H   0  0  0  0  0  0  0  0  0  0  0  0  # atno 6908 bound_to 6896
  150.7927  134.7006  159.6593 H   0  0  0  0  0  0  0  0  0  0  0  0  # atno 6909 bound_to 6896
  145.5235  140.9529  143.1642 H   0  0  0  0  0  0  0  0  0  0  0  0  # atno 7974 bound_to 7965
  155.3784  140.3427  155.4246 H   0  0  0  0  0  0  0  0  0  0  0  0  # atno 8008 bound_to 7997
  156.1624  140.1605  156.8623 H   0  0  0  0  0  0  0  0  0  0  0  0  # atno 8009 bound_to 7997
  154.5152  140.0780  156.8049 H   0  0  0  0  0  0  0  0  0  0  0  0  # atno 8010 bound_to 7997
  140.1188  144.4751  150.6933 H   0  0  0  0  0  0  0  0  0  0  0  0  # atno 10167 bound_to 10162
  156.5724  130.4753  149.6356 H   0  0  0  0  0  0  0  0  0  0  0  0  # atno 10718 bound_to 10713
  154.3061  135.2758  155.2588 H   0  0  0  0  0  0  0  0  0  0  0  0  # atno 10763 bound_to 10752
  154.5003  135.5810  153.6530 H   0  0  0  0  0  0  0  0  0  0  0  0  # atno 10764 bound_to 10752
  152.9894  135.6156  154.3235 H   0  0  0  0  0  0  0  0  0  0  0  0  # atno 10765 bound_to 10752
  139.8904  134.8465  156.2952 H   0  0  0  0  0  0  0  0  0  0  0  0  # atno 11005 bound_to 11000
  144.7663  139.6837  143.7213 LP  0  0  0  0  0  0  0  0  0  0  0  0  # atno 17320 bound_to 7965
  146.2091  139.5434  142.9693 LP  0  0  0  0  0  0  0  0  0  0  0  0  # atno 17321 bound_to 7965
  140.6884  143.2362  151.5198 LP  0  0  0  0  0  0  0  0  0  0  0  0  # atno 17342 bound_to 10162
  139.5580  144.2228  152.1644 LP  0  0  0  0  0  0  0  0  0  0  0  0  # atno 17343 bound_to 10162
  156.2702  130.7013  151.1808 LP  0  0  0  0  0  0  0  0  0  0  0  0  # atno 17370 bound_to 10713
  157.7345  131.0581  150.5521 LP  0  0  0  0  0  0  0  0  0  0  0  0  # atno 17371 bound_to 10713
  140.9950  133.7185  156.0872 LP  0  0  0  0  0  0  0  0  0  0  0  0  # atno 17394 bound_to 11000
  140.7574  134.3977  157.5531 LP  0  0  0  0  0  0  0  0  0  0  0  0  # atno 17395 bound_to 11000

$$$$
