AV-unprocessed.smi:2748|AV-procd|sdf|10581|dock5
  -GOLD-   2272015 33D 1   1.00000     0.00000
 Structure written by MMmdl.
 30 32  0  0  0  0  0  0  0  0  1 V2000
  151.3319  136.4135  154.9438 O   0  0  0  0  0  0  0  0  0  0  0  0
  151.4543  137.1737  155.9024 C   0  0  0  0  0  0  0  0  0  0  0  0
  151.9287  136.6835  157.1228 N   0  0  0  0  0  0  0  0  0  0  0  0
  152.1122  137.4350  158.2839 C   0  0  0  0  0  0  0  0  0  0  0  0
  152.5479  136.8965  159.3017 O   0  0  0  0  0  0  0  0  0  0  0  0
  151.7794  138.8072  158.2128 N   0  0  0  0  0  0  0  0  0  0  0  0
  151.9775  139.6126  159.3926 C   0  0  0  0  0  0  0  0  0  0  0  0
  152.8650  140.8462  159.1365 C   0  0  2  0  0  0  0  0  0  0  0  0
  153.1285  141.6684  160.4262 C   0  0  0  0  0  0  0  0  0  0  0  0
  152.5547  142.9936  160.0658 C   0  0  0  0  0  0  0  0  0  0  0  0
  152.4961  144.1609  160.8462 C   0  0  0  0  0  0  0  0  0  0  0  0
  151.8896  145.3034  160.2787 C   0  0  0  0  0  0  0  0  0  0  0  0
  151.3628  145.2578  158.9653 C   0  0  0  0  0  0  0  0  0  0  0  0
  151.4355  144.0697  158.2033 C   0  0  0  0  0  0  0  0  0  0  0  0
  152.0420  142.9409  158.7819 C   0  0  0  0  0  0  0  0  0  0  0  0
  152.2039  141.7170  158.1974 O   0  0  0  0  0  0  0  0  0  0  0  0
  151.3151  139.3392  157.0198 C   0  0  0  0  0  0  0  0  0  0  0  0
  151.1430  138.6025  155.8958 C   0  0  0  0  0  0  0  0  0  0  0  0
  150.5611  139.3381  154.4452 Cl  0  0  0  0  0  0  0  0  0  0  0  0
  152.1626  135.7023  157.1663 H   0  0  0  0  0  0  0  0  0  0  0  0
  150.9839  139.9095  159.7329 H   0  0  0  0  0  0  0  0  0  0  0  0
  152.3821  138.9607  160.1698 H   0  0  0  0  0  0  0  0  0  0  0  0
  153.8202  140.5453  158.7043 H   0  0  0  0  0  0  0  0  0  0  0  0
  152.6212  141.2601  161.3010 H   0  0  0  0  0  0  0  0  0  0  0  0
  154.1935  141.7575  160.6425 H   0  0  0  0  0  0  0  0  0  0  0  0
  152.9006  144.1836  161.8473 H   0  0  0  0  0  0  0  0  0  0  0  0
  151.8271  146.2176  160.8506 H   0  0  0  0  0  0  0  0  0  0  0  0
  150.9023  146.1384  158.5421 H   0  0  0  0  0  0  0  0  0  0  0  0
  151.0356  144.0300  157.2009 H   0  0  0  0  0  0  0  0  0  0  0  0
  151.0815  140.3937  156.9789 H   0  0  0  0  0  0  0  0  0  0  0  0
  1  2  2  0  0  0  0
  2 18  1  0  0  0  0
  2  3  1  0  0  0  0
  3 20  1  0  0  0  0
  3  4  1  0  0  0  0
  4  5  2  0  0  0  0
  4  6  1  0  0  0  0
  6  7  1  0  0  0  0
  6 17  1  0  0  0  0
  7  8  1  0  0  0  0
  7 21  1  0  0  0  0
  7 22  1  0  0  0  0
  8 16  1  0  0  0  0
  8  9  1  0  0  0  0
  8 23  1  0  0  0  0
  9 10  1  0  0  0  0
  9 24  1  0  0  0  0
  9 25  1  0  0  0  0
 10 15  2  0  0  0  0
 10 11  1  0  0  0  0
 11 12  2  0  0  0  0
 11 26  1  0  0  0  0
 12 13  1  0  0  0  0
 12 27  1  0  0  0  0
 13 14  2  0  0  0  0
 13 28  1  0  0  0  0
 14 15  1  0  0  0  0
 14 29  1  0  0  0  0
 15 16  1  0  0  0  0
 17 18  2  0  0  0  0
 17 30  1  0  0  0  0
 18 19  1  0  0  0  0
M  END
> <s_m_source_file>
AV-unprocessed.smi

> <i_m_source_file_index>
2748

> <i_lp_mmshare_version>
43012

> <i_f3d_flags>
0

> <s_epik_input>
Tz1jMVtuSF1jKD1PKW4oW2NIXWMxQ2wpW0NIMl1bQ0BIXShbQ0gyXTIpT2MoYzIzKVtjSF1bY0hdW2NIXVtjSF0z

> <s_epik_cmdline>
J2VwaWtfcHl0aG9uJywgJy1waCcsICc3LjAnLCAnLXRuJywgJzgnLCAnLW1hJywgJzIwMCcsICctbWV0YWxfYmluZGluZycsICctaW1hZScsICc8aW5maWxlLm1hZT4nLCAnLW9tYWUnLCAnPG91dGZpbGUubWFlPic=

> <r_lp_tautomer_probability>
0.999537

> <r_epik_Ionization_Penalty>
0.0203523

> <r_epik_Ionization_Penalty_Charging>
0.0203523

> <r_epik_Ionization_Penalty_Neutral>
0

> <r_epik_State_Penalty>
0.0163078

> <r_epik_Charging_Adjusted_Penalty>
0.0366602

> <i_epik_Tot_Q>
0

> <i_epik_Tot_abs_Q>
0

> <r_epik_Metal_State_Penalty>
1.99317

> <b_epik_Metal_Only>
0

> <s_lp_Force_Field>
OPLS_2005

> <r_lp_Energy>
20.6728

> <b_lp_Chiralities_Consistent>
1

> <s_lp_Variant>
AV-unprocessed.smi:2748-1

> <Gold.Version>
5.8.1

> <Gold.Id.Protein>
6NUR|6NUR_protein|mol2

> <Gold.PLP.Fitness>
44.6413

> <Gold.PLP.PLP>
-38.7215

> <Gold.PLP.part.hbond>
-2.0000

> <Gold.PLP.part.metal>
0.0000

> <Gold.PLP.part.buried>
-4.1177

> <Gold.PLP.part.nonpolar>
-32.2038

> <Gold.PLP.part.repulsive>
0.2758

> <Gold.PLP.ligand.clash>
0.0000

> <Gold.PLP.ligand.torsion>
0.0411

> <Gold.PLP.Chemscore.Hbond>
2.0000

> <Gold.PLP.Chemscore.CHOScore>
0.0000

> <Gold.PLP.Chemscore.Metal>
0.0000

> <Gold.Chemscore.Hbonds>
donor molecule, donor type, donor heavy atom, donor atom, acceptor molecule, acceptor atom, score
      P1  H  6896  6908       L1     5  0.98
      P1  H 10752 10764       L1     1  1.00

> <Gold.PLP.Chemscore.Internal.Correction>
0.0020

> <Gold.Rescore>
     Score         DG    S(hbond)    S(metal)    S(lipo)     H(rot)  DE(clash)    DE(int)     intcor
     20.19     -21.72       1.88        0.00     113.78       1.31       0.10       1.43       ----

> <Gold.Chemscore.Fitness>
20.1863

> <Gold.Chemscore.DG>
-21.7157

> <Gold.Chemscore.ZeroCoef>
-5.4800

> <Gold.Chemscore.Hbond>
1.8815

> <Gold.Chemscore.Metal>
0.0000

> <Gold.Chemscore.Lipo>
113.7806

> <Gold.Chemscore.Internal_Hbond>
0.0000

> <Gold.Chemscore.DEClash>
0.0958

> <Gold.Chemscore.DEInternal>
1.4336

> <Gold.Chemscore.Rot>
1.3129

> <Gold.Chemscore.Internal.Correction>
   9.000000E+99

> <Gold.Chemscore.Hbonds>
donor molecule, donor type, donor heavy atom, donor atom, acceptor molecule, acceptor atom, score
      P1  H  6896  6908       L1     5  0.89
      P1  H 10752 10764       L1     1  0.88

> <Gold.Chemscore.Hbond.Weighted>
-6.2844

> <Gold.Chemscore.Metal.Weighted>
-0.0000

> <Gold.Chemscore.Lipo.Weighted>
-13.3123

> <Gold.Chemscore.Internal_Hbond.Weighted>
0.0000

> <Gold.Chemscore.DEClash.Weighted>
0.0958

> <Gold.Chemscore.DEInternal.Weighted>
1.4336

> <Gold.Chemscore.Rot.Weighted>
3.3610

> <Gold.Chemscore.Internal.Correction.Weighted>
   9.000000E+99

> <Gold.Protein.RotatedTorsions>
[ 6907 6896 6895 6894 ] final -106.49 input  -60.11 | X-H torsion
[ 7974 7965 7964 7962 ] final   91.35 input  175.53 | X-H torsion
[ 8008 7997 7996 7995 ] final   -4.67 input   59.86 | X-H torsion
[ 10167 10162 10161 10158 ] final   -1.06 input  -65.29 | X-H torsion
[ 10718 10713 10712 10709 ] final -118.29 input   66.30 | X-H torsion
[ 10763 10752 10751 10750 ] final  -70.38 input  -60.55 | X-H torsion
[ 11005 11000 10999 10996 ] final -168.51 input  -57.11 | X-H torsion

> <Gold.Protein.ActiveResidues>
 VAL166  LYS551  ARG553  GLY616  TRP617  ASP618  TYR619  PRO620  LYS621  CYS622 
 ASP623  PHE694  ASN695  SER759  ASP760  ASP761  ALA762  ILE779  LEU786  VAL792 
 PHE793  MET794  SER795  GLU796  ALA797  LYS798  CYS799  TRP800  GLU811  SER814 

> <Gold.Protein.RotatedAtoms>
  150.7392  133.9968  159.3624 H   0  0  0  0  0  0  0  0  0  0  0  0  # atno 6907 bound_to 6896
  151.7919  135.0731  160.0398 H   0  0  0  0  0  0  0  0  0  0  0  0  # atno 6908 bound_to 6896
  152.3202  133.5808  159.5775 H   0  0  0  0  0  0  0  0  0  0  0  0  # atno 6909 bound_to 6896
  145.5069  139.2276  143.2746 H   0  0  0  0  0  0  0  0  0  0  0  0  # atno 7974 bound_to 7965
  154.6118  140.2478  155.7659 H   0  0  0  0  0  0  0  0  0  0  0  0  # atno 8008 bound_to 7997
  156.2375  140.2945  156.0303 H   0  0  0  0  0  0  0  0  0  0  0  0  # atno 8009 bound_to 7997
  155.2039  140.0395  157.2912 H   0  0  0  0  0  0  0  0  0  0  0  0  # atno 8010 bound_to 7997
  140.6794  143.6820  150.8098 H   0  0  0  0  0  0  0  0  0  0  0  0  # atno 10167 bound_to 10162
  156.1095  130.6238  150.9272 H   0  0  0  0  0  0  0  0  0  0  0  0  # atno 10718 bound_to 10713
  154.4168  135.5996  153.5986 H   0  0  0  0  0  0  0  0  0  0  0  0  # atno 10763 bound_to 10752
  152.9792  135.5942  154.4003 H   0  0  0  0  0  0  0  0  0  0  0  0  # atno 10764 bound_to 10752
  154.3823  135.2841  155.2182 H   0  0  0  0  0  0  0  0  0  0  0  0  # atno 10765 bound_to 10752
  140.5412  134.5520  157.5100 H   0  0  0  0  0  0  0  0  0  0  0  0  # atno 11005 bound_to 11000
  146.2191  140.5873  142.9025 LP  0  0  0  0  0  0  0  0  0  0  0  0  # atno 17320 bound_to 7965
  144.7749  140.5718  143.6645 LP  0  0  0  0  0  0  0  0  0  0  0  0  # atno 17321 bound_to 7965
  140.0518  143.5242  152.2670 LP  0  0  0  0  0  0  0  0  0  0  0  0  # atno 17342 bound_to 10162
  139.6107  144.7608  151.2959 LP  0  0  0  0  0  0  0  0  0  0  0  0  # atno 17343 bound_to 10162
  157.6275  131.0924  150.8505 LP  0  0  0  0  0  0  0  0  0  0  0  0  # atno 17370 bound_to 10713
  156.8618  130.5115  149.5303 LP  0  0  0  0  0  0  0  0  0  0  0  0  # atno 17371 bound_to 10713
  139.9503  134.7629  156.0464 LP  0  0  0  0  0  0  0  0  0  0  0  0  # atno 17394 bound_to 11000
  141.1226  133.6608  156.3254 LP  0  0  0  0  0  0  0  0  0  0  0  0  # atno 17395 bound_to 11000

$$$$
