AV-unprocessed.smi:153|AV-procd|sdf|1259|dock3
  -GOLD-   2262018503D 1   1.00000     0.00000
 Structure written by MMmdl.
 59 62  0  0  0  0  0  0  0  0  1 V2000
  143.5262  132.7073  148.9188 C   0  0  0  0  0  0  0  0  0  0  0  0
  143.7518  132.5534  150.4314 C   0  0  1  0  0  0  0  0  0  0  0  0
  144.2299  131.2437  150.7130 O   0  0  0  0  0  0  0  0  0  0  0  0
  144.9118  131.2902  151.9530 C   0  0  0  0  0  0  0  0  0  0  0  0
  145.7210  132.5717  151.8279 C   0  0  0  0  0  0  0  0  0  0  0  0
  144.7698  133.5226  151.0932 C   0  0  1  0  0  0  0  0  0  0  0  0
  145.5241  134.2441  150.1329 O   0  0  0  0  0  0  0  0  0  0  0  0
  144.0524  134.5380  152.0213 C   0  0  0  0  0  0  0  0  0  0  0  0
  144.9268  135.5643  152.5697 N   0  0  0  0  0  0  0  0  0  0  0  0
  145.3983  136.6780  151.9173 C   0  0  0  0  0  0  0  0  0  0  0  0
  146.1791  137.4427  152.6267 N   0  0  0  0  0  0  0  0  0  0  0  0
  146.2469  136.8269  153.8733 C   0  0  0  0  0  0  0  0  0  0  0  0
  146.9189  137.1090  155.1060 C   0  0  0  0  0  0  0  0  0  0  0  0
  147.7655  138.1612  155.3251 N   0  0  0  0  0  0  0  0  0  0  0  0
  148.1567  138.4712  156.6993 C   0  0  0  0  0  0  0  0  0  0  0  0
  148.6559  138.6309  154.2641 C   0  0  0  0  0  0  0  0  0  0  0  0
  149.2891  140.0079  154.5716 C   0  0  2  0  0  0  0  0  0  0  0  0
  149.6185  140.6776  153.3718 O   0  0  0  0  0  0  0  0  0  0  0  0
  150.5374  139.9327  155.4792 C   0  0  0  0  0  0  0  0  0  0  0  0
  150.5629  140.8219  156.6436 N   0  0  0  0  0  0  0  0  0  0  0  0
  150.8152  142.2006  156.2373 C   0  0  0  0  0  0  0  0  0  0  0  0
  150.8436  143.1606  157.4387 C   0  0  0  0  0  0  0  0  0  0  0  0
  151.8253  142.7242  158.3724 O   0  0  0  0  0  0  0  0  0  0  0  0
  151.5917  141.3976  158.8329 C   0  0  0  0  0  0  0  0  0  0  0  0
  151.5614  140.4313  157.6361 C   0  0  0  0  0  0  0  0  0  0  0  0
  146.6915  136.2421  156.1310 N   0  0  0  0  0  0  0  0  0  0  0  0
  145.9000  135.1788  155.9753 C   0  0  0  0  0  0  0  0  0  0  0  0
  145.2375  134.7876  154.8881 N   0  0  0  0  0  0  0  0  0  0  0  0
  145.4409  135.6495  153.8525 C   0  0  0  0  0  0  0  0  0  0  0  0
  143.1612  133.7052  148.6747 H   0  0  0  0  0  0  0  0  0  0  0  0
  142.7863  131.9892  148.5646 H   0  0  0  0  0  0  0  0  0  0  0  0
  144.4452  132.5347  148.3576 H   0  0  0  0  0  0  0  0  0  0  0  0
  142.7863  132.6428  150.9322 H   0  0  0  0  0  0  0  0  0  0  0  0
  144.1944  131.3551  152.7727 H   0  0  0  0  0  0  0  0  0  0  0  0
  145.5360  130.4093  152.1034 H   0  0  0  0  0  0  0  0  0  0  0  0
  146.0754  132.9361  152.7906 H   0  0  0  0  0  0  0  0  0  0  0  0
  146.6030  132.3622  151.2197 H   0  0  0  0  0  0  0  0  0  0  0  0
  145.6144  133.7076  149.3603 H   0  0  0  0  0  0  0  0  0  0  0  0
  143.2471  135.0354  151.4788 H   0  0  0  0  0  0  0  0  0  0  0  0
  143.5787  134.0159  152.8535 H   0  0  0  0  0  0  0  0  0  0  0  0
  145.1509  136.9038  150.8901 H   0  0  0  0  0  0  0  0  0  0  0  0
  147.2817  138.6879  157.3129 H   0  0  0  0  0  0  0  0  0  0  0  0
  148.8065  139.3456  156.7361 H   0  0  0  0  0  0  0  0  0  0  0  0
  148.6976  137.6351  157.1443 H   0  0  0  0  0  0  0  0  0  0  0  0
  149.4193  137.8781  154.0818 H   0  0  0  0  0  0  0  0  0  0  0  0
  148.1082  138.6807  153.3223 H   0  0  0  0  0  0  0  0  0  0  0  0
  148.5673  140.6426  155.0866 H   0  0  0  0  0  0  0  0  0  0  0  0
  149.5205  140.0702  152.6547 H   0  0  0  0  0  0  0  0  0  0  0  0
  150.7173  138.9012  155.7867 H   0  0  0  0  0  0  0  0  0  0  0  0
  151.3868  140.1934  154.8464 H   0  0  0  0  0  0  0  0  0  0  0  0
  151.7658  142.2615  155.7052 H   0  0  0  0  0  0  0  0  0  0  0  0
  150.0449  142.5271  155.5375 H   0  0  0  0  0  0  0  0  0  0  0  0
  151.0870  144.1715  157.1114 H   0  0  0  0  0  0  0  0  0  0  0  0
  149.8660  143.2052  157.9213 H   0  0  0  0  0  0  0  0  0  0  0  0
  152.3830  141.1162  159.5276 H   0  0  0  0  0  0  0  0  0  0  0  0
  150.6512  141.3570  159.3846 H   0  0  0  0  0  0  0  0  0  0  0  0
  151.3531  139.4294  158.0085 H   0  0  0  0  0  0  0  0  0  0  0  0
  152.5492  140.3969  157.1740 H   0  0  0  0  0  0  0  0  0  0  0  0
  145.7866  134.5488  156.8452 H   0  0  0  0  0  0  0  0  0  0  0  0
  1  2  1  0  0  0  0
  1 30  1  0  0  0  0
  1 31  1  0  0  0  0
  1 32  1  0  0  0  0
  2  6  1  0  0  0  0
  2  3  1  0  0  0  0
  2 33  1  0  0  0  0
  3  4  1  0  0  0  0
  4  5  1  0  0  0  0
  4 34  1  0  0  0  0
  4 35  1  0  0  0  0
  5  6  1  0  0  0  0
  5 36  1  0  0  0  0
  5 37  1  0  0  0  0
  6  7  1  0  0  0  0
  6  8  1  0  0  0  0
  7 38  1  0  0  0  0
  8  9  1  0  0  0  0
  8 39  1  0  0  0  0
  8 40  1  0  0  0  0
  9 29  1  0  0  0  0
  9 10  1  0  0  0  0
 10 11  2  0  0  0  0
 10 41  1  0  0  0  0
 11 12  1  0  0  0  0
 12 29  2  0  0  0  0
 12 13  1  0  0  0  0
 13 14  1  0  0  0  0
 13 26  2  0  0  0  0
 14 15  1  0  0  0  0
 14 16  1  0  0  0  0
 15 42  1  0  0  0  0
 15 43  1  0  0  0  0
 15 44  1  0  0  0  0
 16 17  1  0  0  0  0
 16 45  1  0  0  0  0
 16 46  1  0  0  0  0
 17 18  1  0  0  0  0
 17 19  1  0  0  0  0
 17 47  1  0  0  0  0
 18 48  1  0  0  0  0
 19 20  1  0  0  0  0
 19 49  1  0  0  0  0
 19 50  1  0  0  0  0
 20 25  1  0  0  0  0
 20 21  1  0  0  0  0
 21 22  1  0  0  0  0
 21 51  1  0  0  0  0
 21 52  1  0  0  0  0
 22 23  1  0  0  0  0
 22 53  1  0  0  0  0
 22 54  1  0  0  0  0
 23 24  1  0  0  0  0
 24 25  1  0  0  0  0
 24 55  1  0  0  0  0
 24 56  1  0  0  0  0
 25 57  1  0  0  0  0
 25 58  1  0  0  0  0
 26 27  1  0  0  0  0
 27 28  2  0  0  0  0
 27 59  1  0  0  0  0
 28 29  1  0  0  0  0
M  END
> <s_m_source_file>
AV-unprocessed.smi

> <i_m_source_file_index>
153

> <i_lp_mmshare_version>
43012

> <i_f3d_flags>
0

> <s_epik_input>
W0NIMl0xW0NIMl1PW0NAQEhdKFtDSDNdKVtDQEBdMShbT0hdKVtDSDJdbihbY0hdbjIpYyhjMjMpbltjSF1uYzNOKFtDSDNdKVtDSDJdW0NASF0oW09IXSlbQ0gyXU40W0NIMl1bQ0gyXU9bQ0gyXVtDSDJdNA==

> <s_epik_cmdline>
J2VwaWtfcHl0aG9uJywgJy1waCcsICc3LjAnLCAnLXRuJywgJzgnLCAnLW1hJywgJzIwMCcsICctbWV0YWxfYmluZGluZycsICctaW1hZScsICc8aW5maWxlLm1hZT4nLCAnLW9tYWUnLCAnPG91dGZpbGUubWFlPic=

> <r_lp_tautomer_probability>
1

> <r_epik_Ionization_Penalty>
0.424123

> <r_epik_Ionization_Penalty_Charging>
0

> <r_epik_Ionization_Penalty_Neutral>
0.424123

> <r_epik_State_Penalty>
0.421495

> <r_epik_Charging_Adjusted_Penalty>
0.421495

> <i_epik_Tot_Q>
0

> <i_epik_Tot_abs_Q>
0

> <r_epik_Metal_State_Penalty>
0.421223

> <b_epik_Metal_Only>
0

> <s_lp_Force_Field>
OPLS_2005

> <r_lp_Energy>
57.6451

> <b_lp_Chiralities_Consistent>
1

> <s_lp_Variant>
AV-unprocessed.smi:153-10

> <Gold.Version>
5.8.1

> <Gold.Id.Protein>
6NUR|6NUR_protein|mol2

> <Gold.PLP.Fitness>
47.4910

> <Gold.PLP.PLP>
-39.7978

> <Gold.PLP.part.hbond>
-4.0567

> <Gold.PLP.part.metal>
0.0000

> <Gold.PLP.part.buried>
-4.0108

> <Gold.PLP.part.nonpolar>
-32.4392

> <Gold.PLP.part.repulsive>
0.5668

> <Gold.PLP.ligand.clash>
0.0000

> <Gold.PLP.ligand.torsion>
1.8840

> <Gold.PLP.Chemscore.Hbond>
2.5545

> <Gold.PLP.Chemscore.CHOScore>
1.0000

> <Gold.PLP.Chemscore.Metal>
0.0000

> <Gold.Chemscore.Hbonds>
donor molecule, donor type, donor heavy atom, donor atom, acceptor molecule, acceptor atom, score
      L1  H     7    38       P1  7921  0.22
      L1  H    18    48       P1  7957  0.73
      P1  H  7989  7998       L1    18  0.34
      P1  H  8011  8017       L1    18  0.95
      L1  C    10    41       P1 10171  1.00

> <Gold.PLP.Chemscore.Internal.Correction>
0.7978

> <Gold.Rescore>
     Score         DG    S(hbond)    S(metal)    S(lipo)     H(rot)  DE(clash)    DE(int)     intcor
      9.01     -11.71       1.12        0.00      98.20       3.52       0.07       2.62       ----

> <Gold.Chemscore.Fitness>
9.0138

> <Gold.Chemscore.DG>
-11.7089

> <Gold.Chemscore.ZeroCoef>
-5.4800

> <Gold.Chemscore.Hbond>
1.1206

> <Gold.Chemscore.Metal>
0.0000

> <Gold.Chemscore.Lipo>
98.2037

> <Gold.Chemscore.Internal_Hbond>
0.0000

> <Gold.Chemscore.DEClash>
0.0708

> <Gold.Chemscore.DEInternal>
2.6243

> <Gold.Chemscore.Rot>
3.5170

> <Gold.Chemscore.Internal.Correction>
   9.000000E+99

> <Gold.Chemscore.Hbonds>
donor molecule, donor type, donor heavy atom, donor atom, acceptor molecule, acceptor atom, score
      L1  H     7    38       P1  7921  0.09
      L1  H    18    48       P1  7957  0.70
      P1  H  7989  7998       L1    18  0.06
      P1  H  8011  8017       L1    18  0.20

> <Gold.Chemscore.Hbond.Weighted>
-3.7426

> <Gold.Chemscore.Metal.Weighted>
-0.0000

> <Gold.Chemscore.Lipo.Weighted>
-11.4898

> <Gold.Chemscore.Internal_Hbond.Weighted>
0.0000

> <Gold.Chemscore.DEClash.Weighted>
0.0708

> <Gold.Chemscore.DEInternal.Weighted>
2.6243

> <Gold.Chemscore.Rot.Weighted>
9.0036

> <Gold.Chemscore.Internal.Correction.Weighted>
   9.000000E+99

> <Gold.Protein.RotatedTorsions>
[ 6907 6896 6895 6894 ] final -158.24 input  -60.11 | X-H torsion
[ 7974 7965 7964 7962 ] final  -11.03 input  175.53 | X-H torsion
[ 8008 7997 7996 7995 ] final  132.96 input   59.86 | X-H torsion
[ 10167 10162 10161 10158 ] final   43.96 input  -65.29 | X-H torsion
[ 10718 10713 10712 10709 ] final -155.92 input   66.30 | X-H torsion
[ 10763 10752 10751 10750 ] final  174.54 input  -60.55 | X-H torsion
[ 11005 11000 10999 10996 ] final  -77.86 input  -57.11 | X-H torsion

> <Gold.Protein.ActiveResidues>
 VAL166  LYS551  ARG553  GLY616  TRP617  ASP618  TYR619  PRO620  LYS621  CYS622 
 ASP623  PHE694  ASN695  SER759  ASP760  ASP761  ALA762  ILE779  LEU786  VAL792 
 PHE793  MET794  SER795  GLU796  ALA797  LYS798  CYS799  TRP800  GLU811  SER814 

> <Gold.Protein.RotatedAtoms>
  151.3152  133.4063  159.2649 H   0  0  0  0  0  0  0  0  0  0  0  0  # atno 6907 bound_to 6896
  151.0081  134.9376  159.8002 H   0  0  0  0  0  0  0  0  0  0  0  0  # atno 6908 bound_to 6896
  152.5293  134.3116  159.9168 H   0  0  0  0  0  0  0  0  0  0  0  0  # atno 6909 bound_to 6896
  146.2201  140.2851  142.8365 H   0  0  0  0  0  0  0  0  0  0  0  0  # atno 7974 bound_to 7965
  156.2988  140.2533  156.3174 H   0  0  0  0  0  0  0  0  0  0  0  0  # atno 8008 bound_to 7997
  154.9268  140.0399  157.2046 H   0  0  0  0  0  0  0  0  0  0  0  0  # atno 8009 bound_to 7997
  154.8257  140.2867  155.5760 H   0  0  0  0  0  0  0  0  0  0  0  0  # atno 8010 bound_to 7997
  140.3391  144.2492  150.6158 H   0  0  0  0  0  0  0  0  0  0  0  0  # atno 10167 bound_to 10162
  156.5194  130.8471  151.2676 H   0  0  0  0  0  0  0  0  0  0  0  0  # atno 10718 bound_to 10713
  154.4553  135.2766  155.1752 H   0  0  0  0  0  0  0  0  0  0  0  0  # atno 10763 bound_to 10752
  154.3562  135.6139  153.5671 H   0  0  0  0  0  0  0  0  0  0  0  0  # atno 10764 bound_to 10752
  152.9850  135.5823  154.4905 H   0  0  0  0  0  0  0  0  0  0  0  0  # atno 10765 bound_to 10752
  141.1662  133.7039  156.7884 H   0  0  0  0  0  0  0  0  0  0  0  0  # atno 11005 bound_to 11000
  144.9168  140.7822  143.5773 LP  0  0  0  0  0  0  0  0  0  0  0  0  # atno 17320 bound_to 7965
  145.2785  139.1927  143.4804 LP  0  0  0  0  0  0  0  0  0  0  0  0  # atno 17321 bound_to 7965
  140.5326  143.2240  151.8215 LP  0  0  0  0  0  0  0  0  0  0  0  0  # atno 17342 bound_to 10162
  139.4843  144.4702  151.9435 LP  0  0  0  0  0  0  0  0  0  0  0  0  # atno 17343 bound_to 10162
  157.7439  130.9922  150.2629 LP  0  0  0  0  0  0  0  0  0  0  0  0  # atno 17370 bound_to 10713
  156.3164  130.3779  149.7615 LP  0  0  0  0  0  0  0  0  0  0  0  0  # atno 17371 bound_to 10713
  140.2343  134.8662  157.3509 LP  0  0  0  0  0  0  0  0  0  0  0  0  # atno 17394 bound_to 11000
  140.1859  134.4431  155.7744 LP  0  0  0  0  0  0  0  0  0  0  0  0  # atno 17395 bound_to 11000

$$$$
