AV-unprocessed.smi:2759|AV-procd|sdf|10627|dock5
  -GOLD-   2272015 73D 1   1.00000     0.00000
 Structure written by MMmdl.
 43 44  0  0  0  0  0  0  0  0  1 V2000
  150.2216  144.5501  159.7666 C   0  0  0  0  0  0  0  0  0  0  0  0
  151.0363  143.2602  159.5557 C   0  0  0  0  0  0  0  0  0  0  0  0
  152.5352  143.6171  159.5217 C   0  0  0  0  0  0  0  0  0  0  0  0
  150.6026  142.4745  158.2891 C   0  0  1  0  0  0  0  0  0  0  0  0
  150.7029  143.3345  157.1684 O   0  0  0  0  0  0  0  0  0  0  0  0
  151.4649  141.2282  157.9893 C   0  0  0  0  0  0  0  0  0  0  0  0
  151.1245  140.5789  156.6872 C   0  0  0  0  0  0  0  0  0  0  0  0
  151.5095  139.3780  156.2623 N   0  0  0  0  0  0  0  0  0  0  0  0
  150.9444  139.3444  155.0232 C   0  0  0  0  0  0  0  0  0  0  0  0
  151.0674  138.1668  154.1068 C   0  0  0  0  0  0  0  0  0  0  0  0
  150.8250  136.8425  154.8412 C   0  0  0  0  0  0  0  0  0  0  0  0
  151.1347  136.7131  156.0265 O   0  0  0  0  0  0  0  0  0  0  0  0
  150.2706  135.8581  154.1166 N   0  0  0  0  0  0  0  0  0  0  0  0
  149.9463  134.5251  154.6185 C   0  0  0  0  0  0  0  0  0  0  0  0
  151.2244  133.7589  155.0108 C   0  0  0  0  0  0  0  0  0  0  0  0
  151.1085  132.3797  154.3593 C   0  0  0  0  0  0  0  0  0  0  0  0
  150.2744  132.6235  153.1060 C   0  0  0  0  0  0  0  0  0  0  0  0
  149.2504  133.6733  153.5383 C   0  0  0  0  0  0  0  0  0  0  0  0
  150.2840  140.4381  154.6588 N   0  0  0  0  0  0  0  0  0  0  0  0
  150.4059  141.2776  155.7754 O   0  0  0  0  0  0  0  0  0  0  0  0
  150.2663  145.1952  158.8885 H   0  0  0  0  0  0  0  0  0  0  0  0
  150.6044  145.1202  160.6137 H   0  0  0  0  0  0  0  0  0  0  0  0
  149.1740  144.3445  159.9819 H   0  0  0  0  0  0  0  0  0  0  0  0
  150.8712  142.6230  160.4261 H   0  0  0  0  0  0  0  0  0  0  0  0
  152.7759  144.2305  158.6529 H   0  0  0  0  0  0  0  0  0  0  0  0
  153.1646  142.7278  159.4860 H   0  0  0  0  0  0  0  0  0  0  0  0
  152.8269  144.1756  160.4117 H   0  0  0  0  0  0  0  0  0  0  0  0
  149.5599  142.1739  158.4028 H   0  0  0  0  0  0  0  0  0  0  0  0
  149.8310  143.5399  156.8665 H   0  0  0  0  0  0  0  0  0  0  0  0
  152.5259  141.4818  157.9993 H   0  0  0  0  0  0  0  0  0  0  0  0
  151.3271  140.4683  158.7562 H   0  0  0  0  0  0  0  0  0  0  0  0
  150.3585  138.2768  153.2847 H   0  0  0  0  0  0  0  0  0  0  0  0
  152.0646  138.1490  153.6660 H   0  0  0  0  0  0  0  0  0  0  0  0
  150.0489  136.0467  153.1498 H   0  0  0  0  0  0  0  0  0  0  0  0
  149.2948  134.6073  155.4908 H   0  0  0  0  0  0  0  0  0  0  0  0
  152.1114  134.2615  154.6215 H   0  0  0  0  0  0  0  0  0  0  0  0
  151.3451  133.6877  156.0923 H   0  0  0  0  0  0  0  0  0  0  0  0
  152.0796  131.9353  154.1395 H   0  0  0  0  0  0  0  0  0  0  0  0
  150.5751  131.7017  155.0269 H   0  0  0  0  0  0  0  0  0  0  0  0
  150.9077  133.0298  152.3161 H   0  0  0  0  0  0  0  0  0  0  0  0
  149.8087  131.7135  152.7265 H   0  0  0  0  0  0  0  0  0  0  0  0
  148.3871  133.1727  153.9787 H   0  0  0  0  0  0  0  0  0  0  0  0
  148.8826  134.2564  152.6929 H   0  0  0  0  0  0  0  0  0  0  0  0
  1  2  1  0  0  0  0
  1 21  1  0  0  0  0
  1 22  1  0  0  0  0
  1 23  1  0  0  0  0
  2  3  1  0  0  0  0
  2  4  1  0  0  0  0
  2 24  1  0  0  0  0
  3 25  1  0  0  0  0
  3 26  1  0  0  0  0
  3 27  1  0  0  0  0
  4  5  1  0  0  0  0
  4  6  1  0  0  0  0
  4 28  1  0  0  0  0
  5 29  1  0  0  0  0
  6  7  1  0  0  0  0
  6 30  1  0  0  0  0
  6 31  1  0  0  0  0
  7 20  1  0  0  0  0
  7  8  2  0  0  0  0
  8  9  1  0  0  0  0
  9 10  1  0  0  0  0
  9 19  2  0  0  0  0
 10 11  1  0  0  0  0
 10 32  1  0  0  0  0
 10 33  1  0  0  0  0
 11 12  2  0  0  0  0
 11 13  1  0  0  0  0
 13 14  1  0  0  0  0
 13 34  1  0  0  0  0
 14 18  1  0  0  0  0
 14 15  1  0  0  0  0
 14 35  1  0  0  0  0
 15 16  1  0  0  0  0
 15 36  1  0  0  0  0
 15 37  1  0  0  0  0
 16 17  1  0  0  0  0
 16 38  1  0  0  0  0
 16 39  1  0  0  0  0
 17 18  1  0  0  0  0
 17 40  1  0  0  0  0
 17 41  1  0  0  0  0
 18 42  1  0  0  0  0
 18 43  1  0  0  0  0
 19 20  1  0  0  0  0
M  END
> <s_m_source_file>
AV-unprocessed.smi

> <i_m_source_file_index>
2759

> <i_lp_mmshare_version>
43012

> <i_f3d_flags>
0

> <s_epik_input>
W0NIM11bQ0hdKFtDSDNdKVtDQEhdKFtPSF0pW0NIMl1jMW5jKG5vMSlbQ0gyXUMoPU8pW05IXVtDSF0yW0NIMl1bQ0gyXVtDSDJdW0NIMl0y

> <s_epik_cmdline>
J2VwaWtfcHl0aG9uJywgJy1waCcsICc3LjAnLCAnLXRuJywgJzgnLCAnLW1hJywgJzIwMCcsICctbWV0YWxfYmluZGluZycsICctaW1hZScsICc8aW5maWxlLm1hZT4nLCAnLW9tYWUnLCAnPG91dGZpbGUubWFlPic=

> <r_lp_tautomer_probability>
1

> <r_epik_Ionization_Penalty>
1.20032e-07

> <r_epik_Ionization_Penalty_Charging>
0

> <r_epik_Ionization_Penalty_Neutral>
1.20032e-07

> <r_epik_State_Penalty>
-0

> <r_epik_Charging_Adjusted_Penalty>
0

> <i_epik_Tot_Q>
0

> <i_epik_Tot_abs_Q>
0

> <r_epik_Metal_State_Penalty>
-0

> <b_epik_Metal_Only>
0

> <s_lp_Force_Field>
OPLS_2005

> <r_lp_Energy>
21.2868

> <b_lp_Chiralities_Consistent>
1

> <s_lp_Variant>
AV-unprocessed.smi:2759-2

> <Gold.Version>
5.8.1

> <Gold.Id.Protein>
6NUR|6NUR_protein|mol2

> <Gold.PLP.Fitness>
47.3466

> <Gold.PLP.PLP>
-39.9810

> <Gold.PLP.part.hbond>
-4.0334

> <Gold.PLP.part.metal>
0.0000

> <Gold.PLP.part.buried>
-3.9371

> <Gold.PLP.part.nonpolar>
-31.9983

> <Gold.PLP.part.repulsive>
0.2362

> <Gold.PLP.ligand.clash>
0.0000

> <Gold.PLP.ligand.torsion>
0.8305

> <Gold.PLP.Chemscore.Hbond>
2.9920

> <Gold.PLP.Chemscore.CHOScore>
0.0000

> <Gold.PLP.Chemscore.Metal>
0.0000

> <Gold.Chemscore.Hbonds>
donor molecule, donor type, donor heavy atom, donor atom, acceptor molecule, acceptor atom, score
      L1  H     5    29       P1  8028  0.82
      L1  H    13    34       P1  7948  0.20
      P1  H  7989  7998       L1    19  0.55

> <Gold.PLP.Chemscore.Internal.Correction>
0.0507

> <Gold.Rescore>
     Score         DG    S(hbond)    S(metal)    S(lipo)     H(rot)  DE(clash)    DE(int)     intcor
     11.66     -15.22       1.98        0.00      84.83       2.65       0.09       3.47       ----

> <Gold.Chemscore.Fitness>
11.6603

> <Gold.Chemscore.DG>
-15.2223

> <Gold.Chemscore.ZeroCoef>
-5.4800

> <Gold.Chemscore.Hbond>
1.9797

> <Gold.Chemscore.Metal>
0.0000

> <Gold.Chemscore.Lipo>
84.8294

> <Gold.Chemscore.Internal_Hbond>
0.0000

> <Gold.Chemscore.DEClash>
0.0926

> <Gold.Chemscore.DEInternal>
3.4694

> <Gold.Chemscore.Rot>
2.6543

> <Gold.Chemscore.Internal.Correction>
   9.000000E+99

> <Gold.Chemscore.Hbonds>
donor molecule, donor type, donor heavy atom, donor atom, acceptor molecule, acceptor atom, score
      L1  H     5    29       P1  8028  0.81
      P1  H  7989  7998       L1    19  0.02

> <Gold.Chemscore.Hbond.Weighted>
-6.6123

> <Gold.Chemscore.Metal.Weighted>
-0.0000

> <Gold.Chemscore.Lipo.Weighted>
-9.9250

> <Gold.Chemscore.Internal_Hbond.Weighted>
0.0000

> <Gold.Chemscore.DEClash.Weighted>
0.0926

> <Gold.Chemscore.DEInternal.Weighted>
3.4694

> <Gold.Chemscore.Rot.Weighted>
6.7950

> <Gold.Chemscore.Internal.Correction.Weighted>
   9.000000E+99

> <Gold.Protein.RotatedTorsions>
[ 6907 6896 6895 6894 ] final  -20.27 input  -60.11 | X-H torsion
[ 7974 7965 7964 7962 ] final  -78.56 input  175.53 | X-H torsion
[ 8008 7997 7996 7995 ] final   97.22 input   59.86 | X-H torsion
[ 10167 10162 10161 10158 ] final -169.77 input  -65.29 | X-H torsion
[ 10718 10713 10712 10709 ] final  175.00 input   66.30 | X-H torsion
[ 10763 10752 10751 10750 ] final  -52.35 input  -60.55 | X-H torsion
[ 11005 11000 10999 10996 ] final  101.06 input  -57.11 | X-H torsion

> <Gold.Protein.ActiveResidues>
 VAL166  LYS551  ARG553  GLY616  TRP617  ASP618  TYR619  PRO620  LYS621  CYS622 
 ASP623  PHE694  ASN695  SER759  ASP760  ASP761  ALA762  ILE779  LEU786  VAL792 
 PHE793  MET794  SER795  GLU796  ALA797  LYS798  CYS799  TRP800  GLU811  SER814 

> <Gold.Protein.RotatedAtoms>
  151.2506  135.0621  159.9060 H   0  0  0  0  0  0  0  0  0  0  0  0  # atno 6907 bound_to 6896
  152.5380  134.0336  159.8046 H   0  0  0  0  0  0  0  0  0  0  0  0  # atno 6908 bound_to 6896
  151.0544  133.5548  159.2671 H   0  0  0  0  0  0  0  0  0  0  0  0  # atno 6909 bound_to 6896
  145.5849  140.9441  143.1324 H   0  0  0  0  0  0  0  0  0  0  0  0  # atno 7974 bound_to 7965
  156.0879  140.3261  155.7777 H   0  0  0  0  0  0  0  0  0  0  0  0  # atno 8008 bound_to 7997
  155.5046  140.0572  157.2951 H   0  0  0  0  0  0  0  0  0  0  0  0  # atno 8009 bound_to 7997
  154.4620  140.1971  156.0236 H   0  0  0  0  0  0  0  0  0  0  0  0  # atno 8010 bound_to 7997
  139.5902  144.1229  152.1625 H   0  0  0  0  0  0  0  0  0  0  0  0  # atno 10167 bound_to 10162
  156.9414  131.0002  151.2967 H   0  0  0  0  0  0  0  0  0  0  0  0  # atno 10718 bound_to 10713
  154.1413  135.6504  153.4943 H   0  0  0  0  0  0  0  0  0  0  0  0  # atno 10763 bound_to 10752
  153.0165  135.5316  154.6901 H   0  0  0  0  0  0  0  0  0  0  0  0  # atno 10764 bound_to 10752
  154.6164  135.2959  155.0346 H   0  0  0  0  0  0  0  0  0  0  0  0  # atno 10765 bound_to 10752
  139.8772  134.9167  156.4850 H   0  0  0  0  0  0  0  0  0  0  0  0  # atno 11005 bound_to 11000
  144.7377  139.7537  143.7323 LP  0  0  0  0  0  0  0  0  0  0  0  0  # atno 17320 bound_to 7965
  146.1689  139.4832  142.9940 LP  0  0  0  0  0  0  0  0  0  0  0  0  # atno 17321 bound_to 7965
  140.0802  144.5707  150.7128 LP  0  0  0  0  0  0  0  0  0  0  0  0  # atno 17342 bound_to 10162
  140.7167  143.2551  151.4412 LP  0  0  0  0  0  0  0  0  0  0  0  0  # atno 17343 bound_to 10162
  157.5782  130.8358  149.8486 LP  0  0  0  0  0  0  0  0  0  0  0  0  # atno 17370 bound_to 10713
  156.0403  130.3741  150.1453 LP  0  0  0  0  0  0  0  0  0  0  0  0  # atno 17371 bound_to 10713
  140.8700  133.7995  155.9354 LP  0  0  0  0  0  0  0  0  0  0  0  0  # atno 17394 bound_to 11000
  140.8962  134.2434  157.5067 LP  0  0  0  0  0  0  0  0  0  0  0  0  # atno 17395 bound_to 11000

$$$$
