#       Name:                AV-unprocessed.smi:2566
#       Creating user name   scv26
#       Creation time:       Fri Mar 27 14:10:32 2020


#       File generated by GOLD software.
#

@<TRIPOS>MOLECULE
AV-unprocessed.smi:2566
    27    28     1
SMALL
NO_CHARGES


@<TRIPOS>ATOM
      1 ****        -3.7445   0.1922  -0.3632 C.2            1 S1                 0.0000
      2 ****        -2.5144   0.6958  -0.3416 N.2            1 S1                 0.0000
      3 ****        -1.7683  -0.4433  -0.4106 C.2            1 S1                 0.0000
      4 ****        -0.2715  -0.4507  -0.3742 C.3            1 S1                 0.0000
      5 ****         0.2767  -0.4468   1.0655 C.3            1 S1                 0.0000
      6 ****         1.7496  -0.3541   1.0418 N.4            1 S1                 1.0000
      7 ****         2.2046   0.8174   0.2667 C.3            1 S1                 0.0000
      8 ****         1.5894   0.7934  -1.1442 C.3            1 S1                 0.0000
      9 ****         0.1700   0.7243  -1.0517 O.3            1 S1                 0.0000
     10 ****        -2.4529  -1.5814  -0.4382 N.2            1 S1                 0.0000
     11 ****        -3.7902  -1.1590  -0.4194 O.3            1 S1                 0.0000
     12 ****        -4.6469   0.7848  -0.3314 H              1 S1                 0.0000
     13 ****         0.0879  -1.3307  -0.9119 H              1 S1                 0.0000
     14 ****        -0.1242   0.4007   1.6237 H              1 S1                 0.0000
     15 ****        -0.0203  -1.3523   1.5954 H              1 S1                 0.0000
     16 ****         2.0981  -0.2882   1.9878 H              1 S1                 0.0000
     17 ****         1.9109   1.7285   0.7896 H              1 S1                 0.0000
     18 ****         3.2934   0.8147   0.2116 H              1 S1                 0.0000
     19 ****         1.8640   1.6969  -1.6890 H              1 S1                 0.0000
     20 ****         1.9681  -0.0528  -1.7197 H              1 S1                 0.0000
     21 ****         2.1200  -1.1902   0.6126 H              1 S1                 0.0000
     22 ****        -2.2175   1.6493  -0.2891 LP             1 S1                 0.0000
     23 ****        -0.1592   1.5261  -0.5529 LP             1 S1                 0.0000
     24 ****        -0.2130   0.7261  -1.9754 LP             1 S1                 0.0000
     25 ****        -2.0991  -2.5163  -0.4658 LP             1 S1                 0.0000
     26 ****        -4.2624  -1.4580  -1.2486 LP             1 S1                 0.0000
     27 ****        -4.2609  -1.5259   0.3830 LP             1 S1                 0.0000
@<TRIPOS>BOND
    1    1   11 1     
    2    1    2 2     
    3    1   12 1     
    4    2    3 1     
    5    3    4 1     
    6    3   10 2     
    7    4    9 1     
    8    4    5 1     
    9    4   13 1     
   10    5    6 1     
   11    5   14 1     
   12    5   15 1     
   13    6    7 1     
   14    6   16 1     
   15    6   21 1     
   16    7    8 1     
   17    7   17 1     
   18    7   18 1     
   19    8    9 1     
   20    8   19 1     
   21    8   20 1     
   22   10   11 1     
   23    2   22 1     
   24    9   23 1     
   25    9   24 1     
   26   10   25 1     
   27   11   26 1     
   28   11   27 1     
@<TRIPOS>SUBSTRUCTURE
      1 S1             1
@<TRIPOS>SET
LONE_PAIRS      STATIC     ATOMS    <user>   **** ""
6 22 23 24 25 26 27
DONOR_HYDROGENS      STATIC     ATOMS    <user>   **** ""
2 16 21
ATOM$BLUE        STATIC     ATOMS    COLORGROUP SYSTEM
6 22 23 24 25 26 27
ATOM$RED        STATIC     ATOMS    COLORGROUP SYSTEM
2 16 21
