AV-unprocessed.smi:743|AV-procd|sdf|3560|dock8
  -GOLD-   22720 0563D 1   1.00000     0.00000
 Structure written by MMmdl.
 29 30  0  0  0  0  0  0  0  0  2 V2000
  142.4865  137.2139  152.9923 C   0  0  0  0  0  0  0  0  0  0  0  0
  143.6885  136.6940  152.3762 N   0  0  0  0  0  0  0  0  0  0  0  0
  143.9294  135.4262  151.8944 C   0  0  0  0  0  0  0  0  0  0  0  0
  145.2097  135.4022  151.4101 C   0  0  0  0  0  0  0  0  0  0  0  0
  145.9846  134.2618  150.7802 C   0  0  2  0  0  0  0  0  0  0  0  0
  145.1732  133.5759  149.7710 N   0  0  0  0  0  0  0  0  0  0  0  0
  144.4733  132.4386  149.9415 C   0  0  0  0  0  0  0  0  0  0  0  0
  143.7292  132.0081  149.0642 O   0  0  0  0  0  0  0  0  0  0  0  0
  144.6490  131.6348  151.2412 C   0  0  0  0  0  0  0  0  0  0  0  0
  145.3587  132.4007  152.3726 C   0  0  0  0  0  0  0  0  0  0  0  0
  146.5137  133.2506  151.8263 C   0  0  2  0  0  0  0  0  0  0  0  0
  147.2750  133.9009  152.9093 N   0  3  0  0  0  0  0  0  0  0  0  0
  145.6635  136.7344  151.6359 C   0  0  0  0  0  0  0  0  0  0  0  0
  144.7573  137.5000  152.2191 N   0  0  0  0  0  0  0  0  0  0  0  0
  147.2132  132.5783  151.3270 H   0  0  0  0  0  0  0  0  0  0  0  0
  141.7330  136.4293  153.0636 H   0  0  0  0  0  0  0  0  0  0  0  0
  142.0889  138.0333  152.3926 H   0  0  0  0  0  0  0  0  0  0  0  0
  142.7128  137.5793  153.9945 H   0  0  0  0  0  0  0  0  0  0  0  0
  143.1790  134.6503  151.9411 H   0  0  0  0  0  0  0  0  0  0  0  0
  146.8454  134.6682  150.2476 H   0  0  0  0  0  0  0  0  0  0  0  0
  145.0673  134.0504  148.8855 H   0  0  0  0  0  0  0  0  0  0  0  0
  143.6774  131.2778  151.5840 H   0  0  0  0  0  0  0  0  0  0  0  0
  145.2316  130.7477  150.9906 H   0  0  0  0  0  0  0  0  0  0  0  0
  144.6397  133.0303  152.8986 H   0  0  0  0  0  0  0  0  0  0  0  0
  145.7334  131.6886  153.1086 H   0  0  0  0  0  0  0  0  0  0  0  0
  146.6381  134.1960  153.6358 H   0  0  0  0  0  0  0  0  0  0  0  0
  147.7640  134.7054  152.5436 H   0  0  0  0  0  0  0  0  0  0  0  0
  146.6261  137.1634  151.3994 H   0  0  0  0  0  0  0  0  0  0  0  0
  147.9427  133.2470  153.2925 H   0  0  0  0  0  0  0  0  0  0  0  0
  1  2  1  0  0  0  0
  1 16  1  0  0  0  0
  1 17  1  0  0  0  0
  1 18  1  0  0  0  0
  2 14  1  0  0  0  0
  2  3  1  0  0  0  0
  3  4  2  0  0  0  0
  3 19  1  0  0  0  0
  4  5  1  0  0  0  0
  4 13  1  0  0  0  0
  5 11  1  0  0  0  0
  5  6  1  0  0  0  0
  5 20  1  0  0  0  0
  6  7  1  0  0  0  0
  6 21  1  0  0  0  0
  7  8  2  0  0  0  0
  7  9  1  0  0  0  0
  9 10  1  0  0  0  0
  9 22  1  0  0  0  0
  9 23  1  0  0  0  0
 10 11  1  0  0  0  0
 10 24  1  0  0  0  0
 10 25  1  0  0  0  0
 11 15  1  0  0  0  0
 11 12  1  0  0  0  0
 12 26  1  0  0  0  0
 12 27  1  0  0  0  0
 12 29  1  0  0  0  0
 13 14  2  0  0  0  0
 13 28  1  0  0  0  0
M  CHG  1  12   1
M  END
> <s_m_source_file>
AV-unprocessed.smi

> <i_m_source_file_index>
743

> <i_lp_mmshare_version>
43012

> <i_f3d_flags>
0

> <s_epik_input>
W0NIM11uMVtjSF1jKFtjSF1uMSlbQ0BASF0yW05IXUMoPU8pW0NIMl1bQ0gyXVtDQEBIXTJbTkgyXQ==

> <s_epik_cmdline>
J2VwaWtfcHl0aG9uJywgJy1waCcsICc3LjAnLCAnLXRuJywgJzgnLCAnLW1hJywgJzIwMCcsICctbWV0YWxfYmluZGluZycsICctaW1hZScsICc8aW5maWxlLm1hZT4nLCAnLW9tYWUnLCAnPG91dGZpbGUubWFlPic=

> <r_lp_tautomer_probability>
1

> <r_epik_Ionization_Penalty>
0.00878543

> <r_epik_Ionization_Penalty_Charging>
0.00874185

> <r_epik_Ionization_Penalty_Neutral>
4.35793e-05

> <r_epik_State_Penalty>
0.00660351

> <r_epik_Charging_Adjusted_Penalty>
0.0153454

> <i_epik_Tot_Q>
1

> <i_epik_Tot_abs_Q>
1

> <r_epik_Metal_State_Penalty>
0.00660727

> <b_epik_Metal_Only>
0

> <s_lp_Force_Field>
OPLS_2005

> <r_lp_Energy>
11.1602

> <b_lp_Chiralities_Consistent>
1

> <s_lp_Variant>
AV-unprocessed.smi:743-1

> <Gold.Version>
5.8.1

> <Gold.Id.Protein>
6NUR|6NUR_protein|mol2

> <Gold.PLP.Fitness>
39.3156

> <Gold.PLP.PLP>
-26.3757

> <Gold.PLP.part.hbond>
-3.0000

> <Gold.PLP.part.metal>
0.0000

> <Gold.PLP.part.buried>
-5.3875

> <Gold.PLP.part.nonpolar>
-19.7470

> <Gold.PLP.part.repulsive>
1.6650

> <Gold.PLP.ligand.clash>
0.0000

> <Gold.PLP.ligand.torsion>
0.3826

> <Gold.PLP.Chemscore.Hbond>
3.5680

> <Gold.PLP.Chemscore.CHOScore>
0.9940

> <Gold.PLP.Chemscore.Metal>
0.0000

> <Gold.Chemscore.Hbonds>
donor molecule, donor type, donor heavy atom, donor atom, acceptor molecule, acceptor atom, score
      L1  H     6    21       P1  7921  0.77
      L1  H    12    27       P1  7948  2.00
      P1  H 10785 10796       L1     8  0.80
      L1  C    13    28       P1  7948  0.99

> <Gold.PLP.Chemscore.Internal.Correction>
0.0189

> <Gold.Rescore>
     Score         DG    S(hbond)    S(metal)    S(lipo)     H(rot)  DE(clash)    DE(int)     intcor
     14.20     -16.35       2.47        0.00      44.10       1.00       2.02       0.13       ----

> <Gold.Chemscore.Fitness>
14.2002

> <Gold.Chemscore.DG>
-16.3455

> <Gold.Chemscore.ZeroCoef>
-5.4800

> <Gold.Chemscore.Hbond>
2.4746

> <Gold.Chemscore.Metal>
0.0000

> <Gold.Chemscore.Lipo>
44.1047

> <Gold.Chemscore.Internal_Hbond>
0.0000

> <Gold.Chemscore.DEClash>
2.0178

> <Gold.Chemscore.DEInternal>
0.1275

> <Gold.Chemscore.Rot>
1.0000

> <Gold.Chemscore.Internal.Correction>
   9.000000E+99

> <Gold.Chemscore.Hbonds>
donor molecule, donor type, donor heavy atom, donor atom, acceptor molecule, acceptor atom, score
      L1  H     6    21       P1  7921  0.75
      L1  H    12    27       P1  7948  0.78
      P1  H 10785 10796       L1     8  0.78

> <Gold.Chemscore.Hbond.Weighted>
-8.2652

> <Gold.Chemscore.Metal.Weighted>
-0.0000

> <Gold.Chemscore.Lipo.Weighted>
-5.1602

> <Gold.Chemscore.Internal_Hbond.Weighted>
0.0000

> <Gold.Chemscore.DEClash.Weighted>
2.0178

> <Gold.Chemscore.DEInternal.Weighted>
0.1275

> <Gold.Chemscore.Rot.Weighted>
2.5600

> <Gold.Chemscore.Internal.Correction.Weighted>
   9.000000E+99

> <Gold.Protein.RotatedTorsions>
[ 6907 6896 6895 6894 ] final  117.11 input  -60.11 | X-H torsion
[ 7974 7965 7964 7962 ] final  148.59 input  175.53 | X-H torsion
[ 8008 7997 7996 7995 ] final   40.37 input   59.86 | X-H torsion
[ 10167 10162 10161 10158 ] final  -68.62 input  -65.29 | X-H torsion
[ 10718 10713 10712 10709 ] final  -30.22 input   66.30 | X-H torsion
[ 10763 10752 10751 10750 ] final  -26.16 input  -60.55 | X-H torsion
[ 11005 11000 10999 10996 ] final   71.14 input  -57.11 | X-H torsion

> <Gold.Protein.ActiveResidues>
 VAL166  LYS551  ARG553  GLY616  TRP617  ASP618  TYR619  PRO620  LYS621  CYS622 
 ASP623  PHE694  ASN695  SER759  ASP760  ASP761  ALA762  ILE779  LEU786  VAL792 
 PHE793  MET794  SER795  GLU796  ALA797  LYS798  CYS799  TRP800  GLU811  SER814 

> <Gold.Protein.RotatedAtoms>
  152.4634  133.7870  159.6881 H   0  0  0  0  0  0  0  0  0  0  0  0  # atno 6907 bound_to 6896
  150.8587  133.7666  159.3006 H   0  0  0  0  0  0  0  0  0  0  0  0  # atno 6908 bound_to 6896
  151.5238  135.1070  159.9937 H   0  0  0  0  0  0  0  0  0  0  0  0  # atno 6909 bound_to 6896
  144.8502  139.6173  143.5977 H   0  0  0  0  0  0  0  0  0  0  0  0  # atno 7974 bound_to 7965
  155.2519  140.3353  155.4281 H   0  0  0  0  0  0  0  0  0  0  0  0  # atno 8008 bound_to 7997
  156.2212  140.1810  156.7516 H   0  0  0  0  0  0  0  0  0  0  0  0  # atno 8009 bound_to 7997
  154.5828  140.0651  156.9113 H   0  0  0  0  0  0  0  0  0  0  0  0  # atno 8010 bound_to 7997
  140.5493  143.2312  151.6941 H   0  0  0  0  0  0  0  0  0  0  0  0  # atno 10167 bound_to 10162
  156.4026  130.4393  149.7311 H   0  0  0  0  0  0  0  0  0  0  0  0  # atno 10718 bound_to 10713
  153.7115  135.6950  153.5036 H   0  0  0  0  0  0  0  0  0  0  0  0  # atno 10763 bound_to 10752
  153.2269  135.4351  155.0551 H   0  0  0  0  0  0  0  0  0  0  0  0  # atno 10764 bound_to 10752
  154.8313  135.3474  154.6651 H   0  0  0  0  0  0  0  0  0  0  0  0  # atno 10765 bound_to 10752
  139.9559  134.7145  156.0754 H   0  0  0  0  0  0  0  0  0  0  0  0  # atno 11005 bound_to 11000
  146.2778  139.6798  142.9250 LP  0  0  0  0  0  0  0  0  0  0  0  0  # atno 17320 bound_to 7965
  145.4515  141.0428  143.2801 LP  0  0  0  0  0  0  0  0  0  0  0  0  # atno 17321 bound_to 7965
  139.5020  144.3843  152.0344 LP  0  0  0  0  0  0  0  0  0  0  0  0  # atno 17342 bound_to 10162
  140.2959  144.3701  150.6074 LP  0  0  0  0  0  0  0  0  0  0  0  0  # atno 17343 bound_to 10162
  156.4321  130.7820  151.2840 LP  0  0  0  0  0  0  0  0  0  0  0  0  # atno 17370 bound_to 10713
  157.7504  131.0150  150.3489 LP  0  0  0  0  0  0  0  0  0  0  0  0  # atno 17371 bound_to 10713
  141.1230  133.6607  156.3265 LP  0  0  0  0  0  0  0  0  0  0  0  0  # atno 17394 bound_to 11000
  140.5610  134.5934  157.5433 LP  0  0  0  0  0  0  0  0  0  0  0  0  # atno 17395 bound_to 11000

$$$$
