#       Name:                AV-unprocessed.smi:3153
#       Creating user name   scv26
#       Creation time:       Fri Mar 27 17:43:20 2020


#       File generated by GOLD software.
#

@<TRIPOS>MOLECULE
AV-unprocessed.smi:3153
    41    42     1
SMALL
NO_CHARGES


@<TRIPOS>ATOM
      1 ****        -1.1333   0.8465   1.1468 O.3            1 S1                 0.0000
      2 ****        -1.3577   0.6733  -0.2413 C.3            1 S1                 0.0000
      3 ****        -0.9165  -0.7647  -0.5985 C.3            1 S1                 0.0000
      4 ****         0.5267  -0.9611  -0.4711 N.3            1 S1                 0.0000
      5 ****         0.9563  -2.3202  -0.7870 C.3            1 S1                 0.0000
      6 ****         2.4728  -2.4891  -0.5998 C.3            1 S1                 0.0000
      7 ****         2.8794  -2.3468   0.7869 N.pl3          1 S1                 0.0000
      8 ****         3.5517  -1.2988   1.3800 C.2            1 S1                 0.0000
      9 ****         3.7095  -1.6124   2.6997 C.2            1 S1                 0.0000
     10 ****         3.0958  -2.8908   2.8190 C.2            1 S1                 0.0000
     11 ****         2.6016  -3.3285   1.6721 N.2            1 S1                 0.0000
     12 ****        -2.8782   0.8199  -0.4893 C.3            1 S1                 0.0000
     13 ****        -3.3951   2.2501  -0.2512 C.3            1 S1                 0.0000
     14 ****        -2.6134   3.2722  -1.0874 C.3            1 S1                 0.0000
     15 ****        -1.1086   3.1755  -0.8007 C.3            1 S1                 0.0000
     16 ****        -0.5797   1.7499  -1.0405 C.3            1 S1                 0.0000
     17 ****        -0.2070   0.7623   1.3122 H              1 S1                 0.0000
     18 ****        -1.4453  -1.4767   0.0371 H              1 S1                 0.0000
     19 ****        -1.2187  -0.9885  -1.6224 H              1 S1                 0.0000
     20 ****         0.8169  -0.7281   0.4732 H              1 S1                 0.0000
     21 ****         0.4270  -3.0383  -0.1593 H              1 S1                 0.0000
     22 ****         0.6930  -2.5581  -1.8182 H              1 S1                 0.0000
     23 ****         2.7822  -3.4758  -0.9469 H              1 S1                 0.0000
     24 ****         3.0161  -1.7615  -1.2045 H              1 S1                 0.0000
     25 ****         3.8555  -0.4262   0.8206 H              1 S1                 0.0000
     26 ****         4.1903  -1.0193   3.4634 H              1 S1                 0.0000
     27 ****         2.9956  -3.5095   3.6988 H              1 S1                 0.0000
     28 ****        -3.1024   0.5395  -1.5196 H              1 S1                 0.0000
     29 ****        -3.4329   0.1210   0.1384 H              1 S1                 0.0000
     30 ****        -4.4559   2.3053  -0.4970 H              1 S1                 0.0000
     31 ****        -3.3125   2.5023   0.8067 H              1 S1                 0.0000
     32 ****        -2.7973   3.0980  -2.1482 H              1 S1                 0.0000
     33 ****        -2.9697   4.2800  -0.8720 H              1 S1                 0.0000
     34 ****        -0.5665   3.8812  -1.4304 H              1 S1                 0.0000
     35 ****        -0.9130   3.4727   0.2303 H              1 S1                 0.0000
     36 ****         0.4827   1.7197  -0.7961 H              1 S1                 0.0000
     37 ****        -0.6511   1.5246  -2.1054 H              1 S1                 0.0000
     38 ****        -1.6326   0.1480   1.6594 LP             1 S1                 0.0000
     39 ****        -1.4455   1.7537   1.4287 LP             1 S1                 0.0000
     40 ****         0.9605  -0.3567  -1.1393 LP             1 S1                 0.0000
     41 ****         2.1286  -4.1924   1.4995 LP             1 S1                 0.0000
@<TRIPOS>BOND
    1    1    2 1     
    2    1   17 1     
    3    2   16 1     
    4    2    3 1     
    5    2   12 1     
    6    3    4 1     
    7    3   18 1     
    8    3   19 1     
    9    4    5 1     
   10    4   20 1     
   11    5    6 1     
   12    5   21 1     
   13    5   22 1     
   14    6    7 1     
   15    6   23 1     
   16    6   24 1     
   17    7   11 1     
   18    7    8 1     
   19    8    9 2     
   20    8   25 1     
   21    9   10 1     
   22    9   26 1     
   23   10   11 2     
   24   10   27 1     
   25   12   13 1     
   26   12   28 1     
   27   12   29 1     
   28   13   14 1     
   29   13   30 1     
   30   13   31 1     
   31   14   15 1     
   32   14   32 1     
   33   14   33 1     
   34   15   16 1     
   35   15   34 1     
   36   15   35 1     
   37   16   36 1     
   38   16   37 1     
   39    1   38 1     
   40    1   39 1     
   41    4   40 1     
   42   11   41 1     
@<TRIPOS>SUBSTRUCTURE
      1 S1             1
@<TRIPOS>SET
LONE_PAIRS      STATIC     ATOMS    <user>   **** ""
4 38 39 40 41
DONOR_HYDROGENS      STATIC     ATOMS    <user>   **** ""
2 17 20
ATOM$BLUE        STATIC     ATOMS    COLORGROUP SYSTEM
4 38 39 40 41
ATOM$RED        STATIC     ATOMS    COLORGROUP SYSTEM
2 17 20
