#       Name:                AV-unprocessed.smi:90
#       Creating user name   scv26
#       Creation time:       Thu Mar 26 17:25:29 2020


#       File generated by GOLD software.
#

@<TRIPOS>MOLECULE
AV-unprocessed.smi:90
    71    74     1
SMALL
NO_CHARGES


@<TRIPOS>ATOM
      1 ****        -2.7947  -2.1373   3.0916 C.3            1 S1                 0.0000
      2 ****        -1.8565  -1.1129   2.6399 N.pl3          1 S1                 0.0000
      3 ****        -2.3670   0.2198   2.3332 C.3            1 S1                 0.0000
      4 ****        -3.0172   0.2866   0.9369 C.3            1 S1                 0.0000
      5 ****        -3.5604   1.6872   0.5496 C.3            1 S1                 0.0000
      6 ****        -2.4013   2.7129   0.4636 C.3            1 S1                 0.0000
      7 ****        -2.8849   4.1092   0.0593 C.3            1 S1                 0.0000
      8 ****        -3.6570   4.0256  -1.2571 C.3            1 S1                 0.0000
      9 ****        -4.8088   3.0208  -1.1322 C.3            1 S1                 0.0000
     10 ****        -4.3210   1.6702  -0.7431 N.4            1 S1                 1.0000
     11 ****        -5.4317   0.6873  -0.7912 C.3            1 S1                 0.0000
     12 ****        -0.5483  -1.4459   2.4413 C.ar           1 S1                 0.0000
     13 ****        -0.0823  -2.5724   3.0451 N.ar           1 S1                 0.0000
     14 ****         1.1915  -2.9479   2.9100 C.ar           1 S1                 0.0000
     15 ****         2.1639  -2.3558   2.2184 N.ar           1 S1                 0.0000
     16 ****         1.7123  -1.2331   1.5921 C.ar           1 S1                 0.0000
     17 ****         0.3870  -0.7072   1.6498 C.ar           1 S1                 0.0000
     18 ****         0.3216   0.4494   0.8784 N.2            1 S1                 0.0000
     19 ****         1.5281   0.6035   0.4101 C.2            1 S1                 0.0000
     20 ****         2.4263  -0.3718   0.7751 N.pl3          1 S1                 0.0000
     21 ****         3.8321  -0.4410   0.3978 C.3            1 S1                 0.0000
     22 ****         4.1170  -1.1574  -0.9568 C.3            1 S1                 0.0000
     23 ****         3.6942  -2.6525  -0.8835 C.3            1 S1                 0.0000
     24 ****         4.4052  -3.3621   0.1111 O.3            1 S1                 0.0000
     25 ****         3.3421  -0.4569  -2.1031 C.3            1 S1                 0.0000
     26 ****         3.8135  -0.8859  -3.5055 C.3            1 S1                 0.0000
     27 ****         5.2118  -0.6709  -3.6407 O.3            1 S1                 0.0000
     28 ****         5.9769  -1.4333  -2.7165 C.3            1 S1                 0.0000
     29 ****         5.6264  -1.0120  -1.2785 C.3            1 S1                 0.0000
     30 ****        -2.7406  -3.0188   2.4518 H              1 S1                 0.0000
     31 ****        -3.8208  -1.7699   3.0658 H              1 S1                 0.0000
     32 ****        -2.5736  -2.4370   4.1164 H              1 S1                 0.0000
     33 ****        -3.1136   0.4778   3.0852 H              1 S1                 0.0000
     34 ****        -1.5753   0.9544   2.4613 H              1 S1                 0.0000
     35 ****        -2.3124  -0.0531   0.1774 H              1 S1                 0.0000
     36 ****        -3.8234  -0.4441   0.9464 H              1 S1                 0.0000
     37 ****        -4.2512   2.0108   1.3303 H              1 S1                 0.0000
     38 ****        -1.8854   2.7999   1.4187 H              1 S1                 0.0000
     39 ****        -1.6577   2.3668  -0.2559 H              1 S1                 0.0000
     40 ****        -3.5242   4.5217   0.8409 H              1 S1                 0.0000
     41 ****        -2.0371   4.7870  -0.0433 H              1 S1                 0.0000
     42 ****        -4.0450   5.0088  -1.5255 H              1 S1                 0.0000
     43 ****        -2.9867   3.7236  -2.0632 H              1 S1                 0.0000
     44 ****        -5.5362   3.3717  -0.3981 H              1 S1                 0.0000
     45 ****        -5.3291   2.9637  -2.0891 H              1 S1                 0.0000
     46 ****        -6.0974   0.8056   0.0648 H              1 S1                 0.0000
     47 ****        -5.0626  -0.3371  -0.8117 H              1 S1                 0.0000
     48 ****        -6.0252   0.8120  -1.6975 H              1 S1                 0.0000
     49 ****         1.4716  -3.8506   3.4328 H              1 S1                 0.0000
     50 ****         1.7958   1.4354  -0.2252 H              1 S1                 0.0000
     51 ****         4.2071   0.5827   0.3624 H              1 S1                 0.0000
     52 ****         4.3808  -0.9220   1.2084 H              1 S1                 0.0000
     53 ****         2.6277  -2.7440  -0.6782 H              1 S1                 0.0000
     54 ****         3.8609  -3.1658  -1.8290 H              1 S1                 0.0000
     55 ****         4.0841  -4.2507   0.1342 H              1 S1                 0.0000
     56 ****         2.2713  -0.6427  -2.0145 H              1 S1                 0.0000
     57 ****         3.4721   0.6229  -2.0194 H              1 S1                 0.0000
     58 ****         3.5718  -1.9289  -3.7106 H              1 S1                 0.0000
     59 ****         3.2983  -0.2957  -4.2636 H              1 S1                 0.0000
     60 ****         5.8129  -2.4996  -2.8748 H              1 S1                 0.0000
     61 ****         7.0341  -1.2494  -2.9086 H              1 S1                 0.0000
     62 ****         5.9242   0.0302  -1.1554 H              1 S1                 0.0000
     63 ****         6.2320  -1.5764  -0.5689 H              1 S1                 0.0000
     64 ****        -3.6652   1.3924  -1.4593 H              1 S1                 0.0000
     65 ****        -0.7034  -3.1274   3.5984 LP             1 S1                 0.0000
     66 ****         3.1042  -2.6919   2.1656 LP             1 S1                 0.0000
     67 ****        -0.4747   1.0329   0.7188 LP             1 S1                 0.0000
     68 ****         4.2627  -2.9289   1.0011 LP             1 S1                 0.0000
     69 ****         5.3811  -3.3619  -0.1073 LP             1 S1                 0.0000
     70 ****         5.4022   0.2992  -3.4899 LP             1 S1                 0.0000
     71 ****         5.4860  -0.9241  -4.5684 LP             1 S1                 0.0000
@<TRIPOS>BOND
    1    1    2 1     
    2    1   30 1     
    3    1   31 1     
    4    1   32 1     
    5    2    3 1     
    6    2   12 1     
    7    3    4 1     
    8    3   33 1     
    9    3   34 1     
   10    4    5 1     
   11    4   35 1     
   12    4   36 1     
   13    5   10 1     
   14    5    6 1     
   15    5   37 1     
   16    6    7 1     
   17    6   38 1     
   18    6   39 1     
   19    7    8 1     
   20    7   40 1     
   21    7   41 1     
   22    8    9 1     
   23    8   42 1     
   24    8   43 1     
   25    9   10 1     
   26    9   44 1     
   27    9   45 1     
   28   10   11 1     
   29   10   64 1     
   30   11   46 1     
   31   11   47 1     
   32   11   48 1     
   33   12   17 ar    
   34   12   13 ar    
   35   13   14 ar    
   36   14   15 ar    
   37   14   49 1     
   38   15   16 ar    
   39   16   20 1     
   40   16   17 ar    
   41   17   18 1     
   42   18   19 2     
   43   19   20 1     
   44   19   50 1     
   45   20   21 1     
   46   21   22 1     
   47   21   51 1     
   48   21   52 1     
   49   22   29 1     
   50   22   23 1     
   51   22   25 1     
   52   23   24 1     
   53   23   53 1     
   54   23   54 1     
   55   24   55 1     
   56   25   26 1     
   57   25   56 1     
   58   25   57 1     
   59   26   27 1     
   60   26   58 1     
   61   26   59 1     
   62   27   28 1     
   63   28   29 1     
   64   28   60 1     
   65   28   61 1     
   66   29   62 1     
   67   29   63 1     
   68   13   65 1     
   69   15   66 1     
   70   18   67 1     
   71   24   68 1     
   72   24   69 1     
   73   27   70 1     
   74   27   71 1     
@<TRIPOS>SUBSTRUCTURE
      1 S1             1
@<TRIPOS>SET
LONE_PAIRS      STATIC     ATOMS    <user>   **** ""
7 65 66 67 68 69 70 71
DONOR_HYDROGENS      STATIC     ATOMS    <user>   **** ""
2 64 55
ATOM$BLUE        STATIC     ATOMS    COLORGROUP SYSTEM
7 65 66 67 68 69 70 71
ATOM$RED        STATIC     ATOMS    COLORGROUP SYSTEM
2 64 55
