#       Name:                AV-unprocessed.smi:3333
#       Creating user name   scv26
#       Creation time:       Fri Mar 27 19:21:38 2020


#       File generated by GOLD software.
#

@<TRIPOS>MOLECULE
AV-unprocessed.smi:3333
    44    46     1
SMALL
NO_CHARGES


@<TRIPOS>ATOM
      1 ****        -5.9891   2.3859   0.2194 C.3            1 S1                 0.0000
      2 ****        -5.7601   1.9053   1.6562 C.3            1 S1                 0.0000
      3 ****        -4.8167   0.7521   1.7309 C.2            1 S1                 0.0000
      4 ****        -3.4898   0.8888   1.8017 N.2            1 S1                 0.0000
      5 ****        -2.8218  -0.3401   1.8243 C.2            1 S1                 0.0000
      6 ****        -1.3228  -0.3784   1.9058 C.3            1 S1                 0.0000
      7 ****        -0.7007  -0.3780   0.5060 C.2            1 S1                 0.0000
      8 ****        -1.0965  -1.1692  -0.3509 O.2            1 S1                 0.0000
      9 ****         0.2840   0.5078   0.2892 N.am           1 S1                 0.0000
     10 ****         1.0233   0.6529  -0.9606 C.3            1 S1                 0.0000
     11 ****         2.0602  -0.4739  -1.1620 C.3            1 S1                 0.0000
     12 ****         2.8742  -0.3194  -2.4660 C.3            1 S1                 0.0000
     13 ****         4.3325  -0.3737  -1.9756 C.3            1 S1                 0.0000
     14 ****         4.6615  -1.7964  -1.4853 C.3            1 S1                 0.0000
     15 ****         3.8800  -1.8879  -0.1609 C.3            1 S1                 0.0000
     16 ****         3.1749  -0.5203  -0.0885 C.3            1 S1                 0.0000
     17 ****         4.2449   0.4005  -0.6670 C.3            1 S1                 0.0000
     18 ****        -3.6717  -1.4176   1.7696 C.2            1 S1                 0.0000
     19 ****        -5.3395  -0.9268   1.6660 S.3            1 S1                 0.0000
     20 ****        -6.6876   3.2223   0.1965 H              1 S1                 0.0000
     21 ****        -6.4019   1.5895  -0.4005 H              1 S1                 0.0000
     22 ****        -5.0563   2.7177  -0.2376 H              1 S1                 0.0000
     23 ****        -5.3698   2.7212   2.2656 H              1 S1                 0.0000
     24 ****        -6.7091   1.6078   2.1031 H              1 S1                 0.0000
     25 ****        -0.9495   0.4687   2.4834 H              1 S1                 0.0000
     26 ****        -0.9918  -1.2761   2.4288 H              1 S1                 0.0000
     27 ****         0.5463   1.1205   1.0475 H              1 S1                 0.0000
     28 ****         0.3233   0.6737  -1.7977 H              1 S1                 0.0000
     29 ****         1.5146   1.6260  -0.9492 H              1 S1                 0.0000
     30 ****         1.5299  -1.4271  -1.1814 H              1 S1                 0.0000
     31 ****         2.6501  -1.1040  -3.1896 H              1 S1                 0.0000
     32 ****         2.6737   0.6390  -2.9473 H              1 S1                 0.0000
     33 ****         5.0505   0.0183  -2.6964 H              1 S1                 0.0000
     34 ****         4.3579  -2.5608  -2.2015 H              1 S1                 0.0000
     35 ****         5.7315  -1.9095  -1.3067 H              1 S1                 0.0000
     36 ****         3.1782  -2.7226  -0.1456 H              1 S1                 0.0000
     37 ****         4.5645  -2.0134   0.6790 H              1 S1                 0.0000
     38 ****         2.8432  -0.2633   0.9176 H              1 S1                 0.0000
     39 ****         5.1762   0.3936  -0.0976 H              1 S1                 0.0000
     40 ****         3.9135   1.4321  -0.7946 H              1 S1                 0.0000
     41 ****        -3.4160  -2.4669   1.7713 H              1 S1                 0.0000
     42 ****        -3.0245   1.7734   1.8349 LP             1 S1                 0.0000
     43 ****        -1.8275  -1.8162  -0.1344 LP             1 S1                 0.0000
     44 ****        -0.6867  -1.1645  -1.2631 LP             1 S1                 0.0000
@<TRIPOS>BOND
    1    1    2 1     
    2    1   20 1     
    3    1   21 1     
    4    1   22 1     
    5    2    3 1     
    6    2   23 1     
    7    2   24 1     
    8    3   19 1     
    9    3    4 2     
   10    4    5 1     
   11    5    6 1     
   12    5   18 2     
   13    6    7 1     
   14    6   25 1     
   15    6   26 1     
   16    7    8 2     
   17    7    9 am    
   18    9   10 1     
   19    9   27 1     
   20   10   11 1     
   21   10   28 1     
   22   10   29 1     
   23   11   16 1     
   24   11   12 1     
   25   11   30 1     
   26   12   13 1     
   27   12   31 1     
   28   12   32 1     
   29   13   17 1     
   30   13   14 1     
   31   13   33 1     
   32   14   15 1     
   33   14   34 1     
   34   14   35 1     
   35   15   16 1     
   36   15   36 1     
   37   15   37 1     
   38   16   17 1     
   39   16   38 1     
   40   17   39 1     
   41   17   40 1     
   42   18   19 1     
   43   18   41 1     
   44    4   42 1     
   45    8   43 1     
   46    8   44 1     
@<TRIPOS>SUBSTRUCTURE
      1 S1             1
@<TRIPOS>SET
LONE_PAIRS      STATIC     ATOMS    <user>   **** ""
3 42 43 44
DONOR_HYDROGENS      STATIC     ATOMS    <user>   **** ""
1 27
ATOM$BLUE        STATIC     ATOMS    COLORGROUP SYSTEM
3 42 43 44
ATOM$RED        STATIC     ATOMS    COLORGROUP SYSTEM
1 27
