AV-unprocessed.smi:3004|AV-procd|sdf|11440|dock8
  -GOLD-   2272016373D 1   1.00000     0.00000
 Structure written by MMmdl.
 47 48  0  0  0  0  0  0  0  0  2 V2000
  152.6944  138.3565  154.6701 C   0  0  0  0  0  0  0  0  0  0  0  0
  151.7855  139.4302  155.1911 C   0  0  0  0  0  0  0  0  0  0  0  0
  151.8127  140.0691  156.4623 C   0  0  0  0  0  0  0  0  0  0  0  0
  150.7732  140.9548  156.4179 C   0  0  0  0  0  0  0  0  0  0  0  0
  150.2846  141.9192  157.4482 C   0  0  0  0  0  0  0  0  0  0  0  0
  150.1853  140.8209  155.1723 N   0  0  0  0  0  0  0  0  0  0  0  0
  149.0459  141.5329  154.6124 C   0  0  0  0  0  0  0  0  0  0  0  0
  147.8725  140.5897  154.3390 C   0  0  0  0  0  0  0  0  0  0  0  0
  147.0168  140.4047  155.2043 O   0  0  0  0  0  0  0  0  0  0  0  0
  147.8397  140.0002  153.1334 N   0  0  0  0  0  0  0  0  0  0  0  0
  146.7968  139.0919  152.6743 C   0  0  0  0  0  0  0  0  0  0  0  0
  146.6948  137.8490  153.5810 C   0  0  0  0  0  0  0  0  0  0  0  0
  146.4515  136.5878  152.8296 N   0  3  1  0  0  0  0  0  0  0  0  0
  146.4749  135.3955  153.7202 C   0  0  0  0  0  0  0  0  0  0  0  0
  146.4475  134.0892  152.9109 C   0  0  0  0  0  0  0  0  0  0  0  0
  145.2349  134.0463  151.9750 C   0  0  0  0  0  0  0  0  0  0  0  0
  145.2229  135.2940  151.0812 C   0  0  0  0  0  0  0  0  0  0  0  0
  145.2768  136.6011  151.9011 C   0  0  1  0  0  0  0  0  0  0  0  0
  143.9355  136.9034  152.6036 C   0  0  0  0  0  0  0  0  0  0  0  0
  150.8107  139.8869  154.4225 N   0  0  0  0  0  0  0  0  0  0  0  0
  153.5182  138.1684  155.3592 H   0  0  0  0  0  0  0  0  0  0  0  0
  153.1247  138.6363  153.7084 H   0  0  0  0  0  0  0  0  0  0  0  0
  152.1550  137.4188  154.5349 H   0  0  0  0  0  0  0  0  0  0  0  0
  152.4925  139.9001  157.2846 H   0  0  0  0  0  0  0  0  0  0  0  0
  150.8899  141.8621  158.3530 H   0  0  0  0  0  0  0  0  0  0  0  0
  149.2514  141.7055  157.7221 H   0  0  0  0  0  0  0  0  0  0  0  0
  150.3337  142.9430  157.0774 H   0  0  0  0  0  0  0  0  0  0  0  0
  148.7311  142.3194  155.3003 H   0  0  0  0  0  0  0  0  0  0  0  0
  149.3563  142.0247  153.6897 H   0  0  0  0  0  0  0  0  0  0  0  0
  148.5858  140.2101  152.4853 H   0  0  0  0  0  0  0  0  0  0  0  0
  145.8652  139.6564  152.6819 H   0  0  0  0  0  0  0  0  0  0  0  0
  146.9824  138.8009  151.6389 H   0  0  0  0  0  0  0  0  0  0  0  0
  147.6376  137.7410  154.1190 H   0  0  0  0  0  0  0  0  0  0  0  0
  145.9320  137.9912  154.3467 H   0  0  0  0  0  0  0  0  0  0  0  0
  147.3805  135.4101  154.3278 H   0  0  0  0  0  0  0  0  0  0  0  0
  145.6363  135.4302  154.4164 H   0  0  0  0  0  0  0  0  0  0  0  0
  147.3644  134.0017  152.3263 H   0  0  0  0  0  0  0  0  0  0  0  0
  146.4282  133.2326  153.5855 H   0  0  0  0  0  0  0  0  0  0  0  0
  145.2665  133.1456  151.3613 H   0  0  0  0  0  0  0  0  0  0  0  0
  144.3152  133.9913  152.5583 H   0  0  0  0  0  0  0  0  0  0  0  0
  146.0834  135.2568  150.4112 H   0  0  0  0  0  0  0  0  0  0  0  0
  144.3417  135.2844  150.4386 H   0  0  0  0  0  0  0  0  0  0  0  0
  145.4380  137.3948  151.1727 H   0  0  0  0  0  0  0  0  0  0  0  0
  143.1136  136.8798  151.8874 H   0  0  0  0  0  0  0  0  0  0  0  0
  143.9277  137.8957  153.0537 H   0  0  0  0  0  0  0  0  0  0  0  0
  143.7039  136.1805  153.3853 H   0  0  0  0  0  0  0  0  0  0  0  0
  147.2592  136.4796  152.2328 H   0  0  0  0  0  0  0  0  0  0  0  0
  1  2  1  0  0  0  0
  1 21  1  0  0  0  0
  1 22  1  0  0  0  0
  1 23  1  0  0  0  0
  2 20  2  0  0  0  0
  2  3  1  0  0  0  0
  3  4  2  0  0  0  0
  3 24  1  0  0  0  0
  4  5  1  0  0  0  0
  4  6  1  0  0  0  0
  5 25  1  0  0  0  0
  5 26  1  0  0  0  0
  5 27  1  0  0  0  0
  6  7  1  0  0  0  0
  6 20  1  0  0  0  0
  7  8  1  0  0  0  0
  7 28  1  0  0  0  0
  7 29  1  0  0  0  0
  8  9  2  0  0  0  0
  8 10  1  0  0  0  0
 10 11  1  0  0  0  0
 10 30  1  0  0  0  0
 11 12  1  0  0  0  0
 11 31  1  0  0  0  0
 11 32  1  0  0  0  0
 12 13  1  0  0  0  0
 12 33  1  0  0  0  0
 12 34  1  0  0  0  0
 13 18  1  0  0  0  0
 13 14  1  0  0  0  0
 13 47  1  0  0  0  0
 14 15  1  0  0  0  0
 14 35  1  0  0  0  0
 14 36  1  0  0  0  0
 15 16  1  0  0  0  0
 15 37  1  0  0  0  0
 15 38  1  0  0  0  0
 16 17  1  0  0  0  0
 16 39  1  0  0  0  0
 16 40  1  0  0  0  0
 17 18  1  0  0  0  0
 17 41  1  0  0  0  0
 17 42  1  0  0  0  0
 18 19  1  0  0  0  0
 18 43  1  0  0  0  0
 19 44  1  0  0  0  0
 19 45  1  0  0  0  0
 19 46  1  0  0  0  0
M  CHG  1  13   1
M  END
> <s_m_source_file>
AV-unprocessed.smi

> <i_m_source_file_index>
3004

> <i_lp_mmshare_version>
43012

> <i_f3d_flags>
0

> <s_epik_input>
W0NIM11jMVtjSF1jKFtDSDNdKW4objEpW0NIMl1DKD1PKVtOSF1bQ0gyXVtDSDJdTjJbQ0gyXVtDSDJdW0NIMl1bQ0gyXVtDQEhdMltDSDNd

> <s_epik_cmdline>
J2VwaWtfcHl0aG9uJywgJy1waCcsICc3LjAnLCAnLXRuJywgJzgnLCAnLW1hJywgJzIwMCcsICctbWV0YWxfYmluZGluZycsICctaW1hZScsICc8aW5maWxlLm1hZT4nLCAnLW9tYWUnLCAnPG91dGZpbGUubWFlPic=

> <r_lp_tautomer_probability>
1

> <r_epik_Ionization_Penalty>
0.00303644

> <r_epik_Ionization_Penalty_Charging>
0.00284254

> <r_epik_Ionization_Penalty_Neutral>
0.000193908

> <r_epik_State_Penalty>
-0

> <r_epik_Charging_Adjusted_Penalty>
0.00284254

> <i_epik_Tot_Q>
1

> <i_epik_Tot_abs_Q>
1

> <r_epik_Metal_State_Penalty>
-0

> <b_epik_Metal_Only>
0

> <s_lp_Force_Field>
OPLS_2005

> <r_lp_Energy>
17.9546

> <b_lp_Chiralities_Consistent>
1

> <s_lp_Variant>
AV-unprocessed.smi:3004-2

> <Gold.Version>
5.8.1

> <Gold.Id.Protein>
6NUR|6NUR_protein|mol2

> <Gold.PLP.Fitness>
48.6181

> <Gold.PLP.PLP>
-37.9280

> <Gold.PLP.part.hbond>
-3.0000

> <Gold.PLP.part.metal>
0.0000

> <Gold.PLP.part.buried>
-1.6593

> <Gold.PLP.part.nonpolar>
-33.2182

> <Gold.PLP.part.repulsive>
0.2678

> <Gold.PLP.ligand.clash>
0.0000

> <Gold.PLP.ligand.torsion>
0.6865

> <Gold.PLP.Chemscore.Hbond>
4.0000

> <Gold.PLP.Chemscore.CHOScore>
0.0000

> <Gold.PLP.Chemscore.Metal>
0.0000

> <Gold.Chemscore.Hbonds>
donor molecule, donor type, donor heavy atom, donor atom, acceptor molecule, acceptor atom, score
      L1  H    10    30       P1  7957  1.00
      L1  H    13    47       P1  7948  2.00
      P1  H  7989  7998       L1    20  0.90

> <Gold.PLP.Chemscore.Internal.Correction>
0.0632

> <Gold.Rescore>
     Score         DG    S(hbond)    S(metal)    S(lipo)     H(rot)  DE(clash)    DE(int)     intcor
     18.15     -19.11       2.74        0.00      74.80       1.67       0.09       0.87       ----

> <Gold.Chemscore.Fitness>
18.1471

> <Gold.Chemscore.DG>
-19.1085

> <Gold.Chemscore.ZeroCoef>
-5.4800

> <Gold.Chemscore.Hbond>
2.7369

> <Gold.Chemscore.Metal>
0.0000

> <Gold.Chemscore.Lipo>
74.7991

> <Gold.Chemscore.Internal_Hbond>
0.0000

> <Gold.Chemscore.DEClash>
0.0936

> <Gold.Chemscore.DEInternal>
0.8679

> <Gold.Chemscore.Rot>
1.6657

> <Gold.Chemscore.Internal.Correction>
   9.000000E+99

> <Gold.Chemscore.Hbonds>
donor molecule, donor type, donor heavy atom, donor atom, acceptor molecule, acceptor atom, score
      L1  H    10    30       P1  7957  0.99
      L1  H    13    47       P1  7948  0.99
      P1  H  7989  7998       L1    20  0.04

> <Gold.Chemscore.Hbond.Weighted>
-9.1411

> <Gold.Chemscore.Metal.Weighted>
-0.0000

> <Gold.Chemscore.Lipo.Weighted>
-8.7515

> <Gold.Chemscore.Internal_Hbond.Weighted>
0.0000

> <Gold.Chemscore.DEClash.Weighted>
0.0936

> <Gold.Chemscore.DEInternal.Weighted>
0.8679

> <Gold.Chemscore.Rot.Weighted>
4.2641

> <Gold.Chemscore.Internal.Correction.Weighted>
   9.000000E+99

> <Gold.Protein.RotatedTorsions>
[ 6907 6896 6895 6894 ] final   -8.60 input  -60.11 | X-H torsion
[ 7974 7965 7964 7962 ] final  -54.54 input  175.53 | X-H torsion
[ 8008 7997 7996 7995 ] final -136.29 input   59.86 | X-H torsion
[ 10167 10162 10161 10158 ] final   -5.65 input  -65.29 | X-H torsion
[ 10718 10713 10712 10709 ] final  -57.02 input   66.30 | X-H torsion
[ 10763 10752 10751 10750 ] final  116.68 input  -60.55 | X-H torsion
[ 11005 11000 10999 10996 ] final -145.01 input  -57.11 | X-H torsion

> <Gold.Protein.ActiveResidues>
 VAL166  LYS551  ARG553  GLY616  TRP617  ASP618  TYR619  PRO620  LYS621  CYS622 
 ASP623  PHE694  ASN695  SER759  ASP760  ASP761  ALA762  ILE779  LEU786  VAL792 
 PHE793  MET794  SER795  GLU796  ALA797  LYS798  CYS799  TRP800  GLU811  SER814 

> <Gold.Protein.RotatedAtoms>
  151.4311  135.1009  159.9642 H   0  0  0  0  0  0  0  0  0  0  0  0  # atno 6907 bound_to 6896
  152.4956  133.8617  159.7264 H   0  0  0  0  0  0  0  0  0  0  0  0  # atno 6908 bound_to 6896
  150.9154  133.6887  159.2872 H   0  0  0  0  0  0  0  0  0  0  0  0  # atno 6909 bound_to 6896
  145.8844  140.8119  142.9823 H   0  0  0  0  0  0  0  0  0  0  0  0  # atno 7974 bound_to 7965
  155.3928  140.0501  157.3040 H   0  0  0  0  0  0  0  0  0  0  0  0  # atno 8008 bound_to 7997
  154.5028  140.2163  155.9273 H   0  0  0  0  0  0  0  0  0  0  0  0  # atno 8009 bound_to 7997
  156.1488  140.3140  155.8619 H   0  0  0  0  0  0  0  0  0  0  0  0  # atno 8010 bound_to 7997
  140.6970  143.6283  150.8546 H   0  0  0  0  0  0  0  0  0  0  0  0  # atno 10167 bound_to 10162
  156.1243  130.4164  150.0384 H   0  0  0  0  0  0  0  0  0  0  0  0  # atno 10718 bound_to 10713
  153.5409  135.3559  155.2718 H   0  0  0  0  0  0  0  0  0  0  0  0  # atno 10763 bound_to 10752
  154.8717  135.4091  154.3045 H   0  0  0  0  0  0  0  0  0  0  0  0  # atno 10764 bound_to 10752
  153.3752  135.7066  153.6675 H   0  0  0  0  0  0  0  0  0  0  0  0  # atno 10765 bound_to 10752
  140.7966  134.2906  157.4994 H   0  0  0  0  0  0  0  0  0  0  0  0  # atno 11005 bound_to 11000
  144.6728  140.1433  143.7435 LP  0  0  0  0  0  0  0  0  0  0  0  0  # atno 17320 bound_to 7965
  145.8984  139.2416  143.1508 LP  0  0  0  0  0  0  0  0  0  0  0  0  # atno 17321 bound_to 7965
  140.0002  143.5752  152.2878 LP  0  0  0  0  0  0  0  0  0  0  0  0  # atno 17342 bound_to 10162
  139.6439  144.7657  151.2284 LP  0  0  0  0  0  0  0  0  0  0  0  0  # atno 17343 bound_to 10162
  156.8314  130.9394  151.3637 LP  0  0  0  0  0  0  0  0  0  0  0  0  # atno 17370 bound_to 10713
  157.6425  130.8817  149.9475 LP  0  0  0  0  0  0  0  0  0  0  0  0  # atno 17371 bound_to 10713
  139.8726  134.9405  156.3771 LP  0  0  0  0  0  0  0  0  0  0  0  0  # atno 17394 bound_to 11000
  140.9337  133.7562  156.0057 LP  0  0  0  0  0  0  0  0  0  0  0  0  # atno 17395 bound_to 11000

$$$$
