AV-unprocessed.smi:101|AV-procd|sdf|930|dock1
  -GOLD-   2262017443D 1   1.00000     0.00000
 Structure written by MMmdl.
 43 45  0  0  0  0  0  0  0  0  2 V2000
  143.6586  144.2011  154.4805 C   0  0  0  0  0  0  0  0  0  0  0  0
  144.6963  143.2445  155.0411 C   0  0  0  0  0  0  0  0  0  0  0  0
  145.6609  142.6947  154.2708 C   0  0  0  0  0  0  0  0  0  0  0  0
  146.6067  141.8261  154.7862 N   0  0  0  0  0  0  0  0  0  0  0  0
  147.6747  141.2388  153.8870 C   0  0  1  0  0  0  0  0  0  0  0  0
  148.8813  141.2127  154.5899 O   0  0  0  0  0  0  0  0  0  0  0  0
  149.5459  139.9778  154.3517 C   0  0  1  0  0  0  0  0  0  0  0  0
  150.5501  139.6667  155.4706 C   0  0  0  0  0  0  0  0  0  0  0  0
  150.7477  140.8310  156.2554 O   0  0  0  0  0  0  0  0  0  0  0  0
  151.7722  140.8901  157.1274 C   0  0  0  0  0  0  0  0  0  0  0  0
  152.6605  140.0378  157.1948 O   0  0  0  0  0  0  0  0  0  0  0  0
  151.7205  142.0971  158.0022 C   0  0  0  0  0  0  0  0  0  0  0  0
  150.9073  143.1914  157.6259 C   0  0  0  0  0  0  0  0  0  0  0  0
  150.8391  144.3450  158.4313 C   0  0  0  0  0  0  0  0  0  0  0  0
  151.5840  144.4186  159.6227 C   0  0  0  0  0  0  0  0  0  0  0  0
  152.3974  143.3370  160.0080 C   0  0  0  0  0  0  0  0  0  0  0  0
  152.4666  142.1825  159.2039 C   0  0  0  0  0  0  0  0  0  0  0  0
  148.4014  138.9708  154.1868 C   0  0  1  0  0  0  0  0  0  0  0  0
  147.9382  138.5197  155.4498 O   0  0  0  0  0  0  0  0  0  0  0  0
  147.3591  139.7952  153.4376 C   0  0  1  0  0  0  0  0  0  0  0  0
  146.0320  139.3501  153.6603 O   0  0  0  0  0  0  0  0  0  0  0  0
  146.5841  141.5026  156.1683 C   0  0  0  0  0  0  0  0  0  0  0  0
  147.4533  140.7479  156.6048 O   0  0  0  0  0  0  0  0  0  0  0  0
  145.6100  142.0474  156.9519 N   0  5  0  0  0  0  0  0  0  0  0  0
  144.6628  142.9016  156.4679 C   0  0  0  0  0  0  0  0  0  0  0  0
  143.7909  143.3871  157.1880 O   0  0  0  0  0  0  0  0  0  0  0  0
  143.7824  144.3343  153.4054 H   0  0  0  0  0  0  0  0  0  0  0  0
  143.7477  145.1784  154.9556 H   0  0  0  0  0  0  0  0  0  0  0  0
  142.6524  143.8208  154.6596 H   0  0  0  0  0  0  0  0  0  0  0  0
  145.6933  142.9453  153.2211 H   0  0  0  0  0  0  0  0  0  0  0  0
  147.7944  141.9248  153.0478 H   0  0  0  0  0  0  0  0  0  0  0  0
  150.0717  140.0568  153.3981 H   0  0  0  0  0  0  0  0  0  0  0  0
  150.1929  138.8428  156.0904 H   0  0  0  0  0  0  0  0  0  0  0  0
  151.5056  139.3670  155.0383 H   0  0  0  0  0  0  0  0  0  0  0  0
  150.3263  143.1580  156.7152 H   0  0  0  0  0  0  0  0  0  0  0  0
  150.2141  145.1740  158.1339 H   0  0  0  0  0  0  0  0  0  0  0  0
  151.5315  145.3030  160.2402 H   0  0  0  0  0  0  0  0  0  0  0  0
  152.9702  143.3924  160.9220 H   0  0  0  0  0  0  0  0  0  0  0  0
  153.1020  141.3713  159.5280 H   0  0  0  0  0  0  0  0  0  0  0  0
  148.7123  138.0989  153.6104 H   0  0  0  0  0  0  0  0  0  0  0  0
  147.6510  139.2677  155.9503 H   0  0  0  0  0  0  0  0  0  0  0  0
  147.5652  139.7413  152.3679 H   0  0  0  0  0  0  0  0  0  0  0  0
  145.4560  139.8530  153.1046 H   0  0  0  0  0  0  0  0  0  0  0  0
  1  2  1  0  0  0  0
  1 27  1  0  0  0  0
  1 28  1  0  0  0  0
  1 29  1  0  0  0  0
  2 25  1  0  0  0  0
  2  3  2  0  0  0  0
  3  4  1  0  0  0  0
  3 30  1  0  0  0  0
  4  5  1  0  0  0  0
  4 22  1  0  0  0  0
  5 20  1  0  0  0  0
  5  6  1  0  0  0  0
  5 31  1  0  0  0  0
  6  7  1  0  0  0  0
  7  8  1  0  0  0  0
  7 18  1  0  0  0  0
  7 32  1  0  0  0  0
  8  9  1  0  0  0  0
  8 33  1  0  0  0  0
  8 34  1  0  0  0  0
  9 10  1  0  0  0  0
 10 11  2  0  0  0  0
 10 12  1  0  0  0  0
 12 17  1  0  0  0  0
 12 13  2  0  0  0  0
 13 14  1  0  0  0  0
 13 35  1  0  0  0  0
 14 15  2  0  0  0  0
 14 36  1  0  0  0  0
 15 16  1  0  0  0  0
 15 37  1  0  0  0  0
 16 17  2  0  0  0  0
 16 38  1  0  0  0  0
 17 39  1  0  0  0  0
 18 19  1  0  0  0  0
 18 20  1  0  0  0  0
 18 40  1  0  0  0  0
 19 41  1  0  0  0  0
 20 21  1  0  0  0  0
 20 42  1  0  0  0  0
 21 43  1  0  0  0  0
 22 23  2  0  0  0  0
 22 24  1  0  0  0  0
 24 25  1  0  0  0  0
 25 26  2  0  0  0  0
M  CHG  1  24  -1
M  END
> <s_m_source_file>
AV-unprocessed.smi

> <i_m_source_file_index>
101

> <i_lp_mmshare_version>
43012

> <i_f3d_flags>
0

> <s_epik_input>
Tz1jMVtuSF1jKD1PKW4oW2NIXWMxW0NIM10pW0NAQEhdMk9bQ0BIXShbQ0BASF0oW09IXSlbQ0BIXTJbT0hdKVtDSDJdT0MoPU8pYzNbY0hdW2NIXVtjSF1bY0hdW2NIXTM=

> <s_epik_cmdline>
J2VwaWtfcHl0aG9uJywgJy1waCcsICc3LjAnLCAnLXRuJywgJzgnLCAnLW1hJywgJzIwMCcsICctbWV0YWxfYmluZGluZycsICctaW1hZScsICc8aW5maWxlLm1hZT4nLCAnLW9tYWUnLCAnPG91dGZpbGUubWFlPic=

> <r_lp_tautomer_probability>
0.999537

> <r_epik_Ionization_Penalty>
3.21006

> <r_epik_Ionization_Penalty_Charging>
5.75142e-08

> <r_epik_Ionization_Penalty_Neutral>
3.21006

> <r_epik_State_Penalty>
3.20925

> <r_epik_Charging_Adjusted_Penalty>
3.20925

> <i_epik_Tot_Q>
-1

> <i_epik_Tot_abs_Q>
1

> <r_epik_Metal_State_Penalty>
0.119957

> <b_epik_Metal_Only>
1

> <s_epik_Chemistry_Notes>
This compound has an ester and may undergo hydrolysis at high or low pH. This compound contains an acetal/aminal-like group ( X-CH(R)-Y where X, Y are N, S, or O) that may be acid/base labile, releasing an aldehyde.

> <s_lp_Force_Field>
OPLS_2005

> <r_lp_Energy>
50.5402

> <b_lp_Chiralities_Consistent>
1

> <s_lp_Variant>
AV-unprocessed.smi:101-18

> <Gold.Version>
5.8.1

> <Gold.Id.Protein>
6NUR|6NUR_protein|mol2

> <Gold.PLP.Fitness>
52.4089

> <Gold.PLP.PLP>
-50.0268

> <Gold.PLP.part.hbond>
-2.0000

> <Gold.PLP.part.metal>
0.0000

> <Gold.PLP.part.buried>
-7.0074

> <Gold.PLP.part.nonpolar>
-41.3863

> <Gold.PLP.part.repulsive>
0.4440

> <Gold.PLP.ligand.clash>
0.0000

> <Gold.PLP.ligand.torsion>
1.4957

> <Gold.PLP.Chemscore.Hbond>
1.7360

> <Gold.PLP.Chemscore.CHOScore>
0.0000

> <Gold.PLP.Chemscore.Metal>
0.0000

> <Gold.Chemscore.Hbonds>
donor molecule, donor type, donor heavy atom, donor atom, acceptor molecule, acceptor atom, score
      L1  H    21    43       P1 10175  1.00
      P1  H  7997  8009       L1    11  0.93

> <Gold.PLP.Chemscore.Internal.Correction>
0.1656

> <Gold.Rescore>
     Score         DG    S(hbond)    S(metal)    S(lipo)     H(rot)  DE(clash)    DE(int)     intcor
     11.29     -16.51       1.89        0.00     111.69       3.27       0.28       4.94       ----

> <Gold.Chemscore.Fitness>
11.2856

> <Gold.Chemscore.DG>
-16.5056

> <Gold.Chemscore.ZeroCoef>
-5.4800

> <Gold.Chemscore.Hbond>
1.8915

> <Gold.Chemscore.Metal>
0.0000

> <Gold.Chemscore.Lipo>
111.6921

> <Gold.Chemscore.Internal_Hbond>
0.0000

> <Gold.Chemscore.DEClash>
0.2829

> <Gold.Chemscore.DEInternal>
4.9372

> <Gold.Chemscore.Rot>
3.2656

> <Gold.Chemscore.Internal.Correction>
   9.000000E+99

> <Gold.Chemscore.Hbonds>
donor molecule, donor type, donor heavy atom, donor atom, acceptor molecule, acceptor atom, score
      L1  H    21    43       P1 10175  0.95
      P1  H  7997  8009       L1    11  0.91

> <Gold.Chemscore.Hbond.Weighted>
-6.3175

> <Gold.Chemscore.Metal.Weighted>
-0.0000

> <Gold.Chemscore.Lipo.Weighted>
-13.0680

> <Gold.Chemscore.Internal_Hbond.Weighted>
0.0000

> <Gold.Chemscore.DEClash.Weighted>
0.2829

> <Gold.Chemscore.DEInternal.Weighted>
4.9372

> <Gold.Chemscore.Rot.Weighted>
8.3598

> <Gold.Chemscore.Internal.Correction.Weighted>
   9.000000E+99

> <Gold.Protein.RotatedTorsions>
[ 6907 6896 6895 6894 ] final   77.46 input  -60.11 | X-H torsion
[ 7974 7965 7964 7962 ] final  -77.43 input  175.53 | X-H torsion
[ 8008 7997 7996 7995 ] final  162.74 input   59.86 | X-H torsion
[ 10167 10162 10161 10158 ] final  127.52 input  -65.29 | X-H torsion
[ 10718 10713 10712 10709 ] final  146.26 input   66.30 | X-H torsion
[ 10763 10752 10751 10750 ] final -137.21 input  -60.55 | X-H torsion
[ 11005 11000 10999 10996 ] final -169.61 input  -57.11 | X-H torsion

> <Gold.Protein.ActiveResidues>
 VAL166  LYS551  ARG553  GLY616  TRP617  ASP618  TYR619  PRO620  LYS621  CYS622 
 ASP623  PHE694  ASN695  SER759  ASP760  ASP761  ALA762  ILE779  LEU786  VAL792 
 PHE793  MET794  SER795  GLU796  ALA797  LYS798  CYS799  TRP800  GLU811  SER814 

> <Gold.Protein.RotatedAtoms>
  152.5119  134.3812  159.9351 H   0  0  0  0  0  0  0  0  0  0  0  0  # atno 6907 bound_to 6896
  151.3770  133.3828  159.2713 H   0  0  0  0  0  0  0  0  0  0  0  0  # atno 6908 bound_to 6896
  150.9534  134.8951  159.7745 H   0  0  0  0  0  0  0  0  0  0  0  0  # atno 6909 bound_to 6896
  145.5998  140.9411  143.1247 H   0  0  0  0  0  0  0  0  0  0  0  0  # atno 7974 bound_to 7965
  156.2009  140.1742  156.7901 H   0  0  0  0  0  0  0  0  0  0  0  0  # atno 8008 bound_to 7997
  154.5590  140.0703  156.8820 H   0  0  0  0  0  0  0  0  0  0  0  0  # atno 8009 bound_to 7997
  155.2883  140.3353  155.4256 H   0  0  0  0  0  0  0  0  0  0  0  0  # atno 8010 bound_to 7997
  139.5574  144.6858  151.4142 H   0  0  0  0  0  0  0  0  0  0  0  0  # atno 10167 bound_to 10162
  157.3353  131.0927  151.1128 H   0  0  0  0  0  0  0  0  0  0  0  0  # atno 10718 bound_to 10713
  154.8667  135.3649  154.5185 H   0  0  0  0  0  0  0  0  0  0  0  0  # atno 10763 bound_to 10752
  153.5817  135.7018  153.5465 H   0  0  0  0  0  0  0  0  0  0  0  0  # atno 10764 bound_to 10752
  153.3451  135.4087  155.1565 H   0  0  0  0  0  0  0  0  0  0  0  0  # atno 10765 bound_to 10752
  140.5288  134.5636  157.5069 H   0  0  0  0  0  0  0  0  0  0  0  0  # atno 11005 bound_to 11000
  144.7315  139.7712  143.7345 LP  0  0  0  0  0  0  0  0  0  0  0  0  # atno 17320 bound_to 7965
  146.1585  139.4691  143.0003 LP  0  0  0  0  0  0  0  0  0  0  0  0  # atno 17321 bound_to 7965
  140.6849  143.7997  150.7172 LP  0  0  0  0  0  0  0  0  0  0  0  0  # atno 17342 bound_to 10162
  140.1461  143.4398  152.2162 LP  0  0  0  0  0  0  0  0  0  0  0  0  # atno 17343 bound_to 10162
  157.2361  130.6547  149.5870 LP  0  0  0  0  0  0  0  0  0  0  0  0  # atno 17370 bound_to 10713
  155.9701  130.4583  150.5995 LP  0  0  0  0  0  0  0  0  0  0  0  0  # atno 17371 bound_to 10713
  139.9565  134.7526  156.0330 LP  0  0  0  0  0  0  0  0  0  0  0  0  # atno 17394 bound_to 11000
  141.1293  133.6591  156.3421 LP  0  0  0  0  0  0  0  0  0  0  0  0  # atno 17395 bound_to 11000

$$$$
