AV-unprocessed.smi:1834|AV-procd|sdf|7472|dock10
  -GOLD-   22720 9163D 1   1.00000     0.00000
 Structure written by MMmdl.
 46 47  0  0  0  0  0  0  0  0  2 V2000
  146.2533  137.9017  152.0060 C   0  0  0  0  0  0  0  0  0  0  0  0
  147.1205  138.8078  152.8926 C   0  0  0  0  0  0  0  0  0  0  0  0
  148.1288  138.0483  153.6749 N   0  3  2  0  0  0  0  0  0  0  0  0
  147.5213  137.3447  154.8329 C   0  0  0  0  0  0  0  0  0  0  0  0
  148.5545  136.4566  155.5412 C   0  0  0  0  0  0  0  0  0  0  0  0
  149.7677  137.2809  155.9868 C   0  0  0  0  0  0  0  0  0  0  0  0
  150.3830  138.0311  154.7919 C   0  0  2  0  0  0  0  0  0  0  0  0
  151.5969  138.8693  155.2504 C   0  0  0  0  0  0  0  0  0  0  0  0
  151.2313  139.9462  156.1674 N   0  0  0  0  0  0  0  0  0  0  0  0
  151.9706  140.3703  157.2032 C   0  0  0  0  0  0  0  0  0  0  0  0
  153.0520  139.8692  157.5121 O   0  0  0  0  0  0  0  0  0  0  0  0
  151.3697  141.3869  157.8454 N   0  0  0  0  0  0  0  0  0  0  0  0
  151.7798  142.0471  158.9609 C   0  0  0  0  0  0  0  0  0  0  0  0
  152.1174  141.5401  160.1862 C   0  0  0  0  0  0  0  0  0  0  0  0
  152.4544  142.7098  160.9275 C   0  0  0  0  0  0  0  0  0  0  0  0
  152.9083  142.8002  162.3544 C   0  0  0  0  0  0  0  0  0  0  0  0
  152.3303  143.8227  160.2131 N   0  0  0  0  0  0  0  0  0  0  0  0
  151.9123  143.4174  158.9946 N   0  0  0  0  0  0  0  0  0  0  0  0
  151.6745  144.3923  157.9480 C   0  0  0  0  0  0  0  0  0  0  0  0
  149.2951  138.8752  154.0863 C   0  0  0  0  0  0  0  0  0  0  0  0
  145.4614  138.4799  151.5293 H   0  0  0  0  0  0  0  0  0  0  0  0
  145.7785  137.1141  152.5918 H   0  0  0  0  0  0  0  0  0  0  0  0
  146.8289  137.4308  151.2096 H   0  0  0  0  0  0  0  0  0  0  0  0
  147.6113  139.5768  152.2944 H   0  0  0  0  0  0  0  0  0  0  0  0
  146.4541  139.3308  153.5800 H   0  0  0  0  0  0  0  0  0  0  0  0
  147.1094  138.0758  155.5307 H   0  0  0  0  0  0  0  0  0  0  0  0
  146.6900  136.7243  154.4955 H   0  0  0  0  0  0  0  0  0  0  0  0
  148.0983  135.9701  156.4038 H   0  0  0  0  0  0  0  0  0  0  0  0
  148.8768  135.6590  154.8703 H   0  0  0  0  0  0  0  0  0  0  0  0
  149.4637  137.9921  156.7562 H   0  0  0  0  0  0  0  0  0  0  0  0
  150.5093  136.6254  156.4449 H   0  0  0  0  0  0  0  0  0  0  0  0
  150.7437  137.2854  154.0812 H   0  0  0  0  0  0  0  0  0  0  0  0
  152.3599  138.2259  155.6925 H   0  0  0  0  0  0  0  0  0  0  0  0
  152.0654  139.3352  154.3830 H   0  0  0  0  0  0  0  0  0  0  0  0
  150.3564  140.4169  155.9865 H   0  0  0  0  0  0  0  0  0  0  0  0
  150.4874  141.6959  157.4645 H   0  0  0  0  0  0  0  0  0  0  0  0
  152.1293  140.5130  160.5181 H   0  0  0  0  0  0  0  0  0  0  0  0
  152.9748  141.8121  162.8100 H   0  0  0  0  0  0  0  0  0  0  0  0
  152.2145  143.3938  162.9502 H   0  0  0  0  0  0  0  0  0  0  0  0
  153.8923  143.2643  162.4251 H   0  0  0  0  0  0  0  0  0  0  0  0
  150.6896  144.2285  157.5091 H   0  0  0  0  0  0  0  0  0  0  0  0
  152.4334  144.2868  157.1723 H   0  0  0  0  0  0  0  0  0  0  0  0
  151.7169  145.4055  158.3505 H   0  0  0  0  0  0  0  0  0  0  0  0
  149.7228  139.3440  153.2024 H   0  0  0  0  0  0  0  0  0  0  0  0
  148.9592  139.6813  154.7407 H   0  0  0  0  0  0  0  0  0  0  0  0
  148.4808  137.3268  153.0620 H   0  0  0  0  0  0  0  0  0  0  0  0
  1  2  1  0  0  0  0
  1 21  1  0  0  0  0
  1 22  1  0  0  0  0
  1 23  1  0  0  0  0
  2  3  1  0  0  0  0
  2 24  1  0  0  0  0
  2 25  1  0  0  0  0
  3 20  1  0  0  0  0
  3  4  1  0  0  0  0
  3 46  1  0  0  0  0
  4  5  1  0  0  0  0
  4 26  1  0  0  0  0
  4 27  1  0  0  0  0
  5  6  1  0  0  0  0
  5 28  1  0  0  0  0
  5 29  1  0  0  0  0
  6  7  1  0  0  0  0
  6 30  1  0  0  0  0
  6 31  1  0  0  0  0
  7  8  1  0  0  0  0
  7 20  1  0  0  0  0
  7 32  1  0  0  0  0
  8  9  1  0  0  0  0
  8 33  1  0  0  0  0
  8 34  1  0  0  0  0
  9 10  1  0  0  0  0
  9 35  1  0  0  0  0
 10 11  2  0  0  0  0
 10 12  1  0  0  0  0
 12 13  1  0  0  0  0
 12 36  1  0  0  0  0
 13 18  1  0  0  0  0
 13 14  2  0  0  0  0
 14 15  1  0  0  0  0
 14 37  1  0  0  0  0
 15 16  1  0  0  0  0
 15 17  2  0  0  0  0
 16 38  1  0  0  0  0
 16 39  1  0  0  0  0
 16 40  1  0  0  0  0
 17 18  1  0  0  0  0
 18 19  1  0  0  0  0
 19 41  1  0  0  0  0
 19 42  1  0  0  0  0
 19 43  1  0  0  0  0
 20 44  1  0  0  0  0
 20 45  1  0  0  0  0
M  CHG  1   3   1
M  END
> <s_m_source_file>
AV-unprocessed.smi

> <i_m_source_file_index>
1834

> <i_lp_mmshare_version>
43012

> <i_f3d_flags>
0

> <s_epik_input>
W0NIM11bQ0gyXU4xW0NIMl1bQ0gyXVtDSDJdW0NASF0oW0NIMl0xKVtDSDJdW05IXUMoPU8pW05IXWMyW2NIXWMoW0NIM10pbm4yW0NIM10=

> <s_epik_cmdline>
J2VwaWtfcHl0aG9uJywgJy1waCcsICc3LjAnLCAnLXRuJywgJzgnLCAnLW1hJywgJzIwMCcsICctbWV0YWxfYmluZGluZycsICctaW1hZScsICc8aW5maWxlLm1hZT4nLCAnLW9tYWUnLCAnPG91dGZpbGUubWFlPic=

> <r_lp_tautomer_probability>
1

> <r_epik_Ionization_Penalty>
0.000466842

> <r_epik_Ionization_Penalty_Charging>
0.000378984

> <r_epik_Ionization_Penalty_Neutral>
8.78572e-05

> <r_epik_State_Penalty>
0.000231434

> <r_epik_Charging_Adjusted_Penalty>
0.000610418

> <i_epik_Tot_Q>
1

> <i_epik_Tot_abs_Q>
1

> <r_epik_Metal_State_Penalty>
-0

> <b_epik_Metal_Only>
0

> <s_lp_Force_Field>
OPLS_2005

> <r_lp_Energy>
19.5344

> <b_lp_Chiralities_Consistent>
1

> <s_lp_Variant>
AV-unprocessed.smi:1834-4

> <Gold.Version>
5.8.1

> <Gold.Id.Protein>
6NUR|6NUR_protein|mol2

> <Gold.PLP.Fitness>
46.6988

> <Gold.PLP.PLP>
-39.4092

> <Gold.PLP.part.hbond>
-1.9055

> <Gold.PLP.part.metal>
0.0000

> <Gold.PLP.part.buried>
-3.1249

> <Gold.PLP.part.nonpolar>
-34.7915

> <Gold.PLP.part.repulsive>
0.2228

> <Gold.PLP.ligand.clash>
0.0000

> <Gold.PLP.ligand.torsion>
0.8551

> <Gold.PLP.Chemscore.Hbond>
2.9913

> <Gold.PLP.Chemscore.CHOScore>
0.0000

> <Gold.PLP.Chemscore.Metal>
0.0000

> <Gold.Chemscore.Hbonds>
donor molecule, donor type, donor heavy atom, donor atom, acceptor molecule, acceptor atom, score
      L1  H     3    46       P1  7948  2.00
      P1  H  7997  8008       L1    11  1.00

> <Gold.PLP.Chemscore.Internal.Correction>
0.0261

> <Gold.Rescore>
     Score         DG    S(hbond)    S(metal)    S(lipo)     H(rot)  DE(clash)    DE(int)     intcor
     17.30     -17.79       1.98        0.00      80.01       1.43       0.04       0.46       ----

> <Gold.Chemscore.Fitness>
17.2969

> <Gold.Chemscore.DG>
-17.7932

> <Gold.Chemscore.ZeroCoef>
-5.4800

> <Gold.Chemscore.Hbond>
1.9793

> <Gold.Chemscore.Metal>
0.0000

> <Gold.Chemscore.Lipo>
80.0062

> <Gold.Chemscore.Internal_Hbond>
0.0000

> <Gold.Chemscore.DEClash>
0.0354

> <Gold.Chemscore.DEInternal>
0.4609

> <Gold.Chemscore.Rot>
1.4291

> <Gold.Chemscore.Internal.Correction>
   9.000000E+99

> <Gold.Chemscore.Hbonds>
donor molecule, donor type, donor heavy atom, donor atom, acceptor molecule, acceptor atom, score
      L1  H     3    46       P1  7948  1.00
      P1  H  7997  8008       L1    11  0.96

> <Gold.Chemscore.Hbond.Weighted>
-6.6109

> <Gold.Chemscore.Metal.Weighted>
-0.0000

> <Gold.Chemscore.Lipo.Weighted>
-9.3607

> <Gold.Chemscore.Internal_Hbond.Weighted>
0.0000

> <Gold.Chemscore.DEClash.Weighted>
0.0354

> <Gold.Chemscore.DEInternal.Weighted>
0.4609

> <Gold.Chemscore.Rot.Weighted>
3.6584

> <Gold.Chemscore.Internal.Correction.Weighted>
   9.000000E+99

> <Gold.Protein.RotatedTorsions>
[ 6907 6896 6895 6894 ] final   65.32 input  -60.11 | X-H torsion
[ 7974 7965 7964 7962 ] final -161.33 input  175.53 | X-H torsion
[ 8008 7997 7996 7995 ] final  -64.36 input   59.86 | X-H torsion
[ 10167 10162 10161 10158 ] final  130.82 input  -65.29 | X-H torsion
[ 10718 10713 10712 10709 ] final -151.38 input   66.30 | X-H torsion
[ 10763 10752 10751 10750 ] final    5.00 input  -60.55 | X-H torsion
[ 11005 11000 10999 10996 ] final -121.08 input  -57.11 | X-H torsion

> <Gold.Protein.ActiveResidues>
 VAL166  LYS551  ARG553  GLY616  TRP617  ASP618  TYR619  PRO620  LYS621  CYS622 
 ASP623  PHE694  ASN695  SER759  ASP760  ASP761  ALA762  ILE779  LEU786  VAL792 
 PHE793  MET794  SER795  GLU796  ALA797  LYS798  CYS799  TRP800  GLU811  SER814 

> <Gold.Protein.RotatedAtoms>
  152.4399  134.5613  159.9894 H   0  0  0  0  0  0  0  0  0  0  0  0  # atno 6907 bound_to 6896
  151.5713  133.3384  159.2998 H   0  0  0  0  0  0  0  0  0  0  0  0  # atno 6908 bound_to 6896
  150.8303  134.7587  159.6912 H   0  0  0  0  0  0  0  0  0  0  0  0  # atno 6909 bound_to 6896
  144.7395  140.3413  143.6134 H   0  0  0  0  0  0  0  0  0  0  0  0  # atno 7974 bound_to 7965
  154.4607  140.0955  156.6884 H   0  0  0  0  0  0  0  0  0  0  0  0  # atno 8008 bound_to 7997
  155.5003  140.3473  155.4351 H   0  0  0  0  0  0  0  0  0  0  0  0  # atno 8009 bound_to 7997
  156.0864  140.1386  156.9636 H   0  0  0  0  0  0  0  0  0  0  0  0  # atno 8010 bound_to 7997
  139.5412  144.6732  151.4618 H   0  0  0  0  0  0  0  0  0  0  0  0  # atno 10167 bound_to 10162
  156.4586  130.8202  151.2433 H   0  0  0  0  0  0  0  0  0  0  0  0  # atno 10718 bound_to 10713
  153.2646  135.6926  153.7543 H   0  0  0  0  0  0  0  0  0  0  0  0  # atno 10763 bound_to 10752
  153.6589  135.3364  155.3122 H   0  0  0  0  0  0  0  0  0  0  0  0  # atno 10764 bound_to 10752
  154.8442  135.4472  154.1648 H   0  0  0  0  0  0  0  0  0  0  0  0  # atno 10765 bound_to 10752
  141.0097  134.0283  157.3430 H   0  0  0  0  0  0  0  0  0  0  0  0  # atno 11005 bound_to 11000
  145.7372  139.1753  143.2397 LP  0  0  0  0  0  0  0  0  0  0  0  0  # atno 17320 bound_to 7965
  146.1162  140.7367  142.9479 LP  0  0  0  0  0  0  0  0  0  0  0  0  # atno 17321 bound_to 7965
  140.6643  143.8432  150.6923 LP  0  0  0  0  0  0  0  0  0  0  0  0  # atno 17342 bound_to 10162
  140.1836  143.4094  152.1915 LP  0  0  0  0  0  0  0  0  0  0  0  0  # atno 17343 bound_to 10162
  157.7499  131.0115  150.3346 LP  0  0  0  0  0  0  0  0  0  0  0  0  # atno 17370 bound_to 10713
  156.3741  130.3868  149.7153 LP  0  0  0  0  0  0  0  0  0  0  0  0  # atno 17371 bound_to 10713
  139.9083  135.0184  156.7581 LP  0  0  0  0  0  0  0  0  0  0  0  0  # atno 17394 bound_to 11000
  140.6754  133.9522  155.7880 LP  0  0  0  0  0  0  0  0  0  0  0  0  # atno 17395 bound_to 11000

$$$$
