#       Name:                AV-unprocessed.smi:1815
#       Creating user name   scv26
#       Creation time:       Fri Mar 27 09:01:35 2020


#       File generated by GOLD software.
#

@<TRIPOS>MOLECULE
AV-unprocessed.smi:1815
    45    46     1
SMALL
NO_CHARGES


@<TRIPOS>ATOM
      1 ****        -3.9198  -1.6779   2.5400 C.3            1 S1                 0.0000
      2 ****        -3.3913  -0.7582   1.4338 C.3            1 S1                 0.0000
      3 ****        -1.8522  -0.7091   1.4056 C.3            1 S1                 0.0000
      4 ****        -1.3789   0.2457   0.3754 N.4            1 S1                 1.0000
      5 ****         0.1015   0.2756   0.2732 C.3            1 S1                 0.0000
      6 ****         0.5885   0.8627  -1.0658 C.3            1 S1                 0.0000
      7 ****         2.0423   0.8170  -1.1740 N.am           1 S1                 0.0000
      8 ****         2.7511  -0.2768  -1.4892 C.2            1 S1                 0.0000
      9 ****         2.2364  -1.3724  -1.7159 O.2            1 S1                 0.0000
     10 ****         4.0693  -0.0145  -1.5187 N.am           1 S1                 0.0000
     11 ****         5.1353  -0.9097  -1.7978 C.2            1 S1                 0.0000
     12 ****         4.9760  -2.2064  -2.0874 N.2            1 S1                 0.0000
     13 ****         6.1969  -2.8463  -2.3161 C.2            1 S1                 0.0000
     14 ****         7.2831  -2.0159  -2.1944 C.2            1 S1                 0.0000
     15 ****         6.8134  -0.3873  -1.7872 S.3            1 S1                 0.0000
     16 ****        -1.9893   1.5807   0.5909 C.3            1 S1                 0.0000
     17 ****        -3.5251   1.4700   0.6428 C.3            1 S1                 0.0000
     18 ****        -4.1917   2.8167   0.9444 C.3            1 S1                 0.0000
     19 ****        -3.8922   0.5533   1.6680 O.3            1 S1                 0.0000
     20 ****        -3.5746  -2.7022   2.3974 H              1 S1                 0.0000
     21 ****        -5.0099  -1.6934   2.5459 H              1 S1                 0.0000
     22 ****        -3.5861  -1.3458   3.5236 H              1 S1                 0.0000
     23 ****        -3.7660  -1.1200   0.4746 H              1 S1                 0.0000
     24 ****        -1.4646  -0.4119   2.3817 H              1 S1                 0.0000
     25 ****        -1.4588  -1.7042   1.1936 H              1 S1                 0.0000
     26 ****         0.5207   0.8297   1.1145 H              1 S1                 0.0000
     27 ****         0.4758  -0.7455   0.3604 H              1 S1                 0.0000
     28 ****         0.1363   0.3305  -1.9046 H              1 S1                 0.0000
     29 ****         0.2912   1.9062  -1.1626 H              1 S1                 0.0000
     30 ****         2.5418   1.6780  -1.0040 H              1 S1                 0.0000
     31 ****         4.3446   0.9349  -1.3151 H              1 S1                 0.0000
     32 ****         6.2005  -3.8983  -2.5604 H              1 S1                 0.0000
     33 ****         8.3269  -2.2629  -2.3196 H              1 S1                 0.0000
     34 ****        -1.6108   2.0080   1.5212 H              1 S1                 0.0000
     35 ****        -1.7068   2.2610  -0.2117 H              1 S1                 0.0000
     36 ****        -3.8999   1.1056  -0.3154 H              1 S1                 0.0000
     37 ****        -3.9472   3.5558   0.1810 H              1 S1                 0.0000
     38 ****        -3.8681   3.2111   1.9081 H              1 S1                 0.0000
     39 ****        -5.2769   2.7163   0.9734 H              1 S1                 0.0000
     40 ****        -1.7226  -0.0997  -0.5094 H              1 S1                 0.0000
     41 ****         1.2431  -1.4775  -1.6690 LP             1 S1                 0.0000
     42 ****         2.8119  -2.1570  -1.9469 LP             1 S1                 0.0000
     43 ****         4.0879  -2.6636  -2.1346 LP             1 S1                 0.0000
     44 ****        -3.5288   0.8842   2.5389 LP             1 S1                 0.0000
     45 ****        -4.8900   0.5110   1.7177 LP             1 S1                 0.0000
@<TRIPOS>BOND
    1    1    2 1     
    2    1   20 1     
    3    1   21 1     
    4    1   22 1     
    5    2   19 1     
    6    2    3 1     
    7    2   23 1     
    8    3    4 1     
    9    3   24 1     
   10    3   25 1     
   11    4    5 1     
   12    4   16 1     
   13    4   40 1     
   14    5    6 1     
   15    5   26 1     
   16    5   27 1     
   17    6    7 1     
   18    6   28 1     
   19    6   29 1     
   20    7    8 am    
   21    7   30 1     
   22    8    9 2     
   23    8   10 am    
   24   10   11 1     
   25   10   31 1     
   26   11   15 1     
   27   11   12 2     
   28   12   13 1     
   29   13   14 2     
   30   13   32 1     
   31   14   15 1     
   32   14   33 1     
   33   16   17 1     
   34   16   34 1     
   35   16   35 1     
   36   17   18 1     
   37   17   19 1     
   38   17   36 1     
   39   18   37 1     
   40   18   38 1     
   41   18   39 1     
   42    9   41 1     
   43    9   42 1     
   44   12   43 1     
   45   19   44 1     
   46   19   45 1     
@<TRIPOS>SUBSTRUCTURE
      1 S1             1
@<TRIPOS>SET
LONE_PAIRS      STATIC     ATOMS    <user>   **** ""
5 41 42 43 44 45
DONOR_HYDROGENS      STATIC     ATOMS    <user>   **** ""
3 40 30 31
ATOM$BLUE        STATIC     ATOMS    COLORGROUP SYSTEM
5 41 42 43 44 45
ATOM$RED        STATIC     ATOMS    COLORGROUP SYSTEM
3 40 30 31
