AV-unprocessed.smi:189|AV-procd|sdf|1476|dock6
  -GOLD-   2262019293D 1   1.00000     0.00000
 Structure written by MMmdl.
 53 57  0  0  0  0  0  0  0  0  1 V2000
  150.2961  137.1909  155.1008 C   0  0  0  0  0  0  0  0  0  0  0  0
  151.1308  138.2798  155.8022 C   0  0  1  0  0  0  0  0  0  0  0  0
  151.1219  139.6586  155.1325 C   0  0  0  0  0  0  0  0  0  0  0  0
  151.6612  140.5806  156.2365 C   0  0  1  0  0  0  0  0  0  0  0  0
  150.9310  141.9288  156.3669 C   0  0  0  0  0  0  0  0  0  0  0  0
  151.4561  142.7578  157.5593 C   0  0  0  0  0  0  0  0  0  0  0  0
  151.8396  141.9069  158.7918 C   0  0  0  0  0  0  0  0  0  0  0  0
  151.1507  140.5352  158.7872 C   0  0  0  0  0  0  0  0  0  0  0  0
  151.5794  139.7345  157.5289 C   0  0  1  0  0  0  0  0  0  0  0  0
  150.8169  138.5218  157.2114 N   0  0  0  0  0  0  0  0  0  0  0  0
  149.5194  138.5059  157.6116 C   0  0  0  0  0  0  0  0  0  0  0  0
  148.6694  139.5179  157.2912 N   0  0  0  0  0  0  0  0  0  0  0  0
  147.4085  139.5000  157.7333 C   0  0  0  0  0  0  0  0  0  0  0  0
  146.8079  138.5920  158.5054 N   0  0  0  0  0  0  0  0  0  0  0  0
  147.6636  137.5847  158.8429 C   0  0  0  0  0  0  0  0  0  0  0  0
  149.0211  137.4632  158.4356 C   0  0  0  0  0  0  0  0  0  0  0  0
  149.5792  136.3083  158.9679 N   0  0  0  0  0  0  0  0  0  0  0  0
  148.6054  135.7758  159.6542 C   0  0  0  0  0  0  0  0  0  0  0  0
  147.4241  136.4841  159.6473 N   0  0  0  0  0  0  0  0  0  0  0  0
  146.1928  136.1277  160.3344 C   0  0  0  0  0  0  0  0  0  0  0  0
  146.2230  136.4020  161.8605 C   0  0  1  0  0  0  0  0  0  0  0  0
  146.5174  137.7660  162.0953 O   0  0  0  0  0  0  0  0  0  0  0  0
  144.9063  136.0475  162.5320 C   0  0  0  0  0  0  0  0  0  0  0  0
  145.0608  134.5549  162.8151 C   0  0  0  0  0  0  0  0  0  0  0  0
  146.4584  134.3273  162.9709 O   0  0  0  0  0  0  0  0  0  0  0  0
  147.1891  135.5064  162.6481 C   0  0  0  0  0  0  0  0  0  0  0  0
  150.6829  137.0003  154.0998 H   0  0  0  0  0  0  0  0  0  0  0  0
  149.2491  137.4709  154.9910 H   0  0  0  0  0  0  0  0  0  0  0  0
  150.3373  136.2514  155.6525 H   0  0  0  0  0  0  0  0  0  0  0  0
  152.1620  137.9224  155.7964 H   0  0  0  0  0  0  0  0  0  0  0  0
  151.7346  139.6849  154.2309 H   0  0  0  0  0  0  0  0  0  0  0  0
  150.1083  139.9429  154.8482 H   0  0  0  0  0  0  0  0  0  0  0  0
  152.7143  140.7847  156.0367 H   0  0  0  0  0  0  0  0  0  0  0  0
  151.0195  142.5031  155.4443 H   0  0  0  0  0  0  0  0  0  0  0  0
  149.8650  141.7442  156.5067 H   0  0  0  0  0  0  0  0  0  0  0  0
  152.3259  143.3385  157.2498 H   0  0  0  0  0  0  0  0  0  0  0  0
  150.6946  143.4871  157.8376 H   0  0  0  0  0  0  0  0  0  0  0  0
  152.9196  141.7546  158.8029 H   0  0  0  0  0  0  0  0  0  0  0  0
  151.6014  142.4493  159.7073 H   0  0  0  0  0  0  0  0  0  0  0  0
  151.3993  139.9760  159.6897 H   0  0  0  0  0  0  0  0  0  0  0  0
  150.0745  140.7084  158.8167 H   0  0  0  0  0  0  0  0  0  0  0  0
  152.5912  139.3791  157.7309 H   0  0  0  0  0  0  0  0  0  0  0  0
  146.7958  140.3360  157.4302 H   0  0  0  0  0  0  0  0  0  0  0  0
  148.7263  134.8503  160.1985 H   0  0  0  0  0  0  0  0  0  0  0  0
  145.3730  136.6776  159.8703 H   0  0  0  0  0  0  0  0  0  0  0  0
  145.9964  135.0725  160.1413 H   0  0  0  0  0  0  0  0  0  0  0  0
  146.7016  137.8805  163.0150 H   0  0  0  0  0  0  0  0  0  0  0  0
  144.8058  136.5797  163.4795 H   0  0  0  0  0  0  0  0  0  0  0  0
  144.0295  136.2798  161.9263 H   0  0  0  0  0  0  0  0  0  0  0  0
  144.5075  134.2433  163.7013 H   0  0  0  0  0  0  0  0  0  0  0  0
  144.7042  133.9640  161.9710 H   0  0  0  0  0  0  0  0  0  0  0  0
  148.1153  135.2764  162.1238 H   0  0  0  0  0  0  0  0  0  0  0  0
  147.4650  135.9817  163.5910 H   0  0  0  0  0  0  0  0  0  0  0  0
  1  2  1  0  0  0  0
  1 27  1  0  0  0  0
  1 28  1  0  0  0  0
  1 29  1  0  0  0  0
  2 10  1  0  0  0  0
  2  3  1  0  0  0  0
  2 30  1  0  0  0  0
  3  4  1  0  0  0  0
  3 31  1  0  0  0  0
  3 32  1  0  0  0  0
  4  9  1  0  0  0  0
  4  5  1  0  0  0  0
  4 33  1  0  0  0  0
  5  6  1  0  0  0  0
  5 34  1  0  0  0  0
  5 35  1  0  0  0  0
  6  7  1  0  0  0  0
  6 36  1  0  0  0  0
  6 37  1  0  0  0  0
  7  8  1  0  0  0  0
  7 38  1  0  0  0  0
  7 39  1  0  0  0  0
  8  9  1  0  0  0  0
  8 40  1  0  0  0  0
  8 41  1  0  0  0  0
  9 10  1  0  0  0  0
  9 42  1  0  0  0  0
 10 11  1  0  0  0  0
 11 16  1  0  0  0  0
 11 12  2  0  0  0  0
 12 13  1  0  0  0  0
 13 14  2  0  0  0  0
 13 43  1  0  0  0  0
 14 15  1  0  0  0  0
 15 19  1  0  0  0  0
 15 16  2  0  0  0  0
 16 17  1  0  0  0  0
 17 18  2  0  0  0  0
 18 19  1  0  0  0  0
 18 44  1  0  0  0  0
 19 20  1  0  0  0  0
 20 21  1  0  0  0  0
 20 45  1  0  0  0  0
 20 46  1  0  0  0  0
 21 26  1  0  0  0  0
 21 22  1  0  0  0  0
 21 23  1  0  0  0  0
 22 47  1  0  0  0  0
 23 24  1  0  0  0  0
 23 48  1  0  0  0  0
 23 49  1  0  0  0  0
 24 25  1  0  0  0  0
 24 50  1  0  0  0  0
 24 51  1  0  0  0  0
 25 26  1  0  0  0  0
 26 52  1  0  0  0  0
 26 53  1  0  0  0  0
M  END
> <s_m_source_file>
AV-unprocessed.smi

> <i_m_source_file_index>
189

> <i_lp_mmshare_version>
43012

> <i_f3d_flags>
0

> <s_epik_input>
W0NIMl0xW0NIMl1bQ0gyXVtDSDJdW0NASF0oW0NASF0xMilOKFtDQEhdKFtDSDNdKVtDSDJdMiljKG5bY0hdbjMpYyhjMzQpbltjSF1uNFtDSDJdW0NAQF01KFtPSF0pW0NIMl1bQ0gyXU9bQ0gyXTU=

> <s_epik_cmdline>
J2VwaWtfcHl0aG9uJywgJy1waCcsICc3LjAnLCAnLXRuJywgJzgnLCAnLW1hJywgJzIwMCcsICctbWV0YWxfYmluZGluZycsICctaW1hZScsICc8aW5maWxlLm1hZT4nLCAnLW9tYWUnLCAnPG91dGZpbGUubWFlPic=

> <r_lp_tautomer_probability>
1

> <r_epik_Ionization_Penalty>
0.00594261

> <r_epik_Ionization_Penalty_Charging>
0

> <r_epik_Ionization_Penalty_Neutral>
0.00594261

> <r_epik_State_Penalty>
0.00429776

> <r_epik_Charging_Adjusted_Penalty>
0.00429776

> <i_epik_Tot_Q>
0

> <i_epik_Tot_abs_Q>
0

> <r_epik_Metal_State_Penalty>
-0

> <b_epik_Metal_Only>
0

> <s_lp_Force_Field>
OPLS_2005

> <r_lp_Energy>
67.8884

> <b_lp_Chiralities_Consistent>
1

> <s_lp_Variant>
AV-unprocessed.smi:189-2

> <Gold.Version>
5.8.1

> <Gold.Id.Protein>
6NUR|6NUR_protein|mol2

> <Gold.PLP.Fitness>
42.8574

> <Gold.PLP.PLP>
-39.9518

> <Gold.PLP.part.hbond>
-3.7841

> <Gold.PLP.part.metal>
0.0000

> <Gold.PLP.part.buried>
-6.6366

> <Gold.PLP.part.nonpolar>
-29.5884

> <Gold.PLP.part.repulsive>
0.0029

> <Gold.PLP.ligand.clash>
0.0000

> <Gold.PLP.ligand.torsion>
0.3752

> <Gold.PLP.Chemscore.Hbond>
1.2020

> <Gold.PLP.Chemscore.CHOScore>
0.0000

> <Gold.PLP.Chemscore.Metal>
0.0000

> <Gold.Chemscore.Hbonds>
donor molecule, donor type, donor heavy atom, donor atom, acceptor molecule, acceptor atom, score
      P1  H  6896  6908       L1    17  0.43
      P1  H  6934  6947       L1    22  0.67

> <Gold.PLP.Chemscore.Internal.Correction>
0.0500

> <Gold.Rescore>
     Score         DG    S(hbond)    S(metal)    S(lipo)     H(rot)  DE(clash)    DE(int)     intcor
     12.98     -14.46       0.70        0.00     101.27       2.03       1.30       0.18       ----

> <Gold.Chemscore.Fitness>
12.9828

> <Gold.Chemscore.DG>
-14.4598

> <Gold.Chemscore.ZeroCoef>
-5.4800

> <Gold.Chemscore.Hbond>
0.6967

> <Gold.Chemscore.Metal>
0.0000

> <Gold.Chemscore.Lipo>
101.2724

> <Gold.Chemscore.Internal_Hbond>
0.0000

> <Gold.Chemscore.DEClash>
1.2997

> <Gold.Chemscore.DEInternal>
0.1773

> <Gold.Chemscore.Rot>
2.0297

> <Gold.Chemscore.Internal.Correction>
   9.000000E+99

> <Gold.Chemscore.Hbonds>
donor molecule, donor type, donor heavy atom, donor atom, acceptor molecule, acceptor atom, score
      P1  H  6896  6908       L1    17  0.01
      P1  H  6934  6947       L1    22  0.64

> <Gold.Chemscore.Hbond.Weighted>
-2.3269

> <Gold.Chemscore.Metal.Weighted>
-0.0000

> <Gold.Chemscore.Lipo.Weighted>
-11.8489

> <Gold.Chemscore.Internal_Hbond.Weighted>
0.0000

> <Gold.Chemscore.DEClash.Weighted>
1.2997

> <Gold.Chemscore.DEInternal.Weighted>
0.1773

> <Gold.Chemscore.Rot.Weighted>
5.1960

> <Gold.Chemscore.Internal.Correction.Weighted>
   9.000000E+99

> <Gold.Protein.RotatedTorsions>
[ 6907 6896 6895 6894 ] final -168.19 input  -60.11 | X-H torsion
[ 7974 7965 7964 7962 ] final -179.73 input  175.53 | X-H torsion
[ 8008 7997 7996 7995 ] final  100.80 input   59.86 | X-H torsion
[ 10167 10162 10161 10158 ] final  170.99 input  -65.29 | X-H torsion
[ 10718 10713 10712 10709 ] final   68.94 input   66.30 | X-H torsion
[ 10763 10752 10751 10750 ] final   76.39 input  -60.55 | X-H torsion
[ 11005 11000 10999 10996 ] final  -32.46 input  -57.11 | X-H torsion

> <Gold.Protein.ActiveResidues>
 VAL166  LYS551  ARG553  GLY616  TRP617  ASP618  TYR619  PRO620  LYS621  CYS622 
 ASP623  PHE694  ASN695  SER759  ASP760  ASP761  ALA762  ILE779  LEU786  VAL792 
 PHE793  MET794  SER795  GLU796  ALA797  LYS798  CYS799  TRP800  GLU811  SER814 

> <Gold.Protein.RotatedAtoms>
  151.4717  133.3567  159.2824 H   0  0  0  0  0  0  0  0  0  0  0  0  # atno 6907 bound_to 6896
  150.8957  134.8366  159.7335 H   0  0  0  0  0  0  0  0  0  0  0  0  # atno 6908 bound_to 6896
  152.4849  134.4631  159.9663 H   0  0  0  0  0  0  0  0  0  0  0  0  # atno 6909 bound_to 6896
  144.7138  140.0674  143.6430 H   0  0  0  0  0  0  0  0  0  0  0  0  # atno 7974 bound_to 7965
  156.1238  140.3207  155.8248 H   0  0  0  0  0  0  0  0  0  0  0  0  # atno 8008 bound_to 7997
  155.4456  140.0528  157.3023 H   0  0  0  0  0  0  0  0  0  0  0  0  # atno 8009 bound_to 7997
  154.4847  140.2068  155.9695 H   0  0  0  0  0  0  0  0  0  0  0  0  # atno 8010 bound_to 7997
  139.5034  144.3536  151.9898 H   0  0  0  0  0  0  0  0  0  0  0  0  # atno 10167 bound_to 10162
  157.6318  130.9399  150.0445 H   0  0  0  0  0  0  0  0  0  0  0  0  # atno 10718 bound_to 10713
  153.0722  135.4953  154.8329 H   0  0  0  0  0  0  0  0  0  0  0  0  # atno 10763 bound_to 10752
  154.7038  135.3007  154.9303 H   0  0  0  0  0  0  0  0  0  0  0  0  # atno 10764 bound_to 10752
  154.0018  135.6765  153.4812 H   0  0  0  0  0  0  0  0  0  0  0  0  # atno 10765 bound_to 10752
  140.9554  133.7196  156.1284 H   0  0  0  0  0  0  0  0  0  0  0  0  # atno 11005 bound_to 11000
  145.9812  139.2943  143.1040 LP  0  0  0  0  0  0  0  0  0  0  0  0  # atno 17320 bound_to 7965
  145.9008  140.9244  143.0504 LP  0  0  0  0  0  0  0  0  0  0  0  0  # atno 17321 bound_to 7965
  140.2972  144.3687  150.6071 LP  0  0  0  0  0  0  0  0  0  0  0  0  # atno 17342 bound_to 10162
  140.5901  143.2168  151.7269 LP  0  0  0  0  0  0  0  0  0  0  0  0  # atno 17343 bound_to 10162
  156.1526  130.3642  149.9415 LP  0  0  0  0  0  0  0  0  0  0  0  0  # atno 17370 bound_to 10713
  156.7431  130.9087  151.3633 LP  0  0  0  0  0  0  0  0  0  0  0  0  # atno 17371 bound_to 10713
  140.7544  134.4009  157.5536 LP  0  0  0  0  0  0  0  0  0  0  0  0  # atno 17394 bound_to 11000
  139.8860  134.8921  156.2608 LP  0  0  0  0  0  0  0  0  0  0  0  0  # atno 17395 bound_to 11000

$$$$
