AV-unprocessed.smi:1173|AV-procd|sdf|4945|dock10
  -GOLD-   22720 3533D 1   1.00000     0.00000
 Structure written by MMmdl.
 37 38  0  0  0  0  0  0  0  0  1 V2000
  151.2614  137.7641  158.4157 C   0  0  0  0  0  0  0  0  0  0  0  0
  152.6545  138.0852  158.7485 N   0  0  0  0  0  0  0  0  0  0  0  0
  153.4956  136.9665  159.2057 C   0  0  0  0  0  0  0  0  0  0  0  0
  154.6214  136.6181  158.2218 C   0  0  0  0  0  0  0  0  0  0  0  0
  155.8697  136.7060  158.6871 N   0  0  0  0  0  0  0  0  0  0  0  0
  154.3791  136.2932  157.0603 O   0  0  0  0  0  0  0  0  0  0  0  0
  153.1671  139.3362  158.6284 C   0  0  0  0  0  0  0  0  0  0  0  0
  154.3518  139.6065  158.8302 O   0  0  0  0  0  0  0  0  0  0  0  0
  152.2316  140.4405  158.2316 C   0  0  0  0  0  0  0  0  0  0  0  0
  151.4300  140.2103  157.1675 N   0  0  0  0  0  0  0  0  0  0  0  0
  150.5895  141.1798  156.7837 C   0  0  0  0  0  0  0  0  0  0  0  0
  149.7637  140.9223  155.6812 N   0  0  0  0  0  0  0  0  0  0  0  0
  149.9517  139.7380  154.8388 C   0  0  0  0  0  0  0  0  0  0  0  0
  148.6186  139.2878  154.2181 C   0  0  0  0  0  0  0  0  0  0  0  0
  148.0276  140.3690  153.5086 O   0  0  0  0  0  0  0  0  0  0  0  0
  147.7329  141.4597  154.3720 C   0  0  0  0  0  0  0  0  0  0  0  0
  149.0313  141.9936  155.0004 C   0  0  0  0  0  0  0  0  0  0  0  0
  150.4810  142.3762  157.3765 N   0  0  0  0  0  0  0  0  0  0  0  0
  151.2811  142.6311  158.4334 C   0  0  0  0  0  0  0  0  0  0  0  0
  152.2006  141.6799  158.9143 C   0  0  0  0  0  0  0  0  0  0  0  0
  153.2315  142.0494  160.2533 Cl  0  0  0  0  0  0  0  0  0  0  0  0
  150.5754  138.2414  159.1154 H   0  0  0  0  0  0  0  0  0  0  0  0
  151.0605  136.6934  158.4583 H   0  0  0  0  0  0  0  0  0  0  0  0
  151.0128  138.0964  157.4067 H   0  0  0  0  0  0  0  0  0  0  0  0
  153.9468  137.1942  160.1718 H   0  0  0  0  0  0  0  0  0  0  0  0
  152.8831  136.0802  159.3822 H   0  0  0  0  0  0  0  0  0  0  0  0
  156.6504  136.4917  158.0838 H   0  0  0  0  0  0  0  0  0  0  0  0
  156.0291  136.9904  159.6430 H   0  0  0  0  0  0  0  0  0  0  0  0
  150.6675  139.9803  154.0526 H   0  0  0  0  0  0  0  0  0  0  0  0
  150.3667  138.8990  155.3968 H   0  0  0  0  0  0  0  0  0  0  0  0
  148.7880  138.4620  153.5269 H   0  0  0  0  0  0  0  0  0  0  0  0
  147.9348  138.9236  154.9867 H   0  0  0  0  0  0  0  0  0  0  0  0
  147.2459  142.2460  153.7951 H   0  0  0  0  0  0  0  0  0  0  0  0
  147.0267  141.1486  155.1437 H   0  0  0  0  0  0  0  0  0  0  0  0
  148.7703  142.8056  155.6788 H   0  0  0  0  0  0  0  0  0  0  0  0
  149.6740  142.4186  154.2287 H   0  0  0  0  0  0  0  0  0  0  0  0
  151.1899  143.6038  158.8934 H   0  0  0  0  0  0  0  0  0  0  0  0
  1  2  1  0  0  0  0
  1 22  1  0  0  0  0
  1 23  1  0  0  0  0
  1 24  1  0  0  0  0
  2  3  1  0  0  0  0
  2  7  1  0  0  0  0
  3  4  1  0  0  0  0
  3 25  1  0  0  0  0
  3 26  1  0  0  0  0
  4  5  1  0  0  0  0
  4  6  2  0  0  0  0
  5 27  1  0  0  0  0
  5 28  1  0  0  0  0
  7  8  2  0  0  0  0
  7  9  1  0  0  0  0
  9 20  1  0  0  0  0
  9 10  2  0  0  0  0
 10 11  1  0  0  0  0
 11 12  1  0  0  0  0
 11 18  2  0  0  0  0
 12 17  1  0  0  0  0
 12 13  1  0  0  0  0
 13 14  1  0  0  0  0
 13 29  1  0  0  0  0
 13 30  1  0  0  0  0
 14 15  1  0  0  0  0
 14 31  1  0  0  0  0
 14 32  1  0  0  0  0
 15 16  1  0  0  0  0
 16 17  1  0  0  0  0
 16 33  1  0  0  0  0
 16 34  1  0  0  0  0
 17 35  1  0  0  0  0
 17 36  1  0  0  0  0
 18 19  1  0  0  0  0
 19 20  2  0  0  0  0
 19 37  1  0  0  0  0
 20 21  1  0  0  0  0
M  END
> <s_m_source_file>
AV-unprocessed.smi

> <i_m_source_file_index>
1173

> <i_lp_mmshare_version>
43012

> <i_f3d_flags>
0

> <s_epik_input>
W05IMl1DKD1PKVtDSDJdTihbQ0gzXSlDKD1PKWMxbmMobltjSF1jMUNsKU4yW0NIMl1bQ0gyXU9bQ0gyXVtDSDJdMg==

> <s_epik_cmdline>
J2VwaWtfcHl0aG9uJywgJy1waCcsICc3LjAnLCAnLXRuJywgJzgnLCAnLW1hJywgJzIwMCcsICctbWV0YWxfYmluZGluZycsICctaW1hZScsICc8aW5maWxlLm1hZT4nLCAnLW9tYWUnLCAnPG91dGZpbGUubWFlPic=

> <r_lp_tautomer_probability>
1

> <r_epik_Ionization_Penalty>
9.52456e-08

> <r_epik_Ionization_Penalty_Charging>
0

> <r_epik_Ionization_Penalty_Neutral>
9.52456e-08

> <r_epik_State_Penalty>
-0

> <r_epik_Charging_Adjusted_Penalty>
0

> <i_epik_Tot_Q>
0

> <i_epik_Tot_abs_Q>
0

> <r_epik_Metal_State_Penalty>
-0

> <b_epik_Metal_Only>
0

> <s_lp_Force_Field>
OPLS_2005

> <r_lp_Energy>
19.8888

> <b_lp_Chiralities_Consistent>
1

> <s_lp_Variant>
AV-unprocessed.smi:1173-1

> <Gold.Version>
5.8.1

> <Gold.Id.Protein>
6NUR|6NUR_protein|mol2

> <Gold.PLP.Fitness>
34.6159

> <Gold.PLP.PLP>
-28.7715

> <Gold.PLP.part.hbond>
-2.0000

> <Gold.PLP.part.metal>
0.0000

> <Gold.PLP.part.buried>
-2.8617

> <Gold.PLP.part.nonpolar>
-26.4714

> <Gold.PLP.part.repulsive>
2.2136

> <Gold.PLP.ligand.clash>
0.0000

> <Gold.PLP.ligand.torsion>
0.9329

> <Gold.PLP.Chemscore.Hbond>
2.0000

> <Gold.PLP.Chemscore.CHOScore>
0.0000

> <Gold.PLP.Chemscore.Metal>
0.0000

> <Gold.Chemscore.Hbonds>
donor molecule, donor type, donor heavy atom, donor atom, acceptor molecule, acceptor atom, score
      P1  H  7997  8009       L1     8  1.00
      P1  H 10752 10765       L1     6  1.00

> <Gold.PLP.Chemscore.Internal.Correction>
1.7101

> <Gold.Rescore>
     Score         DG    S(hbond)    S(metal)    S(lipo)     H(rot)  DE(clash)    DE(int)     intcor
     12.28     -16.12       1.96        0.00      68.47       1.54       1.36       2.48       ----

> <Gold.Chemscore.Fitness>
12.2800

> <Gold.Chemscore.DG>
-16.1151

> <Gold.Chemscore.ZeroCoef>
-5.4800

> <Gold.Chemscore.Hbond>
1.9641

> <Gold.Chemscore.Metal>
0.0000

> <Gold.Chemscore.Lipo>
68.4737

> <Gold.Chemscore.Internal_Hbond>
0.0000

> <Gold.Chemscore.DEClash>
1.3583

> <Gold.Chemscore.DEInternal>
2.4769

> <Gold.Chemscore.Rot>
1.5377

> <Gold.Chemscore.Internal.Correction>
   9.000000E+99

> <Gold.Chemscore.Hbonds>
donor molecule, donor type, donor heavy atom, donor atom, acceptor molecule, acceptor atom, score
      P1  H  7997  8009       L1     8  0.81
      P1  H 10752 10765       L1     6  0.98

> <Gold.Chemscore.Hbond.Weighted>
-6.5602

> <Gold.Chemscore.Metal.Weighted>
-0.0000

> <Gold.Chemscore.Lipo.Weighted>
-8.0114

> <Gold.Chemscore.Internal_Hbond.Weighted>
0.0000

> <Gold.Chemscore.DEClash.Weighted>
1.3583

> <Gold.Chemscore.DEInternal.Weighted>
2.4769

> <Gold.Chemscore.Rot.Weighted>
3.9366

> <Gold.Chemscore.Internal.Correction.Weighted>
   9.000000E+99

> <Gold.Protein.RotatedTorsions>
[ 6907 6896 6895 6894 ] final -120.61 input  -60.11 | X-H torsion
[ 7974 7965 7964 7962 ] final -153.89 input  175.53 | X-H torsion
[ 8008 7997 7996 7995 ] final  114.74 input   59.86 | X-H torsion
[ 10167 10162 10161 10158 ] final  -64.71 input  -65.29 | X-H torsion
[ 10718 10713 10712 10709 ] final   93.32 input   66.30 | X-H torsion
[ 10763 10752 10751 10750 ] final  -89.80 input  -60.55 | X-H torsion
[ 11005 11000 10999 10996 ] final -176.64 input  -57.11 | X-H torsion

> <Gold.Protein.ActiveResidues>
 VAL166  LYS551  ARG553  GLY616  TRP617  ASP618  TYR619  PRO620  LYS621  CYS622 
 ASP623  PHE694  ASN695  SER759  ASP760  ASP761  ALA762  ILE779  LEU786  VAL792 
 PHE793  MET794  SER795  GLU796  ALA797  LYS798  CYS799  TRP800  GLU811  SER814 

> <Gold.Protein.RotatedAtoms>
  150.8408  133.7939  159.3061 H   0  0  0  0  0  0  0  0  0  0  0  0  # atno 6907 bound_to 6896
  151.5641  135.1063  159.9989 H   0  0  0  0  0  0  0  0  0  0  0  0  # atno 6908 bound_to 6896
  152.4472  133.7517  159.6754 H   0  0  0  0  0  0  0  0  0  0  0  0  # atno 6909 bound_to 6896
  144.7717  140.4464  143.5902 H   0  0  0  0  0  0  0  0  0  0  0  0  # atno 7974 bound_to 7965
  156.2340  140.2953  156.0262 H   0  0  0  0  0  0  0  0  0  0  0  0  # atno 8008 bound_to 7997
  155.2145  140.0413  157.2956 H   0  0  0  0  0  0  0  0  0  0  0  0  # atno 8009 bound_to 7997
  154.6045  140.2435  155.7756 H   0  0  0  0  0  0  0  0  0  0  0  0  # atno 8010 bound_to 7997
  140.5781  143.2324  151.6399 H   0  0  0  0  0  0  0  0  0  0  0  0  # atno 10167 bound_to 10162
  157.6955  131.0474  150.4015 H   0  0  0  0  0  0  0  0  0  0  0  0  # atno 10718 bound_to 10713
  154.6591  135.5327  153.7996 H   0  0  0  0  0  0  0  0  0  0  0  0  # atno 10763 bound_to 10752
  153.0431  135.6501  154.0899 H   0  0  0  0  0  0  0  0  0  0  0  0  # atno 10764 bound_to 10752
  154.0809  135.2947  155.3270 H   0  0  0  0  0  0  0  0  0  0  0  0  # atno 10765 bound_to 10752
  140.4498  134.6354  157.4796 H   0  0  0  0  0  0  0  0  0  0  0  0  # atno 11005 bound_to 11000
  145.6304  139.1535  143.2972 LP  0  0  0  0  0  0  0  0  0  0  0  0  # atno 17320 bound_to 7965
  146.1869  140.6408  142.9163 LP  0  0  0  0  0  0  0  0  0  0  0  0  # atno 17321 bound_to 7965
  139.5154  144.3379  152.0767 LP  0  0  0  0  0  0  0  0  0  0  0  0  # atno 17342 bound_to 10162
  140.2525  144.4154  150.6216 LP  0  0  0  0  0  0  0  0  0  0  0  0  # atno 17343 bound_to 10162
  156.4408  130.3991  149.6698 LP  0  0  0  0  0  0  0  0  0  0  0  0  # atno 17370 bound_to 10713
  156.3882  130.7614  151.2613 LP  0  0  0  0  0  0  0  0  0  0  0  0  # atno 17371 bound_to 10713
  140.0014  134.6830  155.9524 LP  0  0  0  0  0  0  0  0  0  0  0  0  # atno 17394 bound_to 11000
  141.1669  133.6537  156.4511 LP  0  0  0  0  0  0  0  0  0  0  0  0  # atno 17395 bound_to 11000

$$$$
