#       Name:                AV-unprocessed.smi:3102
#       Creating user name   scv26
#       Creation time:       Fri Mar 27 17:18:36 2020


#       File generated by GOLD software.
#

@<TRIPOS>MOLECULE
AV-unprocessed.smi:3102
    36    37     1
SMALL
NO_CHARGES


@<TRIPOS>ATOM
      1 ****        -4.9958   1.3609   0.3051 C.3            1 S1                 0.0000
      2 ****        -4.3070   0.1181   0.3887 O.3            1 S1                 0.0000
      3 ****        -2.9275   0.1342   0.4063 C.ar           1 S1                 0.0000
      4 ****        -2.2391  -1.0914   0.4793 C.ar           1 S1                 0.0000
      5 ****        -0.8320  -1.0797   0.4947 C.ar           1 S1                 0.0000
      6 ****        -0.1482   0.1577   0.4349 C.ar           1 S1                 0.0000
      7 ****         1.2537   0.2519   0.4438 N.pl3          1 S1                 0.0000
      8 ****         2.0989  -0.9075   0.1871 C.3            1 S1                 0.0000
      9 ****         2.0522  -1.3897  -1.2501 C.3            1 S1                 0.0000
     10 ****         3.3422  -2.1986  -1.3443 C.3            1 S1                 0.0000
     11 ****         4.2614  -1.5694  -0.4549 O.3            1 S1                 0.0000
     12 ****         3.5864  -0.5961   0.3371 C.3            1 S1                 0.0000
     13 ****        -0.9334   1.3352   0.3692 C.ar           1 S1                 0.0000
     14 ****        -0.2943   2.7118   0.3081 C.3            1 S1                 0.0000
     15 ****        -2.2846   1.3259   0.3536 N.ar           1 S1                 0.0000
     16 ****        -6.0702   1.1781   0.2984 H              1 S1                 0.0000
     17 ****        -4.7458   1.8944  -0.6131 H              1 S1                 0.0000
     18 ****        -4.7742   1.9988   1.1619 H              1 S1                 0.0000
     19 ****        -2.7804  -2.0249   0.5228 H              1 S1                 0.0000
     20 ****        -0.3038  -2.0190   0.5535 H              1 S1                 0.0000
     21 ****         1.6742   1.1658   0.3535 H              1 S1                 0.0000
     22 ****         1.8458  -1.7224   0.8663 H              1 S1                 0.0000
     23 ****         1.1654  -1.9783  -1.4851 H              1 S1                 0.0000
     24 ****         2.0934  -0.5446  -1.9395 H              1 S1                 0.0000
     25 ****         3.1758  -3.2212  -1.0041 H              1 S1                 0.0000
     26 ****         3.7342  -2.2390  -2.3608 H              1 S1                 0.0000
     27 ****         3.8208   0.3902  -0.0672 H              1 S1                 0.0000
     28 ****         3.9180  -0.6236   1.3755 H              1 S1                 0.0000
     29 ****         0.3373   2.7983  -0.5765 H              1 S1                 0.0000
     30 ****         0.3222   2.8835   1.1909 H              1 S1                 0.0000
     31 ****        -1.0454   3.5014   0.2645 H              1 S1                 0.0000
     32 ****        -4.5866  -0.4289  -0.4004 LP             1 S1                 0.0000
     33 ****        -4.6085  -0.3314   1.2296 LP             1 S1                 0.0000
     34 ****         4.9819  -1.1227  -0.9852 LP             1 S1                 0.0000
     35 ****         4.6675  -2.2596   0.1440 LP             1 S1                 0.0000
     36 ****        -2.7999   2.1815   0.3042 LP             1 S1                 0.0000
@<TRIPOS>BOND
    1    1    2 1     
    2    1   16 1     
    3    1   17 1     
    4    1   18 1     
    5    2    3 1     
    6    3   15 ar    
    7    3    4 ar    
    8    4    5 ar    
    9    4   19 1     
   10    5    6 ar    
   11    5   20 1     
   12    6    7 1     
   13    6   13 ar    
   14    7    8 1     
   15    7   21 1     
   16    8   12 1     
   17    8    9 1     
   18    8   22 1     
   19    9   10 1     
   20    9   23 1     
   21    9   24 1     
   22   10   11 1     
   23   10   25 1     
   24   10   26 1     
   25   11   12 1     
   26   12   27 1     
   27   12   28 1     
   28   13   14 1     
   29   13   15 ar    
   30   14   29 1     
   31   14   30 1     
   32   14   31 1     
   33    2   32 1     
   34    2   33 1     
   35   11   34 1     
   36   11   35 1     
   37   15   36 1     
@<TRIPOS>SUBSTRUCTURE
      1 S1             1
@<TRIPOS>SET
LONE_PAIRS      STATIC     ATOMS    <user>   **** ""
5 32 33 34 35 36
DONOR_HYDROGENS      STATIC     ATOMS    <user>   **** ""
1 21
ATOM$BLUE        STATIC     ATOMS    COLORGROUP SYSTEM
5 32 33 34 35 36
ATOM$RED        STATIC     ATOMS    COLORGROUP SYSTEM
1 21
