#       Name:                AV-unprocessed.smi:965
#       Creating user name   scv26
#       Creation time:       Fri Mar 27 02:18:57 2020


#       File generated by GOLD software.
#

@<TRIPOS>MOLECULE
AV-unprocessed.smi:965
    33    34     1
SMALL
NO_CHARGES


@<TRIPOS>ATOM
      1 ****        -4.2438   1.2332   1.4760 C.3            1 S1                 0.0000
      2 ****        -3.6919  -0.1963   1.4729 C.3            1 S1                 0.0000
      3 ****        -2.2005  -0.2315   1.4790 C.2            1 S1                 0.0000
      4 ****        -1.3932  -0.2418   0.4211 N.2            1 S1                 0.0000
      5 ****        -0.1715  -0.2063   1.0229 C.2            1 S1                 0.0000
      6 ****         1.1151  -0.1929   0.2566 C.3            1 S1                 0.0000
      7 ****         1.2704   1.0830  -0.5926 C.3            1 S1                 0.0000
      8 ****         2.5979   1.0533  -1.3657 C.3            1 S1                 0.0000
      9 ****         2.7250  -0.2377  -2.1920 C.3            1 S1                 0.0000
     10 ****         2.5844  -1.4297  -1.3269 N.4            1 S1                 1.0000
     11 ****         1.2990  -1.4659  -0.5942 C.3            1 S1                 0.0000
     12 ****        -0.1818  -0.1660   2.3498 N.2            1 S1                 0.0000
     13 ****        -1.5483  -0.1700   2.6645 O.3            1 S1                 0.0000
     14 ****        -5.3339   1.2290   1.4737 H              1 S1                 0.0000
     15 ****        -3.9105   1.7845   0.5963 H              1 S1                 0.0000
     16 ****        -3.9141   1.7806   2.3595 H              1 S1                 0.0000
     17 ****        -4.0588  -0.7393   2.3445 H              1 S1                 0.0000
     18 ****        -4.0525  -0.7330   0.5948 H              1 S1                 0.0000
     19 ****         1.9248  -0.1841   0.9892 H              1 S1                 0.0000
     20 ****         0.4425   1.1638  -1.2986 H              1 S1                 0.0000
     21 ****         1.2268   1.9692   0.0419 H              1 S1                 0.0000
     22 ****         2.6678   1.9237  -2.0189 H              1 S1                 0.0000
     23 ****         3.4313   1.1243  -0.6655 H              1 S1                 0.0000
     24 ****         1.9623  -0.2667  -2.9714 H              1 S1                 0.0000
     25 ****         3.6934  -0.2731  -2.6916 H              1 S1                 0.0000
     26 ****         2.6597  -2.2602  -1.8971 H              1 S1                 0.0000
     27 ****         1.2779  -2.3538   0.0384 H              1 S1                 0.0000
     28 ****         0.4855  -1.5678  -1.3139 H              1 S1                 0.0000
     29 ****         3.3376  -1.4275  -0.6539 H              1 S1                 0.0000
     30 ****        -1.6215  -0.2684  -0.5521 LP             1 S1                 0.0000
     31 ****         0.5981  -0.1392   2.9752 LP             1 S1                 0.0000
     32 ****        -1.7736  -0.9653   3.2274 LP             1 S1                 0.0000
     33 ****        -1.7951   0.6659   3.1547 LP             1 S1                 0.0000
@<TRIPOS>BOND
    1    1    2 1     
    2    1   14 1     
    3    1   15 1     
    4    1   16 1     
    5    2    3 1     
    6    2   17 1     
    7    2   18 1     
    8    3   13 1     
    9    3    4 2     
   10    4    5 1     
   11    5    6 1     
   12    5   12 2     
   13    6   11 1     
   14    6    7 1     
   15    6   19 1     
   16    7    8 1     
   17    7   20 1     
   18    7   21 1     
   19    8    9 1     
   20    8   22 1     
   21    8   23 1     
   22    9   10 1     
   23    9   24 1     
   24    9   25 1     
   25   10   11 1     
   26   10   26 1     
   27   10   29 1     
   28   11   27 1     
   29   11   28 1     
   30   12   13 1     
   31    4   30 1     
   32   12   31 1     
   33   13   32 1     
   34   13   33 1     
@<TRIPOS>SUBSTRUCTURE
      1 S1             1
@<TRIPOS>SET
LONE_PAIRS      STATIC     ATOMS    <user>   **** ""
4 30 31 32 33
DONOR_HYDROGENS      STATIC     ATOMS    <user>   **** ""
2 26 29
ATOM$BLUE        STATIC     ATOMS    COLORGROUP SYSTEM
4 30 31 32 33
ATOM$RED        STATIC     ATOMS    COLORGROUP SYSTEM
2 26 29
