AV-unprocessed.smi:748|AV-procd|sdf|3583|dock5
  -GOLD-   22720 0573D 1   1.00000     0.00000
 Structure written by MMmdl.
 50 51  0  0  0  0  0  0  0  0  1 V2000
  144.9896  134.4511  153.6831 C   0  0  0  0  0  0  0  0  0  0  0  0
  145.3678  134.6720  152.2101 C   0  0  0  0  0  0  0  0  0  0  0  0
  146.3031  133.5707  151.6934 C   0  0  0  0  0  0  0  0  0  0  0  0
  146.0083  135.9731  152.0397 N   0  0  0  0  0  0  0  0  0  0  0  0
  145.4442  137.1611  152.3086 C   0  0  0  0  0  0  0  0  0  0  0  0
  144.2934  137.2829  152.7303 O   0  0  0  0  0  0  0  0  0  0  0  0
  146.3212  138.3919  152.0594 C   0  0  0  0  0  0  0  0  0  0  0  0
  146.3940  139.3425  153.2707 C   0  0  0  0  0  0  0  0  0  0  0  0
  147.7354  139.3757  153.8414 N   0  0  0  0  0  0  0  0  0  0  0  0
  148.2047  140.3386  154.6512 C   0  0  0  0  0  0  0  0  0  0  0  0
  147.5343  141.3044  155.0183 O   0  0  0  0  0  0  0  0  0  0  0  0
  149.6040  140.1350  155.1573 C   0  0  0  0  0  0  0  0  0  0  0  0
  150.4668  139.1782  154.5782 C   0  0  0  0  0  0  0  0  0  0  0  0
  151.7687  139.0500  155.0954 C   0  0  0  0  0  0  0  0  0  0  0  0
  152.2397  139.8016  156.1113 N   0  0  0  0  0  0  0  0  0  0  0  0
  151.4297  140.7373  156.6646 C   0  0  0  0  0  0  0  0  0  0  0  0
  151.9386  141.5259  157.7189 N   0  0  0  0  0  0  0  0  0  0  0  0
  152.1171  140.8342  158.9925 C   0  0  0  0  0  0  0  0  0  0  0  0
  152.9508  141.6955  159.9561 C   0  0  0  0  0  0  0  0  0  0  0  0
  152.3516  142.9796  160.0977 O   0  0  0  0  0  0  0  0  0  0  0  0
  152.2921  143.6834  158.8601 C   0  0  2  0  0  0  0  0  0  0  0  0
  151.7240  145.0812  159.1261 C   0  0  0  0  0  0  0  0  0  0  0  0
  151.4252  142.8860  157.8674 C   0  0  0  0  0  0  0  0  0  0  0  0
  150.1029  140.9301  156.2123 C   0  0  0  0  0  0  0  0  0  0  0  0
  144.5020  133.4858  153.8208 H   0  0  0  0  0  0  0  0  0  0  0  0
  144.2998  135.2190  154.0345 H   0  0  0  0  0  0  0  0  0  0  0  0
  145.8694  134.4743  154.3271 H   0  0  0  0  0  0  0  0  0  0  0  0
  144.4570  134.6405  151.6096 H   0  0  0  0  0  0  0  0  0  0  0  0
  145.8386  132.5885  151.7842 H   0  0  0  0  0  0  0  0  0  0  0  0
  147.2394  133.5484  152.2519 H   0  0  0  0  0  0  0  0  0  0  0  0
  146.5454  133.7228  150.6410 H   0  0  0  0  0  0  0  0  0  0  0  0
  146.9576  135.9687  151.6956 H   0  0  0  0  0  0  0  0  0  0  0  0
  147.3244  138.0534  151.7966 H   0  0  0  0  0  0  0  0  0  0  0  0
  145.9324  138.9243  151.1906 H   0  0  0  0  0  0  0  0  0  0  0  0
  146.1351  140.3579  152.9688 H   0  0  0  0  0  0  0  0  0  0  0  0
  145.6712  139.0522  154.0358 H   0  0  0  0  0  0  0  0  0  0  0  0
  148.3510  138.6090  153.6119 H   0  0  0  0  0  0  0  0  0  0  0  0
  150.1512  138.5526  153.7559 H   0  0  0  0  0  0  0  0  0  0  0  0
  152.4529  138.3253  154.6793 H   0  0  0  0  0  0  0  0  0  0  0  0
  151.1355  140.6360  159.4249 H   0  0  0  0  0  0  0  0  0  0  0  0
  152.6066  139.8698  158.8646 H   0  0  0  0  0  0  0  0  0  0  0  0
  153.0027  141.2187  160.9348 H   0  0  0  0  0  0  0  0  0  0  0  0
  153.9762  141.7979  159.5977 H   0  0  0  0  0  0  0  0  0  0  0  0
  153.3027  143.7905  158.4613 H   0  0  0  0  0  0  0  0  0  0  0  0
  151.6731  145.6647  158.2064 H   0  0  0  0  0  0  0  0  0  0  0  0
  152.3492  145.6281  159.8321 H   0  0  0  0  0  0  0  0  0  0  0  0
  150.7186  145.0260  159.5444 H   0  0  0  0  0  0  0  0  0  0  0  0
  151.4210  143.3929  156.9014 H   0  0  0  0  0  0  0  0  0  0  0  0
  150.3932  142.8437  158.2189 H   0  0  0  0  0  0  0  0  0  0  0  0
  149.4647  141.6671  156.6779 H   0  0  0  0  0  0  0  0  0  0  0  0
  1  2  1  0  0  0  0
  1 25  1  0  0  0  0
  1 26  1  0  0  0  0
  1 27  1  0  0  0  0
  2  3  1  0  0  0  0
  2  4  1  0  0  0  0
  2 28  1  0  0  0  0
  3 29  1  0  0  0  0
  3 30  1  0  0  0  0
  3 31  1  0  0  0  0
  4  5  1  0  0  0  0
  4 32  1  0  0  0  0
  5  6  2  0  0  0  0
  5  7  1  0  0  0  0
  7  8  1  0  0  0  0
  7 33  1  0  0  0  0
  7 34  1  0  0  0  0
  8  9  1  0  0  0  0
  8 35  1  0  0  0  0
  8 36  1  0  0  0  0
  9 10  1  0  0  0  0
  9 37  1  0  0  0  0
 10 11  2  0  0  0  0
 10 12  1  0  0  0  0
 12 24  1  0  0  0  0
 12 13  2  0  0  0  0
 13 14  1  0  0  0  0
 13 38  1  0  0  0  0
 14 15  2  0  0  0  0
 14 39  1  0  0  0  0
 15 16  1  0  0  0  0
 16 17  1  0  0  0  0
 16 24  2  0  0  0  0
 17 23  1  0  0  0  0
 17 18  1  0  0  0  0
 18 19  1  0  0  0  0
 18 40  1  0  0  0  0
 18 41  1  0  0  0  0
 19 20  1  0  0  0  0
 19 42  1  0  0  0  0
 19 43  1  0  0  0  0
 20 21  1  0  0  0  0
 21 22  1  0  0  0  0
 21 23  1  0  0  0  0
 21 44  1  0  0  0  0
 22 45  1  0  0  0  0
 22 46  1  0  0  0  0
 22 47  1  0  0  0  0
 23 48  1  0  0  0  0
 23 49  1  0  0  0  0
 24 50  1  0  0  0  0
M  END
> <s_m_source_file>
AV-unprocessed.smi

> <i_m_source_file_index>
748

> <i_lp_mmshare_version>
43012

> <i_f3d_flags>
0

> <s_epik_input>
W0NIM11bQ0hdKFtDSDNdKVtOSF1DKD1PKVtDSDJdW0NIMl1bTkhdQyg9TyljMVtjSF1bY0hdbmMoW2NIXTEpTjJbQ0gyXVtDSDJdT1tDQEBIXShbQ0gzXSlbQ0gyXTI=

> <s_epik_cmdline>
J2VwaWtfcHl0aG9uJywgJy1waCcsICc3LjAnLCAnLXRuJywgJzgnLCAnLW1hJywgJzIwMCcsICctbWV0YWxfYmluZGluZycsICctaW1hZScsICc8aW5maWxlLm1hZT4nLCAnLW9tYWUnLCAnPG91dGZpbGUubWFlPic=

> <r_lp_tautomer_probability>
1

> <r_epik_Ionization_Penalty>
1.38678e-05

> <r_epik_Ionization_Penalty_Charging>
0

> <r_epik_Ionization_Penalty_Neutral>
1.38678e-05

> <r_epik_State_Penalty>
-0

> <r_epik_Charging_Adjusted_Penalty>
0

> <i_epik_Tot_Q>
0

> <i_epik_Tot_abs_Q>
0

> <r_epik_Metal_State_Penalty>
-0

> <b_epik_Metal_Only>
0

> <s_lp_Force_Field>
OPLS_2005

> <r_lp_Energy>
15.3694

> <b_lp_Chiralities_Consistent>
1

> <s_lp_Variant>
AV-unprocessed.smi:748-2

> <Gold.Version>
5.8.1

> <Gold.Id.Protein>
6NUR|6NUR_protein|mol2

> <Gold.PLP.Fitness>
51.5558

> <Gold.PLP.PLP>
-47.4880

> <Gold.PLP.part.hbond>
-2.7386

> <Gold.PLP.part.metal>
0.0000

> <Gold.PLP.part.buried>
-1.8190

> <Gold.PLP.part.nonpolar>
-42.9254

> <Gold.PLP.part.repulsive>
1.6410

> <Gold.PLP.ligand.clash>
0.0000

> <Gold.PLP.ligand.torsion>
1.1328

> <Gold.PLP.Chemscore.Hbond>
1.9920

> <Gold.PLP.Chemscore.CHOScore>
0.0000

> <Gold.PLP.Chemscore.Metal>
0.0000

> <Gold.Chemscore.Hbonds>
donor molecule, donor type, donor heavy atom, donor atom, acceptor molecule, acceptor atom, score
      L1  H     4    32       P1  7948  1.00
      P1  H  7997  8008       L1    15  0.75

> <Gold.PLP.Chemscore.Internal.Correction>
0.3575

> <Gold.Rescore>
     Score         DG    S(hbond)    S(metal)    S(lipo)     H(rot)  DE(clash)    DE(int)     intcor
     17.77     -19.12       1.90        0.00     103.10       1.87       0.37       0.98       ----

> <Gold.Chemscore.Fitness>
17.7673

> <Gold.Chemscore.DG>
-19.1166

> <Gold.Chemscore.ZeroCoef>
-5.4800

> <Gold.Chemscore.Hbond>
1.9039

> <Gold.Chemscore.Metal>
0.0000

> <Gold.Chemscore.Lipo>
103.0990

> <Gold.Chemscore.Internal_Hbond>
0.0000

> <Gold.Chemscore.DEClash>
0.3667

> <Gold.Chemscore.DEInternal>
0.9826

> <Gold.Chemscore.Rot>
1.8692

> <Gold.Chemscore.Internal.Correction>
   9.000000E+99

> <Gold.Chemscore.Hbonds>
donor molecule, donor type, donor heavy atom, donor atom, acceptor molecule, acceptor atom, score
      L1  H     4    32       P1  7948  0.96
      P1  H  7997  8008       L1    15  0.68

> <Gold.Chemscore.Hbond.Weighted>
-6.3591

> <Gold.Chemscore.Metal.Weighted>
-0.0000

> <Gold.Chemscore.Lipo.Weighted>
-12.0626

> <Gold.Chemscore.Internal_Hbond.Weighted>
0.0000

> <Gold.Chemscore.DEClash.Weighted>
0.3667

> <Gold.Chemscore.DEInternal.Weighted>
0.9826

> <Gold.Chemscore.Rot.Weighted>
4.7852

> <Gold.Chemscore.Internal.Correction.Weighted>
   9.000000E+99

> <Gold.Protein.RotatedTorsions>
[ 6907 6896 6895 6894 ] final  156.58 input  -60.11 | X-H torsion
[ 7974 7965 7964 7962 ] final  106.64 input  175.53 | X-H torsion
[ 8008 7997 7996 7995 ] final  -44.14 input   59.86 | X-H torsion
[ 10167 10162 10161 10158 ] final  118.72 input  -65.29 | X-H torsion
[ 10718 10713 10712 10709 ] final   14.09 input   66.30 | X-H torsion
[ 10763 10752 10751 10750 ] final   89.83 input  -60.55 | X-H torsion
[ 11005 11000 10999 10996 ] final -160.46 input  -57.11 | X-H torsion

> <Gold.Protein.ActiveResidues>
 VAL166  LYS551  ARG553  GLY616  TRP617  ASP618  TYR619  PRO620  LYS621  CYS622 
 ASP623  PHE694  ASN695  SER759  ASP760  ASP761  ALA762  ILE779  LEU786  VAL792 
 PHE793  MET794  SER795  GLU796  ALA797  LYS798  CYS799  TRP800  GLU811  SER814 

> <Gold.Protein.RotatedAtoms>
  152.0277  133.3924  159.4283 H   0  0  0  0  0  0  0  0  0  0  0  0  # atno 6907 bound_to 6896
  150.6885  134.3556  159.4937 H   0  0  0  0  0  0  0  0  0  0  0  0  # atno 6908 bound_to 6896
  152.1338  134.9114  160.0608 H   0  0  0  0  0  0  0  0  0  0  0  0  # atno 6909 bound_to 6896
  145.3040  139.2560  143.3798 H   0  0  0  0  0  0  0  0  0  0  0  0  # atno 7974 bound_to 7965
  154.3997  140.1430  156.3635 H   0  0  0  0  0  0  0  0  0  0  0  0  # atno 8008 bound_to 7997
  155.8159  140.3471  155.5464 H   0  0  0  0  0  0  0  0  0  0  0  0  # atno 8009 bound_to 7997
  155.8338  140.0916  157.1767 H   0  0  0  0  0  0  0  0  0  0  0  0  # atno 8010 bound_to 7997
  139.6093  144.7078  151.2880 H   0  0  0  0  0  0  0  0  0  0  0  0  # atno 10167 bound_to 10162
  157.0341  130.6204  149.5740 H   0  0  0  0  0  0  0  0  0  0  0  0  # atno 10718 bound_to 10713
  153.1911  135.4456  155.0151 H   0  0  0  0  0  0  0  0  0  0  0  0  # atno 10763 bound_to 10752
  154.8091  135.3287  154.7356 H   0  0  0  0  0  0  0  0  0  0  0  0  # atno 10764 bound_to 10752
  153.7810  135.6977  153.4944 H   0  0  0  0  0  0  0  0  0  0  0  0  # atno 10765 bound_to 10752
  140.6313  134.4648  157.5229 H   0  0  0  0  0  0  0  0  0  0  0  0  # atno 11005 bound_to 11000
  146.3142  140.3561  142.8660 LP  0  0  0  0  0  0  0  0  0  0  0  0  # atno 17320 bound_to 7965
  144.9070  140.7712  143.5831 LP  0  0  0  0  0  0  0  0  0  0  0  0  # atno 17321 bound_to 7965
  140.7308  143.6871  150.7953 LP  0  0  0  0  0  0  0  0  0  0  0  0  # atno 17342 bound_to 10162
  140.0462  143.5296  152.2695 LP  0  0  0  0  0  0  0  0  0  0  0  0  # atno 17343 bound_to 10162
  156.0060  130.5146  150.7830 LP  0  0  0  0  0  0  0  0  0  0  0  0  # atno 17370 bound_to 10713
  157.5155  131.0928  151.0144 LP  0  0  0  0  0  0  0  0  0  0  0  0  # atno 17371 bound_to 10713
  139.9115  134.8335  156.1512 LP  0  0  0  0  0  0  0  0  0  0  0  0  # atno 17394 bound_to 11000
  141.0673  133.6813  156.2071 LP  0  0  0  0  0  0  0  0  0  0  0  0  # atno 17395 bound_to 11000

$$$$
