AV-unprocessed.smi:2176|AV-procd|sdf|8846|dock4
  -GOLD-   2272012 33D 1   1.00000     0.00000
 Structure written by MMmdl.
 29 30  0  0  0  0  0  0  0  0  1 V2000
  149.7101  140.9449  157.6606 O   0  0  0  0  0  0  0  0  0  0  0  0
  150.3929  141.6154  156.8849 C   0  0  0  0  0  0  0  0  0  0  0  0
  150.9243  141.0055  155.5792 C   0  0  0  0  0  0  0  0  0  0  0  0
  149.8560  140.5825  154.6615 N   0  0  0  0  0  0  0  0  0  0  0  0
  148.7696  141.4120  154.4214 C   0  0  0  0  0  0  0  0  0  0  0  0
  147.7568  141.0901  153.5824 C   0  0  0  0  0  0  0  0  0  0  0  0
  147.7631  139.8163  152.8712 C   0  0  0  0  0  0  0  0  0  0  0  0
  146.8914  139.4331  152.0943 O   0  0  0  0  0  0  0  0  0  0  0  0
  148.8741  139.0112  153.1363 N   0  0  0  0  0  0  0  0  0  0  0  0
  149.9224  139.3378  153.9981 C   0  0  0  0  0  0  0  0  0  0  0  0
  150.8585  138.5553  154.1573 O   0  0  0  0  0  0  0  0  0  0  0  0
  150.7376  142.8913  157.1173 N   0  0  0  0  0  0  0  0  0  0  0  0
  150.3715  143.6758  158.2907 C   0  0  0  0  0  0  0  0  0  0  0  0
  151.5442  144.3656  158.9559 C   0  0  0  0  0  0  0  0  0  0  0  0
  152.7297  144.8192  158.1368 C   0  0  0  0  0  0  0  0  0  0  0  0
  152.8774  143.6703  159.1050 C   0  0  0  0  0  0  0  0  0  0  0  0
  148.9234  138.1203  152.6640 H   0  0  0  0  0  0  0  0  0  0  0  0
  151.5874  141.7166  155.0820 H   0  0  0  0  0  0  0  0  0  0  0  0
  151.5576  140.1554  155.8371 H   0  0  0  0  0  0  0  0  0  0  0  0
  148.7246  142.3682  154.9235 H   0  0  0  0  0  0  0  0  0  0  0  0
  146.9377  141.7793  153.4357 H   0  0  0  0  0  0  0  0  0  0  0  0
  151.3049  143.3572  156.4241 H   0  0  0  0  0  0  0  0  0  0  0  0
  149.6387  144.4237  157.9860 H   0  0  0  0  0  0  0  0  0  0  0  0
  149.8798  143.0564  159.0421 H   0  0  0  0  0  0  0  0  0  0  0  0
  151.2559  145.0329  159.7663 H   0  0  0  0  0  0  0  0  0  0  0  0
  152.7331  144.5829  157.0745 H   0  0  0  0  0  0  0  0  0  0  0  0
  153.1939  145.7660  158.4053 H   0  0  0  0  0  0  0  0  0  0  0  0
  153.4381  143.8515  160.0199 H   0  0  0  0  0  0  0  0  0  0  0  0
  152.9792  142.6710  158.6862 H   0  0  0  0  0  0  0  0  0  0  0  0
  1  2  2  0  0  0  0
  2  3  1  0  0  0  0
  2 12  1  0  0  0  0
  3  4  1  0  0  0  0
  3 18  1  0  0  0  0
  3 19  1  0  0  0  0
  4 10  1  0  0  0  0
  4  5  1  0  0  0  0
  5  6  2  0  0  0  0
  5 20  1  0  0  0  0
  6  7  1  0  0  0  0
  6 21  1  0  0  0  0
  7  8  2  0  0  0  0
  7  9  1  0  0  0  0
  9 17  1  0  0  0  0
  9 10  1  0  0  0  0
 10 11  2  0  0  0  0
 12 13  1  0  0  0  0
 12 22  1  0  0  0  0
 13 14  1  0  0  0  0
 13 23  1  0  0  0  0
 13 24  1  0  0  0  0
 14 16  1  0  0  0  0
 14 15  1  0  0  0  0
 14 25  1  0  0  0  0
 15 16  1  0  0  0  0
 15 26  1  0  0  0  0
 15 27  1  0  0  0  0
 16 28  1  0  0  0  0
 16 29  1  0  0  0  0
M  END
> <s_m_source_file>
AV-unprocessed.smi

> <i_m_source_file_index>
2176

> <i_lp_mmshare_version>
43012

> <i_f3d_flags>
0

> <s_epik_input>
W0NIMl0xW0NIMl1bQ0hdMVtDSDJdW05IXUMoPU8pW0NIMl1uMltjSF1bY0hdYyg9TylbbkhdYzI9Tw==

> <s_epik_cmdline>
J2VwaWtfcHl0aG9uJywgJy1waCcsICc3LjAnLCAnLXRuJywgJzgnLCAnLW1hJywgJzIwMCcsICctbWV0YWxfYmluZGluZycsICctaW1hZScsICc8aW5maWxlLm1hZT4nLCAnLW9tYWUnLCAnPG91dGZpbGUubWFlPic=

> <r_lp_tautomer_probability>
0.999537

> <r_epik_Ionization_Penalty>
0.00328917

> <r_epik_Ionization_Penalty_Charging>
0.00328916

> <r_epik_Ionization_Penalty_Neutral>
1.93017e-08

> <r_epik_State_Penalty>
0.00232387

> <r_epik_Charging_Adjusted_Penalty>
0.00561303

> <i_epik_Tot_Q>
0

> <i_epik_Tot_abs_Q>
0

> <r_epik_Metal_State_Penalty>
0.365274

> <b_epik_Metal_Only>
0

> <s_lp_Force_Field>
OPLS_2005

> <r_lp_Energy>
12.7002

> <b_lp_Chiralities_Consistent>
1

> <s_lp_Variant>
AV-unprocessed.smi:2176-1

> <Gold.Version>
5.8.1

> <Gold.Id.Protein>
6NUR|6NUR_protein|mol2

> <Gold.PLP.Fitness>
40.7915

> <Gold.PLP.PLP>
-35.2885

> <Gold.PLP.part.hbond>
-3.0000

> <Gold.PLP.part.metal>
0.0000

> <Gold.PLP.part.buried>
-0.5239

> <Gold.PLP.part.nonpolar>
-32.7084

> <Gold.PLP.part.repulsive>
1.0561

> <Gold.PLP.ligand.clash>
0.0000

> <Gold.PLP.ligand.torsion>
0.5093

> <Gold.PLP.Chemscore.Hbond>
0.9913

> <Gold.PLP.Chemscore.CHOScore>
1.0000

> <Gold.PLP.Chemscore.Metal>
0.0000

> <Gold.Chemscore.Hbonds>
donor molecule, donor type, donor heavy atom, donor atom, acceptor molecule, acceptor atom, score
      L1  H     9    17       P1  7948  1.00
      L1  C     5    20       P1  8028  1.00

> <Gold.PLP.Chemscore.Internal.Correction>
0.5478

> <Gold.Rescore>
     Score         DG    S(hbond)    S(metal)    S(lipo)     H(rot)  DE(clash)    DE(int)     intcor
     10.08     -11.20       0.80        0.00      70.44       2.04       0.50       0.62       ----

> <Gold.Chemscore.Fitness>
10.0795

> <Gold.Chemscore.DG>
-11.1981

> <Gold.Chemscore.ZeroCoef>
-5.4800

> <Gold.Chemscore.Hbond>
0.8044

> <Gold.Chemscore.Metal>
0.0000

> <Gold.Chemscore.Lipo>
70.4377

> <Gold.Chemscore.Internal_Hbond>
0.0000

> <Gold.Chemscore.DEClash>
0.5013

> <Gold.Chemscore.DEInternal>
0.6174

> <Gold.Chemscore.Rot>
2.0351

> <Gold.Chemscore.Internal.Correction>
   9.000000E+99

> <Gold.Chemscore.Hbonds>
donor molecule, donor type, donor heavy atom, donor atom, acceptor molecule, acceptor atom, score
      L1  H     9    17       P1  7948  0.94

> <Gold.Chemscore.Hbond.Weighted>
-2.6867

> <Gold.Chemscore.Metal.Weighted>
-0.0000

> <Gold.Chemscore.Lipo.Weighted>
-8.2412

> <Gold.Chemscore.Internal_Hbond.Weighted>
0.0000

> <Gold.Chemscore.DEClash.Weighted>
0.5013

> <Gold.Chemscore.DEInternal.Weighted>
0.6174

> <Gold.Chemscore.Rot.Weighted>
5.2098

> <Gold.Chemscore.Internal.Correction.Weighted>
   9.000000E+99

> <Gold.Protein.RotatedTorsions>
[ 6907 6896 6895 6894 ] final   87.36 input  -60.11 | X-H torsion
[ 7974 7965 7964 7962 ] final  169.55 input  175.53 | X-H torsion
[ 8008 7997 7996 7995 ] final -138.58 input   59.86 | X-H torsion
[ 10167 10162 10161 10158 ] final  127.53 input  -65.29 | X-H torsion
[ 10718 10713 10712 10709 ] final   75.36 input   66.30 | X-H torsion
[ 10763 10752 10751 10750 ] final   98.99 input  -60.55 | X-H torsion
[ 11005 11000 10999 10996 ] final   -7.63 input  -57.11 | X-H torsion

> <Gold.Protein.ActiveResidues>
 VAL166  LYS551  ARG553  GLY616  TRP617  ASP618  TYR619  PRO620  LYS621  CYS622 
 ASP623  PHE694  ASN695  SER759  ASP760  ASP761  ALA762  ILE779  LEU786  VAL792 
 PHE793  MET794  SER795  GLU796  ALA797  LYS798  CYS799  TRP800  GLU811  SER814 

> <Gold.Protein.RotatedAtoms>
  152.5410  134.2289  159.8816 H   0  0  0  0  0  0  0  0  0  0  0  0  # atno 6907 bound_to 6896
  151.2262  133.4468  159.2610 H   0  0  0  0  0  0  0  0  0  0  0  0  # atno 6908 bound_to 6896
  151.0759  134.9841  159.8387 H   0  0  0  0  0  0  0  0  0  0  0  0  # atno 6909 bound_to 6896
  144.7351  139.9070  143.6413 H   0  0  0  0  0  0  0  0  0  0  0  0  # atno 7974 bound_to 7965
  155.4307  140.0525  157.3018 H   0  0  0  0  0  0  0  0  0  0  0  0  # atno 8008 bound_to 7997
  154.4861  140.2101  155.9610 H   0  0  0  0  0  0  0  0  0  0  0  0  # atno 8009 bound_to 7997
  156.1276  140.3177  155.8306 H   0  0  0  0  0  0  0  0  0  0  0  0  # atno 8010 bound_to 7997
  139.5574  144.6858  151.4143 H   0  0  0  0  0  0  0  0  0  0  0  0  # atno 10167 bound_to 10162
  157.6631  130.9723  150.1343 H   0  0  0  0  0  0  0  0  0  0  0  0  # atno 10718 bound_to 10713
  153.2958  135.4129  155.1208 H   0  0  0  0  0  0  0  0  0  0  0  0  # atno 10763 bound_to 10752
  154.8534  135.3529  154.5919 H   0  0  0  0  0  0  0  0  0  0  0  0  # atno 10764 bound_to 10752
  153.6342  135.7059  153.5322 H   0  0  0  0  0  0  0  0  0  0  0  0  # atno 10765 bound_to 10752
  140.7148  133.8878  155.8777 H   0  0  0  0  0  0  0  0  0  0  0  0  # atno 11005 bound_to 11000
  146.1029  139.4026  143.0335 LP  0  0  0  0  0  0  0  0  0  0  0  0  # atno 17320 bound_to 7965
  145.7553  140.9956  143.1229 LP  0  0  0  0  0  0  0  0  0  0  0  0  # atno 17321 bound_to 7965
  140.6849  143.7998  150.7172 LP  0  0  0  0  0  0  0  0  0  0  0  0  # atno 17342 bound_to 10162
  140.1462  143.4397  152.2161 LP  0  0  0  0  0  0  0  0  0  0  0  0  # atno 17343 bound_to 10162
  156.2182  130.3672  149.8588 LP  0  0  0  0  0  0  0  0  0  0  0  0  # atno 17370 bound_to 10713
  156.6448  130.8720  151.3520 LP  0  0  0  0  0  0  0  0  0  0  0  0  # atno 17371 bound_to 10713
  141.0054  134.1094  157.4276 LP  0  0  0  0  0  0  0  0  0  0  0  0  # atno 17394 bound_to 11000
  139.8862  135.0080  156.6487 LP  0  0  0  0  0  0  0  0  0  0  0  0  # atno 17395 bound_to 11000

$$$$
