#       Name:                AV-unprocessed.smi:21
#       Creating user name   scv26
#       Creation time:       Thu Mar 26 15:38:19 2020


#       File generated by GOLD software.
#

@<TRIPOS>MOLECULE
AV-unprocessed.smi:21
    71    74     1
SMALL
NO_CHARGES


@<TRIPOS>ATOM
      1 ****        -3.6678  -5.6403  -1.9156 C.3            1 S1                 0.0000
      2 ****        -3.2408  -4.3096  -1.6729 O.3            1 S1                 0.0000
      3 ****        -3.3945  -3.9058  -0.3196 C.3            1 S1                 0.0000
      4 ****        -2.6922  -2.5606  -0.0774 C.3            1 S1                 0.0000
      5 ****        -3.8184  -1.6010   0.3401 C.3            1 S1                 0.0000
      6 ****        -3.3474  -0.4580   1.2657 C.3            1 S1                 0.0000
      7 ****        -2.4353   0.4711   0.5917 N.pl3          1 S1                 0.0000
      8 ****        -3.0103   1.3928  -0.3807 C.3            1 S1                 0.0000
      9 ****        -1.0819   0.2983   0.6572 C.ar           1 S1                 0.0000
     10 ****        -0.5778  -0.4586   1.6687 N.ar           1 S1                 0.0000
     11 ****         0.7342  -0.6733   1.7828 C.ar           1 S1                 0.0000
     12 ****         1.7196  -0.2281   1.0056 N.ar           1 S1                 0.0000
     13 ****         1.2375   0.5429  -0.0087 C.ar           1 S1                 0.0000
     14 ****        -0.1327   0.8556  -0.2577 C.ar           1 S1                 0.0000
     15 ****        -0.2176   1.6581  -1.3921 N.2            1 S1                 0.0000
     16 ****         1.0169   1.8126  -1.7818 C.2            1 S1                 0.0000
     17 ****         1.9577   1.1803  -1.0045 N.pl3          1 S1                 0.0000
     18 ****         3.3958   1.1877  -1.2156 C.3            1 S1                 0.0000
     19 ****         4.0470   2.5324  -0.7918 C.3            1 S1                 0.0000
     20 ****         4.7642   3.1979  -1.9879 C.3            1 S1                 0.0000
     21 ****         3.8417   3.5512  -2.9979 O.3            1 S1                 0.0000
     22 ****         5.0155   2.3521   0.4054 C.3            1 S1                 0.0000
     23 ****         4.3819   1.7807   1.6620 C.3            1 S1                 0.0000
     24 ****         5.3839   2.1707   2.7418 C.3            1 S1                 0.0000
     25 ****         5.9448   3.4066   2.3171 O.3            1 S1                 0.0000
     26 ****         5.5944   3.6594   0.9605 C.3            1 S1                 0.0000
     27 ****        -4.8391  -2.4636   0.9142 N.3            1 S1                 0.0000
     28 ****        -6.1484  -1.8348   1.0267 C.3            1 S1                 0.0000
     29 ****        -4.8595  -3.6122   0.0302 C.3            1 S1                 0.0000
     30 ****        -2.9758  -4.6530   0.3573 H              1 S1                 0.0000
     31 ****        -4.2240  -1.1604  -0.5726 H              1 S1                 0.0000
     32 ****        -3.5108  -5.8871  -2.9654 H              1 S1                 0.0000
     33 ****        -4.7284  -5.7684  -1.6971 H              1 S1                 0.0000
     34 ****        -3.0988  -6.3517  -1.3159 H              1 S1                 0.0000
     35 ****        -1.9645  -2.6774   0.7262 H              1 S1                 0.0000
     36 ****        -2.1583  -2.1963  -0.9559 H              1 S1                 0.0000
     37 ****        -4.2085   0.1253   1.5908 H              1 S1                 0.0000
     38 ****        -2.9259  -0.8654   2.1844 H              1 S1                 0.0000
     39 ****        -2.5740   2.3868  -0.2795 H              1 S1                 0.0000
     40 ****        -4.0865   1.4909  -0.2352 H              1 S1                 0.0000
     41 ****        -2.8455   1.0331  -1.3968 H              1 S1                 0.0000
     42 ****         1.0365  -1.2900   2.6162 H              1 S1                 0.0000
     43 ****         1.2759   2.3969  -2.6524 H              1 S1                 0.0000
     44 ****         3.8354   0.3432  -0.6847 H              1 S1                 0.0000
     45 ****         3.5717   0.9786  -2.2715 H              1 S1                 0.0000
     46 ****         3.2622   3.2187  -0.4673 H              1 S1                 0.0000
     47 ****         5.2723   4.1124  -1.6835 H              1 S1                 0.0000
     48 ****         5.5224   2.5344  -2.4049 H              1 S1                 0.0000
     49 ****         4.3141   3.9615  -3.7063 H              1 S1                 0.0000
     50 ****         5.8422   1.7029   0.1114 H              1 S1                 0.0000
     51 ****         3.4175   2.2531   1.8547 H              1 S1                 0.0000
     52 ****         4.2333   0.7023   1.6182 H              1 S1                 0.0000
     53 ****         4.9239   2.2567   3.7263 H              1 S1                 0.0000
     54 ****         6.1825   1.4306   2.8039 H              1 S1                 0.0000
     55 ****         6.4605   4.0059   0.3964 H              1 S1                 0.0000
     56 ****         4.8447   4.4517   0.9464 H              1 S1                 0.0000
     57 ****        -6.8824  -2.5461   1.4062 H              1 S1                 0.0000
     58 ****        -6.4982  -1.4708   0.0599 H              1 S1                 0.0000
     59 ****        -6.1207  -0.9930   1.7180 H              1 S1                 0.0000
     60 ****        -5.4058  -3.3653  -0.8821 H              1 S1                 0.0000
     61 ****        -5.3557  -4.4664   0.4918 H              1 S1                 0.0000
     62 ****        -3.7775  -3.6942  -2.2503 LP             1 S1                 0.0000
     63 ****        -2.2739  -4.2374  -1.9174 LP             1 S1                 0.0000
     64 ****        -1.2015  -0.8612   2.3386 LP             1 S1                 0.0000
     65 ****         2.6879  -0.4331   1.1480 LP             1 S1                 0.0000
     66 ****        -1.0429   2.0331  -1.8146 LP             1 S1                 0.0000
     67 ****         3.1659   4.1894  -2.6291 LP             1 S1                 0.0000
     68 ****         3.3776   2.7311  -3.3326 LP             1 S1                 0.0000
     69 ****         6.9404   3.3642   2.3996 LP             1 S1                 0.0000
     70 ****         5.5937   4.1450   2.8929 LP             1 S1                 0.0000
     71 ****        -4.6236  -2.7009   1.8614 LP             1 S1                 0.0000
@<TRIPOS>BOND
    1    1    2 1     
    2    1   32 1     
    3    1   33 1     
    4    1   34 1     
    5    2    3 1     
    6    3   30 1     
    7    3   29 1     
    8    3    4 1     
    9    4    5 1     
   10    4   35 1     
   11    4   36 1     
   12    5   31 1     
   13    5    6 1     
   14    5   27 1     
   15    6    7 1     
   16    6   37 1     
   17    6   38 1     
   18    7    8 1     
   19    7    9 1     
   20    8   39 1     
   21    8   40 1     
   22    8   41 1     
   23    9   14 ar    
   24    9   10 ar    
   25   10   11 ar    
   26   11   12 ar    
   27   11   42 1     
   28   12   13 ar    
   29   13   17 1     
   30   13   14 ar    
   31   14   15 1     
   32   15   16 2     
   33   16   17 1     
   34   16   43 1     
   35   17   18 1     
   36   18   19 1     
   37   18   44 1     
   38   18   45 1     
   39   19   20 1     
   40   19   22 1     
   41   19   46 1     
   42   20   21 1     
   43   20   47 1     
   44   20   48 1     
   45   21   49 1     
   46   22   26 1     
   47   22   23 1     
   48   22   50 1     
   49   23   24 1     
   50   23   51 1     
   51   23   52 1     
   52   24   25 1     
   53   24   53 1     
   54   24   54 1     
   55   25   26 1     
   56   26   55 1     
   57   26   56 1     
   58   27   28 1     
   59   27   29 1     
   60   28   57 1     
   61   28   58 1     
   62   28   59 1     
   63   29   60 1     
   64   29   61 1     
   65    2   62 1     
   66    2   63 1     
   67   10   64 1     
   68   12   65 1     
   69   15   66 1     
   70   21   67 1     
   71   21   68 1     
   72   25   69 1     
   73   25   70 1     
   74   27   71 1     
@<TRIPOS>SUBSTRUCTURE
      1 S1             1
@<TRIPOS>SET
LONE_PAIRS      STATIC     ATOMS    <user>   **** ""
10 62 63 64 65 66 67 68 69 70 71
DONOR_HYDROGENS      STATIC     ATOMS    <user>   **** ""
1 49
ATOM$BLUE        STATIC     ATOMS    COLORGROUP SYSTEM
10 62 63 64 65 66 67 68 69 70 71
ATOM$RED        STATIC     ATOMS    COLORGROUP SYSTEM
1 49
