AV-unprocessed.smi:2069|AV-procd|sdf|8431|dock8
  -GOLD-   2272011123D 1   1.00000     0.00000
 Structure written by MMmdl.
 38 39  0  0  0  0  0  0  0  0  1 V2000
  146.4679  129.9851  153.1085 C   0  0  0  0  0  0  0  0  0  0  0  0
  147.2939  131.1191  153.6114 C   0  0  0  0  0  0  0  0  0  0  0  0
  148.0327  131.0420  154.7250 N   0  0  0  0  0  0  0  0  0  0  0  0
  148.7099  132.2240  154.9900 N   0  0  0  0  0  0  0  0  0  0  0  0
  148.4611  133.1607  154.0645 C   0  0  0  0  0  0  0  0  0  0  0  0
  149.0207  134.4654  154.0906 N   0  0  0  0  0  0  0  0  0  0  0  0
  149.7185  135.0538  155.0779 C   0  0  0  0  0  0  0  0  0  0  0  0
  149.9963  134.5348  156.1592 O   0  0  0  0  0  0  0  0  0  0  0  0
  150.0875  136.2963  154.7333 N   0  0  0  0  0  0  0  0  0  0  0  0
  150.8538  137.2190  155.5683 C   0  0  0  0  0  0  0  0  0  0  0  0
  151.6787  138.2471  154.7429 C   0  0  2  0  0  0  0  0  0  0  0  0
  153.1442  138.2467  155.2486 C   0  0  0  0  0  0  0  0  0  0  0  0
  151.0760  139.6011  154.7343 N   0  0  0  0  0  0  0  0  0  0  0  0
  151.1792  140.2763  156.0334 C   0  0  0  0  0  0  0  0  0  0  0  0
  150.5278  141.6701  156.0379 C   0  0  0  0  0  0  0  0  0  0  0  0
  149.1656  141.5639  155.6497 O   0  0  0  0  0  0  0  0  0  0  0  0
  149.0245  140.9898  154.3580 C   0  0  0  0  0  0  0  0  0  0  0  0
  149.6619  139.5898  154.3409 C   0  0  0  0  0  0  0  0  0  0  0  0
  147.3695  132.6683  152.7812 S   0  0  0  0  0  0  0  0  0  0  0  0
  146.5094  129.1422  153.7990 H   0  0  0  0  0  0  0  0  0  0  0  0
  146.8361  129.6585  152.1359 H   0  0  0  0  0  0  0  0  0  0  0  0
  145.4293  130.2994  153.0039 H   0  0  0  0  0  0  0  0  0  0  0  0
  148.8737  135.0153  153.2572 H   0  0  0  0  0  0  0  0  0  0  0  0
  149.8157  136.6346  153.8220 H   0  0  0  0  0  0  0  0  0  0  0  0
  150.1039  137.7160  156.1801 H   0  0  0  0  0  0  0  0  0  0  0  0
  151.5081  136.6853  156.2602 H   0  0  0  0  0  0  0  0  0  0  0  0
  151.7000  137.8839  153.7140 H   0  0  0  0  0  0  0  0  0  0  0  0
  153.5743  137.2465  155.2758 H   0  0  0  0  0  0  0  0  0  0  0  0
  153.2136  138.6607  156.2550 H   0  0  0  0  0  0  0  0  0  0  0  0
  153.8082  138.8174  154.6013 H   0  0  0  0  0  0  0  0  0  0  0  0
  150.7207  139.6598  156.8081 H   0  0  0  0  0  0  0  0  0  0  0  0
  152.2210  140.4166  156.3140 H   0  0  0  0  0  0  0  0  0  0  0  0
  150.5807  142.1080  157.0347 H   0  0  0  0  0  0  0  0  0  0  0  0
  151.0556  142.3459  155.3632 H   0  0  0  0  0  0  0  0  0  0  0  0
  147.9647  140.9266  154.1109 H   0  0  0  0  0  0  0  0  0  0  0  0
  149.4891  141.6355  153.6109 H   0  0  0  0  0  0  0  0  0  0  0  0
  149.5474  139.2032  153.3299 H   0  0  0  0  0  0  0  0  0  0  0  0
  149.0992  138.9274  155.0006 H   0  0  0  0  0  0  0  0  0  0  0  0
  1  2  1  0  0  0  0
  1 20  1  0  0  0  0
  1 21  1  0  0  0  0
  1 22  1  0  0  0  0
  2 19  1  0  0  0  0
  2  3  2  0  0  0  0
  3  4  1  0  0  0  0
  4  5  2  0  0  0  0
  5  6  1  0  0  0  0
  5 19  1  0  0  0  0
  6  7  1  0  0  0  0
  6 23  1  0  0  0  0
  7  8  2  0  0  0  0
  7  9  1  0  0  0  0
  9 10  1  0  0  0  0
  9 24  1  0  0  0  0
 10 11  1  0  0  0  0
 10 25  1  0  0  0  0
 10 26  1  0  0  0  0
 11 12  1  0  0  0  0
 11 13  1  0  0  0  0
 11 27  1  0  0  0  0
 12 28  1  0  0  0  0
 12 29  1  0  0  0  0
 12 30  1  0  0  0  0
 13 18  1  0  0  0  0
 13 14  1  0  0  0  0
 14 15  1  0  0  0  0
 14 31  1  0  0  0  0
 14 32  1  0  0  0  0
 15 16  1  0  0  0  0
 15 33  1  0  0  0  0
 15 34  1  0  0  0  0
 16 17  1  0  0  0  0
 17 18  1  0  0  0  0
 17 35  1  0  0  0  0
 17 36  1  0  0  0  0
 18 37  1  0  0  0  0
 18 38  1  0  0  0  0
M  END
> <s_m_source_file>
AV-unprocessed.smi

> <i_m_source_file_index>
2069

> <i_lp_mmshare_version>
43012

> <i_f3d_flags>
0

> <s_epik_input>
W0NIM11jMW5uYyhzMSlbTkhdQyg9TylbTkhdW0NIMl1bQ0BIXShbQ0gzXSlOMltDSDJdW0NIMl1PW0NIMl1bQ0gyXTI=

> <s_epik_cmdline>
J2VwaWtfcHl0aG9uJywgJy1waCcsICc3LjAnLCAnLXRuJywgJzgnLCAnLW1hJywgJzIwMCcsICctbWV0YWxfYmluZGluZycsICctaW1hZScsICc8aW5maWxlLm1hZT4nLCAnLW9tYWUnLCAnPG91dGZpbGUubWFlPic=

> <r_lp_tautomer_probability>
1

> <r_epik_Ionization_Penalty>
0.221104

> <r_epik_Ionization_Penalty_Charging>
0

> <r_epik_Ionization_Penalty_Neutral>
0.221104

> <r_epik_State_Penalty>
0.209349

> <r_epik_Charging_Adjusted_Penalty>
0.209349

> <i_epik_Tot_Q>
0

> <i_epik_Tot_abs_Q>
0

> <r_epik_Metal_State_Penalty>
0.561068

> <b_epik_Metal_Only>
0

> <s_lp_Force_Field>
OPLS_2005

> <r_lp_Energy>
28.2762

> <b_lp_Chiralities_Consistent>
1

> <s_lp_Variant>
AV-unprocessed.smi:2069-1

> <Gold.Version>
5.8.1

> <Gold.Id.Protein>
6NUR|6NUR_protein|mol2

> <Gold.PLP.Fitness>
42.1294

> <Gold.PLP.PLP>
-35.2506

> <Gold.PLP.part.hbond>
-3.6104

> <Gold.PLP.part.metal>
0.0000

> <Gold.PLP.part.buried>
-4.8595

> <Gold.PLP.part.nonpolar>
-28.4339

> <Gold.PLP.part.repulsive>
0.3775

> <Gold.PLP.ligand.clash>
0.0000

> <Gold.PLP.ligand.torsion>
0.9293

> <Gold.PLP.Chemscore.Hbond>
2.9040

> <Gold.PLP.Chemscore.CHOScore>
0.0000

> <Gold.PLP.Chemscore.Metal>
0.0000

> <Gold.Chemscore.Hbonds>
donor molecule, donor type, donor heavy atom, donor atom, acceptor molecule, acceptor atom, score
      L1  H     6    23       P1  7948  1.00
      L1  H     9    24       P1  7948  0.70
      P1  H  7989  7998       L1    13  0.85

> <Gold.PLP.Chemscore.Internal.Correction>
0.0254

> <Gold.Rescore>
     Score         DG    S(hbond)    S(metal)    S(lipo)     H(rot)  DE(clash)    DE(int)     intcor
     12.14     -14.27       1.55        0.00      65.79       1.60       0.01       2.12       ----

> <Gold.Chemscore.Fitness>
12.1372

> <Gold.Chemscore.DG>
-14.2671

> <Gold.Chemscore.ZeroCoef>
-5.4800

> <Gold.Chemscore.Hbond>
1.5537

> <Gold.Chemscore.Metal>
0.0000

> <Gold.Chemscore.Lipo>
65.7931

> <Gold.Chemscore.Internal_Hbond>
0.0000

> <Gold.Chemscore.DEClash>
0.0118

> <Gold.Chemscore.DEInternal>
2.1181

> <Gold.Chemscore.Rot>
1.6016

> <Gold.Chemscore.Internal.Correction>
   9.000000E+99

> <Gold.Chemscore.Hbonds>
donor molecule, donor type, donor heavy atom, donor atom, acceptor molecule, acceptor atom, score
      L1  H     6    23       P1  7948  0.40
      L1  H     9    24       P1  7948  0.33
      P1  H  7989  7998       L1    13  0.07

> <Gold.Chemscore.Hbond.Weighted>
-5.1894

> <Gold.Chemscore.Metal.Weighted>
-0.0000

> <Gold.Chemscore.Lipo.Weighted>
-7.6978

> <Gold.Chemscore.Internal_Hbond.Weighted>
0.0000

> <Gold.Chemscore.DEClash.Weighted>
0.0118

> <Gold.Chemscore.DEInternal.Weighted>
2.1181

> <Gold.Chemscore.Rot.Weighted>
4.1001

> <Gold.Chemscore.Internal.Correction.Weighted>
   9.000000E+99

> <Gold.Protein.RotatedTorsions>
[ 6907 6896 6895 6894 ] final   72.35 input  -60.11 | X-H torsion
[ 7974 7965 7964 7962 ] final  -21.85 input  175.53 | X-H torsion
[ 8008 7997 7996 7995 ] final  -15.08 input   59.86 | X-H torsion
[ 10167 10162 10161 10158 ] final    5.33 input  -65.29 | X-H torsion
[ 10718 10713 10712 10709 ] final   69.38 input   66.30 | X-H torsion
[ 10763 10752 10751 10750 ] final  -28.61 input  -60.55 | X-H torsion
[ 11005 11000 10999 10996 ] final  103.86 input  -57.11 | X-H torsion

> <Gold.Protein.ActiveResidues>
 VAL166  LYS551  ARG553  GLY616  TRP617  ASP618  TYR619  PRO620  LYS621  CYS622 
 ASP623  PHE694  ASN695  SER759  ASP760  ASP761  ALA762  ILE779  LEU786  VAL792 
 PHE793  MET794  SER795  GLU796  ALA797  LYS798  CYS799  TRP800  GLU811  SER814 

> <Gold.Protein.RotatedAtoms>
  152.4862  134.4585  159.9597 H   0  0  0  0  0  0  0  0  0  0  0  0  # atno 6907 bound_to 6896
  151.4581  133.3594  159.2813 H   0  0  0  0  0  0  0  0  0  0  0  0  # atno 6908 bound_to 6896
  150.8975  134.8410  159.7397 H   0  0  0  0  0  0  0  0  0  0  0  0  # atno 6909 bound_to 6896
  146.1710  140.4397  142.8532 H   0  0  0  0  0  0  0  0  0  0  0  0  # atno 7974 bound_to 7965
  154.5158  140.2206  155.9068 H   0  0  0  0  0  0  0  0  0  0  0  0  # atno 8008 bound_to 7997
  156.1606  140.3143  155.8766 H   0  0  0  0  0  0  0  0  0  0  0  0  # atno 8009 bound_to 7997
  155.3759  140.0469  157.3035 H   0  0  0  0  0  0  0  0  0  0  0  0  # atno 8010 bound_to 7997
  140.6488  143.7596  150.7541 H   0  0  0  0  0  0  0  0  0  0  0  0  # atno 10167 bound_to 10162
  157.6342  130.9423  150.0506 H   0  0  0  0  0  0  0  0  0  0  0  0  # atno 10718 bound_to 10713
  153.7511  135.6926  153.4945 H   0  0  0  0  0  0  0  0  0  0  0  0  # atno 10763 bound_to 10752
  153.2002  135.4439  155.0256 H   0  0  0  0  0  0  0  0  0  0  0  0  # atno 10764 bound_to 10752
  154.8187  135.3411  154.7032 H   0  0  0  0  0  0  0  0  0  0  0  0  # atno 10765 bound_to 10752
  139.8787  134.9279  156.5274 H   0  0  0  0  0  0  0  0  0  0  0  0  # atno 11005 bound_to 11000
  144.8163  140.6473  143.6382 LP  0  0  0  0  0  0  0  0  0  0  0  0  # atno 17320 bound_to 7965
  145.4341  139.1545  143.4006 LP  0  0  0  0  0  0  0  0  0  0  0  0  # atno 17321 bound_to 7965
  140.1243  143.4584  152.2294 LP  0  0  0  0  0  0  0  0  0  0  0  0  # atno 17342 bound_to 10162
  139.5701  144.7458  151.3915 LP  0  0  0  0  0  0  0  0  0  0  0  0  # atno 17343 bound_to 10162
  156.1569  130.3643  149.9356 LP  0  0  0  0  0  0  0  0  0  0  0  0  # atno 17370 bound_to 10713
  156.7363  130.9062  151.3629 LP  0  0  0  0  0  0  0  0  0  0  0  0  # atno 17371 bound_to 10713
  140.8406  133.8208  155.9071 LP  0  0  0  0  0  0  0  0  0  0  0  0  # atno 17394 bound_to 11000
  140.9241  134.2105  157.4907 LP  0  0  0  0  0  0  0  0  0  0  0  0  # atno 17395 bound_to 11000

$$$$
