AV-unprocessed.smi:2784|AV-procd|sdf|10735|dock1
  -GOLD-   2272015173D 1   1.00000     0.00000
 Structure written by MMmdl.
 31 32  0  0  0  0  0  0  0  0  1 V2000
  153.8834  141.3596  160.4180 C   0  0  0  0  0  0  0  0  0  0  0  0
  153.5885  142.6888  160.0209 O   0  0  0  0  0  0  0  0  0  0  0  0
  152.2257  143.0580  160.2152 C   0  0  1  0  0  0  0  0  0  0  0  0
  152.1959  144.5839  160.3197 C   0  0  0  0  0  0  0  0  0  0  0  0
  152.1947  145.0606  158.8703 C   0  0  0  0  0  0  0  0  0  0  0  0
  151.3284  144.0387  158.1302 C   0  0  0  0  0  0  0  0  0  0  0  0
  151.3729  142.7422  158.9632 C   0  0  1  0  0  0  0  0  0  0  0  0
  151.9022  141.6314  158.1734 N   0  0  0  0  0  0  0  0  0  0  0  0
  151.4607  141.2533  156.9649 C   0  0  0  0  0  0  0  0  0  0  0  0
  150.5330  141.8441  156.4029 O   0  0  0  0  0  0  0  0  0  0  0  0
  152.1821  140.1546  156.5194 N   0  0  0  0  0  0  0  0  0  0  0  0
  151.7232  139.4227  155.5507 C   0  0  0  0  0  0  0  0  0  0  0  0
  150.5674  139.4867  154.7769 N   0  0  0  0  0  0  0  0  0  0  0  0
  150.5922  138.4502  153.8864 C   0  0  0  0  0  0  0  0  0  0  0  0
  151.7109  137.7608  154.0879 C   0  0  0  0  0  0  0  0  0  0  0  0
  152.4230  138.3318  155.0998 O   0  0  0  0  0  0  0  0  0  0  0  0
  154.9291  141.1375  160.2062 H   0  0  0  0  0  0  0  0  0  0  0  0
  153.2698  140.6367  159.8800 H   0  0  0  0  0  0  0  0  0  0  0  0
  153.7210  141.2276  161.4885 H   0  0  0  0  0  0  0  0  0  0  0  0
  151.8059  142.6018  161.1142 H   0  0  0  0  0  0  0  0  0  0  0  0
  151.2721  144.8991  160.8066 H   0  0  0  0  0  0  0  0  0  0  0  0
  153.0283  144.9874  160.8974 H   0  0  0  0  0  0  0  0  0  0  0  0
  151.8248  146.0805  158.7634 H   0  0  0  0  0  0  0  0  0  0  0  0
  153.2115  145.0332  158.4764 H   0  0  0  0  0  0  0  0  0  0  0  0
  150.3007  144.3993  158.0750 H   0  0  0  0  0  0  0  0  0  0  0  0
  151.6729  143.9012  157.1041 H   0  0  0  0  0  0  0  0  0  0  0  0
  150.3514  142.5187  159.2770 H   0  0  0  0  0  0  0  0  0  0  0  0
  152.6555  141.1006  158.5863 H   0  0  0  0  0  0  0  0  0  0  0  0
  149.8194  140.1637  154.8274 H   0  0  0  0  0  0  0  0  0  0  0  0
  149.7836  138.3135  153.1835 H   0  0  0  0  0  0  0  0  0  0  0  0
  152.1264  136.8824  153.6167 H   0  0  0  0  0  0  0  0  0  0  0  0
  1  2  1  0  0  0  0
  1 17  1  0  0  0  0
  1 18  1  0  0  0  0
  1 19  1  0  0  0  0
  2  3  1  0  0  0  0
  3  7  1  0  0  0  0
  3  4  1  0  0  0  0
  3 20  1  0  0  0  0
  4  5  1  0  0  0  0
  4 21  1  0  0  0  0
  4 22  1  0  0  0  0
  5  6  1  0  0  0  0
  5 23  1  0  0  0  0
  5 24  1  0  0  0  0
  6  7  1  0  0  0  0
  6 25  1  0  0  0  0
  6 26  1  0  0  0  0
  7  8  1  0  0  0  0
  7 27  1  0  0  0  0
  8 28  1  0  0  0  0
  8  9  1  0  0  0  0
  9 11  1  0  0  0  0
  9 10  2  0  0  0  0
 11 12  2  0  0  0  0
 12 16  1  0  0  0  0
 12 13  1  0  0  0  0
 13 29  1  0  0  0  0
 13 14  1  0  0  0  0
 14 30  1  0  0  0  0
 14 15  2  0  0  0  0
 15 31  1  0  0  0  0
 15 16  1  0  0  0  0
M  END
> <s_m_source_file>
AV-unprocessed.smi

> <i_m_source_file_index>
2784

> <i_lp_mmshare_version>
43012

> <i_f3d_flags>
0

> <s_epik_input>
W0NIM11PW0NAQEhdMVtDSDJdW0NIMl1bQ0gyXVtDQEhdMVtOSF1DKD1PKVtOSF1jMm5bY0hdW2NIXW8y

> <s_epik_cmdline>
J2VwaWtfcHl0aG9uJywgJy1waCcsICc3LjAnLCAnLXRuJywgJzgnLCAnLW1hJywgJzIwMCcsICctbWV0YWxfYmluZGluZycsICctaW1hZScsICc8aW5maWxlLm1hZT4nLCAnLW9tYWUnLCAnPG91dGZpbGUubWFlPic=

> <r_lp_tautomer_probability>
0.107061

> <r_epik_Ionization_Penalty>
1.29244

> <r_epik_Ionization_Penalty_Charging>
1.29208

> <r_epik_Ionization_Penalty_Neutral>
0.000359742

> <r_epik_State_Penalty>
2.59896

> <r_epik_Charging_Adjusted_Penalty>
3.89105

> <i_epik_Tot_Q>
0

> <i_epik_Tot_abs_Q>
0

> <r_epik_Metal_State_Penalty>
3.62496

> <b_epik_Metal_Only>
0

> <s_lp_Force_Field>
OPLS_2005

> <r_lp_Energy>
46.0915

> <b_lp_Chiralities_Consistent>
1

> <s_lp_Variant>
AV-unprocessed.smi:2784-10

> <Gold.Version>
5.8.1

> <Gold.Id.Protein>
6NUR|6NUR_protein|mol2

> <Gold.PLP.Fitness>
42.5435

> <Gold.PLP.PLP>
-34.1305

> <Gold.PLP.part.hbond>
-0.8193

> <Gold.PLP.part.metal>
0.0000

> <Gold.PLP.part.buried>
-5.1781

> <Gold.PLP.part.nonpolar>
-27.1397

> <Gold.PLP.part.repulsive>
0.3216

> <Gold.PLP.ligand.clash>
0.0000

> <Gold.PLP.ligand.torsion>
0.4421

> <Gold.PLP.Chemscore.Hbond>
0.7313

> <Gold.PLP.Chemscore.CHOScore>
2.3565

> <Gold.PLP.Chemscore.Metal>
0.0000

> <Gold.Chemscore.Hbonds>
donor molecule, donor type, donor heavy atom, donor atom, acceptor molecule, acceptor atom, score
      P1  H  7997  8008       L1    11  0.68
      L1  C    14    30       P1  7948  0.93
      L1  C    14    30       P1  7957  0.53
      L1  C    15    31       P1  7949  0.83

> <Gold.PLP.Chemscore.Internal.Correction>
0.0340

> <Gold.Rescore>
     Score         DG    S(hbond)    S(metal)    S(lipo)     H(rot)  DE(clash)    DE(int)     intcor
     13.46     -15.31       0.87        0.00      88.24       1.32       0.40       1.45       ----

> <Gold.Chemscore.Fitness>
13.4617

> <Gold.Chemscore.DG>
-15.3124

> <Gold.Chemscore.ZeroCoef>
-5.4800

> <Gold.Chemscore.Hbond>
0.8673

> <Gold.Chemscore.Metal>
0.0000

> <Gold.Chemscore.Lipo>
88.2375

> <Gold.Chemscore.Internal_Hbond>
0.0000

> <Gold.Chemscore.DEClash>
0.4042

> <Gold.Chemscore.DEInternal>
1.4465

> <Gold.Chemscore.Rot>
1.3235

> <Gold.Chemscore.Internal.Correction>
   9.000000E+99

> <Gold.Chemscore.Hbonds>
donor molecule, donor type, donor heavy atom, donor atom, acceptor molecule, acceptor atom, score
      P1  H  7997  8008       L1    11  0.36

> <Gold.Chemscore.Hbond.Weighted>
-2.8968

> <Gold.Chemscore.Metal.Weighted>
-0.0000

> <Gold.Chemscore.Lipo.Weighted>
-10.3238

> <Gold.Chemscore.Internal_Hbond.Weighted>
0.0000

> <Gold.Chemscore.DEClash.Weighted>
0.4042

> <Gold.Chemscore.DEInternal.Weighted>
1.4465

> <Gold.Chemscore.Rot.Weighted>
3.3882

> <Gold.Chemscore.Internal.Correction.Weighted>
   9.000000E+99

> <Gold.Protein.RotatedTorsions>
[ 6907 6896 6895 6894 ] final   -3.32 input  -60.11 | X-H torsion
[ 7974 7965 7964 7962 ] final  -62.67 input  175.53 | X-H torsion
[ 8008 7997 7996 7995 ] final  -40.95 input   59.86 | X-H torsion
[ 10167 10162 10161 10158 ] final  -41.72 input  -65.29 | X-H torsion
[ 10718 10713 10712 10709 ] final   96.55 input   66.30 | X-H torsion
[ 10763 10752 10751 10750 ] final  123.97 input  -60.55 | X-H torsion
[ 11005 11000 10999 10996 ] final -128.93 input  -57.11 | X-H torsion

> <Gold.Protein.ActiveResidues>
 VAL166  LYS551  ARG553  GLY616  TRP617  ASP618  TYR619  PRO620  LYS621  CYS622 
 ASP623  PHE694  ASN695  SER759  ASP760  ASP761  ALA762  ILE779  LEU786  VAL792 
 PHE793  MET794  SER795  GLU796  ALA797  LYS798  CYS799  TRP800  GLU811  SER814 

> <Gold.Protein.RotatedAtoms>
  151.5157  135.1066  159.9865 H   0  0  0  0  0  0  0  0  0  0  0  0  # atno 6907 bound_to 6896
  152.4642  133.7884  159.6899 H   0  0  0  0  0  0  0  0  0  0  0  0  # atno 6908 bound_to 6896
  150.8618  133.7568  159.3015 H   0  0  0  0  0  0  0  0  0  0  0  0  # atno 6909 bound_to 6896
  145.7885  140.8723  143.0293 H   0  0  0  0  0  0  0  0  0  0  0  0  # atno 7974 bound_to 7965
  154.4008  140.1512  156.3111 H   0  0  0  0  0  0  0  0  0  0  0  0  # atno 8008 bound_to 7997
  155.8615  140.3453  155.5738 H   0  0  0  0  0  0  0  0  0  0  0  0  # atno 8009 bound_to 7997
  155.7875  140.0852  157.2017 H   0  0  0  0  0  0  0  0  0  0  0  0  # atno 8010 bound_to 7997
  140.6993  143.3078  151.3107 H   0  0  0  0  0  0  0  0  0  0  0  0  # atno 10167 bound_to 10162
  157.6925  131.0581  150.4508 H   0  0  0  0  0  0  0  0  0  0  0  0  # atno 10718 bound_to 10713
  153.6540  135.3358  155.3108 H   0  0  0  0  0  0  0  0  0  0  0  0  # atno 10763 bound_to 10752
  154.8531  135.4347  154.1875 H   0  0  0  0  0  0  0  0  0  0  0  0  # atno 10764 bound_to 10752
  153.2824  135.7010  153.7447 H   0  0  0  0  0  0  0  0  0  0  0  0  # atno 10765 bound_to 10752
  140.9474  134.1111  157.4094 H   0  0  0  0  0  0  0  0  0  0  0  0  # atno 11005 bound_to 11000
  144.6785  140.0089  143.7484 LP  0  0  0  0  0  0  0  0  0  0  0  0  # atno 17320 bound_to 7965
  146.0002  139.3084  143.0932 LP  0  0  0  0  0  0  0  0  0  0  0  0  # atno 17321 bound_to 7965
  139.6490  144.0397  152.2612 LP  0  0  0  0  0  0  0  0  0  0  0  0  # atno 17342 bound_to 10162
  139.9928  144.6349  150.7799 LP  0  0  0  0  0  0  0  0  0  0  0  0  # atno 17343 bound_to 10162
  156.4859  130.4084  149.6434 LP  0  0  0  0  0  0  0  0  0  0  0  0  # atno 17370 bound_to 10713
  156.3462  130.7408  151.2361 LP  0  0  0  0  0  0  0  0  0  0  0  0  # atno 17371 bound_to 10713
  139.8837  135.0055  156.6321 LP  0  0  0  0  0  0  0  0  0  0  0  0  # atno 17394 bound_to 11000
  140.7650  133.8786  155.8447 LP  0  0  0  0  0  0  0  0  0  0  0  0  # atno 17395 bound_to 11000

$$$$
