AV-unprocessed.smi:1265|AV-procd|sdf|5318|dock2
  -GOLD-   22720 4443D 1   1.00000     0.00000
 Structure written by MMmdl.
 45 47  0  0  0  0  0  0  0  0  2 V2000
  145.6409  134.3387  154.1863 O   0  0  0  0  0  0  0  0  0  0  0  0
  146.5164  134.7550  153.4278 C   0  0  0  0  0  0  0  0  0  0  0  0
  147.5354  135.5303  153.8241 N   0  0  0  0  0  0  0  0  0  0  0  0
  147.7753  135.9968  155.1896 C   0  0  0  0  0  0  0  0  0  0  0  0
  149.2946  136.0174  155.5640 C   0  0  2  0  0  0  0  0  0  0  0  0
  149.9717  137.1850  154.9192 N   0  0  0  0  0  0  0  0  0  0  0  0
  151.4039  137.3438  155.2103 C   0  0  0  0  0  0  0  0  0  0  0  0
  152.0323  138.5201  154.4433 C   0  0  0  0  0  0  0  0  0  0  0  0
  151.3296  139.7193  154.7391 O   0  0  0  0  0  0  0  0  0  0  0  0
  149.9536  139.6318  154.3963 C   0  0  0  0  0  0  0  0  0  0  0  0
  149.3016  138.4698  155.1639 C   0  0  0  0  0  0  0  0  0  0  0  0
  149.9093  134.6455  155.1604 C   0  0  0  0  0  0  0  0  0  0  0  0
  149.3761  133.5570  156.0982 C   0  0  0  0  0  0  0  0  0  0  0  0
  149.1187  134.3215  157.7162 S   0  0  0  0  0  0  0  0  0  0  0  0
  149.4118  136.0064  157.1099 C   0  0  0  0  0  0  0  0  0  0  0  0
  146.5995  134.4793  152.1148 N   0  0  0  0  0  0  0  0  0  0  0  0
  145.7107  133.7112  151.3147 C   0  0  0  0  0  0  0  0  0  0  0  0
  144.3412  133.7248  151.6608 C   0  0  0  0  0  0  0  0  0  0  0  0
  143.4252  132.9638  150.9062 C   0  0  0  0  0  0  0  0  0  0  0  0
  143.8633  132.2204  149.8676 N   0  3  0  0  0  0  0  0  0  0  0  0
  145.1638  132.1630  149.5085 C   0  0  0  0  0  0  0  0  0  0  0  0
  146.1261  132.9035  150.2251 C   0  0  0  0  0  0  0  0  0  0  0  0
  148.2153  135.8100  153.1323 H   0  0  0  0  0  0  0  0  0  0  0  0
  147.3391  136.9910  155.2757 H   0  0  0  0  0  0  0  0  0  0  0  0
  147.1913  135.4078  155.8964 H   0  0  0  0  0  0  0  0  0  0  0  0
  151.5652  137.4962  156.2768 H   0  0  0  0  0  0  0  0  0  0  0  0
  151.9624  136.4564  154.9226 H   0  0  0  0  0  0  0  0  0  0  0  0
  153.0777  138.6408  154.7277 H   0  0  0  0  0  0  0  0  0  0  0  0
  152.0133  138.3342  153.3683 H   0  0  0  0  0  0  0  0  0  0  0  0
  149.4645  140.5728  154.6481 H   0  0  0  0  0  0  0  0  0  0  0  0
  149.8455  139.4929  153.3194 H   0  0  0  0  0  0  0  0  0  0  0  0
  148.2574  138.4321  154.8620 H   0  0  0  0  0  0  0  0  0  0  0  0
  149.3125  138.6994  156.2299 H   0  0  0  0  0  0  0  0  0  0  0  0
  149.7423  134.3950  154.1132 H   0  0  0  0  0  0  0  0  0  0  0  0
  150.9871  134.6387  155.3063 H   0  0  0  0  0  0  0  0  0  0  0  0
  148.4251  133.1643  155.7381 H   0  0  0  0  0  0  0  0  0  0  0  0
  150.0652  132.7157  156.1748 H   0  0  0  0  0  0  0  0  0  0  0  0
  150.4143  136.2782  157.4358 H   0  0  0  0  0  0  0  0  0  0  0  0
  148.7237  136.7039  157.5886 H   0  0  0  0  0  0  0  0  0  0  0  0
  147.4264  134.8163  151.6437 H   0  0  0  0  0  0  0  0  0  0  0  0
  143.9906  134.3168  152.4940 H   0  0  0  0  0  0  0  0  0  0  0  0
  142.3637  132.9259  151.1030 H   0  0  0  0  0  0  0  0  0  0  0  0
  145.3961  131.5248  148.6683 H   0  0  0  0  0  0  0  0  0  0  0  0
  147.1625  132.8266  149.9337 H   0  0  0  0  0  0  0  0  0  0  0  0
  143.1845  131.6756  149.3352 H   0  0  0  0  0  0  0  0  0  0  0  0
  1  2  2  0  0  0  0
  2  3  1  0  0  0  0
  2 16  1  0  0  0  0
  3  4  1  0  0  0  0
  3 23  1  0  0  0  0
  4  5  1  0  0  0  0
  4 24  1  0  0  0  0
  4 25  1  0  0  0  0
  5 15  1  0  0  0  0
  5  6  1  0  0  0  0
  5 12  1  0  0  0  0
  6 11  1  0  0  0  0
  6  7  1  0  0  0  0
  7  8  1  0  0  0  0
  7 26  1  0  0  0  0
  7 27  1  0  0  0  0
  8  9  1  0  0  0  0
  8 28  1  0  0  0  0
  8 29  1  0  0  0  0
  9 10  1  0  0  0  0
 10 11  1  0  0  0  0
 10 30  1  0  0  0  0
 10 31  1  0  0  0  0
 11 32  1  0  0  0  0
 11 33  1  0  0  0  0
 12 13  1  0  0  0  0
 12 34  1  0  0  0  0
 12 35  1  0  0  0  0
 13 14  1  0  0  0  0
 13 36  1  0  0  0  0
 13 37  1  0  0  0  0
 14 15  1  0  0  0  0
 15 38  1  0  0  0  0
 15 39  1  0  0  0  0
 16 17  1  0  0  0  0
 16 40  1  0  0  0  0
 17 22  1  0  0  0  0
 17 18  2  0  0  0  0
 18 19  1  0  0  0  0
 18 41  1  0  0  0  0
 19 20  2  0  0  0  0
 19 42  1  0  0  0  0
 20 21  1  0  0  0  0
 20 45  1  0  0  0  0
 21 22  2  0  0  0  0
 21 43  1  0  0  0  0
 22 44  1  0  0  0  0
M  CHG  1  20   1
M  END
> <s_m_source_file>
AV-unprocessed.smi

> <i_m_source_file_index>
1265

> <i_lp_mmshare_version>
43012

> <i_f3d_flags>
0

> <s_epik_input>
W2NIXTFbY0hdbltjSF1bY0hdYzFbTkhdQyg9TylbTkhdW0NIMl1bQ0BdMihbQ0gyXVtDSDJdU1tDSDJdMilOM1tDSDJdW0NIMl1PW0NIMl1bQ0gyXTM=

> <s_epik_cmdline>
J2VwaWtfcHl0aG9uJywgJy1waCcsICc3LjAnLCAnLXRuJywgJzgnLCAnLW1hJywgJzIwMCcsICctbWV0YWxfYmluZGluZycsICctaW1hZScsICc8aW5maWxlLm1hZT4nLCAnLW9tYWUnLCAnPG91dGZpbGUubWFlPic=

> <r_epik_Ionization_Penalty>
1.06168

> <r_epik_Ionization_Penalty_Charging>
1.04215

> <r_epik_Ionization_Penalty_Neutral>
0.019527

> <r_epik_State_Penalty>
1.12733

> <r_epik_Charging_Adjusted_Penalty>
2.16948

> <i_epik_Tot_Q>
1

> <i_epik_Tot_abs_Q>
1

> <r_epik_Metal_State_Penalty>
1.22116

> <b_epik_Metal_Only>
0

> <s_lp_Force_Field>
OPLS_2005

> <r_lp_Energy>
64.854

> <b_lp_Chiralities_Consistent>
1

> <s_lp_Variant>
AV-unprocessed.smi:1265-4

> <Gold.Version>
5.8.1

> <Gold.Id.Protein>
6NUR|6NUR_protein|mol2

> <Gold.PLP.Fitness>
39.4755

> <Gold.PLP.PLP>
-32.1654

> <Gold.PLP.part.hbond>
-2.9182

> <Gold.PLP.part.metal>
0.0000

> <Gold.PLP.part.buried>
-4.7683

> <Gold.PLP.part.nonpolar>
-24.6289

> <Gold.PLP.part.repulsive>
0.4486

> <Gold.PLP.ligand.clash>
0.0000

> <Gold.PLP.ligand.torsion>
0.6270

> <Gold.PLP.Chemscore.Hbond>
2.8228

> <Gold.PLP.Chemscore.CHOScore>
0.0000

> <Gold.PLP.Chemscore.Metal>
0.0000

> <Gold.Chemscore.Hbonds>
donor molecule, donor type, donor heavy atom, donor atom, acceptor molecule, acceptor atom, score
      L1  H     3    23       P1  7948  0.98
      L1  H    16    40       P1  7948  0.83
      P1  H  7989  7998       L1     9  0.65

> <Gold.PLP.Chemscore.Internal.Correction>
0.0959

> <Gold.Rescore>
     Score         DG    S(hbond)    S(metal)    S(lipo)     H(rot)  DE(clash)    DE(int)     intcor
     15.79     -17.70       1.84        0.00      84.11       1.47       0.17       1.74       ----

> <Gold.Chemscore.Fitness>
15.7925

> <Gold.Chemscore.DG>
-17.6998

> <Gold.Chemscore.ZeroCoef>
-5.4800

> <Gold.Chemscore.Hbond>
1.8421

> <Gold.Chemscore.Metal>
0.0000

> <Gold.Chemscore.Lipo>
84.1138

> <Gold.Chemscore.Internal_Hbond>
0.0000

> <Gold.Chemscore.DEClash>
0.1711

> <Gold.Chemscore.DEInternal>
1.7361

> <Gold.Chemscore.Rot>
1.4743

> <Gold.Chemscore.Internal.Correction>
   9.000000E+99

> <Gold.Chemscore.Hbonds>
donor molecule, donor type, donor heavy atom, donor atom, acceptor molecule, acceptor atom, score
      L1  H     3    23       P1  7948  0.91
      L1  H    16    40       P1  7948  0.47
      P1  H  7989  7998       L1     9  0.04

> <Gold.Chemscore.Hbond.Weighted>
-6.1528

> <Gold.Chemscore.Metal.Weighted>
-0.0000

> <Gold.Chemscore.Lipo.Weighted>
-9.8413

> <Gold.Chemscore.Internal_Hbond.Weighted>
0.0000

> <Gold.Chemscore.DEClash.Weighted>
0.1711

> <Gold.Chemscore.DEInternal.Weighted>
1.7361

> <Gold.Chemscore.Rot.Weighted>
3.7742

> <Gold.Chemscore.Internal.Correction.Weighted>
   9.000000E+99

> <Gold.Protein.RotatedTorsions>
[ 6907 6896 6895 6894 ] final  -83.99 input  -60.11 | X-H torsion
[ 7974 7965 7964 7962 ] final  160.54 input  175.53 | X-H torsion
[ 8008 7997 7996 7995 ] final  -44.04 input   59.86 | X-H torsion
[ 10167 10162 10161 10158 ] final -175.11 input  -65.29 | X-H torsion
[ 10718 10713 10712 10709 ] final -174.50 input   66.30 | X-H torsion
[ 10763 10752 10751 10750 ] final  141.63 input  -60.55 | X-H torsion
[ 11005 11000 10999 10996 ] final   25.55 input  -57.11 | X-H torsion

> <Gold.Protein.ActiveResidues>
 VAL166  LYS551  ARG553  GLY616  TRP617  ASP618  TYR619  PRO620  LYS621  CYS622 
 ASP623  PHE694  ASN695  SER759  ASP760  ASP761  ALA762  ILE779  LEU786  VAL792 
 PHE793  MET794  SER795  GLU796  ALA797  LYS798  CYS799  TRP800  GLU811  SER814 

> <Gold.Protein.RotatedAtoms>
  150.6880  134.3427  159.4874 H   0  0  0  0  0  0  0  0  0  0  0  0  # atno 6907 bound_to 6896
  152.1278  134.9155  160.0569 H   0  0  0  0  0  0  0  0  0  0  0  0  # atno 6908 bound_to 6896
  152.0336  133.3913  159.4344 H   0  0  0  0  0  0  0  0  0  0  0  0  # atno 6909 bound_to 6896
  144.7732  139.7771  143.6289 H   0  0  0  0  0  0  0  0  0  0  0  0  # atno 7974 bound_to 7965
  154.3997  140.1432  156.3617 H   0  0  0  0  0  0  0  0  0  0  0  0  # atno 8008 bound_to 7997
  155.8175  140.3470  155.5473 H   0  0  0  0  0  0  0  0  0  0  0  0  # atno 8009 bound_to 7997
  155.8323  140.0914  157.1775 H   0  0  0  0  0  0  0  0  0  0  0  0  # atno 8010 bound_to 7997
  139.5598  144.1897  152.1220 H   0  0  0  0  0  0  0  0  0  0  0  0  # atno 10167 bound_to 10162
  156.7861  130.9501  151.3120 H   0  0  0  0  0  0  0  0  0  0  0  0  # atno 10718 bound_to 10713
  153.9425  135.2978  155.3442 H   0  0  0  0  0  0  0  0  0  0  0  0  # atno 10763 bound_to 10752
  154.7469  135.4998  153.9224 H   0  0  0  0  0  0  0  0  0  0  0  0  # atno 10764 bound_to 10752
  153.1035  135.6740  153.9736 H   0  0  0  0  0  0  0  0  0  0  0  0  # atno 10765 bound_to 10752
  140.3467  134.2274  155.7684 H   0  0  0  0  0  0  0  0  0  0  0  0  # atno 11005 bound_to 11000
  146.1893  139.5125  142.9815 LP  0  0  0  0  0  0  0  0  0  0  0  0  # atno 17320 bound_to 7965
  145.6263  141.0313  143.1887 LP  0  0  0  0  0  0  0  0  0  0  0  0  # atno 17321 bound_to 7965
  140.1409  144.5203  150.6745 LP  0  0  0  0  0  0  0  0  0  0  0  0  # atno 17342 bound_to 10162
  140.6876  143.2358  151.5217 LP  0  0  0  0  0  0  0  0  0  0  0  0  # atno 17343 bound_to 10162
  157.6623  130.8977  149.9857 LP  0  0  0  0  0  0  0  0  0  0  0  0  # atno 17370 bound_to 10713
  156.1188  130.3646  149.9922 LP  0  0  0  0  0  0  0  0  0  0  0  0  # atno 17371 bound_to 10713
  141.2024  133.7939  157.0394 LP  0  0  0  0  0  0  0  0  0  0  0  0  # atno 17394 bound_to 11000
  140.0737  134.9688  157.1509 LP  0  0  0  0  0  0  0  0  0  0  0  0  # atno 17395 bound_to 11000

$$$$
