AV-unprocessed.smi:1518|AV-procd|sdf|6127|dock9
  -GOLD-   22720 6273D 1   1.00000     0.00000
 Structure written by MMmdl.
 46 48  0  0  0  0  0  0  0  0  2 V2000
  150.2045  144.6671  158.7763 C   0  0  0  0  0  0  0  0  0  0  0  0
  151.0170  144.8637  160.0553 C   0  0  0  0  0  0  0  0  0  0  0  0
  150.9767  145.9583  160.6160 O   0  0  0  0  0  0  0  0  0  0  0  0
  151.8199  143.7112  160.5577 C   0  0  0  0  0  0  0  0  0  0  0  0
  151.8821  142.5271  159.7888 C   0  0  0  0  0  0  0  0  0  0  0  0
  152.6323  141.4248  160.2364 C   0  0  0  0  0  0  0  0  0  0  0  0
  153.3277  141.4951  161.4565 C   0  0  0  0  0  0  0  0  0  0  0  0
  153.2837  142.6630  162.2426 C   0  0  0  0  0  0  0  0  0  0  0  0
  153.9972  142.6438  163.4218 O   0  0  0  0  0  0  0  0  0  0  0  0
  154.0454  143.8295  164.2060 C   0  0  0  0  0  0  0  0  0  0  0  0
  155.3972  143.9237  164.9324 C   0  0  1  0  0  0  0  0  0  0  0  0
  155.4770  145.1584  165.6162 O   0  0  0  0  0  0  0  0  0  0  0  0
  155.6765  142.7321  165.8708 C   0  0  0  0  0  0  0  0  0  0  0  0
  156.9905  142.8211  166.5282 N   0  0  0  0  0  0  0  0  0  0  0  0
  158.2116  143.1467  166.0131 C   0  0  0  0  0  0  0  0  0  0  0  0
  158.5246  143.5129  164.5995 C   0  0  0  0  0  0  0  0  0  0  0  0
  159.1693  144.7632  164.4989 O   0  0  0  0  0  0  0  0  0  0  0  0
  159.1099  143.0891  167.0362 N   0  3  0  0  0  0  0  0  0  0  0  0
  158.4608  142.7236  168.2158 C   0  0  0  0  0  0  0  0  0  0  0  0
  158.9516  142.5375  169.5045 C   0  0  0  0  0  0  0  0  0  0  0  0
  158.0145  142.1675  170.4914 C   0  0  0  0  0  0  0  0  0  0  0  0
  156.6499  141.9978  170.1805 C   0  0  0  0  0  0  0  0  0  0  0  0
  156.1646  142.1884  168.8700 C   0  0  0  0  0  0  0  0  0  0  0  0
  157.0976  142.5518  167.8986 C   0  0  0  0  0  0  0  0  0  0  0  0
  152.5243  143.7704  161.7849 C   0  0  0  0  0  0  0  0  0  0  0  0
  149.4647  143.8780  158.9109 H   0  0  0  0  0  0  0  0  0  0  0  0
  150.8573  144.3996  157.9453 H   0  0  0  0  0  0  0  0  0  0  0  0
  149.6784  145.5852  158.5138 H   0  0  0  0  0  0  0  0  0  0  0  0
  151.3553  142.4511  158.8482 H   0  0  0  0  0  0  0  0  0  0  0  0
  152.6743  140.5238  159.6425 H   0  0  0  0  0  0  0  0  0  0  0  0
  153.9014  140.6438  161.7929 H   0  0  0  0  0  0  0  0  0  0  0  0
  153.9439  144.6947  163.5488 H   0  0  0  0  0  0  0  0  0  0  0  0
  153.2239  143.8592  164.9241 H   0  0  0  0  0  0  0  0  0  0  0  0
  156.1767  143.9530  164.1706 H   0  0  0  0  0  0  0  0  0  0  0  0
  155.4212  145.8568  164.9816 H   0  0  0  0  0  0  0  0  0  0  0  0
  154.9026  142.6322  166.6315 H   0  0  0  0  0  0  0  0  0  0  0  0
  155.6579  141.8016  165.3033 H   0  0  0  0  0  0  0  0  0  0  0  0
  159.1660  142.7479  164.1611 H   0  0  0  0  0  0  0  0  0  0  0  0
  157.6069  143.5337  164.0120 H   0  0  0  0  0  0  0  0  0  0  0  0
  160.0949  144.6159  164.3765 H   0  0  0  0  0  0  0  0  0  0  0  0
  159.9963  142.6693  169.7456 H   0  0  0  0  0  0  0  0  0  0  0  0
  158.3486  142.0131  171.5072 H   0  0  0  0  0  0  0  0  0  0  0  0
  155.9597  141.7171  170.9629 H   0  0  0  0  0  0  0  0  0  0  0  0
  155.1158  142.0620  168.6459 H   0  0  0  0  0  0  0  0  0  0  0  0
  152.4808  144.6711  162.3761 H   0  0  0  0  0  0  0  0  0  0  0  0
  160.0958  143.2917  166.9321 H   0  0  0  0  0  0  0  0  0  0  0  0
  1  2  1  0  0  0  0
  1 26  1  0  0  0  0
  1 27  1  0  0  0  0
  1 28  1  0  0  0  0
  2  3  2  0  0  0  0
  2  4  1  0  0  0  0
  4 25  1  0  0  0  0
  4  5  2  0  0  0  0
  5  6  1  0  0  0  0
  5 29  1  0  0  0  0
  6  7  2  0  0  0  0
  6 30  1  0  0  0  0
  7  8  1  0  0  0  0
  7 31  1  0  0  0  0
  8  9  1  0  0  0  0
  8 25  2  0  0  0  0
  9 10  1  0  0  0  0
 10 11  1  0  0  0  0
 10 32  1  0  0  0  0
 10 33  1  0  0  0  0
 11 12  1  0  0  0  0
 11 13  1  0  0  0  0
 11 34  1  0  0  0  0
 12 35  1  0  0  0  0
 13 14  1  0  0  0  0
 13 36  1  0  0  0  0
 13 37  1  0  0  0  0
 14 24  1  0  0  0  0
 14 15  1  0  0  0  0
 15 16  1  0  0  0  0
 15 18  2  0  0  0  0
 16 17  1  0  0  0  0
 16 38  1  0  0  0  0
 16 39  1  0  0  0  0
 17 40  1  0  0  0  0
 18 19  1  0  0  0  0
 18 46  1  0  0  0  0
 19 24  2  0  0  0  0
 19 20  1  0  0  0  0
 20 21  2  0  0  0  0
 20 41  1  0  0  0  0
 21 22  1  0  0  0  0
 21 42  1  0  0  0  0
 22 23  2  0  0  0  0
 22 43  1  0  0  0  0
 23 24  1  0  0  0  0
 23 44  1  0  0  0  0
 25 45  1  0  0  0  0
M  CHG  1  18   1
M  END
> <s_m_source_file>
AV-unprocessed.smi

> <i_m_source_file_index>
1518

> <i_lp_mmshare_version>
43012

> <i_f3d_flags>
0

> <s_epik_input>
W0NIM11DKD1PKWMxW2NIXVtjSF1bY0hdYyhbY0hdMSlPW0NIMl1bQ0BIXShbT0hdKVtDSDJdbihjKG4yKVtDSDJdW09IXSljKGMyMylbY0hdW2NIXVtjSF1bY0hdMw==

> <s_epik_cmdline>
J2VwaWtfcHl0aG9uJywgJy1waCcsICc3LjAnLCAnLXRuJywgJzgnLCAnLW1hJywgJzIwMCcsICctbWV0YWxfYmluZGluZycsICctaW1hZScsICc8aW5maWxlLm1hZT4nLCAnLW9tYWUnLCAnPG91dGZpbGUubWFlPic=

> <r_lp_tautomer_probability>
0.99995

> <r_epik_Ionization_Penalty>
1.40416

> <r_epik_Ionization_Penalty_Charging>
1.4033

> <r_epik_Ionization_Penalty_Neutral>
0.000858184

> <r_epik_State_Penalty>
1.48564

> <r_epik_Charging_Adjusted_Penalty>
2.88894

> <i_epik_Tot_Q>
1

> <i_epik_Tot_abs_Q>
1

> <r_epik_Metal_State_Penalty>
5.52809

> <b_epik_Metal_Only>
0

> <s_lp_Force_Field>
OPLS_2005

> <r_lp_Energy>
25.8835

> <b_lp_Chiralities_Consistent>
1

> <s_lp_Variant>
AV-unprocessed.smi:1518-4

> <Gold.Version>
5.8.1

> <Gold.Id.Protein>
6NUR|6NUR_protein|mol2

> <Gold.PLP.Fitness>
49.7069

> <Gold.PLP.PLP>
-50.5361

> <Gold.PLP.part.hbond>
-4.1889

> <Gold.PLP.part.metal>
0.0000

> <Gold.PLP.part.buried>
-9.6459

> <Gold.PLP.part.nonpolar>
-35.7172

> <Gold.PLP.part.repulsive>
0.2988

> <Gold.PLP.ligand.clash>
0.0000

> <Gold.PLP.ligand.torsion>
0.4579

> <Gold.PLP.Chemscore.Hbond>
0.0000

> <Gold.PLP.Chemscore.CHOScore>
0.0000

> <Gold.PLP.Chemscore.Metal>
0.0000

> <Gold.PLP.Chemscore.Internal.Correction>
0.0865

> <Gold.Rescore>
     Score         DG    S(hbond)    S(metal)    S(lipo)     H(rot)  DE(clash)    DE(int)     intcor
      9.79     -12.26       0.00        0.00     131.02       3.34       2.14       0.33       ----

> <Gold.Chemscore.Fitness>
9.7900

> <Gold.Chemscore.DG>
-12.2620

> <Gold.Chemscore.ZeroCoef>
-5.4800

> <Gold.Chemscore.Hbond>
0.0000

> <Gold.Chemscore.Metal>
0.0000

> <Gold.Chemscore.Lipo>
131.0182

> <Gold.Chemscore.Internal_Hbond>
0.0000

> <Gold.Chemscore.DEClash>
2.1429

> <Gold.Chemscore.DEInternal>
0.3291

> <Gold.Chemscore.Rot>
3.3387

> <Gold.Chemscore.Internal.Correction>
   9.000000E+99

> <Gold.Chemscore.Hbond.Weighted>
-0.0000

> <Gold.Chemscore.Metal.Weighted>
-0.0000

> <Gold.Chemscore.Lipo.Weighted>
-15.3291

> <Gold.Chemscore.Internal_Hbond.Weighted>
0.0000

> <Gold.Chemscore.DEClash.Weighted>
2.1429

> <Gold.Chemscore.DEInternal.Weighted>
0.3291

> <Gold.Chemscore.Rot.Weighted>
8.5471

> <Gold.Chemscore.Internal.Correction.Weighted>
   9.000000E+99

> <Gold.Protein.RotatedTorsions>
[ 6907 6896 6895 6894 ] final    6.97 input  -60.11 | X-H torsion
[ 7974 7965 7964 7962 ] final   43.87 input  175.53 | X-H torsion
[ 8008 7997 7996 7995 ] final  -79.83 input   59.86 | X-H torsion
[ 10167 10162 10161 10158 ] final -128.95 input  -65.29 | X-H torsion
[ 10718 10713 10712 10709 ] final   16.52 input   66.30 | X-H torsion
[ 10763 10752 10751 10750 ] final -124.21 input  -60.55 | X-H torsion
[ 11005 11000 10999 10996 ] final  139.13 input  -57.11 | X-H torsion

> <Gold.Protein.ActiveResidues>
 VAL166  LYS551  ARG553  GLY616  TRP617  ASP618  TYR619  PRO620  LYS621  CYS622 
 ASP623  PHE694  ASN695  SER759  ASP760  ASP761  ALA762  ILE779  LEU786  VAL792 
 PHE793  MET794  SER795  GLU796  ALA797  LYS798  CYS799  TRP800  GLU811  SER814 

> <Gold.Protein.RotatedAtoms>
  151.6823  135.0960  160.0218 H   0  0  0  0  0  0  0  0  0  0  0  0  # atno 6907 bound_to 6896
  152.3828  133.6565  159.6183 H   0  0  0  0  0  0  0  0  0  0  0  0  # atno 6908 bound_to 6896
  150.7760  133.9002  159.3380 H   0  0  0  0  0  0  0  0  0  0  0  0  # atno 6909 bound_to 6896
  146.0618  139.5138  142.9653 H   0  0  0  0  0  0  0  0  0  0  0  0  # atno 7974 bound_to 7965
  154.5824  140.0672  156.9122 H   0  0  0  0  0  0  0  0  0  0  0  0  # atno 8008 bound_to 7997
  155.2440  140.3347  155.4271 H   0  0  0  0  0  0  0  0  0  0  0  0  # atno 8009 bound_to 7997
  156.2198  140.1794  156.7488 H   0  0  0  0  0  0  0  0  0  0  0  0  # atno 8010 bound_to 7997
  139.9449  143.6121  152.2493 H   0  0  0  0  0  0  0  0  0  0  0  0  # atno 10167 bound_to 10162
  157.0690  130.6340  149.5801 H   0  0  0  0  0  0  0  0  0  0  0  0  # atno 10718 bound_to 10713
  154.8720  135.4071  154.3069 H   0  0  0  0  0  0  0  0  0  0  0  0  # atno 10763 bound_to 10752
  153.3919  135.7015  153.6494 H   0  0  0  0  0  0  0  0  0  0  0  0  # atno 10764 bound_to 10752
  153.5273  135.3675  155.2631 H   0  0  0  0  0  0  0  0  0  0  0  0  # atno 10765 bound_to 10752
  140.0232  134.9387  157.0517 H   0  0  0  0  0  0  0  0  0  0  0  0  # atno 11005 bound_to 11000
  145.6547  141.0255  143.1741 LP  0  0  0  0  0  0  0  0  0  0  0  0  # atno 17320 bound_to 7965
  144.7179  139.8131  143.7392 LP  0  0  0  0  0  0  0  0  0  0  0  0  # atno 17321 bound_to 7965
  139.6675  144.7662  151.1846 LP  0  0  0  0  0  0  0  0  0  0  0  0  # atno 17342 bound_to 10162
  140.7600  143.5916  150.8790 LP  0  0  0  0  0  0  0  0  0  0  0  0  # atno 17343 bound_to 10162
  155.9956  130.5023  150.7465 LP  0  0  0  0  0  0  0  0  0  0  0  0  # atno 17370 bound_to 10713
  157.4893  131.0909  151.0445 LP  0  0  0  0  0  0  0  0  0  0  0  0  # atno 17371 bound_to 10713
  140.4351  134.1740  155.7170 LP  0  0  0  0  0  0  0  0  0  0  0  0  # atno 17394 bound_to 11000
  141.1787  133.8460  157.1334 LP  0  0  0  0  0  0  0  0  0  0  0  0  # atno 17395 bound_to 11000

$$$$
