AV-unprocessed.smi:1638|AV-procd|sdf|6546|dock9
  -GOLD-   22720 7233D 1   1.00000     0.00000
 Structure written by MMmdl.
 41 42  0  0  0  0  0  0  0  0  2 V2000
  152.0963  140.1820  158.3459 C   0  0  0  0  0  0  0  0  0  0  0  0
  151.6380  139.9458  156.9474 C   0  0  0  0  0  0  0  0  0  0  0  0
  152.4819  139.8733  155.9110 N   0  0  0  0  0  0  0  0  0  0  0  0
  151.8223  139.6518  154.7100 N   0  0  0  0  0  0  0  0  0  0  0  0
  150.4954  139.5654  154.8771 C   0  0  0  0  0  0  0  0  0  0  0  0
  149.5793  139.3493  153.8135 N   0  0  0  0  0  0  0  0  0  0  0  0
  148.2868  138.9855  153.8900 C   0  0  0  0  0  0  0  0  0  0  0  0
  147.6561  138.8063  154.9323 O   0  0  0  0  0  0  0  0  0  0  0  0
  147.7462  138.8419  152.6711 N   0  0  0  0  0  0  0  0  0  0  0  0
  146.3649  138.4472  152.4182 C   0  0  0  0  0  0  0  0  0  0  0  0
  145.9248  137.3059  153.3566 C   0  0  0  0  0  0  0  0  0  0  0  0
  146.1860  135.9547  152.7912 N   0  3  0  0  0  0  0  0  0  0  0  0
  145.0750  135.4757  151.9268 C   0  0  0  0  0  0  0  0  0  0  0  0
  145.6205  134.7476  150.6862 C   0  0  0  0  0  0  0  0  0  0  0  0
  146.0731  133.3032  150.9411 C   0  0  0  0  0  0  0  0  0  0  0  0
  147.1347  133.1583  152.0419 C   0  0  0  0  0  0  0  0  0  0  0  0
  146.5788  133.4913  153.4347 C   0  0  0  0  0  0  0  0  0  0  0  0
  146.6445  134.9818  153.8254 C   0  0  0  0  0  0  0  0  0  0  0  0
  149.9396  139.7476  156.5322 S   0  0  0  0  0  0  0  0  0  0  0  0
  153.1600  139.9620  158.4438 H   0  0  0  0  0  0  0  0  0  0  0  0
  151.5443  139.5426  159.0347 H   0  0  0  0  0  0  0  0  0  0  0  0
  151.9271  141.2229  158.6214 H   0  0  0  0  0  0  0  0  0  0  0  0
  149.9571  139.4755  152.8861 H   0  0  0  0  0  0  0  0  0  0  0  0
  148.3318  139.0055  151.8650 H   0  0  0  0  0  0  0  0  0  0  0  0
  145.7284  139.3195  152.5691 H   0  0  0  0  0  0  0  0  0  0  0  0
  146.2654  138.1666  151.3691 H   0  0  0  0  0  0  0  0  0  0  0  0
  146.4118  137.3893  154.3295 H   0  0  0  0  0  0  0  0  0  0  0  0
  144.8552  137.4258  153.5352 H   0  0  0  0  0  0  0  0  0  0  0  0
  144.3615  134.8681  152.4852 H   0  0  0  0  0  0  0  0  0  0  0  0
  144.5016  136.3274  151.5596 H   0  0  0  0  0  0  0  0  0  0  0  0
  144.8390  134.7234  149.9258 H   0  0  0  0  0  0  0  0  0  0  0  0
  146.4384  135.3228  150.2497 H   0  0  0  0  0  0  0  0  0  0  0  0
  145.2065  132.6885  151.1880 H   0  0  0  0  0  0  0  0  0  0  0  0
  146.4710  132.8945  150.0115 H   0  0  0  0  0  0  0  0  0  0  0  0
  147.4715  132.1209  152.0455 H   0  0  0  0  0  0  0  0  0  0  0  0
  148.0167  133.7603  151.8199 H   0  0  0  0  0  0  0  0  0  0  0  0
  145.5580  133.1186  153.5273 H   0  0  0  0  0  0  0  0  0  0  0  0
  147.1488  132.9331  154.1783 H   0  0  0  0  0  0  0  0  0  0  0  0
  147.6772  135.2222  154.0776 H   0  0  0  0  0  0  0  0  0  0  0  0
  146.0641  135.1203  154.7390 H   0  0  0  0  0  0  0  0  0  0  0  0
  146.9631  136.0757  152.1577 H   0  0  0  0  0  0  0  0  0  0  0  0
  1  2  1  0  0  0  0
  1 20  1  0  0  0  0
  1 21  1  0  0  0  0
  1 22  1  0  0  0  0
  2 19  1  0  0  0  0
  2  3  2  0  0  0  0
  3  4  1  0  0  0  0
  4  5  2  0  0  0  0
  5  6  1  0  0  0  0
  5 19  1  0  0  0  0
  6  7  1  0  0  0  0
  6 23  1  0  0  0  0
  7  8  2  0  0  0  0
  7  9  1  0  0  0  0
  9 10  1  0  0  0  0
  9 24  1  0  0  0  0
 10 11  1  0  0  0  0
 10 25  1  0  0  0  0
 10 26  1  0  0  0  0
 11 12  1  0  0  0  0
 11 27  1  0  0  0  0
 11 28  1  0  0  0  0
 12 18  1  0  0  0  0
 12 13  1  0  0  0  0
 12 41  1  0  0  0  0
 13 14  1  0  0  0  0
 13 29  1  0  0  0  0
 13 30  1  0  0  0  0
 14 15  1  0  0  0  0
 14 31  1  0  0  0  0
 14 32  1  0  0  0  0
 15 16  1  0  0  0  0
 15 33  1  0  0  0  0
 15 34  1  0  0  0  0
 16 17  1  0  0  0  0
 16 35  1  0  0  0  0
 16 36  1  0  0  0  0
 17 18  1  0  0  0  0
 17 37  1  0  0  0  0
 17 38  1  0  0  0  0
 18 39  1  0  0  0  0
 18 40  1  0  0  0  0
M  CHG  1  12   1
M  END
> <s_m_source_file>
AV-unprocessed.smi

> <i_m_source_file_index>
1638

> <i_lp_mmshare_version>
43012

> <i_f3d_flags>
0

> <s_epik_input>
W0NIM11jMW5uYyhzMSlbTkhdQyg9TylbTkhdW0NIMl1bQ0gyXU4yW0NIMl1bQ0gyXVtDSDJdW0NIMl1bQ0gyXVtDSDJdMg==

> <s_epik_cmdline>
J2VwaWtfcHl0aG9uJywgJy1waCcsICc3LjAnLCAnLXRuJywgJzgnLCAnLW1hJywgJzIwMCcsICctbWV0YWxfYmluZGluZycsICctaW1hZScsICc8aW5maWxlLm1hZT4nLCAnLW9tYWUnLCAnPG91dGZpbGUubWFlPic=

> <r_lp_tautomer_probability>
1

> <r_epik_Ionization_Penalty>
0.00683162

> <r_epik_Ionization_Penalty_Charging>
0.00256589

> <r_epik_Ionization_Penalty_Neutral>
0.00426573

> <r_epik_State_Penalty>
0.0020046

> <r_epik_Charging_Adjusted_Penalty>
0.00457048

> <i_epik_Tot_Q>
1

> <i_epik_Tot_abs_Q>
1

> <r_epik_Metal_State_Penalty>
0.375345

> <b_epik_Metal_Only>
0

> <s_lp_Force_Field>
OPLS_2005

> <r_lp_Energy>
20.2813

> <b_lp_Chiralities_Consistent>
1

> <s_lp_Variant>
AV-unprocessed.smi:1638-1

> <Gold.Version>
5.8.1

> <Gold.Id.Protein>
6NUR|6NUR_protein|mol2

> <Gold.PLP.Fitness>
44.9991

> <Gold.PLP.PLP>
-29.9406

> <Gold.PLP.part.hbond>
-6.0000

> <Gold.PLP.part.metal>
0.0000

> <Gold.PLP.part.buried>
-2.8551

> <Gold.PLP.part.nonpolar>
-20.9925

> <Gold.PLP.part.repulsive>
0.3091

> <Gold.PLP.ligand.clash>
0.0000

> <Gold.PLP.ligand.torsion>
0.7772

> <Gold.PLP.Chemscore.Hbond>
5.5220

> <Gold.PLP.Chemscore.CHOScore>
0.0000

> <Gold.PLP.Chemscore.Metal>
0.0000

> <Gold.Chemscore.Hbonds>
donor molecule, donor type, donor heavy atom, donor atom, acceptor molecule, acceptor atom, score
      L1  H     6    23       P1  7957  0.93
      L1  H     9    24       P1  7957  0.94
      L1  H    12    41       P1  7948  2.00
      P1  H  7989  7998       L1     4  0.65
      P1  H  7997  8008       L1     3  1.00

> <Gold.PLP.Chemscore.Internal.Correction>
0.0468

> <Gold.Rescore>
     Score         DG    S(hbond)    S(metal)    S(lipo)     H(rot)  DE(clash)    DE(int)     intcor
     17.46     -20.81       3.91        0.00      54.42       1.60       0.07       3.29       ----

> <Gold.Chemscore.Fitness>
17.4569

> <Gold.Chemscore.DG>
-20.8145

> <Gold.Chemscore.ZeroCoef>
-5.4800

> <Gold.Chemscore.Hbond>
3.9093

> <Gold.Chemscore.Metal>
0.0000

> <Gold.Chemscore.Lipo>
54.4185

> <Gold.Chemscore.Internal_Hbond>
0.0000

> <Gold.Chemscore.DEClash>
0.0652

> <Gold.Chemscore.DEInternal>
3.2924

> <Gold.Chemscore.Rot>
1.5975

> <Gold.Chemscore.Internal.Correction>
   9.000000E+99

> <Gold.Chemscore.Hbonds>
donor molecule, donor type, donor heavy atom, donor atom, acceptor molecule, acceptor atom, score
      L1  H     6    23       P1  7957  0.90
      L1  H     9    24       P1  7957  0.86
      L1  H    12    41       P1  7948  0.92
      P1  H  7989  7998       L1     4  0.05
      P1  H  7997  8008       L1     3  0.98

> <Gold.Chemscore.Hbond.Weighted>
-13.0571

> <Gold.Chemscore.Metal.Weighted>
-0.0000

> <Gold.Chemscore.Lipo.Weighted>
-6.3670

> <Gold.Chemscore.Internal_Hbond.Weighted>
0.0000

> <Gold.Chemscore.DEClash.Weighted>
0.0652

> <Gold.Chemscore.DEInternal.Weighted>
3.2924

> <Gold.Chemscore.Rot.Weighted>
4.0896

> <Gold.Chemscore.Internal.Correction.Weighted>
   9.000000E+99

> <Gold.Protein.RotatedTorsions>
[ 6907 6896 6895 6894 ] final -117.09 input  -60.11 | X-H torsion
[ 7974 7965 7964 7962 ] final  -44.11 input  175.53 | X-H torsion
[ 8008 7997 7996 7995 ] final  -25.41 input   59.86 | X-H torsion
[ 10167 10162 10161 10158 ] final  -55.52 input  -65.29 | X-H torsion
[ 10718 10713 10712 10709 ] final  -51.37 input   66.30 | X-H torsion
[ 10763 10752 10751 10750 ] final  -31.10 input  -60.55 | X-H torsion
[ 11005 11000 10999 10996 ] final -111.85 input  -57.11 | X-H torsion

> <Gold.Protein.ActiveResidues>
 VAL166  LYS551  ARG553  GLY616  TRP617  ASP618  TYR619  PRO620  LYS621  CYS622 
 ASP623  PHE694  ASN695  SER759  ASP760  ASP761  ALA762  ILE779  LEU786  VAL792 
 PHE793  MET794  SER795  GLU796  ALA797  LYS798  CYS799  TRP800  GLU811  SER814 

> <Gold.Protein.RotatedAtoms>
  150.8109  133.8425  159.3182 H   0  0  0  0  0  0  0  0  0  0  0  0  # atno 6907 bound_to 6896
  151.6210  135.1030  160.0111 H   0  0  0  0  0  0  0  0  0  0  0  0  # atno 6908 bound_to 6896
  152.4200  133.7061  159.6508 H   0  0  0  0  0  0  0  0  0  0  0  0  # atno 6909 bound_to 6896
  145.9953  140.7135  142.9297 H   0  0  0  0  0  0  0  0  0  0  0  0  # atno 7974 bound_to 7965
  154.4477  140.1927  156.0615 H   0  0  0  0  0  0  0  0  0  0  0  0  # atno 8008 bound_to 7997
  156.0579  140.3300  155.7400 H   0  0  0  0  0  0  0  0  0  0  0  0  # atno 8009 bound_to 7997
  155.5456  140.0590  157.2851 H   0  0  0  0  0  0  0  0  0  0  0  0  # atno 8010 bound_to 7997
  140.6370  143.2487  151.5093 H   0  0  0  0  0  0  0  0  0  0  0  0  # atno 10167 bound_to 10162
  156.1716  130.4149  149.9639 H   0  0  0  0  0  0  0  0  0  0  0  0  # atno 10718 bound_to 10713
  153.7919  135.6897  153.4870 H   0  0  0  0  0  0  0  0  0  0  0  0  # atno 10763 bound_to 10752
  153.1744  135.4530  154.9944 H   0  0  0  0  0  0  0  0  0  0  0  0  # atno 10764 bound_to 10752
  154.8041  135.3349  154.7414 H   0  0  0  0  0  0  0  0  0  0  0  0  # atno 10765 bound_to 10752
  141.0710  133.9380  157.2485 H   0  0  0  0  0  0  0  0  0  0  0  0  # atno 11005 bound_to 11000
  144.6902  140.3140  143.7243 LP  0  0  0  0  0  0  0  0  0  0  0  0  # atno 17320 bound_to 7965
  145.7569  139.1812  143.2289 LP  0  0  0  0  0  0  0  0  0  0  0  0  # atno 17321 bound_to 7965
  139.5580  144.2228  152.1644 LP  0  0  0  0  0  0  0  0  0  0  0  0  # atno 17342 bound_to 10162
  140.1487  144.5134  150.6700 LP  0  0  0  0  0  0  0  0  0  0  0  0  # atno 17343 bound_to 10162
  156.7437  130.9089  151.3633 LP  0  0  0  0  0  0  0  0  0  0  0  0  # atno 17370 bound_to 10713
  157.6807  130.9137  150.0259 LP  0  0  0  0  0  0  0  0  0  0  0  0  # atno 17371 bound_to 10713
  139.9523  135.0173  156.9029 LP  0  0  0  0  0  0  0  0  0  0  0  0  # atno 17394 bound_to 11000
  140.5674  134.0476  155.7419 LP  0  0  0  0  0  0  0  0  0  0  0  0  # atno 17395 bound_to 11000

$$$$
