AV-unprocessed.smi:1123|AV-procd|sdf|4832|dock7
  -GOLD-   22720 3393D 1   1.00000     0.00000
 Structure written by MMmdl.
 38 39  0  0  0  0  0  0  0  0  2 V2000
  152.7173  138.7319  154.8796 C   0  0  0  0  0  0  0  0  0  0  0  0
  151.4459  138.0136  154.3832 C   0  0  1  0  0  0  0  0  0  0  0  0
  151.1289  136.7426  155.1877 C   0  0  0  0  0  0  0  0  0  0  0  0
  151.7006  136.5125  156.2540 O   0  0  0  0  0  0  0  0  0  0  0  0
  150.2081  135.9183  154.6624 N   0  0  0  0  0  0  0  0  0  0  0  0
  149.7487  134.6805  155.2811 C   0  0  0  0  0  0  0  0  0  0  0  0
  149.4666  133.5913  154.2285 C   0  0  0  0  0  0  0  0  0  0  0  0
  148.3232  133.9394  153.3488 N   0  3  0  0  0  0  0  0  0  0  0  0
  147.8664  132.7884  152.5337 C   0  0  0  0  0  0  0  0  0  0  0  0
  146.7137  133.2077  151.6055 C   0  0  0  0  0  0  0  0  0  0  0  0
  145.6486  133.7437  152.3801 O   0  0  0  0  0  0  0  0  0  0  0  0
  146.0469  134.9031  153.1006 C   0  0  0  0  0  0  0  0  0  0  0  0
  147.1790  134.5423  154.0774 C   0  0  0  0  0  0  0  0  0  0  0  0
  150.2880  138.8991  154.3614 N   0  0  0  0  0  0  0  0  0  0  0  0
  149.0052  138.6279  154.1110 C   0  0  0  0  0  0  0  0  0  0  0  0
  148.2007  139.6754  154.2232 N   0  0  0  0  0  0  0  0  0  0  0  0
  149.1139  140.6268  154.5791 C   0  0  0  0  0  0  0  0  0  0  0  0
  150.3763  140.2132  154.6867 N   0  0  0  0  0  0  0  0  0  0  0  0
  153.5831  138.0700  154.8406 H   0  0  0  0  0  0  0  0  0  0  0  0
  152.6163  139.0828  155.9075 H   0  0  0  0  0  0  0  0  0  0  0  0
  152.9415  139.5984  154.2572 H   0  0  0  0  0  0  0  0  0  0  0  0
  151.6329  137.7063  153.3529 H   0  0  0  0  0  0  0  0  0  0  0  0
  149.7836  136.1772  153.7835 H   0  0  0  0  0  0  0  0  0  0  0  0
  150.4891  134.3508  156.0106 H   0  0  0  0  0  0  0  0  0  0  0  0
  148.8391  134.8998  155.8412 H   0  0  0  0  0  0  0  0  0  0  0  0
  150.3637  133.4706  153.6193 H   0  0  0  0  0  0  0  0  0  0  0  0
  149.2832  132.6241  154.6993 H   0  0  0  0  0  0  0  0  0  0  0  0
  148.6943  132.4047  151.9365 H   0  0  0  0  0  0  0  0  0  0  0  0
  147.5420  131.9799  153.1909 H   0  0  0  0  0  0  0  0  0  0  0  0
  147.0505  133.9408  150.8710 H   0  0  0  0  0  0  0  0  0  0  0  0
  146.3463  132.3453  151.0492 H   0  0  0  0  0  0  0  0  0  0  0  0
  146.3625  135.6858  152.4088 H   0  0  0  0  0  0  0  0  0  0  0  0
  145.1876  135.2904  153.6483 H   0  0  0  0  0  0  0  0  0  0  0  0
  146.8113  133.8399  154.8271 H   0  0  0  0  0  0  0  0  0  0  0  0
  147.4934  135.4393  154.6094 H   0  0  0  0  0  0  0  0  0  0  0  0
  148.6512  137.6427  153.8452 H   0  0  0  0  0  0  0  0  0  0  0  0
  148.8390  141.6535  154.7715 H   0  0  0  0  0  0  0  0  0  0  0  0
  148.6592  134.6327  152.6956 H   0  0  0  0  0  0  0  0  0  0  0  0
  1  2  1  0  0  0  0
  1 19  1  0  0  0  0
  1 20  1  0  0  0  0
  1 21  1  0  0  0  0
  2  3  1  0  0  0  0
  2 14  1  0  0  0  0
  2 22  1  0  0  0  0
  3  4  2  0  0  0  0
  3  5  1  0  0  0  0
  5  6  1  0  0  0  0
  5 23  1  0  0  0  0
  6  7  1  0  0  0  0
  6 24  1  0  0  0  0
  6 25  1  0  0  0  0
  7  8  1  0  0  0  0
  7 26  1  0  0  0  0
  7 27  1  0  0  0  0
  8 13  1  0  0  0  0
  8  9  1  0  0  0  0
  8 38  1  0  0  0  0
  9 10  1  0  0  0  0
  9 28  1  0  0  0  0
  9 29  1  0  0  0  0
 10 11  1  0  0  0  0
 10 30  1  0  0  0  0
 10 31  1  0  0  0  0
 11 12  1  0  0  0  0
 12 13  1  0  0  0  0
 12 32  1  0  0  0  0
 12 33  1  0  0  0  0
 13 34  1  0  0  0  0
 13 35  1  0  0  0  0
 14 18  1  0  0  0  0
 14 15  1  0  0  0  0
 15 16  2  0  0  0  0
 15 36  1  0  0  0  0
 16 17  1  0  0  0  0
 17 18  2  0  0  0  0
 17 37  1  0  0  0  0
M  CHG  1   8   1
M  END
> <s_m_source_file>
AV-unprocessed.smi

> <i_m_source_file_index>
1123

> <i_lp_mmshare_version>
43012

> <i_f3d_flags>
0

> <s_epik_input>
bjFbY0hdbltjSF1uMVtDQEhdKFtDSDNdKUMoPU8pW05IXVtDSDJdW0NIMl1OMltDSDJdW0NIMl1PW0NIMl1bQ0gyXTI=

> <s_epik_cmdline>
J2VwaWtfcHl0aG9uJywgJy1waCcsICc3LjAnLCAnLXRuJywgJzgnLCAnLW1hJywgJzIwMCcsICctbWV0YWxfYmluZGluZycsICctaW1hZScsICc8aW5maWxlLm1hZT4nLCAnLW9tYWUnLCAnPG91dGZpbGUubWFlPic=

> <r_lp_tautomer_probability>
1

> <r_epik_Ionization_Penalty>
0.71326

> <r_epik_Ionization_Penalty_Charging>
0.713252

> <r_epik_Ionization_Penalty_Neutral>
7.98515e-06

> <r_epik_State_Penalty>
0.737017

> <r_epik_Charging_Adjusted_Penalty>
1.45027

> <i_epik_Tot_Q>
1

> <i_epik_Tot_abs_Q>
1

> <r_epik_Metal_State_Penalty>
0.73702

> <b_epik_Metal_Only>
0

> <s_lp_Force_Field>
OPLS_2005

> <r_lp_Energy>
21.0283

> <b_lp_Chiralities_Consistent>
1

> <s_lp_Variant>
AV-unprocessed.smi:1123-4

> <Gold.Version>
5.8.1

> <Gold.Id.Protein>
6NUR|6NUR_protein|mol2

> <Gold.PLP.Fitness>
48.9632

> <Gold.PLP.PLP>
-32.0958

> <Gold.PLP.part.hbond>
-4.6027

> <Gold.PLP.part.metal>
0.0000

> <Gold.PLP.part.buried>
-3.1548

> <Gold.PLP.part.nonpolar>
-25.3145

> <Gold.PLP.part.repulsive>
0.3599

> <Gold.PLP.ligand.clash>
0.0000

> <Gold.PLP.ligand.torsion>
0.6286

> <Gold.PLP.Chemscore.Hbond>
5.0000

> <Gold.PLP.Chemscore.CHOScore>
1.0000

> <Gold.PLP.Chemscore.Metal>
0.0000

> <Gold.Chemscore.Hbonds>
donor molecule, donor type, donor heavy atom, donor atom, acceptor molecule, acceptor atom, score
      L1  H     5    23       P1  7948  0.94
      L1  H     8    38       P1  7948  1.40
      P1  H  7989  7998       L1    18  1.00
      P1  H 10752 10765       L1     4  0.29
      L1  C    15    36       P1  7948  1.00

> <Gold.PLP.Chemscore.Internal.Correction>
0.1246

> <Gold.Rescore>
     Score         DG    S(hbond)    S(metal)    S(lipo)     H(rot)  DE(clash)    DE(int)     intcor
     13.15     -15.20       3.45        0.00      43.58       2.69       0.24       1.81       ----

> <Gold.Chemscore.Fitness>
13.1520

> <Gold.Chemscore.DG>
-15.1956

> <Gold.Chemscore.ZeroCoef>
-5.4800

> <Gold.Chemscore.Hbond>
3.4455

> <Gold.Chemscore.Metal>
0.0000

> <Gold.Chemscore.Lipo>
43.5756

> <Gold.Chemscore.Internal_Hbond>
0.0000

> <Gold.Chemscore.DEClash>
0.2378

> <Gold.Chemscore.DEInternal>
1.8058

> <Gold.Chemscore.Rot>
2.6916

> <Gold.Chemscore.Internal.Correction>
   9.000000E+99

> <Gold.Chemscore.Hbonds>
donor molecule, donor type, donor heavy atom, donor atom, acceptor molecule, acceptor atom, score
      L1  H     5    23       P1  7948  0.27
      L1  H     8    38       P1  7948  0.07
      P1  H  7989  7998       L1    18  0.42
      P1  H 10752 10765       L1     4  0.01

> <Gold.Chemscore.Hbond.Weighted>
-11.5078

> <Gold.Chemscore.Metal.Weighted>
-0.0000

> <Gold.Chemscore.Lipo.Weighted>
-5.0984

> <Gold.Chemscore.Internal_Hbond.Weighted>
0.0000

> <Gold.Chemscore.DEClash.Weighted>
0.2378

> <Gold.Chemscore.DEInternal.Weighted>
1.8058

> <Gold.Chemscore.Rot.Weighted>
6.8906

> <Gold.Chemscore.Internal.Correction.Weighted>
   9.000000E+99

> <Gold.Protein.RotatedTorsions>
[ 6907 6896 6895 6894 ] final   62.21 input  -60.11 | X-H torsion
[ 7974 7965 7964 7962 ] final  151.50 input  175.53 | X-H torsion
[ 8008 7997 7996 7995 ] final  -42.82 input   59.86 | X-H torsion
[ 10167 10162 10161 10158 ] final   70.57 input  -65.29 | X-H torsion
[ 10718 10713 10712 10709 ] final  -77.64 input   66.30 | X-H torsion
[ 10763 10752 10751 10750 ] final -142.17 input  -60.55 | X-H torsion
[ 11005 11000 10999 10996 ] final   31.73 input  -57.11 | X-H torsion

> <Gold.Protein.ActiveResidues>
 VAL166  LYS551  ARG553  GLY616  TRP617  ASP618  TYR619  PRO620  LYS621  CYS622 
 ASP623  PHE694  ASN695  SER759  ASP760  ASP761  ALA762  ILE779  LEU786  VAL792 
 PHE793  MET794  SER795  GLU796  ALA797  LYS798  CYS799  TRP800  GLU811  SER814 

> <Gold.Protein.RotatedAtoms>
  152.4153  134.6052  160.0010 H   0  0  0  0  0  0  0  0  0  0  0  0  # atno 6907 bound_to 6896
  151.6217  133.3333  159.3097 H   0  0  0  0  0  0  0  0  0  0  0  0  # atno 6908 bound_to 6896
  150.8042  134.7195  159.6695 H   0  0  0  0  0  0  0  0  0  0  0  0  # atno 6909 bound_to 6896
  144.8288  139.6545  143.6068 H   0  0  0  0  0  0  0  0  0  0  0  0  # atno 7974 bound_to 7965
  154.3998  140.1463  156.3418 H   0  0  0  0  0  0  0  0  0  0  0  0  # atno 8008 bound_to 7997
  155.8349  140.3464  155.5574 H   0  0  0  0  0  0  0  0  0  0  0  0  # atno 8009 bound_to 7997
  155.8148  140.0889  157.1873 H   0  0  0  0  0  0  0  0  0  0  0  0  # atno 8010 bound_to 7997
  140.0555  144.5276  150.7332 H   0  0  0  0  0  0  0  0  0  0  0  0  # atno 10167 bound_to 10162
  156.0139  130.4497  150.3376 H   0  0  0  0  0  0  0  0  0  0  0  0  # atno 10718 bound_to 10713
  154.8519  135.3503  154.5984 H   0  0  0  0  0  0  0  0  0  0  0  0  # atno 10763 bound_to 10752
  153.6593  135.6990  153.5187 H   0  0  0  0  0  0  0  0  0  0  0  0  # atno 10764 bound_to 10752
  153.2830  135.4257  155.1054 H   0  0  0  0  0  0  0  0  0  0  0  0  # atno 10765 bound_to 10752
  140.2808  134.2975  155.7801 H   0  0  0  0  0  0  0  0  0  0  0  0  # atno 11005 bound_to 11000
  146.2592  139.6372  142.9373 LP  0  0  0  0  0  0  0  0  0  0  0  0  # atno 17320 bound_to 7965
  145.4941  141.0438  143.2577 LP  0  0  0  0  0  0  0  0  0  0  0  0  # atno 17321 bound_to 7965
  140.7197  143.2577  151.4320 LP  0  0  0  0  0  0  0  0  0  0  0  0  # atno 17342 bound_to 10162
  139.5926  144.1465  152.2107 LP  0  0  0  0  0  0  0  0  0  0  0  0  # atno 17343 bound_to 10162
  157.1472  131.0311  151.2901 LP  0  0  0  0  0  0  0  0  0  0  0  0  # atno 17370 bound_to 10713
  157.4422  130.7551  149.7079 LP  0  0  0  0  0  0  0  0  0  0  0  0  # atno 17371 bound_to 10713
  141.2163  133.7524  156.9478 LP  0  0  0  0  0  0  0  0  0  0  0  0  # atno 17394 bound_to 11000
  140.1285  134.9371  157.2304 LP  0  0  0  0  0  0  0  0  0  0  0  0  # atno 17395 bound_to 11000

$$$$
