AV-unprocessed.smi:2090|AV-procd|sdf|8534|dock5
  -GOLD-   2272011253D 1   1.00000     0.00000
 Structure written by MMmdl.
 41 42  0  0  0  0  0  0  0  0  3 V2000
  149.0885  140.6716  154.2815 C   0  0  0  0  0  0  0  0  0  0  0  0
  149.9143  139.4433  154.4595 C   0  0  0  0  0  0  0  0  0  0  0  0
  149.6054  138.1127  154.4795 C   0  0  0  0  0  0  0  0  0  0  0  0
  150.8669  137.4892  154.6817 C   0  0  0  0  0  0  0  0  0  0  0  0
  151.0859  136.1689  154.7843 N   0  5  0  0  0  0  0  0  0  0  0  0
  150.0792  135.3381  155.1392 C   0  0  0  0  0  0  0  0  0  0  0  0
  149.6274  135.1761  156.2752 O   0  0  0  0  0  0  0  0  0  0  0  0
  149.5626  134.6490  154.1133 N   0  0  0  0  0  0  0  0  0  0  0  0
  148.4745  133.6867  154.2153 C   0  0  0  0  0  0  0  0  0  0  0  0
  148.7177  132.5001  153.2704 C   0  0  0  0  0  0  0  0  0  0  0  0
  147.5924  132.2981  152.3237 N   0  3  2  0  0  0  0  0  0  0  0  0
  147.0906  133.5792  151.7633 C   0  0  0  0  0  0  0  0  0  0  0  0
  146.0242  133.3342  150.6823 C   0  0  0  0  0  0  0  0  0  0  0  0
  144.8561  132.4966  151.2287 C   0  0  1  0  0  0  0  0  0  0  0  0
  143.8018  132.2182  150.1479 C   0  0  0  0  0  0  0  0  0  0  0  0
  145.4074  131.1953  151.8355 C   0  0  0  0  0  0  0  0  0  0  0  0
  146.4863  131.4837  152.8932 C   0  0  0  0  0  0  0  0  0  0  0  0
  151.8518  138.3648  154.7933 N   0  0  0  0  0  0  0  0  0  0  0  0
  151.2503  139.6202  154.6436 O   0  0  0  0  0  0  0  0  0  0  0  0
  148.2091  140.6411  154.9246 H   0  0  0  0  0  0  0  0  0  0  0  0
  148.7507  140.7617  153.2490 H   0  0  0  0  0  0  0  0  0  0  0  0
  149.6572  141.5677  154.5309 H   0  0  0  0  0  0  0  0  0  0  0  0
  148.6336  137.6567  154.3636 H   0  0  0  0  0  0  0  0  0  0  0  0
  149.9561  134.8112  153.1977 H   0  0  0  0  0  0  0  0  0  0  0  0
  148.3956  133.3309  155.2440 H   0  0  0  0  0  0  0  0  0  0  0  0
  147.5420  134.1983  153.9765 H   0  0  0  0  0  0  0  0  0  0  0  0
  149.6505  132.6242  152.7179 H   0  0  0  0  0  0  0  0  0  0  0  0
  148.8392  131.6046  153.8821 H   0  0  0  0  0  0  0  0  0  0  0  0
  146.6805  134.1934  152.5666 H   0  0  0  0  0  0  0  0  0  0  0  0
  147.9174  134.1397  151.3252 H   0  0  0  0  0  0  0  0  0  0  0  0
  145.6554  134.2897  150.3079 H   0  0  0  0  0  0  0  0  0  0  0  0
  146.4795  132.8250  149.8314 H   0  0  0  0  0  0  0  0  0  0  0  0
  144.3727  133.0650  152.0249 H   0  0  0  0  0  0  0  0  0  0  0  0
  144.2249  131.6562  149.3147 H   0  0  0  0  0  0  0  0  0  0  0  0
  143.3939  133.1475  149.7492 H   0  0  0  0  0  0  0  0  0  0  0  0
  142.9701  131.6398  150.5511 H   0  0  0  0  0  0  0  0  0  0  0  0
  144.5973  130.6215  152.2873 H   0  0  0  0  0  0  0  0  0  0  0  0
  145.8285  130.5676  151.0487 H   0  0  0  0  0  0  0  0  0  0  0  0
  146.8675  130.5363  153.2728 H   0  0  0  0  0  0  0  0  0  0  0  0
  146.0466  132.0086  153.7428 H   0  0  0  0  0  0  0  0  0  0  0  0
  147.9698  131.7793  151.5434 H   0  0  0  0  0  0  0  0  0  0  0  0
  1  2  1  0  0  0  0
  1 20  1  0  0  0  0
  1 21  1  0  0  0  0
  1 22  1  0  0  0  0
  2 19  1  0  0  0  0
  2  3  2  0  0  0  0
  3  4  1  0  0  0  0
  3 23  1  0  0  0  0
  4  5  1  0  0  0  0
  4 18  2  0  0  0  0
  5  6  1  0  0  0  0
  6  7  2  0  0  0  0
  6  8  1  0  0  0  0
  8  9  1  0  0  0  0
  8 24  1  0  0  0  0
  9 10  1  0  0  0  0
  9 25  1  0  0  0  0
  9 26  1  0  0  0  0
 10 11  1  0  0  0  0
 10 27  1  0  0  0  0
 10 28  1  0  0  0  0
 11 17  1  0  0  0  0
 11 12  1  0  0  0  0
 11 41  1  0  0  0  0
 12 13  1  0  0  0  0
 12 29  1  0  0  0  0
 12 30  1  0  0  0  0
 13 14  1  0  0  0  0
 13 31  1  0  0  0  0
 13 32  1  0  0  0  0
 14 15  1  0  0  0  0
 14 16  1  0  0  0  0
 14 33  1  0  0  0  0
 15 34  1  0  0  0  0
 15 35  1  0  0  0  0
 15 36  1  0  0  0  0
 16 17  1  0  0  0  0
 16 37  1  0  0  0  0
 16 38  1  0  0  0  0
 17 39  1  0  0  0  0
 17 40  1  0  0  0  0
 18 19  1  0  0  0  0
M  CHG  1   5  -1
M  CHG  1  11   1
M  END
> <s_m_source_file>
AV-unprocessed.smi

> <i_m_source_file_index>
2090

> <i_lp_mmshare_version>
43012

> <i_f3d_flags>
0

> <s_epik_input>
W0NIM11jMVtjSF1jKG5vMSlbTkhdQyg9TylbTkhdW0NIMl1bQ0gyXU4yW0NIMl1bQ0gyXVtDSF0oW0NIM10pW0NIMl1bQ0gyXTI=

> <s_epik_cmdline>
J2VwaWtfcHl0aG9uJywgJy1waCcsICc3LjAnLCAnLXRuJywgJzgnLCAnLW1hJywgJzIwMCcsICctbWV0YWxfYmluZGluZycsICctaW1hZScsICc8aW5maWxlLm1hZT4nLCAnLW9tYWUnLCAnPG91dGZpbGUubWFlPic=

> <r_epik_Ionization_Penalty>
6.22503

> <r_epik_Ionization_Penalty_Charging>
6.22494

> <r_epik_Ionization_Penalty_Neutral>
9.3589e-05

> <r_epik_State_Penalty>
6.22491

> <r_epik_Charging_Adjusted_Penalty>
12.4498

> <i_epik_Tot_Q>
0

> <i_epik_Tot_abs_Q>
2

> <r_epik_Metal_State_Penalty>
2.16853

> <b_epik_Metal_Only>
1

> <s_lp_Force_Field>
OPLS_2005

> <r_lp_Energy>
5.4778

> <b_lp_Chiralities_Consistent>
1

> <s_lp_Variant>
AV-unprocessed.smi:2090-3

> <Gold.Version>
5.8.1

> <Gold.Id.Protein>
6NUR|6NUR_protein|mol2

> <Gold.PLP.Fitness>
46.0015

> <Gold.PLP.PLP>
-37.0864

> <Gold.PLP.part.hbond>
-4.1428

> <Gold.PLP.part.metal>
0.0000

> <Gold.PLP.part.buried>
-5.9449

> <Gold.PLP.part.nonpolar>
-27.9112

> <Gold.PLP.part.repulsive>
0.3772

> <Gold.PLP.ligand.clash>
0.0000

> <Gold.PLP.ligand.torsion>
1.5609

> <Gold.PLP.Chemscore.Hbond>
4.0000

> <Gold.PLP.Chemscore.CHOScore>
0.0000

> <Gold.PLP.Chemscore.Metal>
0.0000

> <Gold.Chemscore.Hbonds>
donor molecule, donor type, donor heavy atom, donor atom, acceptor molecule, acceptor atom, score
      L1  H    11    41       P1 10747  1.00
      P1  H  7989  7998       L1    19  1.00
      P1  H 10752 10764       L1     5  2.00

> <Gold.PLP.Chemscore.Internal.Correction>
0.0369

> <Gold.Rescore>
     Score         DG    S(hbond)    S(metal)    S(lipo)     H(rot)  DE(clash)    DE(int)     intcor
     18.05     -19.58       2.73        0.00      76.24       1.54       0.07       1.47       ----

> <Gold.Chemscore.Fitness>
18.0495

> <Gold.Chemscore.DG>
-19.5821

> <Gold.Chemscore.ZeroCoef>
-5.4800

> <Gold.Chemscore.Hbond>
2.7324

> <Gold.Chemscore.Metal>
0.0000

> <Gold.Chemscore.Lipo>
76.2449

> <Gold.Chemscore.Internal_Hbond>
0.0000

> <Gold.Chemscore.DEClash>
0.0668

> <Gold.Chemscore.DEInternal>
1.4659

> <Gold.Chemscore.Rot>
1.5409

> <Gold.Chemscore.Internal.Correction>
   9.000000E+99

> <Gold.Chemscore.Hbonds>
donor molecule, donor type, donor heavy atom, donor atom, acceptor molecule, acceptor atom, score
      L1  H    11    41       P1 10747  1.00
      P1  H  7989  7998       L1    19  0.40
      P1  H 10752 10764       L1     5  0.89

> <Gold.Chemscore.Hbond.Weighted>
-9.1261

> <Gold.Chemscore.Metal.Weighted>
-0.0000

> <Gold.Chemscore.Lipo.Weighted>
-8.9207

> <Gold.Chemscore.Internal_Hbond.Weighted>
0.0000

> <Gold.Chemscore.DEClash.Weighted>
0.0668

> <Gold.Chemscore.DEInternal.Weighted>
1.4659

> <Gold.Chemscore.Rot.Weighted>
3.9446

> <Gold.Chemscore.Internal.Correction.Weighted>
   9.000000E+99

> <Gold.Protein.RotatedTorsions>
[ 6907 6896 6895 6894 ] final  138.32 input  -60.11 | X-H torsion
[ 7974 7965 7964 7962 ] final  120.20 input  175.53 | X-H torsion
[ 8008 7997 7996 7995 ] final  107.37 input   59.86 | X-H torsion
[ 10167 10162 10161 10158 ] final  -87.56 input  -65.29 | X-H torsion
[ 10718 10713 10712 10709 ] final   69.33 input   66.30 | X-H torsion
[ 10763 10752 10751 10750 ] final  -71.17 input  -60.55 | X-H torsion
[ 11005 11000 10999 10996 ] final    1.24 input  -57.11 | X-H torsion

> <Gold.Protein.ActiveResidues>
 VAL166  LYS551  ARG553  GLY616  TRP617  ASP618  TYR619  PRO620  LYS621  CYS622 
 ASP623  PHE694  ASN695  SER759  ASP760  ASP761  ALA762  ILE779  LEU786  VAL792 
 PHE793  MET794  SER795  GLU796  ALA797  LYS798  CYS799  TRP800  GLU811  SER814 

> <Gold.Protein.RotatedAtoms>
  152.2679  133.5356  159.5421 H   0  0  0  0  0  0  0  0  0  0  0  0  # atno 6907 bound_to 6896
  150.7148  134.0738  159.3883 H   0  0  0  0  0  0  0  0  0  0  0  0  # atno 6908 bound_to 6896
  151.8654  135.0509  160.0524 H   0  0  0  0  0  0  0  0  0  0  0  0  # atno 6909 bound_to 6896
  145.1340  139.3309  143.4650 H   0  0  0  0  0  0  0  0  0  0  0  0  # atno 7974 bound_to 7965
  156.1819  140.3096  155.9165 H   0  0  0  0  0  0  0  0  0  0  0  0  # atno 8008 bound_to 7997
  155.3365  140.0463  157.3061 H   0  0  0  0  0  0  0  0  0  0  0  0  # atno 8009 bound_to 7997
  154.5352  140.2243  155.8745 H   0  0  0  0  0  0  0  0  0  0  0  0  # atno 8010 bound_to 7997
  140.3832  143.2739  151.9357 H   0  0  0  0  0  0  0  0  0  0  0  0  # atno 10167 bound_to 10162
  157.6339  130.9420  150.0498 H   0  0  0  0  0  0  0  0  0  0  0  0  # atno 10718 bound_to 10713
  154.4280  135.5971  153.6051 H   0  0  0  0  0  0  0  0  0  0  0  0  # atno 10763 bound_to 10752
  152.9797  135.5968  154.3874 H   0  0  0  0  0  0  0  0  0  0  0  0  # atno 10764 bound_to 10752
  154.3708  135.2841  155.2246 H   0  0  0  0  0  0  0  0  0  0  0  0  # atno 10765 bound_to 10752
  140.6176  133.9691  155.8208 H   0  0  0  0  0  0  0  0  0  0  0  0  # atno 11005 bound_to 11000
  146.3511  140.1350  142.8596 LP  0  0  0  0  0  0  0  0  0  0  0  0  # atno 17320 bound_to 7965
  145.0604  140.9084  143.4942 LP  0  0  0  0  0  0  0  0  0  0  0  0  # atno 17321 bound_to 7965
  139.4794  144.5798  151.7951 LP  0  0  0  0  0  0  0  0  0  0  0  0  # atno 17342 bound_to 10162
  140.4916  144.1302  150.5951 LP  0  0  0  0  0  0  0  0  0  0  0  0  # atno 17343 bound_to 10162
  156.1564  130.3643  149.9363 LP  0  0  0  0  0  0  0  0  0  0  0  0  # atno 17370 bound_to 10713
  156.7371  130.9065  151.3630 LP  0  0  0  0  0  0  0  0  0  0  0  0  # atno 17371 bound_to 10713
  141.0765  134.0127  157.3450 LP  0  0  0  0  0  0  0  0  0  0  0  0  # atno 17394 bound_to 11000
  139.9166  135.0197  156.7906 LP  0  0  0  0  0  0  0  0  0  0  0  0  # atno 17395 bound_to 11000

$$$$
