AV-unprocessed.smi:598|AV-procd|sdf|3025|dock6
  -GOLD-   2262023533D 1   1.00000     0.00000
 Structure written by MMmdl.
 43 44  0  0  0  0  0  0  0  0  3 V2000
  152.4903  142.6335  161.3228 C   0  0  0  0  0  0  0  0  0  0  0  0
  152.7839  143.4684  160.0593 C   0  0  2  0  0  0  0  0  0  0  0  0
  152.5253  144.9699  160.2985 C   0  0  0  0  0  0  0  0  0  0  0  0
  151.0255  145.2953  160.3777 C   0  0  0  0  0  0  0  0  0  0  0  0
  150.2880  144.8168  159.1197 C   0  0  0  0  0  0  0  0  0  0  0  0
  150.5197  143.3153  158.8515 C   0  0  1  0  0  0  0  0  0  0  0  0
  149.8640  142.9354  157.6016 N   0  0  0  0  0  0  0  0  0  0  0  0
  149.3246  141.7356  157.3386 C   0  0  0  0  0  0  0  0  0  0  0  0
  149.3031  140.8110  158.1521 O   0  0  0  0  0  0  0  0  0  0  0  0
  148.6978  141.5722  155.9469 C   0  0  0  0  0  0  0  0  0  0  0  0
  149.0998  140.3257  155.2735 N   0  0  0  0  0  0  0  0  0  0  0  0
  150.4637  139.9766  155.3317 C   0  0  0  0  0  0  0  0  0  0  0  0
  150.9431  138.8623  154.7447 C   0  0  0  0  0  0  0  0  0  0  0  0
  152.3476  138.5224  154.8094 N   0  3  0  0  0  0  0  0  0  0  0  0
  152.7359  137.5122  154.2315 O   0  0  0  0  0  0  0  0  0  0  0  0
  153.1083  139.2515  155.4394 O   0  5  0  0  0  0  0  0  0  0  0  0
  150.0023  138.0139  154.0390 C   0  0  0  0  0  0  0  0  0  0  0  0
  148.6973  138.3440  153.9772 C   0  0  0  0  0  0  0  0  0  0  0  0
  148.1783  139.5591  154.6138 C   0  0  0  0  0  0  0  0  0  0  0  0
  146.9881  139.8688  154.5570 O   0  0  0  0  0  0  0  0  0  0  0  0
  152.0337  142.9851  158.7888 C   0  0  2  0  0  0  0  0  0  0  0  0
  152.3131  141.5026  158.4702 C   0  0  0  0  0  0  0  0  0  0  0  0
  151.4305  142.6260  161.5755 H   0  0  0  0  0  0  0  0  0  0  0  0
  153.0286  143.0308  162.1837 H   0  0  0  0  0  0  0  0  0  0  0  0
  152.8084  141.5981  161.2024 H   0  0  0  0  0  0  0  0  0  0  0  0
  153.8522  143.3616  159.8660 H   0  0  0  0  0  0  0  0  0  0  0  0
  153.0271  145.3008  161.2083 H   0  0  0  0  0  0  0  0  0  0  0  0
  152.9695  145.5444  159.4845 H   0  0  0  0  0  0  0  0  0  0  0  0
  150.5873  144.8301  161.2612 H   0  0  0  0  0  0  0  0  0  0  0  0
  150.8876  146.3699  160.4993 H   0  0  0  0  0  0  0  0  0  0  0  0
  149.2217  145.0204  159.2247 H   0  0  0  0  0  0  0  0  0  0  0  0
  150.6289  145.3997  158.2629 H   0  0  0  0  0  0  0  0  0  0  0  0
  150.0778  142.7408  159.6674 H   0  0  0  0  0  0  0  0  0  0  0  0
  149.8300  143.6379  156.8772 H   0  0  0  0  0  0  0  0  0  0  0  0
  147.6136  141.6163  156.0570 H   0  0  0  0  0  0  0  0  0  0  0  0
  148.9560  142.4335  155.3275 H   0  0  0  0  0  0  0  0  0  0  0  0
  151.0828  140.6766  155.8739 H   0  0  0  0  0  0  0  0  0  0  0  0
  150.3373  137.1084  153.5544 H   0  0  0  0  0  0  0  0  0  0  0  0
  148.0144  137.6979  153.4451 H   0  0  0  0  0  0  0  0  0  0  0  0
  152.4485  143.5553  157.9556 H   0  0  0  0  0  0  0  0  0  0  0  0
  151.8265  140.8395  159.1858 H   0  0  0  0  0  0  0  0  0  0  0  0
  153.3825  141.2917  158.4908 H   0  0  0  0  0  0  0  0  0  0  0  0
  151.9524  141.2315  157.4779 H   0  0  0  0  0  0  0  0  0  0  0  0
  1  2  1  0  0  0  0
  1 23  1  0  0  0  0
  1 24  1  0  0  0  0
  1 25  1  0  0  0  0
  2 21  1  0  0  0  0
  2  3  1  0  0  0  0
  2 26  1  0  0  0  0
  3  4  1  0  0  0  0
  3 27  1  0  0  0  0
  3 28  1  0  0  0  0
  4  5  1  0  0  0  0
  4 29  1  0  0  0  0
  4 30  1  0  0  0  0
  5  6  1  0  0  0  0
  5 31  1  0  0  0  0
  5 32  1  0  0  0  0
  6  7  1  0  0  0  0
  6 21  1  0  0  0  0
  6 33  1  0  0  0  0
  7  8  1  0  0  0  0
  7 34  1  0  0  0  0
  8  9  2  0  0  0  0
  8 10  1  0  0  0  0
 10 11  1  0  0  0  0
 10 35  1  0  0  0  0
 10 36  1  0  0  0  0
 11 19  1  0  0  0  0
 11 12  1  0  0  0  0
 12 13  2  0  0  0  0
 12 37  1  0  0  0  0
 13 14  1  0  0  0  0
 13 17  1  0  0  0  0
 14 15  2  0  0  0  0
 14 16  1  0  0  0  0
 17 18  2  0  0  0  0
 17 38  1  0  0  0  0
 18 19  1  0  0  0  0
 18 39  1  0  0  0  0
 19 20  2  0  0  0  0
 21 22  1  0  0  0  0
 21 40  1  0  0  0  0
 22 41  1  0  0  0  0
 22 42  1  0  0  0  0
 22 43  1  0  0  0  0
M  CHG  1  14   1
M  CHG  1  16  -1
M  END
> <s_m_source_file>
AV-unprocessed.smi

> <i_m_source_file_index>
598

> <i_lp_mmshare_version>
43012

> <i_f3d_flags>
0

> <s_epik_input>
W0NIM11bQ0BASF0xW0NIMl1bQ0gyXVtDSDJdW0NASF0oW0NASF0xW0NIM10pW05IXUMoPU8pW0NIMl1uMltjSF1jKFtOK10oPU8pW08tXSlbY0hdW2NIXWMyPU8=

> <s_epik_cmdline>
J2VwaWtfcHl0aG9uJywgJy1waCcsICc3LjAnLCAnLXRuJywgJzgnLCAnLW1hJywgJzIwMCcsICctbWV0YWxfYmluZGluZycsICctaW1hZScsICc8aW5maWxlLm1hZT4nLCAnLW9tYWUnLCAnPG91dGZpbGUubWFlPic=

> <r_lp_tautomer_probability>
1

> <r_epik_Ionization_Penalty>
1.91291e-08

> <r_epik_Ionization_Penalty_Charging>
8.21931e-11

> <r_epik_Ionization_Penalty_Neutral>
1.90469e-08

> <r_epik_State_Penalty>
-0

> <r_epik_Charging_Adjusted_Penalty>
8.21931e-11

> <i_epik_Tot_Q>
0

> <i_epik_Tot_abs_Q>
2

> <r_epik_Metal_State_Penalty>
-0

> <b_epik_Metal_Only>
0

> <s_lp_Force_Field>
OPLS_2005

> <r_lp_Energy>
25.21

> <b_lp_Chiralities_Consistent>
1

> <s_lp_Variant>
AV-unprocessed.smi:598-5

> <Gold.Version>
5.8.1

> <Gold.Id.Protein>
6NUR|6NUR_protein|mol2

> <Gold.PLP.Fitness>
43.6783

> <Gold.PLP.PLP>
-37.7607

> <Gold.PLP.part.hbond>
-2.9206

> <Gold.PLP.part.metal>
0.0000

> <Gold.PLP.part.buried>
0.6826

> <Gold.PLP.part.nonpolar>
-35.3447

> <Gold.PLP.part.repulsive>
0.2325

> <Gold.PLP.ligand.clash>
0.0000

> <Gold.PLP.ligand.torsion>
0.7180

> <Gold.PLP.Chemscore.Hbond>
2.4480

> <Gold.PLP.Chemscore.CHOScore>
0.0000

> <Gold.PLP.Chemscore.Metal>
0.0000

> <Gold.Chemscore.Hbonds>
donor molecule, donor type, donor heavy atom, donor atom, acceptor molecule, acceptor atom, score
      L1  H     7    34       P1  8028  1.00
      P1  H  7997  8009       L1    16  1.00
      P1  H 10752 10765       L1    15  0.53

> <Gold.PLP.Chemscore.Internal.Correction>
0.0096

> <Gold.Rescore>
     Score         DG    S(hbond)    S(metal)    S(lipo)     H(rot)  DE(clash)    DE(int)     intcor
     20.83     -23.24       2.53        0.00     113.24       1.54       1.62       0.78       ----

> <Gold.Chemscore.Fitness>
20.8312

> <Gold.Chemscore.DG>
-23.2370

> <Gold.Chemscore.ZeroCoef>
-5.4800

> <Gold.Chemscore.Hbond>
2.5295

> <Gold.Chemscore.Metal>
0.0000

> <Gold.Chemscore.Lipo>
113.2402

> <Gold.Chemscore.Internal_Hbond>
0.0000

> <Gold.Chemscore.DEClash>
1.6216

> <Gold.Chemscore.DEInternal>
0.7842

> <Gold.Chemscore.Rot>
1.5393

> <Gold.Chemscore.Internal.Correction>
   9.000000E+99

> <Gold.Chemscore.Hbonds>
donor molecule, donor type, donor heavy atom, donor atom, acceptor molecule, acceptor atom, score
      L1  H     7    34       P1  8028  0.95
      P1  H  7997  8009       L1    16  0.99
      P1  H 10752 10765       L1    15  0.54

> <Gold.Chemscore.Hbond.Weighted>
-8.4486

> <Gold.Chemscore.Metal.Weighted>
-0.0000

> <Gold.Chemscore.Lipo.Weighted>
-13.2491

> <Gold.Chemscore.Internal_Hbond.Weighted>
0.0000

> <Gold.Chemscore.DEClash.Weighted>
1.6216

> <Gold.Chemscore.DEInternal.Weighted>
0.7842

> <Gold.Chemscore.Rot.Weighted>
3.9407

> <Gold.Chemscore.Internal.Correction.Weighted>
   9.000000E+99

> <Gold.Protein.RotatedTorsions>
[ 6907 6896 6895 6894 ] final  156.05 input  -60.11 | X-H torsion
[ 7974 7965 7964 7962 ] final  -56.68 input  175.53 | X-H torsion
[ 8008 7997 7996 7995 ] final -156.46 input   59.86 | X-H torsion
[ 10167 10162 10161 10158 ] final -103.48 input  -65.29 | X-H torsion
[ 10718 10713 10712 10709 ] final -142.26 input   66.30 | X-H torsion
[ 10763 10752 10751 10750 ] final  143.86 input  -60.55 | X-H torsion
[ 11005 11000 10999 10996 ] final   47.55 input  -57.11 | X-H torsion

> <Gold.Protein.ActiveResidues>
 VAL166  LYS551  ARG553  GLY616  TRP617  ASP618  TYR619  PRO620  LYS621  CYS622 
 ASP623  PHE694  ASN695  SER759  ASP760  ASP761  ALA762  ILE779  LEU786  VAL792 
 PHE793  MET794  SER795  GLU796  ALA797  LYS798  CYS799  TRP800  GLU811  SER814 

> <Gold.Protein.RotatedAtoms>
  152.0353  133.3954  159.4313 H   0  0  0  0  0  0  0  0  0  0  0  0  # atno 6907 bound_to 6896
  150.6879  134.3475  159.4904 H   0  0  0  0  0  0  0  0  0  0  0  0  # atno 6908 bound_to 6896
  152.1267  134.9165  160.0611 H   0  0  0  0  0  0  0  0  0  0  0  0  # atno 6909 bound_to 6896
  145.8598  140.8293  142.9942 H   0  0  0  0  0  0  0  0  0  0  0  0  # atno 7974 bound_to 7965
  155.7176  140.0786  157.2344 H   0  0  0  0  0  0  0  0  0  0  0  0  # atno 8008 bound_to 7997
  154.4049  140.1618  156.2420 H   0  0  0  0  0  0  0  0  0  0  0  0  # atno 8009 bound_to 7997
  155.9226  140.3396  155.6188 H   0  0  0  0  0  0  0  0  0  0  0  0  # atno 8010 bound_to 7997
  140.2195  143.3686  152.0981 H   0  0  0  0  0  0  0  0  0  0  0  0  # atno 10167 bound_to 10162
  156.3438  130.7651  151.1792 H   0  0  0  0  0  0  0  0  0  0  0  0  # atno 10718 bound_to 10713
  153.9793  135.2943  155.3421 H   0  0  0  0  0  0  0  0  0  0  0  0  # atno 10763 bound_to 10752
  154.7278  135.5081  153.8918 H   0  0  0  0  0  0  0  0  0  0  0  0  # atno 10764 bound_to 10752
  153.0862  135.6694  154.0058 H   0  0  0  0  0  0  0  0  0  0  0  0  # atno 10765 bound_to 10752
  140.1269  134.4756  155.8552 H   0  0  0  0  0  0  0  0  0  0  0  0  # atno 11005 bound_to 11000
  144.6727  140.1079  143.7457 LP  0  0  0  0  0  0  0  0  0  0  0  0  # atno 17320 bound_to 7965
  145.9261  139.2576  143.1353 LP  0  0  0  0  0  0  0  0  0  0  0  0  # atno 17321 bound_to 7965
  139.5149  144.6955  151.5641 LP  0  0  0  0  0  0  0  0  0  0  0  0  # atno 17342 bound_to 10162
  140.6265  143.9158  150.6569 LP  0  0  0  0  0  0  0  0  0  0  0  0  # atno 17343 bound_to 10162
  157.7451  131.0447  150.4806 LP  0  0  0  0  0  0  0  0  0  0  0  0  # atno 17370 bound_to 10713
  156.4990  130.4113  149.6363 LP  0  0  0  0  0  0  0  0  0  0  0  0  # atno 17371 bound_to 10713
  141.2163  133.6781  156.6996 LP  0  0  0  0  0  0  0  0  0  0  0  0  # atno 17394 bound_to 11000
  140.2892  134.8254  157.4002 LP  0  0  0  0  0  0  0  0  0  0  0  0  # atno 17395 bound_to 11000

$$$$
