AV-unprocessed.smi:2075|AV-procd|sdf|8456|dock6
  -GOLD-   2272011153D 1   1.00000     0.00000
 Structure written by MMmdl.
 37 38  0  0  0  0  0  0  0  0  1 V2000
  148.6366  144.5191  161.5111 O   0  0  0  0  0  0  0  0  0  0  0  0
  148.2547  144.7985  160.3744 C   0  0  0  0  0  0  0  0  0  0  0  0
  146.8371  145.3290  160.1266 C   0  0  0  0  0  0  0  0  0  0  0  0
  145.7082  144.3460  160.4975 C   0  0  0  0  0  0  0  0  0  0  0  0
  144.5434  144.8435  160.0831 F   0  0  0  0  0  0  0  0  0  0  0  0
  145.8939  143.1608  159.9147 F   0  0  0  0  0  0  0  0  0  0  0  0
  145.6518  144.1732  161.8189 F   0  0  0  0  0  0  0  0  0  0  0  0
  149.0319  144.6655  159.2881 N   0  0  0  0  0  0  0  0  0  0  0  0
  150.4134  144.1943  159.3022 C   0  0  0  0  0  0  0  0  0  0  0  0
  150.6359  142.8894  158.5509 C   0  0  0  0  0  0  0  0  0  0  0  0
  151.7515  142.0817  158.8430 C   0  0  0  0  0  0  0  0  0  0  0  0
  151.9326  140.8780  158.1354 C   0  0  0  0  0  0  0  0  0  0  0  0
  150.9863  140.5057  157.1462 C   0  0  0  0  0  0  0  0  0  0  0  0
  151.1046  139.3088  156.4017 N   0  0  0  0  0  0  0  0  0  0  0  0
  150.7607  138.0444  157.0479 C   0  0  0  0  0  0  0  0  0  0  0  0
  150.6350  136.9181  156.0080 C   0  0  0  0  0  0  0  0  0  0  0  0
  151.8257  136.8415  155.2336 O   0  0  0  0  0  0  0  0  0  0  0  0
  152.0553  138.0429  154.5066 C   0  0  0  0  0  0  0  0  0  0  0  0
  152.2399  139.2168  155.4831 C   0  0  0  0  0  0  0  0  0  0  0  0
  149.9095  141.2842  156.8782 N   0  0  0  0  0  0  0  0  0  0  0  0
  149.7411  142.4366  157.5591 C   0  0  0  0  0  0  0  0  0  0  0  0
  146.7077  146.2497  160.6978 H   0  0  0  0  0  0  0  0  0  0  0  0
  146.7538  145.6042  159.0745 H   0  0  0  0  0  0  0  0  0  0  0  0
  148.6425  144.9126  158.3898 H   0  0  0  0  0  0  0  0  0  0  0  0
  151.0692  144.9702  158.9031 H   0  0  0  0  0  0  0  0  0  0  0  0
  150.7102  144.0442  160.3402 H   0  0  0  0  0  0  0  0  0  0  0  0
  152.4655  142.3799  159.5967 H   0  0  0  0  0  0  0  0  0  0  0  0
  152.7985  140.2751  158.3616 H   0  0  0  0  0  0  0  0  0  0  0  0
  151.5284  137.7949  157.7816 H   0  0  0  0  0  0  0  0  0  0  0  0
  149.8117  138.1335  157.5775 H   0  0  0  0  0  0  0  0  0  0  0  0
  150.4741  135.9631  156.5081 H   0  0  0  0  0  0  0  0  0  0  0  0
  149.7748  137.0845  155.3573 H   0  0  0  0  0  0  0  0  0  0  0  0
  152.9492  137.9218  153.8946 H   0  0  0  0  0  0  0  0  0  0  0  0
  151.2260  138.2328  153.8232 H   0  0  0  0  0  0  0  0  0  0  0  0
  152.3672  140.1311  154.9037 H   0  0  0  0  0  0  0  0  0  0  0  0
  153.1515  139.0786  156.0658 H   0  0  0  0  0  0  0  0  0  0  0  0
  148.8624  143.0092  157.3013 H   0  0  0  0  0  0  0  0  0  0  0  0
  1  2  2  0  0  0  0
  2  3  1  0  0  0  0
  2  8  1  0  0  0  0
  3  4  1  0  0  0  0
  3 22  1  0  0  0  0
  3 23  1  0  0  0  0
  4  5  1  0  0  0  0
  4  6  1  0  0  0  0
  4  7  1  0  0  0  0
  8  9  1  0  0  0  0
  8 24  1  0  0  0  0
  9 10  1  0  0  0  0
  9 25  1  0  0  0  0
  9 26  1  0  0  0  0
 10 21  1  0  0  0  0
 10 11  2  0  0  0  0
 11 12  1  0  0  0  0
 11 27  1  0  0  0  0
 12 13  2  0  0  0  0
 12 28  1  0  0  0  0
 13 14  1  0  0  0  0
 13 20  1  0  0  0  0
 14 19  1  0  0  0  0
 14 15  1  0  0  0  0
 15 16  1  0  0  0  0
 15 29  1  0  0  0  0
 15 30  1  0  0  0  0
 16 17  1  0  0  0  0
 16 31  1  0  0  0  0
 16 32  1  0  0  0  0
 17 18  1  0  0  0  0
 18 19  1  0  0  0  0
 18 33  1  0  0  0  0
 18 34  1  0  0  0  0
 19 35  1  0  0  0  0
 19 36  1  0  0  0  0
 20 21  2  0  0  0  0
 21 37  1  0  0  0  0
M  END
> <s_m_source_file>
AV-unprocessed.smi

> <i_m_source_file_index>
2075

> <i_lp_mmshare_version>
43012

> <i_f3d_flags>
0

> <s_epik_input>
RkMoRikoRilbQ0gyXUMoPU8pW05IXVtDSDJdYzFbY0hdW2NIXWMobltjSF0xKU4yW0NIMl1bQ0gyXU9bQ0gyXVtDSDJdMg==

> <s_epik_cmdline>
J2VwaWtfcHl0aG9uJywgJy1waCcsICc3LjAnLCAnLXRuJywgJzgnLCAnLW1hJywgJzIwMCcsICctbWV0YWxfYmluZGluZycsICctaW1hZScsICc8aW5maWxlLm1hZT4nLCAnLW9tYWUnLCAnPG91dGZpbGUubWFlPic=

> <r_lp_tautomer_probability>
1

> <r_epik_Ionization_Penalty>
0.00347018

> <r_epik_Ionization_Penalty_Charging>
0

> <r_epik_Ionization_Penalty_Neutral>
0.00347018

> <r_epik_State_Penalty>
0.00246037

> <r_epik_Charging_Adjusted_Penalty>
0.00246037

> <i_epik_Tot_Q>
0

> <i_epik_Tot_abs_Q>
0

> <r_epik_Metal_State_Penalty>
-0

> <b_epik_Metal_Only>
0

> <s_lp_Force_Field>
OPLS_2005

> <r_lp_Energy>
11.9442

> <b_lp_Chiralities_Consistent>
1

> <s_lp_Variant>
AV-unprocessed.smi:2075-1

> <Gold.Version>
5.8.1

> <Gold.Id.Protein>
6NUR|6NUR_protein|mol2

> <Gold.PLP.Fitness>
43.8380

> <Gold.PLP.PLP>
-33.8833

> <Gold.PLP.part.hbond>
-3.0000

> <Gold.PLP.part.metal>
0.0000

> <Gold.PLP.part.buried>
-6.9704

> <Gold.PLP.part.nonpolar>
-24.0482

> <Gold.PLP.part.repulsive>
0.5513

> <Gold.PLP.ligand.clash>
0.0000

> <Gold.PLP.ligand.torsion>
0.6182

> <Gold.PLP.Chemscore.Hbond>
2.7200

> <Gold.PLP.Chemscore.CHOScore>
0.8528

> <Gold.PLP.Chemscore.Metal>
0.0000

> <Gold.Chemscore.Hbonds>
donor molecule, donor type, donor heavy atom, donor atom, acceptor molecule, acceptor atom, score
      L1  H     8    24       P1  8029  1.00
      P1  H  6933  6944       L1     1  0.54
      P1  H 10752 10763       L1    17  1.00
      L1  C    21    37       P1  8028  0.87

> <Gold.PLP.Chemscore.Internal.Correction>
0.4727

> <Gold.Rescore>
     Score         DG    S(hbond)    S(metal)    S(lipo)     H(rot)  DE(clash)    DE(int)     intcor
     16.69     -17.56       2.89        0.00      64.89       2.01       0.18       0.70       ----

> <Gold.Chemscore.Fitness>
16.6866

> <Gold.Chemscore.DG>
-17.5638

> <Gold.Chemscore.ZeroCoef>
-5.4800

> <Gold.Chemscore.Hbond>
2.8854

> <Gold.Chemscore.Metal>
0.0000

> <Gold.Chemscore.Lipo>
64.8904

> <Gold.Chemscore.Internal_Hbond>
0.0000

> <Gold.Chemscore.DEClash>
0.1775

> <Gold.Chemscore.DEInternal>
0.6996

> <Gold.Chemscore.Rot>
2.0101

> <Gold.Chemscore.Internal.Correction>
   9.000000E+99

> <Gold.Chemscore.Hbonds>
donor molecule, donor type, donor heavy atom, donor atom, acceptor molecule, acceptor atom, score
      L1  H     8    24       P1  8029  0.86
      P1  H  6933  6944       L1     1  0.16
      P1  H 10752 10763       L1    17  0.54

> <Gold.Chemscore.Hbond.Weighted>
-9.6374

> <Gold.Chemscore.Metal.Weighted>
-0.0000

> <Gold.Chemscore.Lipo.Weighted>
-7.5922

> <Gold.Chemscore.Internal_Hbond.Weighted>
0.0000

> <Gold.Chemscore.DEClash.Weighted>
0.1775

> <Gold.Chemscore.DEInternal.Weighted>
0.6996

> <Gold.Chemscore.Rot.Weighted>
5.1458

> <Gold.Chemscore.Internal.Correction.Weighted>
   9.000000E+99

> <Gold.Protein.RotatedTorsions>
[ 6907 6896 6895 6894 ] final  -85.50 input  -60.11 | X-H torsion
[ 7974 7965 7964 7962 ] final -123.50 input  175.53 | X-H torsion
[ 8008 7997 7996 7995 ] final   37.42 input   59.86 | X-H torsion
[ 10167 10162 10161 10158 ] final -143.35 input  -65.29 | X-H torsion
[ 10718 10713 10712 10709 ] final  123.42 input   66.30 | X-H torsion
[ 10763 10752 10751 10750 ] final   55.52 input  -60.55 | X-H torsion
[ 11005 11000 10999 10996 ] final  -76.60 input  -57.11 | X-H torsion

> <Gold.Protein.ActiveResidues>
 VAL166  LYS551  ARG553  GLY616  TRP617  ASP618  TYR619  PRO620  LYS621  CYS622 
 ASP623  PHE694  ASN695  SER759  ASP760  ASP761  ALA762  ILE779  LEU786  VAL792 
 PHE793  MET794  SER795  GLU796  ALA797  LYS798  CYS799  TRP800  GLU811  SER814 

> <Gold.Protein.RotatedAtoms>
  150.6870  134.3195  159.4780 H   0  0  0  0  0  0  0  0  0  0  0  0  # atno 6907 bound_to 6896
  152.1072  134.9297  160.0577 H   0  0  0  0  0  0  0  0  0  0  0  0  # atno 6908 bound_to 6896
  152.0554  133.4003  159.4432 H   0  0  0  0  0  0  0  0  0  0  0  0  # atno 6909 bound_to 6896
  145.0180  140.7964  143.4398 H   0  0  0  0  0  0  0  0  0  0  0  0  # atno 7974 bound_to 7965
  155.2035  140.3317  155.4339 H   0  0  0  0  0  0  0  0  0  0  0  0  # atno 8008 bound_to 7997
  156.2397  140.1889  156.7070 H   0  0  0  0  0  0  0  0  0  0  0  0  # atno 8009 bound_to 7997
  154.6125  140.0607  156.9498 H   0  0  0  0  0  0  0  0  0  0  0  0  # atno 8010 bound_to 7997
  139.8002  143.7844  152.2657 H   0  0  0  0  0  0  0  0  0  0  0  0  # atno 10167 bound_to 10162
  157.5666  131.1086  150.8443 H   0  0  0  0  0  0  0  0  0  0  0  0  # atno 10718 bound_to 10713
  152.9818  135.5708  154.5080 H   0  0  0  0  0  0  0  0  0  0  0  0  # atno 10763 bound_to 10752
  154.4588  135.2781  155.1730 H   0  0  0  0  0  0  0  0  0  0  0  0  # atno 10764 bound_to 10752
  154.3326  135.6246  153.5612 H   0  0  0  0  0  0  0  0  0  0  0  0  # atno 10765 bound_to 10752
  141.1655  133.6990  156.7693 H   0  0  0  0  0  0  0  0  0  0  0  0  # atno 11005 bound_to 11000
  145.1933  139.2289  143.5231 LP  0  0  0  0  0  0  0  0  0  0  0  0  # atno 17320 bound_to 7965
  146.3481  140.1734  142.8589 LP  0  0  0  0  0  0  0  0  0  0  0  0  # atno 17321 bound_to 7965
  139.7962  144.7392  150.9887 LP  0  0  0  0  0  0  0  0  0  0  0  0  # atno 17342 bound_to 10162
  140.7820  143.4392  151.0578 LP  0  0  0  0  0  0  0  0  0  0  0  0  # atno 17343 bound_to 10162
  156.8926  130.5218  149.5285 LP  0  0  0  0  0  0  0  0  0  0  0  0  # atno 17370 bound_to 10713
  156.0714  130.5746  150.9390 LP  0  0  0  0  0  0  0  0  0  0  0  0  # atno 17371 bound_to 10713
  140.2476  134.8565  157.3635 LP  0  0  0  0  0  0  0  0  0  0  0  0  # atno 17394 bound_to 11000
  140.1734  134.4580  155.7817 LP  0  0  0  0  0  0  0  0  0  0  0  0  # atno 17395 bound_to 11000

$$$$
