AV-unprocessed.smi:580|AV-procd|sdf|2990|dock1
  -GOLD-   2262023493D 1   1.00000     0.00000
 Structure written by MMmdl.
 36 37  0  0  0  0  0  0  0  0  1 V2000
  150.6946  141.9150  156.2064 C   0  0  0  0  0  0  0  0  0  0  0  0
  150.4112  140.6729  155.4332 C   0  0  0  0  0  0  0  0  0  0  0  0
  149.2540  140.0198  155.1138 C   0  0  0  0  0  0  0  0  0  0  0  0
  149.7128  138.9064  154.3608 C   0  0  0  0  0  0  0  0  0  0  0  0
  148.7989  137.9584  153.8338 N   0  0  0  0  0  0  0  0  0  0  0  0
  147.4951  137.8246  154.1303 C   0  0  0  0  0  0  0  0  0  0  0  0
  146.8763  138.5176  154.9384 O   0  0  0  0  0  0  0  0  0  0  0  0
  146.9384  136.8245  153.4317 N   0  0  0  0  0  0  0  0  0  0  0  0
  145.5406  136.4040  153.5181 C   0  0  2  0  0  0  0  0  0  0  0  0
  145.4211  134.9352  153.9762 C   0  0  0  0  0  0  0  0  0  0  0  0
  145.9104  133.9486  152.9013 C   0  0  0  0  0  0  0  0  0  0  0  0
  145.1793  134.1592  151.5615 C   0  0  2  0  0  0  0  0  0  0  0  0
  145.6723  133.1750  150.4915 C   0  0  0  0  0  0  0  0  0  0  0  0
  145.3242  135.6195  151.0926 C   0  0  0  0  0  0  0  0  0  0  0  0
  144.8368  136.6126  152.1632 C   0  0  0  0  0  0  0  0  0  0  0  0
  151.0306  138.8813  154.2329 N   0  0  0  0  0  0  0  0  0  0  0  0
  151.4851  140.0132  154.9199 O   0  0  0  0  0  0  0  0  0  0  0  0
  149.7949  142.5213  156.3124 H   0  0  0  0  0  0  0  0  0  0  0  0
  151.4514  142.5198  155.7063 H   0  0  0  0  0  0  0  0  0  0  0  0
  151.0592  141.6731  157.2047 H   0  0  0  0  0  0  0  0  0  0  0  0
  148.2440  140.2968  155.3774 H   0  0  0  0  0  0  0  0  0  0  0  0
  149.1788  137.3136  153.1568 H   0  0  0  0  0  0  0  0  0  0  0  0
  147.5248  136.3091  152.7920 H   0  0  0  0  0  0  0  0  0  0  0  0
  145.0417  137.0389  154.2526 H   0  0  0  0  0  0  0  0  0  0  0  0
  145.9704  134.7780  154.9052 H   0  0  0  0  0  0  0  0  0  0  0  0
  144.3770  134.7187  154.2059 H   0  0  0  0  0  0  0  0  0  0  0  0
  146.9855  134.0657  152.7591 H   0  0  0  0  0  0  0  0  0  0  0  0
  145.7584  132.9270  153.2514 H   0  0  0  0  0  0  0  0  0  0  0  0
  144.1185  133.9626  151.7240 H   0  0  0  0  0  0  0  0  0  0  0  0
  146.7324  133.3177  150.2795 H   0  0  0  0  0  0  0  0  0  0  0  0
  145.1255  133.3048  149.5570 H   0  0  0  0  0  0  0  0  0  0  0  0
  145.5329  132.1426  150.8134 H   0  0  0  0  0  0  0  0  0  0  0  0
  146.3666  135.8268  150.8472 H   0  0  0  0  0  0  0  0  0  0  0  0
  144.7583  135.7722  150.1730 H   0  0  0  0  0  0  0  0  0  0  0  0
  143.7616  136.4881  152.2980 H   0  0  0  0  0  0  0  0  0  0  0  0
  144.9804  137.6366  151.8166 H   0  0  0  0  0  0  0  0  0  0  0  0
  1  2  1  0  0  0  0
  1 18  1  0  0  0  0
  1 19  1  0  0  0  0
  1 20  1  0  0  0  0
  2 17  1  0  0  0  0
  2  3  2  0  0  0  0
  3  4  1  0  0  0  0
  3 21  1  0  0  0  0
  4  5  1  0  0  0  0
  4 16  2  0  0  0  0
  5  6  1  0  0  0  0
  5 22  1  0  0  0  0
  6  7  2  0  0  0  0
  6  8  1  0  0  0  0
  8  9  1  0  0  0  0
  8 23  1  0  0  0  0
  9 15  1  0  0  0  0
  9 10  1  0  0  0  0
  9 24  1  0  0  0  0
 10 11  1  0  0  0  0
 10 25  1  0  0  0  0
 10 26  1  0  0  0  0
 11 12  1  0  0  0  0
 11 27  1  0  0  0  0
 11 28  1  0  0  0  0
 12 13  1  0  0  0  0
 12 14  1  0  0  0  0
 12 29  1  0  0  0  0
 13 30  1  0  0  0  0
 13 31  1  0  0  0  0
 13 32  1  0  0  0  0
 14 15  1  0  0  0  0
 14 33  1  0  0  0  0
 14 34  1  0  0  0  0
 15 35  1  0  0  0  0
 15 36  1  0  0  0  0
 16 17  1  0  0  0  0
M  END
> <s_m_source_file>
AV-unprocessed.smi

> <i_m_source_file_index>
580

> <i_lp_mmshare_version>
43012

> <i_f3d_flags>
0

> <s_epik_input>
W0NIM11jMVtjSF1jKG5vMSlbTkhdQyg9TylbTkhdW0NAQEhdMltDSDJdW0NIMl1bQ0BASF0oW0NIM10pW0NIMl1bQ0gyXTI=

> <s_epik_cmdline>
J2VwaWtfcHl0aG9uJywgJy1waCcsICc3LjAnLCAnLXRuJywgJzgnLCAnLW1hJywgJzIwMCcsICctbWV0YWxfYmluZGluZycsICctaW1hZScsICc8aW5maWxlLm1hZT4nLCAnLW9tYWUnLCAnPG91dGZpbGUubWFlPic=

> <r_lp_tautomer_probability>
1

> <r_epik_Ionization_Penalty>
2.357e-05

> <r_epik_Ionization_Penalty_Charging>
0

> <r_epik_Ionization_Penalty_Neutral>
2.357e-05

> <r_epik_State_Penalty>
-0

> <r_epik_Charging_Adjusted_Penalty>
0

> <i_epik_Tot_Q>
0

> <i_epik_Tot_abs_Q>
0

> <r_epik_Metal_State_Penalty>
-0

> <b_epik_Metal_Only>
0

> <s_lp_Force_Field>
OPLS_2005

> <r_lp_Energy>
6.11035

> <b_lp_Chiralities_Consistent>
1

> <s_lp_Variant>
AV-unprocessed.smi:580-2

> <Gold.Version>
5.8.1

> <Gold.Id.Protein>
6NUR|6NUR_protein|mol2

> <Gold.PLP.Fitness>
32.1580

> <Gold.PLP.PLP>
-24.4536

> <Gold.PLP.part.hbond>
-3.5278

> <Gold.PLP.part.metal>
0.0000

> <Gold.PLP.part.buried>
-3.3380

> <Gold.PLP.part.nonpolar>
-18.5136

> <Gold.PLP.part.repulsive>
0.2927

> <Gold.PLP.ligand.clash>
0.0000

> <Gold.PLP.ligand.torsion>
0.0389

> <Gold.PLP.Chemscore.Hbond>
2.5920

> <Gold.PLP.Chemscore.CHOScore>
0.0000

> <Gold.PLP.Chemscore.Metal>
0.0000

> <Gold.Chemscore.Hbonds>
donor molecule, donor type, donor heavy atom, donor atom, acceptor molecule, acceptor atom, score
      L1  H     5    22       P1  7948  1.00
      L1  H     8    23       P1  7948  0.99
      P1  H  7989  7998       L1    17  0.57

> <Gold.PLP.Chemscore.Internal.Correction>
0.0062

> <Gold.Rescore>
     Score         DG    S(hbond)    S(metal)    S(lipo)     H(rot)  DE(clash)    DE(int)     intcor
     13.95     -15.36       1.91        0.00      51.79       1.00       0.00       1.40       ----

> <Gold.Chemscore.Fitness>
13.9510

> <Gold.Chemscore.DG>
-15.3580

> <Gold.Chemscore.ZeroCoef>
-5.4800

> <Gold.Chemscore.Hbond>
1.9098

> <Gold.Chemscore.Metal>
0.0000

> <Gold.Chemscore.Lipo>
51.7873

> <Gold.Chemscore.Internal_Hbond>
0.0000

> <Gold.Chemscore.DEClash>
0.0030

> <Gold.Chemscore.DEInternal>
1.4039

> <Gold.Chemscore.Rot>
1.0000

> <Gold.Chemscore.Internal.Correction>
   9.000000E+99

> <Gold.Chemscore.Hbonds>
donor molecule, donor type, donor heavy atom, donor atom, acceptor molecule, acceptor atom, score
      L1  H     5    22       P1  7948  0.95
      L1  H     8    23       P1  7948  0.93
      P1  H  7989  7998       L1    17  0.01

> <Gold.Chemscore.Hbond.Weighted>
-6.3788

> <Gold.Chemscore.Metal.Weighted>
-0.0000

> <Gold.Chemscore.Lipo.Weighted>
-6.0591

> <Gold.Chemscore.Internal_Hbond.Weighted>
0.0000

> <Gold.Chemscore.DEClash.Weighted>
0.0030

> <Gold.Chemscore.DEInternal.Weighted>
1.4039

> <Gold.Chemscore.Rot.Weighted>
2.5600

> <Gold.Chemscore.Internal.Correction.Weighted>
   9.000000E+99

> <Gold.Protein.RotatedTorsions>
[ 6907 6896 6895 6894 ] final  -92.15 input  -60.11 | X-H torsion
[ 7974 7965 7964 7962 ] final  129.75 input  175.53 | X-H torsion
[ 8008 7997 7996 7995 ] final -134.41 input   59.86 | X-H torsion
[ 10167 10162 10161 10158 ] final  123.58 input  -65.29 | X-H torsion
[ 10718 10713 10712 10709 ] final -147.77 input   66.30 | X-H torsion
[ 10763 10752 10751 10750 ] final   -6.18 input  -60.55 | X-H torsion
[ 11005 11000 10999 10996 ] final  -94.00 input  -57.11 | X-H torsion

> <Gold.Protein.ActiveResidues>
 VAL166  LYS551  ARG553  GLY616  TRP617  ASP618  TYR619  PRO620  LYS621  CYS622 
 ASP623  PHE694  ASN695  SER759  ASP760  ASP761  ALA762  ILE779  LEU786  VAL792 
 PHE793  MET794  SER795  GLU796  ALA797  LYS798  CYS799  TRP800  GLU811  SER814 

> <Gold.Protein.RotatedAtoms>
  150.6902  134.2167  159.4380 H   0  0  0  0  0  0  0  0  0  0  0  0  # atno 6907 bound_to 6896
  152.0125  134.9865  160.0578 H   0  0  0  0  0  0  0  0  0  0  0  0  # atno 6908 bound_to 6896
  152.1475  133.4466  159.4834 H   0  0  0  0  0  0  0  0  0  0  0  0  # atno 6909 bound_to 6896
  145.0253  139.4095  143.5177 H   0  0  0  0  0  0  0  0  0  0  0  0  # atno 7974 bound_to 7965
  155.3616  140.0483  157.3046 H   0  0  0  0  0  0  0  0  0  0  0  0  # atno 8008 bound_to 7997
  154.5175  140.2213  155.9002 H   0  0  0  0  0  0  0  0  0  0  0  0  # atno 8009 bound_to 7997
  156.1653  140.3108  155.8883 H   0  0  0  0  0  0  0  0  0  0  0  0  # atno 8010 bound_to 7997
  139.5791  144.6978  151.3574 H   0  0  0  0  0  0  0  0  0  0  0  0  # atno 10167 bound_to 10162
  156.4117  130.7985  151.2202 H   0  0  0  0  0  0  0  0  0  0  0  0  # atno 10718 bound_to 10713
  153.4088  135.7007  153.6374 H   0  0  0  0  0  0  0  0  0  0  0  0  # atno 10763 bound_to 10752
  153.4877  135.3679  155.2476 H   0  0  0  0  0  0  0  0  0  0  0  0  # atno 10764 bound_to 10752
  154.8715  135.4081  154.3436 H   0  0  0  0  0  0  0  0  0  0  0  0  # atno 10765 bound_to 10752
  141.1482  133.7926  157.0238 H   0  0  0  0  0  0  0  0  0  0  0  0  # atno 11005 bound_to 11000
  146.3491  139.9773  142.8699 LP  0  0  0  0  0  0  0  0  0  0  0  0  # atno 17320 bound_to 7965
  145.1842  140.9781  143.4248 LP  0  0  0  0  0  0  0  0  0  0  0  0  # atno 17321 bound_to 7965
  140.7071  143.7485  150.7501 LP  0  0  0  0  0  0  0  0  0  0  0  0  # atno 17342 bound_to 10162
  140.1013  143.4785  152.2423 LP  0  0  0  0  0  0  0  0  0  0  0  0  # atno 17343 bound_to 10162
  157.7507  131.0255  150.3924 LP  0  0  0  0  0  0  0  0  0  0  0  0  # atno 17370 bound_to 10713
  156.4223  130.3955  149.6816 LP  0  0  0  0  0  0  0  0  0  0  0  0  # atno 17371 bound_to 10713
  140.0798  134.9654  157.1606 LP  0  0  0  0  0  0  0  0  0  0  0  0  # atno 17394 bound_to 11000
  140.3592  134.2513  155.7189 LP  0  0  0  0  0  0  0  0  0  0  0  0  # atno 17395 bound_to 11000

$$$$
