AV-unprocessed.smi:2364|AV-procd|sdf|9417|dock4
  -GOLD-   2272013 53D 1   1.00000     0.00000
 Structure written by MMmdl.
 46 47  0  0  0  0  0  0  0  0  1 V2000
  144.4186  131.6387  151.0461 C   0  0  0  0  0  0  0  0  0  0  0  0
  143.9303  133.0848  151.2405 C   0  0  0  0  0  0  0  0  0  0  0  0
  144.8286  133.9875  152.1373 C   0  0  1  0  0  0  0  0  0  0  0  0
  146.3164  133.7945  151.7611 C   0  0  0  0  0  0  0  0  0  0  0  0
  144.4568  135.4839  151.9791 C   0  0  0  0  0  0  0  0  0  0  0  0
  144.6715  135.9639  150.6667 O   0  0  0  0  0  0  0  0  0  0  0  0
  144.6418  133.6754  153.5621 N   0  0  0  0  0  0  0  0  0  0  0  0
  145.2749  134.1958  154.6281 C   0  0  0  0  0  0  0  0  0  0  0  0
  146.1477  135.0610  154.5576 O   0  0  0  0  0  0  0  0  0  0  0  0
  144.8219  133.6481  155.7699 N   0  0  0  0  0  0  0  0  0  0  0  0
  145.2892  133.8669  157.0923 C   0  0  0  0  0  0  0  0  0  0  0  0
  144.3882  133.9651  158.1104 N   0  0  0  0  0  0  0  0  0  0  0  0
  145.2312  134.1338  159.1208 C   0  0  0  0  0  0  0  0  0  0  0  0
  146.5220  134.1719  158.7653 N   0  0  0  0  0  0  0  0  0  0  0  0
  147.7348  134.2425  159.5867 C   0  0  0  0  0  0  0  0  0  0  0  0
  147.7944  133.1055  160.6335 C   0  0  0  0  0  0  0  0  0  0  0  0
  146.7179  133.2697  161.7224 C   0  0  0  0  0  0  0  0  0  0  0  0
  146.8488  134.6305  162.4267 C   0  0  0  0  0  0  0  0  0  0  0  0
  146.8322  135.7923  161.4195 C   0  0  0  0  0  0  0  0  0  0  0  0
  147.8991  135.5949  160.3254 C   0  0  0  0  0  0  0  0  0  0  0  0
  146.5775  133.9490  157.4277 N   0  0  0  0  0  0  0  0  0  0  0  0
  143.7361  131.0916  150.3956 H   0  0  0  0  0  0  0  0  0  0  0  0
  144.4668  131.0985  151.9910 H   0  0  0  0  0  0  0  0  0  0  0  0
  145.4052  131.6022  150.5843 H   0  0  0  0  0  0  0  0  0  0  0  0
  143.8173  133.5396  150.2563 H   0  0  0  0  0  0  0  0  0  0  0  0
  142.9189  133.0567  151.6472 H   0  0  0  0  0  0  0  0  0  0  0  0
  146.5067  134.0835  150.7270 H   0  0  0  0  0  0  0  0  0  0  0  0
  146.6337  132.7564  151.8593 H   0  0  0  0  0  0  0  0  0  0  0  0
  146.9682  134.3975  152.3941 H   0  0  0  0  0  0  0  0  0  0  0  0
  143.4119  135.6568  152.2381 H   0  0  0  0  0  0  0  0  0  0  0  0
  145.0455  136.0965  152.6633 H   0  0  0  0  0  0  0  0  0  0  0  0
  144.4994  136.8930  150.6547 H   0  0  0  0  0  0  0  0  0  0  0  0
  143.9436  132.9729  153.7565 H   0  0  0  0  0  0  0  0  0  0  0  0
  144.0688  132.9821  155.6826 H   0  0  0  0  0  0  0  0  0  0  0  0
  144.8933  134.2245  160.1422 H   0  0  0  0  0  0  0  0  0  0  0  0
  148.5754  134.1229  158.9021 H   0  0  0  0  0  0  0  0  0  0  0  0
  147.7022  132.1297  160.1565 H   0  0  0  0  0  0  0  0  0  0  0  0
  148.7780  133.1061  161.1050 H   0  0  0  0  0  0  0  0  0  0  0  0
  145.7239  133.1773  161.2830 H   0  0  0  0  0  0  0  0  0  0  0  0
  146.8059  132.4659  162.4536 H   0  0  0  0  0  0  0  0  0  0  0  0
  146.0437  134.7543  163.1514 H   0  0  0  0  0  0  0  0  0  0  0  0
  147.7804  134.6563  162.9934 H   0  0  0  0  0  0  0  0  0  0  0  0
  145.8427  135.8717  160.9687 H   0  0  0  0  0  0  0  0  0  0  0  0
  147.0062  136.7345  161.9399 H   0  0  0  0  0  0  0  0  0  0  0  0
  148.8870  135.6289  160.7866 H   0  0  0  0  0  0  0  0  0  0  0  0
  147.8790  136.4303  159.6244 H   0  0  0  0  0  0  0  0  0  0  0  0
  1  2  1  0  0  0  0
  1 22  1  0  0  0  0
  1 23  1  0  0  0  0
  1 24  1  0  0  0  0
  2  3  1  0  0  0  0
  2 25  1  0  0  0  0
  2 26  1  0  0  0  0
  3  4  1  0  0  0  0
  3  5  1  0  0  0  0
  3  7  1  0  0  0  0
  4 27  1  0  0  0  0
  4 28  1  0  0  0  0
  4 29  1  0  0  0  0
  5  6  1  0  0  0  0
  5 30  1  0  0  0  0
  5 31  1  0  0  0  0
  6 32  1  0  0  0  0
  7  8  1  0  0  0  0
  7 33  1  0  0  0  0
  8  9  2  0  0  0  0
  8 10  1  0  0  0  0
 10 11  1  0  0  0  0
 10 34  1  0  0  0  0
 11 21  2  0  0  0  0
 11 12  1  0  0  0  0
 12 13  2  0  0  0  0
 13 14  1  0  0  0  0
 13 35  1  0  0  0  0
 14 15  1  0  0  0  0
 14 21  1  0  0  0  0
 15 20  1  0  0  0  0
 15 16  1  0  0  0  0
 15 36  1  0  0  0  0
 16 17  1  0  0  0  0
 16 37  1  0  0  0  0
 16 38  1  0  0  0  0
 17 18  1  0  0  0  0
 17 39  1  0  0  0  0
 17 40  1  0  0  0  0
 18 19  1  0  0  0  0
 18 41  1  0  0  0  0
 18 42  1  0  0  0  0
 19 20  1  0  0  0  0
 19 43  1  0  0  0  0
 19 44  1  0  0  0  0
 20 45  1  0  0  0  0
 20 46  1  0  0  0  0
M  END
> <s_m_source_file>
AV-unprocessed.smi

> <i_m_source_file_index>
2364

> <i_lp_mmshare_version>
43012

> <i_f3d_flags>
0

> <s_epik_input>
W0NIM11bQ0gyXVtDQEBdKFtDSDNdKShbQ0gyXVtPSF0pW05IXUMoPU8pW05IXWMxbltjSF1uKG4xKVtDSF0yW0NIMl1bQ0gyXVtDSDJdW0NIMl1bQ0gyXTI=

> <s_epik_cmdline>
J2VwaWtfcHl0aG9uJywgJy1waCcsICc3LjAnLCAnLXRuJywgJzgnLCAnLW1hJywgJzIwMCcsICctbWV0YWxfYmluZGluZycsICctaW1hZScsICc8aW5maWxlLm1hZT4nLCAnLW9tYWUnLCAnPG91dGZpbGUubWFlPic=

> <r_lp_tautomer_probability>
1

> <r_epik_Ionization_Penalty>
9.31261e-05

> <r_epik_Ionization_Penalty_Charging>
0

> <r_epik_Ionization_Penalty_Neutral>
9.31261e-05

> <r_epik_State_Penalty>
-0

> <r_epik_Charging_Adjusted_Penalty>
0

> <i_epik_Tot_Q>
0

> <i_epik_Tot_abs_Q>
0

> <r_epik_Metal_State_Penalty>
-0

> <b_epik_Metal_Only>
0

> <s_lp_Force_Field>
OPLS_2005

> <r_lp_Energy>
23.546

> <b_lp_Chiralities_Consistent>
1

> <s_lp_Variant>
AV-unprocessed.smi:2364-1

> <Gold.Version>
5.8.1

> <Gold.Id.Protein>
6NUR|6NUR_protein|mol2

> <Gold.PLP.Fitness>
37.1533

> <Gold.PLP.PLP>
-29.1723

> <Gold.PLP.part.hbond>
-3.0000

> <Gold.PLP.part.metal>
0.0000

> <Gold.PLP.part.buried>
-5.2290

> <Gold.PLP.part.nonpolar>
-21.3455

> <Gold.PLP.part.repulsive>
0.0930

> <Gold.PLP.ligand.clash>
0.0000

> <Gold.PLP.ligand.torsion>
0.5786

> <Gold.PLP.Chemscore.Hbond>
3.0000

> <Gold.PLP.Chemscore.CHOScore>
0.0000

> <Gold.PLP.Chemscore.Metal>
0.0000

> <Gold.Chemscore.Hbonds>
donor molecule, donor type, donor heavy atom, donor atom, acceptor molecule, acceptor atom, score
      L1  H     6    32       P1 10171  1.00
      L1  H     7    33       P1 10957  0.99
      L1  H    10    34       P1 10957  0.98

> <Gold.PLP.Chemscore.Internal.Correction>
0.1381

> <Gold.Rescore>
     Score         DG    S(hbond)    S(metal)    S(lipo)     H(rot)  DE(clash)    DE(int)     intcor
     15.71     -16.85       2.85        0.00      66.88       2.34       0.00       1.14       ----

> <Gold.Chemscore.Fitness>
15.7085

> <Gold.Chemscore.DG>
-16.8526

> <Gold.Chemscore.ZeroCoef>
-5.4800

> <Gold.Chemscore.Hbond>
2.8521

> <Gold.Chemscore.Metal>
0.0000

> <Gold.Chemscore.Lipo>
66.8828

> <Gold.Chemscore.Internal_Hbond>
0.0000

> <Gold.Chemscore.DEClash>
0.0000

> <Gold.Chemscore.DEInternal>
1.1441

> <Gold.Chemscore.Rot>
2.3354

> <Gold.Chemscore.Internal.Correction>
   9.000000E+99

> <Gold.Chemscore.Hbonds>
donor molecule, donor type, donor heavy atom, donor atom, acceptor molecule, acceptor atom, score
      L1  H     6    32       P1 10171  0.94
      L1  H     7    33       P1 10957  0.85
      L1  H    10    34       P1 10957  0.91

> <Gold.Chemscore.Hbond.Weighted>
-9.5261

> <Gold.Chemscore.Metal.Weighted>
-0.0000

> <Gold.Chemscore.Lipo.Weighted>
-7.8253

> <Gold.Chemscore.Internal_Hbond.Weighted>
0.0000

> <Gold.Chemscore.DEClash.Weighted>
0.0000

> <Gold.Chemscore.DEInternal.Weighted>
1.1441

> <Gold.Chemscore.Rot.Weighted>
5.9787

> <Gold.Chemscore.Internal.Correction.Weighted>
   9.000000E+99

> <Gold.Protein.RotatedTorsions>
[ 6907 6896 6895 6894 ] final  -47.73 input  -60.11 | X-H torsion
[ 7974 7965 7964 7962 ] final   40.14 input  175.53 | X-H torsion
[ 8008 7997 7996 7995 ] final   64.14 input   59.86 | X-H torsion
[ 10167 10162 10161 10158 ] final  -38.58 input  -65.29 | X-H torsion
[ 10718 10713 10712 10709 ] final  -12.02 input   66.30 | X-H torsion
[ 10763 10752 10751 10750 ] final  154.71 input  -60.55 | X-H torsion
[ 11005 11000 10999 10996 ] final -168.96 input  -57.11 | X-H torsion

> <Gold.Protein.ActiveResidues>
 VAL166  LYS551  ARG553  GLY616  TRP617  ASP618  TYR619  PRO620  LYS621  CYS622 
 ASP623  PHE694  ASN695  SER759  ASP760  ASP761  ALA762  ILE779  LEU786  VAL792 
 PHE793  MET794  SER795  GLU796  ALA797  LYS798  CYS799  TRP800  GLU811  SER814 

> <Gold.Protein.RotatedAtoms>
  150.8977  134.8387  159.7338 H   0  0  0  0  0  0  0  0  0  0  0  0  # atno 6907 bound_to 6896
  152.4875  134.4550  159.9596 H   0  0  0  0  0  0  0  0  0  0  0  0  # atno 6908 bound_to 6896
  151.4605  133.3555  159.2844 H   0  0  0  0  0  0  0  0  0  0  0  0  # atno 6909 bound_to 6896
  146.0928  139.5567  142.9465 H   0  0  0  0  0  0  0  0  0  0  0  0  # atno 7974 bound_to 7965
  155.6413  140.3497  155.4716 H   0  0  0  0  0  0  0  0  0  0  0  0  # atno 8008 bound_to 7997
  155.9924  140.1196  157.0649 H   0  0  0  0  0  0  0  0  0  0  0  0  # atno 8009 bound_to 7997
  154.4223  140.1117  156.5569 H   0  0  0  0  0  0  0  0  0  0  0  0  # atno 8010 bound_to 7997
  140.7088  143.3268  151.2661 H   0  0  0  0  0  0  0  0  0  0  0  0  # atno 10167 bound_to 10162
  156.6506  130.4953  149.6063 H   0  0  0  0  0  0  0  0  0  0  0  0  # atno 10718 bound_to 10713
  154.1566  135.2812  155.3120 H   0  0  0  0  0  0  0  0  0  0  0  0  # atno 10763 bound_to 10752
  154.6178  135.5477  153.7545 H   0  0  0  0  0  0  0  0  0  0  0  0  # atno 10764 bound_to 10752
  153.0205  135.6431  154.1709 H   0  0  0  0  0  0  0  0  0  0  0  0  # atno 10765 bound_to 10752
  140.5362  134.5568  157.5088 H   0  0  0  0  0  0  0  0  0  0  0  0  # atno 11005 bound_to 11000
  145.6006  141.0356  143.2020 LP  0  0  0  0  0  0  0  0  0  0  0  0  # atno 17320 bound_to 7965
  144.7373  139.7549  143.7324 LP  0  0  0  0  0  0  0  0  0  0  0  0  # atno 17321 bound_to 7965
  139.6739  143.9972  152.2769 LP  0  0  0  0  0  0  0  0  0  0  0  0  # atno 17342 bound_to 10162
  139.9579  144.6577  150.8107 LP  0  0  0  0  0  0  0  0  0  0  0  0  # atno 17343 bound_to 10162
  156.2087  130.6665  151.1246 LP  0  0  0  0  0  0  0  0  0  0  0  0  # atno 17370 bound_to 10713
  157.7142  131.0718  150.6389 LP  0  0  0  0  0  0  0  0  0  0  0  0  # atno 17371 bound_to 10713
  139.9528  134.7587  156.0409 LP  0  0  0  0  0  0  0  0  0  0  0  0  # atno 17394 bound_to 11000
  141.1253  133.6601  156.3321 LP  0  0  0  0  0  0  0  0  0  0  0  0  # atno 17395 bound_to 11000

$$$$
