AV-unprocessed.smi:849|AV-procd|sdf|3944|dock10
  -GOLD-   22720 1413D 1   1.00000     0.00000
 Structure written by MMmdl.
 36 38  0  0  0  0  0  0  0  0  1 V2000
  151.6356  136.7547  154.1481 O   0  0  0  0  0  0  0  0  0  0  0  0
  151.2772  137.6005  155.2222 C   0  0  0  0  0  0  0  0  0  0  0  0
  150.2460  138.6349  154.8691 C   0  0  0  0  0  0  0  0  0  0  0  0
  149.1781  138.3651  154.1143 N   0  0  0  0  0  0  0  0  0  0  0  0
  148.5240  139.5793  154.0606 C   0  0  0  0  0  0  0  0  0  0  0  0
  147.3253  139.9489  153.4097 C   0  0  0  0  0  0  0  0  0  0  0  0
  146.8447  141.2719  153.4970 C   0  0  0  0  0  0  0  0  0  0  0  0
  147.5533  142.2413  154.2358 C   0  0  0  0  0  0  0  0  0  0  0  0
  148.7493  141.8933  154.8925 C   0  0  0  0  0  0  0  0  0  0  0  0
  149.2254  140.5717  154.8005 C   0  0  0  0  0  0  0  0  0  0  0  0
  150.3452  139.9172  155.3049 N   0  0  0  0  0  0  0  0  0  0  0  0
  151.3831  140.5201  156.1309 C   0  0  0  0  0  0  0  0  0  0  0  0
  150.8064  141.3356  157.3076 C   0  0  1  0  0  0  0  0  0  0  0  0
  149.6496  140.6690  157.7727 O   0  0  0  0  0  0  0  0  0  0  0  0
  151.8289  141.5641  158.4206 C   0  0  0  0  0  0  0  0  0  0  0  0
  152.2929  140.4567  159.1682 C   0  0  0  0  0  0  0  0  0  0  0  0
  153.2478  140.6260  160.1882 C   0  0  0  0  0  0  0  0  0  0  0  0
  153.7519  141.9074  160.4721 C   0  0  0  0  0  0  0  0  0  0  0  0
  153.3002  143.0167  159.7343 C   0  0  0  0  0  0  0  0  0  0  0  0
  152.3441  142.8544  158.7116 C   0  0  0  0  0  0  0  0  0  0  0  0
  151.8399  144.2596  157.8391 Cl  0  0  0  0  0  0  0  0  0  0  0  0
  151.0006  136.8602  153.4568 H   0  0  0  0  0  0  0  0  0  0  0  0
  150.8993  136.9824  156.0366 H   0  0  0  0  0  0  0  0  0  0  0  0
  152.1787  138.0977  155.5769 H   0  0  0  0  0  0  0  0  0  0  0  0
  146.7759  139.2131  152.8417 H   0  0  0  0  0  0  0  0  0  0  0  0
  145.9282  141.5440  152.9944 H   0  0  0  0  0  0  0  0  0  0  0  0
  147.1789  143.2526  154.2970 H   0  0  0  0  0  0  0  0  0  0  0  0
  149.2962  142.6342  155.4566 H   0  0  0  0  0  0  0  0  0  0  0  0
  152.0002  139.7063  156.5152 H   0  0  0  0  0  0  0  0  0  0  0  0
  152.0435  141.1332  155.5179 H   0  0  0  0  0  0  0  0  0  0  0  0
  150.4443  142.2929  156.9358 H   0  0  0  0  0  0  0  0  0  0  0  0
  149.1048  141.2934  158.2266 H   0  0  0  0  0  0  0  0  0  0  0  0
  151.9230  139.4643  158.9570 H   0  0  0  0  0  0  0  0  0  0  0  0
  153.5948  139.7719  160.7510 H   0  0  0  0  0  0  0  0  0  0  0  0
  154.4852  142.0403  161.2539 H   0  0  0  0  0  0  0  0  0  0  0  0
  153.6916  143.9991  159.9545 H   0  0  0  0  0  0  0  0  0  0  0  0
  1  2  1  0  0  0  0
  1 22  1  0  0  0  0
  2  3  1  0  0  0  0
  2 23  1  0  0  0  0
  2 24  1  0  0  0  0
  3 11  1  0  0  0  0
  3  4  2  0  0  0  0
  4  5  1  0  0  0  0
  5 10  2  0  0  0  0
  5  6  1  0  0  0  0
  6  7  2  0  0  0  0
  6 25  1  0  0  0  0
  7  8  1  0  0  0  0
  7 26  1  0  0  0  0
  8  9  2  0  0  0  0
  8 27  1  0  0  0  0
  9 10  1  0  0  0  0
  9 28  1  0  0  0  0
 10 11  1  0  0  0  0
 11 12  1  0  0  0  0
 12 13  1  0  0  0  0
 12 29  1  0  0  0  0
 12 30  1  0  0  0  0
 13 14  1  0  0  0  0
 13 15  1  0  0  0  0
 13 31  1  0  0  0  0
 14 32  1  0  0  0  0
 15 20  1  0  0  0  0
 15 16  2  0  0  0  0
 16 17  1  0  0  0  0
 16 33  1  0  0  0  0
 17 18  2  0  0  0  0
 17 34  1  0  0  0  0
 18 19  1  0  0  0  0
 18 35  1  0  0  0  0
 19 20  2  0  0  0  0
 19 36  1  0  0  0  0
 20 21  1  0  0  0  0
M  END
> <s_m_source_file>
AV-unprocessed.smi

> <i_m_source_file_index>
849

> <i_lp_mmshare_version>
43012

> <i_f3d_flags>
0

> <s_epik_input>
W2NIXTFbY0hdW2NIXVtjSF1jKGMxMiluKGMobjIpW0NIMl1bT0hdKVtDSDJdW0NASF0oW09IXSljM1tjSF1bY0hdW2NIXVtjSF1jM0Ns

> <s_epik_cmdline>
J2VwaWtfcHl0aG9uJywgJy1waCcsICc3LjAnLCAnLXRuJywgJzgnLCAnLW1hJywgJzIwMCcsICctbWV0YWxfYmluZGluZycsICctaW1hZScsICc8aW5maWxlLm1hZT4nLCAnLW9tYWUnLCAnPG91dGZpbGUubWFlPic=

> <r_epik_Ionization_Penalty>
0.0634742

> <r_epik_Ionization_Penalty_Charging>
0

> <r_epik_Ionization_Penalty_Neutral>
0.0634742

> <r_epik_State_Penalty>
0.0551572

> <r_epik_Charging_Adjusted_Penalty>
0.0551572

> <i_epik_Tot_Q>
0

> <i_epik_Tot_abs_Q>
0

> <r_epik_Metal_State_Penalty>
5.78034e-05

> <b_epik_Metal_Only>
0

> <s_lp_Force_Field>
OPLS_2005

> <r_lp_Energy>
13.628

> <b_lp_Chiralities_Consistent>
1

> <s_lp_Variant>
AV-unprocessed.smi:849-2

> <Gold.Version>
5.8.1

> <Gold.Id.Protein>
6NUR|6NUR_protein|mol2

> <Gold.PLP.Fitness>
52.5141

> <Gold.PLP.PLP>
-49.0520

> <Gold.PLP.part.hbond>
-2.0000

> <Gold.PLP.part.metal>
0.0000

> <Gold.PLP.part.buried>
-1.7839

> <Gold.PLP.part.nonpolar>
-47.1483

> <Gold.PLP.part.repulsive>
1.2623

> <Gold.PLP.ligand.clash>
0.0000

> <Gold.PLP.ligand.torsion>
0.6587

> <Gold.PLP.Chemscore.Hbond>
1.5868

> <Gold.PLP.Chemscore.CHOScore>
0.0000

> <Gold.PLP.Chemscore.Metal>
0.0000

> <Gold.Chemscore.Hbonds>
donor molecule, donor type, donor heavy atom, donor atom, acceptor molecule, acceptor atom, score
      L1  H     1    22       P1  7949  0.34
      P1  H 10752 10765       L1     1  0.98

> <Gold.PLP.Chemscore.Internal.Correction>
0.0191

> <Gold.Rescore>
     Score         DG    S(hbond)    S(metal)    S(lipo)     H(rot)  DE(clash)    DE(int)     intcor
     16.42     -17.54       0.97        0.00     132.83       2.62       0.64       0.49       ----

> <Gold.Chemscore.Fitness>
16.4171

> <Gold.Chemscore.DG>
-17.5428

> <Gold.Chemscore.ZeroCoef>
-5.4800

> <Gold.Chemscore.Hbond>
0.9691

> <Gold.Chemscore.Metal>
0.0000

> <Gold.Chemscore.Lipo>
132.8324

> <Gold.Chemscore.Internal_Hbond>
0.0000

> <Gold.Chemscore.DEClash>
0.6381

> <Gold.Chemscore.DEInternal>
0.4876

> <Gold.Chemscore.Rot>
2.6232

> <Gold.Chemscore.Internal.Correction>
   9.000000E+99

> <Gold.Chemscore.Hbonds>
donor molecule, donor type, donor heavy atom, donor atom, acceptor molecule, acceptor atom, score
      L1  H     1    22       P1  7949  0.10
      P1  H 10752 10765       L1     1  0.92

> <Gold.Chemscore.Hbond.Weighted>
-3.2368

> <Gold.Chemscore.Metal.Weighted>
-0.0000

> <Gold.Chemscore.Lipo.Weighted>
-15.5414

> <Gold.Chemscore.Internal_Hbond.Weighted>
0.0000

> <Gold.Chemscore.DEClash.Weighted>
0.6381

> <Gold.Chemscore.DEInternal.Weighted>
0.4876

> <Gold.Chemscore.Rot.Weighted>
6.7154

> <Gold.Chemscore.Internal.Correction.Weighted>
   9.000000E+99

> <Gold.Protein.RotatedTorsions>
[ 6907 6896 6895 6894 ] final -106.32 input  -60.11 | X-H torsion
[ 7974 7965 7964 7962 ] final  129.33 input  175.53 | X-H torsion
[ 8008 7997 7996 7995 ] final    3.59 input   59.86 | X-H torsion
[ 10167 10162 10161 10158 ] final -118.61 input  -65.29 | X-H torsion
[ 10718 10713 10712 10709 ] final -155.32 input   66.30 | X-H torsion
[ 10763 10752 10751 10750 ] final  138.29 input  -60.55 | X-H torsion
[ 11005 11000 10999 10996 ] final  -21.05 input  -57.11 | X-H torsion

> <Gold.Protein.ActiveResidues>
 VAL166  LYS551  ARG553  GLY616  TRP617  ASP618  TYR619  PRO620  LYS621  CYS622 
 ASP623  PHE694  ASN695  SER759  ASP760  ASP761  ALA762  ILE779  LEU786  VAL792 
 PHE793  MET794  SER795  GLU796  ALA797  LYS798  CYS799  TRP800  GLU811  SER814 

> <Gold.Protein.RotatedAtoms>
  150.7383  133.9994  159.3632 H   0  0  0  0  0  0  0  0  0  0  0  0  # atno 6907 bound_to 6896
  151.7947  135.0724  160.0401 H   0  0  0  0  0  0  0  0  0  0  0  0  # atno 6908 bound_to 6896
  152.3183  133.5789  159.5763 H   0  0  0  0  0  0  0  0  0  0  0  0  # atno 6909 bound_to 6896
  145.0298  139.4056  143.5155 H   0  0  0  0  0  0  0  0  0  0  0  0  # atno 7974 bound_to 7965
  154.7055  140.2682  155.6679 H   0  0  0  0  0  0  0  0  0  0  0  0  # atno 8008 bound_to 7997
  156.2779  140.2763  156.1603 H   0  0  0  0  0  0  0  0  0  0  0  0  # atno 8009 bound_to 7997
  155.0706  140.0372  157.2597 H   0  0  0  0  0  0  0  0  0  0  0  0  # atno 8010 bound_to 7997
  140.0556  143.5018  152.2059 H   0  0  0  0  0  0  0  0  0  0  0  0  # atno 10167 bound_to 10162
  156.5112  130.8436  151.2647 H   0  0  0  0  0  0  0  0  0  0  0  0  # atno 10718 bound_to 10713
  153.8871  135.3037  155.3446 H   0  0  0  0  0  0  0  0  0  0  0  0  # atno 10763 bound_to 10752
  154.7734  135.4874  153.9698 H   0  0  0  0  0  0  0  0  0  0  0  0  # atno 10764 bound_to 10752
  153.1318  135.6805  153.9263 H   0  0  0  0  0  0  0  0  0  0  0  0  # atno 10765 bound_to 10752
  140.8523  133.7847  155.9980 H   0  0  0  0  0  0  0  0  0  0  0  0  # atno 11005 bound_to 11000
  146.3497  139.9841  142.8692 LP  0  0  0  0  0  0  0  0  0  0  0  0  # atno 17320 bound_to 7965
  145.1786  140.9756  143.4280 LP  0  0  0  0  0  0  0  0  0  0  0  0  # atno 17321 bound_to 7965
  139.5926  144.7555  151.3364 LP  0  0  0  0  0  0  0  0  0  0  0  0  # atno 17342 bound_to 10162
  140.7196  143.7172  150.7724 LP  0  0  0  0  0  0  0  0  0  0  0  0  # atno 17343 bound_to 10162
  157.7450  130.9949  150.2724 LP  0  0  0  0  0  0  0  0  0  0  0  0  # atno 17370 bound_to 10713
  156.3238  130.3790  149.7551 LP  0  0  0  0  0  0  0  0  0  0  0  0  # atno 17371 bound_to 10713
  140.8776  134.2651  157.5160 LP  0  0  0  0  0  0  0  0  0  0  0  0  # atno 17394 bound_to 11000
  139.8704  134.9599  156.4346 LP  0  0  0  0  0  0  0  0  0  0  0  0  # atno 17395 bound_to 11000

$$$$
