AV-unprocessed.smi:1481|AV-procd|sdf|5987|dock10
  -GOLD-   22720 6 83D 1   1.00000     0.00000
 Structure written by MMmdl.
 39 40  0  0  0  0  0  0  0  0  1 V2000
  151.7819  136.4850  155.1879 O   0  0  0  0  0  0  0  0  0  0  0  0
  150.5876  136.4008  154.9009 C   0  0  0  0  0  0  0  0  0  0  0  0
  149.8425  137.4325  154.4795 N   0  0  0  0  0  0  0  0  0  0  0  0
  150.3393  138.7910  154.2831 C   0  0  0  0  0  0  0  0  0  0  0  0
  150.8858  139.4486  155.5428 C   0  0  0  0  0  0  0  0  0  0  0  0
  150.0698  140.2105  156.4053 C   0  0  0  0  0  0  0  0  0  0  0  0
  150.6422  140.7910  157.5529 C   0  0  0  0  0  0  0  0  0  0  0  0
  152.0192  140.5941  157.8138 C   0  0  0  0  0  0  0  0  0  0  0  0
  152.6166  141.1748  158.9540 N   0  0  0  0  0  0  0  0  0  0  0  0
  151.8920  142.2460  159.6358 C   0  0  0  0  0  0  0  0  0  0  0  0
  152.8022  142.9412  160.6622 C   0  0  0  0  0  0  0  0  0  0  0  0
  153.3310  141.9760  161.5651 O   0  0  0  0  0  0  0  0  0  0  0  0
  154.1260  141.0046  160.8938 C   0  0  0  0  0  0  0  0  0  0  0  0
  153.2659  140.2412  159.8716 C   0  0  0  0  0  0  0  0  0  0  0  0
  152.7956  139.8463  156.9910 N   0  0  0  0  0  0  0  0  0  0  0  0
  152.2424  139.2938  155.8911 C   0  0  0  0  0  0  0  0  0  0  0  0
  149.8785  135.2657  154.9600 N   0  0  0  0  0  0  0  0  0  0  0  0
  150.4176  133.9619  155.3329 C   0  0  0  0  0  0  0  0  0  0  0  0
  149.5387  132.8085  154.8199 C   0  0  0  0  0  0  0  0  0  0  0  0
  150.1426  131.6499  155.0805 F   0  0  0  0  0  0  0  0  0  0  0  0
  148.3566  132.8214  155.4363 F   0  0  0  0  0  0  0  0  0  0  0  0
  149.3478  132.9016  153.5040 F   0  0  0  0  0  0  0  0  0  0  0  0
  148.8694  137.2666  154.2681 H   0  0  0  0  0  0  0  0  0  0  0  0
  151.1383  138.7567  153.5421 H   0  0  0  0  0  0  0  0  0  0  0  0
  149.5489  139.4109  153.8560 H   0  0  0  0  0  0  0  0  0  0  0  0
  149.0193  140.3516  156.1991 H   0  0  0  0  0  0  0  0  0  0  0  0
  150.0188  141.3653  158.2216 H   0  0  0  0  0  0  0  0  0  0  0  0
  151.5366  142.9815  158.9131 H   0  0  0  0  0  0  0  0  0  0  0  0
  151.0165  141.8289  160.1359 H   0  0  0  0  0  0  0  0  0  0  0  0
  153.6142  143.4739  160.1645 H   0  0  0  0  0  0  0  0  0  0  0  0
  152.2348  143.6817  161.2262 H   0  0  0  0  0  0  0  0  0  0  0  0
  154.9738  141.4875  160.4046 H   0  0  0  0  0  0  0  0  0  0  0  0
  154.5362  140.3125  161.6292 H   0  0  0  0  0  0  0  0  0  0  0  0
  152.4974  139.6646  160.3882 H   0  0  0  0  0  0  0  0  0  0  0  0
  153.8962  139.5268  159.3440 H   0  0  0  0  0  0  0  0  0  0  0  0
  152.9065  138.7123  155.2687 H   0  0  0  0  0  0  0  0  0  0  0  0
  148.9031  135.2976  154.7016 H   0  0  0  0  0  0  0  0  0  0  0  0
  151.4410  133.8514  154.9703 H   0  0  0  0  0  0  0  0  0  0  0  0
  150.4735  133.9235  156.4211 H   0  0  0  0  0  0  0  0  0  0  0  0
  1  2  2  0  0  0  0
  2  3  1  0  0  0  0
  2 17  1  0  0  0  0
  3  4  1  0  0  0  0
  3 23  1  0  0  0  0
  4  5  1  0  0  0  0
  4 24  1  0  0  0  0
  4 25  1  0  0  0  0
  5 16  1  0  0  0  0
  5  6  2  0  0  0  0
  6  7  1  0  0  0  0
  6 26  1  0  0  0  0
  7  8  2  0  0  0  0
  7 27  1  0  0  0  0
  8  9  1  0  0  0  0
  8 15  1  0  0  0  0
  9 14  1  0  0  0  0
  9 10  1  0  0  0  0
 10 11  1  0  0  0  0
 10 28  1  0  0  0  0
 10 29  1  0  0  0  0
 11 12  1  0  0  0  0
 11 30  1  0  0  0  0
 11 31  1  0  0  0  0
 12 13  1  0  0  0  0
 13 14  1  0  0  0  0
 13 32  1  0  0  0  0
 13 33  1  0  0  0  0
 14 34  1  0  0  0  0
 14 35  1  0  0  0  0
 15 16  2  0  0  0  0
 16 36  1  0  0  0  0
 17 18  1  0  0  0  0
 17 37  1  0  0  0  0
 18 19  1  0  0  0  0
 18 38  1  0  0  0  0
 18 39  1  0  0  0  0
 19 20  1  0  0  0  0
 19 21  1  0  0  0  0
 19 22  1  0  0  0  0
M  END
> <s_m_source_file>
AV-unprocessed.smi

> <i_m_source_file_index>
1481

> <i_lp_mmshare_version>
43012

> <i_f3d_flags>
0

> <s_epik_input>
RkMoRikoRilbQ0gyXVtOSF1DKD1PKVtOSF1bQ0gyXWMxW2NIXVtjSF1jKG5bY0hdMSlOMltDSDJdW0NIMl1PW0NIMl1bQ0gyXTI=

> <s_epik_cmdline>
J2VwaWtfcHl0aG9uJywgJy1waCcsICc3LjAnLCAnLXRuJywgJzgnLCAnLW1hJywgJzIwMCcsICctbWV0YWxfYmluZGluZycsICctaW1hZScsICc8aW5maWxlLm1hZT4nLCAnLW9tYWUnLCAnPG91dGZpbGUubWFlPic=

> <r_lp_tautomer_probability>
1

> <r_epik_Ionization_Penalty>
0.00288034

> <r_epik_Ionization_Penalty_Charging>
0

> <r_epik_Ionization_Penalty_Neutral>
0.00288034

> <r_epik_State_Penalty>
0.00199456

> <r_epik_Charging_Adjusted_Penalty>
0.00199456

> <i_epik_Tot_Q>
0

> <i_epik_Tot_abs_Q>
0

> <r_epik_Metal_State_Penalty>
-0

> <b_epik_Metal_Only>
0

> <s_lp_Force_Field>
OPLS_2005

> <r_lp_Energy>
12.6538

> <b_lp_Chiralities_Consistent>
1

> <s_lp_Variant>
AV-unprocessed.smi:1481-1

> <Gold.Version>
5.8.1

> <Gold.Id.Protein>
6NUR|6NUR_protein|mol2

> <Gold.PLP.Fitness>
46.6103

> <Gold.PLP.PLP>
-41.7954

> <Gold.PLP.part.hbond>
-4.0000

> <Gold.PLP.part.metal>
0.0000

> <Gold.PLP.part.buried>
-2.8928

> <Gold.PLP.part.nonpolar>
-34.1256

> <Gold.PLP.part.repulsive>
0.2116

> <Gold.PLP.ligand.clash>
0.0000

> <Gold.PLP.ligand.torsion>
0.7646

> <Gold.PLP.Chemscore.Hbond>
2.0000

> <Gold.PLP.Chemscore.CHOScore>
0.0000

> <Gold.PLP.Chemscore.Metal>
0.0000

> <Gold.Chemscore.Hbonds>
donor molecule, donor type, donor heavy atom, donor atom, acceptor molecule, acceptor atom, score
      P1  H  7997  8009       L1    15  1.00
      P1  H 10752 10764       L1     1  1.00

> <Gold.PLP.Chemscore.Internal.Correction>
0.3441

> <Gold.Rescore>
     Score         DG    S(hbond)    S(metal)    S(lipo)     H(rot)  DE(clash)    DE(int)     intcor
     15.26     -16.13       1.95        0.00      81.04       2.09       0.28       0.59       ----

> <Gold.Chemscore.Fitness>
15.2560

> <Gold.Chemscore.DG>
-16.1331

> <Gold.Chemscore.ZeroCoef>
-5.4800

> <Gold.Chemscore.Hbond>
1.9526

> <Gold.Chemscore.Metal>
0.0000

> <Gold.Chemscore.Lipo>
81.0382

> <Gold.Chemscore.Internal_Hbond>
0.0000

> <Gold.Chemscore.DEClash>
0.2846

> <Gold.Chemscore.DEInternal>
0.5925

> <Gold.Chemscore.Rot>
2.0899

> <Gold.Chemscore.Internal.Correction>
   9.000000E+99

> <Gold.Chemscore.Hbonds>
donor molecule, donor type, donor heavy atom, donor atom, acceptor molecule, acceptor atom, score
      P1  H  7997  8009       L1    15  0.25
      P1  H 10752 10764       L1     1  0.97

> <Gold.Chemscore.Hbond.Weighted>
-6.5218

> <Gold.Chemscore.Metal.Weighted>
-0.0000

> <Gold.Chemscore.Lipo.Weighted>
-9.4815

> <Gold.Chemscore.Internal_Hbond.Weighted>
0.0000

> <Gold.Chemscore.DEClash.Weighted>
0.2846

> <Gold.Chemscore.DEInternal.Weighted>
0.5925

> <Gold.Chemscore.Rot.Weighted>
5.3502

> <Gold.Chemscore.Internal.Correction.Weighted>
   9.000000E+99

> <Gold.Protein.RotatedTorsions>
[ 6907 6896 6895 6894 ] final  -70.05 input  -60.11 | X-H torsion
[ 7974 7965 7964 7962 ] final  165.55 input  175.53 | X-H torsion
[ 8008 7997 7996 7995 ] final -165.73 input   59.86 | X-H torsion
[ 10167 10162 10161 10158 ] final  -15.28 input  -65.29 | X-H torsion
[ 10718 10713 10712 10709 ] final -143.60 input   66.30 | X-H torsion
[ 10763 10752 10751 10750 ] final  -59.16 input  -60.55 | X-H torsion
[ 11005 11000 10999 10996 ] final  -52.40 input  -57.11 | X-H torsion

> <Gold.Protein.ActiveResidues>
 VAL166  LYS551  ARG553  GLY616  TRP617  ASP618  TYR619  PRO620  LYS621  CYS622 
 ASP623  PHE694  ASN695  SER759  ASP760  ASP761  ALA762  ILE779  LEU786  VAL792 
 PHE793  MET794  SER795  GLU796  ALA797  LYS798  CYS799  TRP800  GLU811  SER814 

> <Gold.Protein.RotatedAtoms>
  150.7276  134.5508  159.5793 H   0  0  0  0  0  0  0  0  0  0  0  0  # atno 6907 bound_to 6896
  152.2996  134.7624  160.0370 H   0  0  0  0  0  0  0  0  0  0  0  0  # atno 6908 bound_to 6896
  151.8209  133.3359  159.3620 H   0  0  0  0  0  0  0  0  0  0  0  0  # atno 6909 bound_to 6896
  144.7498  139.8486  143.6370 H   0  0  0  0  0  0  0  0  0  0  0  0  # atno 7974 bound_to 7965
  155.8539  140.0967  157.1657 H   0  0  0  0  0  0  0  0  0  0  0  0  # atno 8008 bound_to 7997
  154.3987  140.1378  156.3940 H   0  0  0  0  0  0  0  0  0  0  0  0  # atno 8009 bound_to 7997
  155.7931  140.3455  155.5363 H   0  0  0  0  0  0  0  0  0  0  0  0  # atno 8010 bound_to 7997
  140.7216  143.5234  150.9606 H   0  0  0  0  0  0  0  0  0  0  0  0  # atno 10167 bound_to 10162
  156.3599  130.7733  151.1899 H   0  0  0  0  0  0  0  0  0  0  0  0  # atno 10718 bound_to 10713
  154.2494  135.6329  153.5235 H   0  0  0  0  0  0  0  0  0  0  0  0  # atno 10763 bound_to 10752
  152.9915  135.5561  154.5824 H   0  0  0  0  0  0  0  0  0  0  0  0  # atno 10764 bound_to 10752
  154.5348  135.2890  155.1123 H   0  0  0  0  0  0  0  0  0  0  0  0  # atno 10765 bound_to 10752
  141.0922  133.6630  156.4018 H   0  0  0  0  0  0  0  0  0  0  0  0  # atno 11005 bound_to 11000
  146.1432  139.4494  143.0096 LP  0  0  0  0  0  0  0  0  0  0  0  0  # atno 17320 bound_to 7965
  145.6986  141.0143  143.1516 LP  0  0  0  0  0  0  0  0  0  0  0  0  # atno 17321 bound_to 7965
  139.8952  143.6903  152.3139 LP  0  0  0  0  0  0  0  0  0  0  0  0  # atno 17342 bound_to 10162
  139.7233  144.7598  151.0919 LP  0  0  0  0  0  0  0  0  0  0  0  0  # atno 17343 bound_to 10162
  157.7472  131.0403  150.4591 LP  0  0  0  0  0  0  0  0  0  0  0  0  # atno 17370 bound_to 10713
  156.4800  130.4071  149.6467 LP  0  0  0  0  0  0  0  0  0  0  0  0  # atno 17371 bound_to 10713
  140.5225  134.6290  157.5323 LP  0  0  0  0  0  0  0  0  0  0  0  0  # atno 17394 bound_to 11000
  139.9750  134.7230  155.9967 LP  0  0  0  0  0  0  0  0  0  0  0  0  # atno 17395 bound_to 11000

$$$$
