AV-unprocessed.smi:1870|AV-procd|sdf|7595|dock9
  -GOLD-   22720 9313D 1   1.00000     0.00000
 Structure written by MMmdl.
 48 50  0  0  0  0  0  0  0  0  2 V2000
  145.6312  145.6101  152.0911 C   0  0  0  0  0  0  0  0  0  0  0  0
  145.6809  144.7189  153.3030 C   0  0  0  0  0  0  0  0  0  0  0  0
  146.3212  143.6030  153.1769 N   0  0  0  0  0  0  0  0  0  0  0  0
  146.4303  142.7133  154.2281 N   0  0  0  0  0  0  0  0  0  0  0  0
  147.1806  141.4943  153.9027 C   0  0  0  0  0  0  0  0  0  0  0  0
  148.6454  141.5715  154.3851 C   0  0  2  0  0  0  0  0  0  0  0  0
  149.3742  140.5121  153.7952 O   0  0  0  0  0  0  0  0  0  0  0  0
  148.7460  141.4038  155.9156 C   0  0  0  0  0  0  0  0  0  0  0  0
  149.7542  142.3049  156.5331 N   0  3  2  0  0  0  0  0  0  0  0  0
  151.1220  141.7358  156.4931 C   0  0  0  0  0  0  0  0  0  0  0  0
  152.1560  142.8186  156.8268 C   0  0  0  0  0  0  0  0  0  0  0  0
  151.8077  143.5772  158.0941 C   0  0  0  0  0  0  0  0  0  0  0  0
  152.8000  144.3290  158.7564 C   0  0  0  0  0  0  0  0  0  0  0  0
  152.4757  145.0665  159.9109 C   0  0  0  0  0  0  0  0  0  0  0  0
  151.1575  145.0574  160.4045 C   0  0  0  0  0  0  0  0  0  0  0  0
  150.1637  144.3083  159.7456 C   0  0  0  0  0  0  0  0  0  0  0  0
  150.4817  143.5650  158.5896 C   0  0  0  0  0  0  0  0  0  0  0  0
  149.3940  142.7417  157.9093 C   0  0  0  0  0  0  0  0  0  0  0  0
  145.8932  142.9048  155.4667 C   0  0  0  0  0  0  0  0  0  0  0  0
  146.0100  142.0808  156.3747 O   0  0  0  0  0  0  0  0  0  0  0  0
  145.1707  144.1717  155.6033 C   0  0  0  0  0  0  0  0  0  0  0  0
  144.5987  144.4167  156.8881 C   0  0  0  0  0  0  0  0  0  0  0  0
  144.1292  144.6343  157.9236 N   0  0  0  0  0  0  0  0  0  0  0  0
  145.0543  145.0524  154.5781 C   0  0  0  0  0  0  0  0  0  0  0  0
  144.3140  146.3799  154.6695 C   0  0  0  0  0  0  0  0  0  0  0  0
  146.0086  146.6055  152.3252 H   0  0  0  0  0  0  0  0  0  0  0  0
  144.6081  145.7120  151.7286 H   0  0  0  0  0  0  0  0  0  0  0  0
  146.2340  145.2164  151.2712 H   0  0  0  0  0  0  0  0  0  0  0  0
  146.6831  140.6609  154.4027 H   0  0  0  0  0  0  0  0  0  0  0  0
  147.1279  141.2473  152.8405 H   0  0  0  0  0  0  0  0  0  0  0  0
  149.0799  142.5224  154.0784 H   0  0  0  0  0  0  0  0  0  0  0  0
  149.2424  140.5352  152.8593 H   0  0  0  0  0  0  0  0  0  0  0  0
  147.7771  141.5837  156.3842 H   0  0  0  0  0  0  0  0  0  0  0  0
  148.9982  140.3644  156.1321 H   0  0  0  0  0  0  0  0  0  0  0  0
  151.1903  140.9084  157.2015 H   0  0  0  0  0  0  0  0  0  0  0  0
  151.3434  141.3286  155.5060 H   0  0  0  0  0  0  0  0  0  0  0  0
  153.1452  142.3698  156.9268 H   0  0  0  0  0  0  0  0  0  0  0  0
  152.2170  143.5375  156.0089 H   0  0  0  0  0  0  0  0  0  0  0  0
  153.8116  144.3474  158.3775 H   0  0  0  0  0  0  0  0  0  0  0  0
  153.2373  145.6425  160.4157 H   0  0  0  0  0  0  0  0  0  0  0  0
  150.9086  145.6246  161.2895 H   0  0  0  0  0  0  0  0  0  0  0  0
  149.1557  144.3028  160.1341 H   0  0  0  0  0  0  0  0  0  0  0  0
  148.4816  143.3364  157.8849 H   0  0  0  0  0  0  0  0  0  0  0  0
  149.1929  141.8686  158.5317 H   0  0  0  0  0  0  0  0  0  0  0  0
  143.7780  146.4878  155.6119 H   0  0  0  0  0  0  0  0  0  0  0  0
  143.5800  146.4711  153.8683 H   0  0  0  0  0  0  0  0  0  0  0  0
  145.0149  147.2113  154.5901 H   0  0  0  0  0  0  0  0  0  0  0  0
  149.7822  143.1347  155.9573 H   0  0  0  0  0  0  0  0  0  0  0  0
  1  2  1  0  0  0  0
  1 26  1  0  0  0  0
  1 27  1  0  0  0  0
  1 28  1  0  0  0  0
  2 24  1  0  0  0  0
  2  3  2  0  0  0  0
  3  4  1  0  0  0  0
  4  5  1  0  0  0  0
  4 19  1  0  0  0  0
  5  6  1  0  0  0  0
  5 29  1  0  0  0  0
  5 30  1  0  0  0  0
  6  7  1  0  0  0  0
  6  8  1  0  0  0  0
  6 31  1  0  0  0  0
  7 32  1  0  0  0  0
  8  9  1  0  0  0  0
  8 33  1  0  0  0  0
  8 34  1  0  0  0  0
  9 18  1  0  0  0  0
  9 10  1  0  0  0  0
  9 48  1  0  0  0  0
 10 11  1  0  0  0  0
 10 35  1  0  0  0  0
 10 36  1  0  0  0  0
 11 12  1  0  0  0  0
 11 37  1  0  0  0  0
 11 38  1  0  0  0  0
 12 17  2  0  0  0  0
 12 13  1  0  0  0  0
 13 14  2  0  0  0  0
 13 39  1  0  0  0  0
 14 15  1  0  0  0  0
 14 40  1  0  0  0  0
 15 16  2  0  0  0  0
 15 41  1  0  0  0  0
 16 17  1  0  0  0  0
 16 42  1  0  0  0  0
 17 18  1  0  0  0  0
 18 43  1  0  0  0  0
 18 44  1  0  0  0  0
 19 20  2  0  0  0  0
 19 21  1  0  0  0  0
 21 22  1  0  0  0  0
 21 24  2  0  0  0  0
 22 23  3  0  0  0  0
 24 25  1  0  0  0  0
 25 45  1  0  0  0  0
 25 46  1  0  0  0  0
 25 47  1  0  0  0  0
M  CHG  1   9   1
M  END
> <s_m_source_file>
AV-unprocessed.smi

> <i_m_source_file_index>
1870

> <i_lp_mmshare_version>
43012

> <i_f3d_flags>
0

> <s_epik_input>
TiNDYyhjMVtDSDNdKWMoPU8pbihuYzFbQ0gzXSlbQ0gyXVtDQEhdKFtPSF0pW0NIMl1OKFtDSDJdW0NIMl0yKVtDSDJdYyhjMjMpW2NIXVtjSF1bY0hdW2NIXTM=

> <s_epik_cmdline>
J2VwaWtfcHl0aG9uJywgJy1waCcsICc3LjAnLCAnLXRuJywgJzgnLCAnLW1hJywgJzIwMCcsICctbWV0YWxfYmluZGluZycsICctaW1hZScsICc8aW5maWxlLm1hZT4nLCAnLW9tYWUnLCAnPG91dGZpbGUubWFlPic=

> <r_epik_Ionization_Penalty>
0.0122865

> <r_epik_Ionization_Penalty_Charging>
0.0122864

> <r_epik_Ionization_Penalty_Neutral>
1.48087e-07

> <r_epik_State_Penalty>
0.00950248

> <r_epik_Charging_Adjusted_Penalty>
0.0217889

> <i_epik_Tot_Q>
1

> <i_epik_Tot_abs_Q>
1

> <r_epik_Metal_State_Penalty>
0.00950248

> <b_epik_Metal_Only>
0

> <s_lp_Force_Field>
OPLS_2005

> <r_lp_Energy>
38.404

> <b_lp_Chiralities_Consistent>
1

> <s_lp_Variant>
AV-unprocessed.smi:1870-3

> <Gold.Version>
5.8.1

> <Gold.Id.Protein>
6NUR|6NUR_protein|mol2

> <Gold.PLP.Fitness>
56.9494

> <Gold.PLP.PLP>
-50.0000

> <Gold.PLP.part.hbond>
-3.9693

> <Gold.PLP.part.metal>
0.0000

> <Gold.PLP.part.buried>
-2.3085

> <Gold.PLP.part.nonpolar>
-44.3483

> <Gold.PLP.part.repulsive>
0.3550

> <Gold.PLP.ligand.clash>
0.0000

> <Gold.PLP.ligand.torsion>
1.3060

> <Gold.PLP.Chemscore.Hbond>
3.1802

> <Gold.PLP.Chemscore.CHOScore>
0.0000

> <Gold.PLP.Chemscore.Metal>
0.0000

> <Gold.Chemscore.Hbonds>
donor molecule, donor type, donor heavy atom, donor atom, acceptor molecule, acceptor atom, score
      L1  H     7    32       P1  7957  1.00
      L1  H     9    48       P1  8028  1.66
      P1  H  7989  7998       L1     7  0.09

> <Gold.PLP.Chemscore.Internal.Correction>
0.0208

> <Gold.Rescore>
     Score         DG    S(hbond)    S(metal)    S(lipo)     H(rot)  DE(clash)    DE(int)     intcor
     17.96     -22.21       1.91        0.00     135.69       2.16       1.92       2.33       ----

> <Gold.Chemscore.Fitness>
17.9575

> <Gold.Chemscore.DG>
-22.2109

> <Gold.Chemscore.ZeroCoef>
-5.4800

> <Gold.Chemscore.Hbond>
1.9138

> <Gold.Chemscore.Metal>
0.0000

> <Gold.Chemscore.Lipo>
135.6891

> <Gold.Chemscore.Internal_Hbond>
0.0000

> <Gold.Chemscore.DEClash>
1.9193

> <Gold.Chemscore.DEInternal>
2.3341

> <Gold.Chemscore.Rot>
2.1628

> <Gold.Chemscore.Internal.Correction>
   9.000000E+99

> <Gold.Chemscore.Hbonds>
donor molecule, donor type, donor heavy atom, donor atom, acceptor molecule, acceptor atom, score
      L1  H     7    32       P1  7957  0.98
      L1  H     9    48       P1  8028  0.83

> <Gold.Chemscore.Hbond.Weighted>
-6.3920

> <Gold.Chemscore.Metal.Weighted>
-0.0000

> <Gold.Chemscore.Lipo.Weighted>
-15.8756

> <Gold.Chemscore.Internal_Hbond.Weighted>
0.0000

> <Gold.Chemscore.DEClash.Weighted>
1.9193

> <Gold.Chemscore.DEInternal.Weighted>
2.3341

> <Gold.Chemscore.Rot.Weighted>
5.5367

> <Gold.Chemscore.Internal.Correction.Weighted>
   9.000000E+99

> <Gold.Protein.RotatedTorsions>
[ 6907 6896 6895 6894 ] final   49.65 input  -60.11 | X-H torsion
[ 7974 7965 7964 7962 ] final  -67.90 input  175.53 | X-H torsion
[ 8008 7997 7996 7995 ] final  -52.33 input   59.86 | X-H torsion
[ 10167 10162 10161 10158 ] final  122.94 input  -65.29 | X-H torsion
[ 10718 10713 10712 10709 ] final  -82.96 input   66.30 | X-H torsion
[ 10763 10752 10751 10750 ] final -108.54 input  -60.55 | X-H torsion
[ 11005 11000 10999 10996 ] final  -72.58 input  -57.11 | X-H torsion

> <Gold.Protein.ActiveResidues>
 VAL166  LYS551  ARG553  GLY616  TRP617  ASP618  TYR619  PRO620  LYS621  CYS622 
 ASP623  PHE694  ASN695  SER759  ASP760  ASP761  ALA762  ILE779  LEU786  VAL792 
 PHE793  MET794  SER795  GLU796  ALA797  LYS798  CYS799  TRP800  GLU811  SER814 

> <Gold.Protein.RotatedAtoms>
  152.2931  134.7698  160.0373 H   0  0  0  0  0  0  0  0  0  0  0  0  # atno 6907 bound_to 6896
  151.8237  133.3393  159.3600 H   0  0  0  0  0  0  0  0  0  0  0  0  # atno 6908 bound_to 6896
  150.7239  134.5478  159.5824 H   0  0  0  0  0  0  0  0  0  0  0  0  # atno 6909 bound_to 6896
  145.7234  140.9029  143.0618 H   0  0  0  0  0  0  0  0  0  0  0  0  # atno 7974 bound_to 7965
  154.4104  140.1226  156.4974 H   0  0  0  0  0  0  0  0  0  0  0  0  # atno 8008 bound_to 7997
  155.6929  140.3495  155.4881 H   0  0  0  0  0  0  0  0  0  0  0  0  # atno 8009 bound_to 7997
  155.9453  140.1094  157.1012 H   0  0  0  0  0  0  0  0  0  0  0  0  # atno 8010 bound_to 7997
  139.5829  144.6994  151.3483 H   0  0  0  0  0  0  0  0  0  0  0  0  # atno 10167 bound_to 10162
  156.0025  130.4650  150.4185 H   0  0  0  0  0  0  0  0  0  0  0  0  # atno 10718 bound_to 10713
  154.8141  135.4634  154.0596 H   0  0  0  0  0  0  0  0  0  0  0  0  # atno 10763 bound_to 10752
  153.2003  135.6868  153.8246 H   0  0  0  0  0  0  0  0  0  0  0  0  # atno 10764 bound_to 10752
  153.7733  135.3267  155.3332 H   0  0  0  0  0  0  0  0  0  0  0  0  # atno 10765 bound_to 10752
  141.1610  133.6851  156.7080 H   0  0  0  0  0  0  0  0  0  0  0  0  # atno 11005 bound_to 11000
  144.6911  139.9233  143.7469 LP  0  0  0  0  0  0  0  0  0  0  0  0  # atno 17320 bound_to 7965
  146.0605  139.3599  143.0584 LP  0  0  0  0  0  0  0  0  0  0  0  0  # atno 17321 bound_to 7965
  140.7105  143.7404  150.7558 LP  0  0  0  0  0  0  0  0  0  0  0  0  # atno 17342 bound_to 10162
  140.0941  143.4850  152.2462 LP  0  0  0  0  0  0  0  0  0  0  0  0  # atno 17343 bound_to 10162
  157.2243  131.0489  151.2529 LP  0  0  0  0  0  0  0  0  0  0  0  0  # atno 17370 bound_to 10713
  157.3771  130.7212  149.6604 LP  0  0  0  0  0  0  0  0  0  0  0  0  # atno 17371 bound_to 10713
  140.2908  134.8242  157.4015 LP  0  0  0  0  0  0  0  0  0  0  0  0  # atno 17394 bound_to 11000
  140.1348  134.5048  155.8077 LP  0  0  0  0  0  0  0  0  0  0  0  0  # atno 17395 bound_to 11000

$$$$
