AV-unprocessed.smi:33|AV-procd|sdf|214|dock9
  -GOLD-   2262015523D 1   1.00000     0.00000
 Structure written by MMmdl.
 67 72  0  0  0  0  0  0  0  0  1 V2000
  152.7172  139.3690  157.3593 O   0  0  0  0  0  0  0  0  0  0  0  0
  151.9371  140.2990  157.5734 C   0  0  0  0  0  0  0  0  0  0  0  0
  150.7295  140.4077  156.9939 O   0  0  0  0  0  0  0  0  0  0  0  0
  150.2558  139.4024  156.1138 C   0  0  0  0  0  0  0  0  0  0  0  0
  149.6553  138.2884  156.9753 C   0  0  1  0  0  0  0  0  0  0  0  0
  148.4151  137.8495  156.4315 O   0  0  0  0  0  0  0  0  0  0  0  0
  148.1240  136.5710  156.9085 C   0  0  2  0  0  0  0  0  0  0  0  0
  146.9849  136.6353  157.8875 N   0  0  0  0  0  0  0  0  0  0  0  0
  146.6510  137.7117  158.6801 C   0  0  0  0  0  0  0  0  0  0  0  0
  145.6228  137.5387  159.4646 N   0  0  0  0  0  0  0  0  0  0  0  0
  145.2172  136.2389  159.1983 C   0  0  0  0  0  0  0  0  0  0  0  0
  144.1727  135.4149  159.6944 C   0  0  0  0  0  0  0  0  0  0  0  0
  143.3017  135.8330  160.6390 N   0  0  0  0  0  0  0  0  0  0  0  0
  141.8735  135.6334  160.3571 C   0  0  0  0  0  0  0  0  0  0  0  0
  141.4877  135.5587  159.1889 O   0  0  0  0  0  0  0  0  0  0  0  0
  140.8790  135.5596  161.4803 C   0  0  0  0  0  0  0  0  0  0  0  0
  139.5085  135.7886  161.2284 C   0  0  0  0  0  0  0  0  0  0  0  0
  138.5712  135.7044  162.2763 C   0  0  0  0  0  0  0  0  0  0  0  0
  138.9954  135.3713  163.5769 C   0  0  0  0  0  0  0  0  0  0  0  0
  140.3565  135.1141  163.8285 C   0  0  0  0  0  0  0  0  0  0  0  0
  141.2946  135.2002  162.7822 C   0  0  0  0  0  0  0  0  0  0  0  0
  143.8690  136.4333  161.8549 C   0  0  0  0  0  0  0  0  0  0  0  0
  143.1771  137.1905  162.5383 O   0  0  0  0  0  0  0  0  0  0  0  0
  145.2974  136.1736  162.2417 C   0  0  0  0  0  0  0  0  0  0  0  0
  145.8147  134.8606  162.1884 C   0  0  0  0  0  0  0  0  0  0  0  0
  147.1557  134.6107  162.5389 C   0  0  0  0  0  0  0  0  0  0  0  0
  147.9931  135.6742  162.9259 C   0  0  0  0  0  0  0  0  0  0  0  0
  147.4921  136.9896  162.9527 C   0  0  0  0  0  0  0  0  0  0  0  0
  146.1507  137.2405  162.6037 C   0  0  0  0  0  0  0  0  0  0  0  0
  144.0525  134.1582  159.1972 N   0  0  0  0  0  0  0  0  0  0  0  0
  144.9162  133.7312  158.2727 C   0  0  0  0  0  0  0  0  0  0  0  0
  145.9414  134.3867  157.7241 N   0  0  0  0  0  0  0  0  0  0  0  0
  146.0610  135.6563  158.2125 C   0  0  0  0  0  0  0  0  0  0  0  0
  149.4220  136.0009  157.5269 C   0  0  2  0  0  0  0  0  0  0  0  0
  149.4142  135.9241  158.9423 O   0  0  0  0  0  0  0  0  0  0  0  0
  150.4674  136.9992  157.0538 C   0  0  1  0  0  0  0  0  0  0  0  0
  150.9106  136.6480  155.8448 F   0  0  0  0  0  0  0  0  0  0  0  0
  152.2293  141.4271  158.5045 C   0  0  0  0  0  0  0  0  0  0  0  0
  153.0567  141.2040  159.6295 C   0  0  0  0  0  0  0  0  0  0  0  0
  153.3498  142.2530  160.5228 C   0  0  0  0  0  0  0  0  0  0  0  0
  152.8205  143.5379  160.3012 C   0  0  0  0  0  0  0  0  0  0  0  0
  151.9977  143.7733  159.1843 C   0  0  0  0  0  0  0  0  0  0  0  0
  151.7033  142.7256  158.2906 C   0  0  0  0  0  0  0  0  0  0  0  0
  149.5107  139.8051  155.4264 H   0  0  0  0  0  0  0  0  0  0  0  0
  151.0879  139.0187  155.5224 H   0  0  0  0  0  0  0  0  0  0  0  0
  149.5060  138.6564  157.9909 H   0  0  0  0  0  0  0  0  0  0  0  0
  147.7385  135.9632  156.0892 H   0  0  0  0  0  0  0  0  0  0  0  0
  147.2010  138.6413  158.6557 H   0  0  0  0  0  0  0  0  0  0  0  0
  139.1722  136.0445  160.2340 H   0  0  0  0  0  0  0  0  0  0  0  0
  137.5260  135.8941  162.0817 H   0  0  0  0  0  0  0  0  0  0  0  0
  138.2762  135.3065  164.3798 H   0  0  0  0  0  0  0  0  0  0  0  0
  140.6816  134.8493  164.8237 H   0  0  0  0  0  0  0  0  0  0  0  0
  142.3363  134.9957  162.9851 H   0  0  0  0  0  0  0  0  0  0  0  0
  145.1810  134.0367  161.8933 H   0  0  0  0  0  0  0  0  0  0  0  0
  147.5416  133.6024  162.5098 H   0  0  0  0  0  0  0  0  0  0  0  0
  149.0210  135.4817  163.1957 H   0  0  0  0  0  0  0  0  0  0  0  0
  148.1366  137.8068  163.2410 H   0  0  0  0  0  0  0  0  0  0  0  0
  145.7781  138.2545  162.6248 H   0  0  0  0  0  0  0  0  0  0  0  0
  144.7652  132.7209  157.9223 H   0  0  0  0  0  0  0  0  0  0  0  0
  149.6072  135.0016  157.1311 H   0  0  0  0  0  0  0  0  0  0  0  0
  148.7932  136.5545  159.2739 H   0  0  0  0  0  0  0  0  0  0  0  0
  151.3360  137.0731  157.7098 H   0  0  0  0  0  0  0  0  0  0  0  0
  153.4749  140.2260  159.8198 H   0  0  0  0  0  0  0  0  0  0  0  0
  153.9822  142.0710  161.3792 H   0  0  0  0  0  0  0  0  0  0  0  0
  153.0466  144.3418  160.9859 H   0  0  0  0  0  0  0  0  0  0  0  0
  151.5925  144.7593  159.0102 H   0  0  0  0  0  0  0  0  0  0  0  0
  151.0725  142.9413  157.4410 H   0  0  0  0  0  0  0  0  0  0  0  0
  1  2  2  0  0  0  0
  2  3  1  0  0  0  0
  2 38  1  0  0  0  0
  3  4  1  0  0  0  0
  4  5  1  0  0  0  0
  4 44  1  0  0  0  0
  4 45  1  0  0  0  0
  5 36  1  0  0  0  0
  5  6  1  0  0  0  0
  5 46  1  0  0  0  0
  6  7  1  0  0  0  0
  7  8  1  0  0  0  0
  7 34  1  0  0  0  0
  7 47  1  0  0  0  0
  8 33  1  0  0  0  0
  8  9  1  0  0  0  0
  9 10  2  0  0  0  0
  9 48  1  0  0  0  0
 10 11  1  0  0  0  0
 11 33  2  0  0  0  0
 11 12  1  0  0  0  0
 12 13  1  0  0  0  0
 12 30  2  0  0  0  0
 13 14  1  0  0  0  0
 13 22  1  0  0  0  0
 14 15  2  0  0  0  0
 14 16  1  0  0  0  0
 16 21  1  0  0  0  0
 16 17  2  0  0  0  0
 17 18  1  0  0  0  0
 17 49  1  0  0  0  0
 18 19  2  0  0  0  0
 18 50  1  0  0  0  0
 19 20  1  0  0  0  0
 19 51  1  0  0  0  0
 20 21  2  0  0  0  0
 20 52  1  0  0  0  0
 21 53  1  0  0  0  0
 22 23  2  0  0  0  0
 22 24  1  0  0  0  0
 24 29  1  0  0  0  0
 24 25  2  0  0  0  0
 25 26  1  0  0  0  0
 25 54  1  0  0  0  0
 26 27  2  0  0  0  0
 26 55  1  0  0  0  0
 27 28  1  0  0  0  0
 27 56  1  0  0  0  0
 28 29  2  0  0  0  0
 28 57  1  0  0  0  0
 29 58  1  0  0  0  0
 30 31  1  0  0  0  0
 31 32  2  0  0  0  0
 31 59  1  0  0  0  0
 32 33  1  0  0  0  0
 34 35  1  0  0  0  0
 34 36  1  0  0  0  0
 34 60  1  0  0  0  0
 35 61  1  0  0  0  0
 36 37  1  0  0  0  0
 36 62  1  0  0  0  0
 38 43  1  0  0  0  0
 38 39  2  0  0  0  0
 39 40  1  0  0  0  0
 39 63  1  0  0  0  0
 40 41  2  0  0  0  0
 40 64  1  0  0  0  0
 41 42  1  0  0  0  0
 41 65  1  0  0  0  0
 42 43  2  0  0  0  0
 42 66  1  0  0  0  0
 43 67  1  0  0  0  0
M  END
> <s_m_source_file>
AV-unprocessed.smi

> <i_m_source_file_index>
33

> <i_lp_mmshare_version>
43012

> <i_f3d_flags>
0

> <s_epik_input>
W2NIXTFbY0hdW2NIXVtjSF1bY0hdYzFDKD1PKU9bQ0gyXVtDQEBIXTJPW0NASF0oW0NAQEhdKFtPSF0pW0NAQEhdMkYpbihbY0hdbjMpYyhjMzQpbltjSF1uYzROKEMoPU8pYzVbY0hdW2NIXVtjSF1bY0hdW2NIXTUpQyg9TyljNltjSF1bY0hdW2NIXVtjSF1bY0hdNg==

> <s_epik_cmdline>
J2VwaWtfcHl0aG9uJywgJy1waCcsICc3LjAnLCAnLXRuJywgJzgnLCAnLW1hJywgJzIwMCcsICctbWV0YWxfYmluZGluZycsICctaW1hZScsICc8aW5maWxlLm1hZT4nLCAnLW9tYWUnLCAnPG91dGZpbGUubWFlPic=

> <r_lp_tautomer_probability>
1

> <r_epik_Ionization_Penalty>
0.00067664

> <r_epik_Ionization_Penalty_Charging>
0

> <r_epik_Ionization_Penalty_Neutral>
0.00067664

> <r_epik_State_Penalty>
0.000428095

> <r_epik_Charging_Adjusted_Penalty>
0.000428095

> <i_epik_Tot_Q>
0

> <i_epik_Tot_abs_Q>
0

> <r_epik_Metal_State_Penalty>
-0

> <b_epik_Metal_Only>
0

> <s_epik_Chemistry_Notes>
This compound has an ester and may undergo hydrolysis at high or low pH. This compound contains an acetal/aminal-like group ( X-CH(R)-Y where X, Y are N, S, or O) that may be acid/base labile, releasing an aldehyde.

> <s_lp_Force_Field>
OPLS_2005

> <r_lp_Energy>
71.2242

> <b_lp_Chiralities_Consistent>
1

> <s_lp_Variant>
AV-unprocessed.smi:33-16

> <Gold.Version>
5.8.1

> <Gold.Id.Protein>
6NUR|6NUR_protein|mol2

> <Gold.PLP.Fitness>
61.8655

> <Gold.PLP.PLP>
-57.0106

> <Gold.PLP.part.hbond>
-4.0000

> <Gold.PLP.part.metal>
0.0000

> <Gold.PLP.part.buried>
-5.9851

> <Gold.PLP.part.nonpolar>
-46.5823

> <Gold.PLP.part.repulsive>
0.0669

> <Gold.PLP.ligand.clash>
0.0000

> <Gold.PLP.ligand.torsion>
4.1941

> <Gold.PLP.Chemscore.Hbond>
3.0000

> <Gold.PLP.Chemscore.CHOScore>
0.0000

> <Gold.PLP.Chemscore.Metal>
0.0000

> <Gold.Chemscore.Hbonds>
donor molecule, donor type, donor heavy atom, donor atom, acceptor molecule, acceptor atom, score
      P1  H  6896  6908       L1    35  1.00
      P1  H  7997  8008       L1     1  1.00
      P1  H 11000 11005       L1    15  0.83

> <Gold.PLP.Chemscore.Internal.Correction>
4.2431

> <Gold.Rescore>
     Score         DG    S(hbond)    S(metal)    S(lipo)     H(rot)  DE(clash)    DE(int)     intcor
     16.37     -27.14       2.89        0.00     157.96       2.52       0.73      10.04       ----

> <Gold.Chemscore.Fitness>
16.3653

> <Gold.Chemscore.DG>
-27.1426

> <Gold.Chemscore.ZeroCoef>
-5.4800

> <Gold.Chemscore.Hbond>
2.8876

> <Gold.Chemscore.Metal>
0.0000

> <Gold.Chemscore.Lipo>
157.9610

> <Gold.Chemscore.Internal_Hbond>
0.0000

> <Gold.Chemscore.DEClash>
0.7343

> <Gold.Chemscore.DEInternal>
10.0431

> <Gold.Chemscore.Rot>
2.5247

> <Gold.Chemscore.Internal.Correction>
   9.000000E+99

> <Gold.Chemscore.Hbonds>
donor molecule, donor type, donor heavy atom, donor atom, acceptor molecule, acceptor atom, score
      P1  H  6896  6908       L1    35  0.82
      P1  H  7997  8008       L1     1  0.61
      P1  H 11000 11005       L1    15  0.80

> <Gold.Chemscore.Hbond.Weighted>
-9.6444

> <Gold.Chemscore.Metal.Weighted>
-0.0000

> <Gold.Chemscore.Lipo.Weighted>
-18.4814

> <Gold.Chemscore.Internal_Hbond.Weighted>
0.0000

> <Gold.Chemscore.DEClash.Weighted>
0.7343

> <Gold.Chemscore.DEInternal.Weighted>
10.0431

> <Gold.Chemscore.Rot.Weighted>
6.4633

> <Gold.Chemscore.Internal.Correction.Weighted>
   9.000000E+99

> <Gold.Protein.RotatedTorsions>
[ 6907 6896 6895 6894 ] final  177.28 input  -60.11 | X-H torsion
[ 7974 7965 7964 7962 ] final  -69.48 input  175.53 | X-H torsion
[ 8008 7997 7996 7995 ] final  -48.04 input   59.86 | X-H torsion
[ 10167 10162 10161 10158 ] final  -95.69 input  -65.29 | X-H torsion
[ 10718 10713 10712 10709 ] final -143.13 input   66.30 | X-H torsion
[ 10763 10752 10751 10750 ] final  155.46 input  -60.55 | X-H torsion
[ 11005 11000 10999 10996 ] final -158.29 input  -57.11 | X-H torsion

> <Gold.Protein.ActiveResidues>
 VAL166  LYS551  ARG553  GLY616  TRP617  ASP618  TYR619  PRO620  LYS621  CYS622 
 ASP623  PHE694  ASN695  SER759  ASP760  ASP761  ALA762  ILE779  LEU786  VAL792 
 PHE793  MET794  SER795  GLU796  ALA797  LYS798  CYS799  TRP800  GLU811  SER814 

> <Gold.Protein.RotatedAtoms>
  151.7066  133.3311  159.3279 H   0  0  0  0  0  0  0  0  0  0  0  0  # atno 6907 bound_to 6896
  150.7712  134.6569  159.6328 H   0  0  0  0  0  0  0  0  0  0  0  0  # atno 6908 bound_to 6896
  152.3737  134.6698  160.0219 H   0  0  0  0  0  0  0  0  0  0  0  0  # atno 6909 bound_to 6896
  145.7032  140.9108  143.0720 H   0  0  0  0  0  0  0  0  0  0  0  0  # atno 7974 bound_to 7965
  154.4024  140.1331  156.4274 H   0  0  0  0  0  0  0  0  0  0  0  0  # atno 8008 bound_to 7997
  155.7584  140.3486  155.5165 H   0  0  0  0  0  0  0  0  0  0  0  0  # atno 8009 bound_to 7997
  155.8882  140.0999  157.1427 H   0  0  0  0  0  0  0  0  0  0  0  0  # atno 8010 bound_to 7997
  140.3015  143.3159  152.0243 H   0  0  0  0  0  0  0  0  0  0  0  0  # atno 10167 bound_to 10162
  156.3542  130.7704  151.1862 H   0  0  0  0  0  0  0  0  0  0  0  0  # atno 10718 bound_to 10713
  154.1687  135.2805  155.3087 H   0  0  0  0  0  0  0  0  0  0  0  0  # atno 10763 bound_to 10752
  154.6092  135.5504  153.7458 H   0  0  0  0  0  0  0  0  0  0  0  0  # atno 10764 bound_to 10752
  153.0171  135.6411  154.1828 H   0  0  0  0  0  0  0  0  0  0  0  0  # atno 10765 bound_to 10752
  140.6553  134.4407  157.5235 H   0  0  0  0  0  0  0  0  0  0  0  0  # atno 11005 bound_to 11000
  144.6962  139.8975  143.7456 LP  0  0  0  0  0  0  0  0  0  0  0  0  # atno 17320 bound_to 7965
  146.0779  139.3767  143.0482 LP  0  0  0  0  0  0  0  0  0  0  0  0  # atno 17321 bound_to 7965
  139.4914  144.6452  151.6793 LP  0  0  0  0  0  0  0  0  0  0  0  0  # atno 17342 bound_to 10162
  140.5647  144.0210  150.6186 LP  0  0  0  0  0  0  0  0  0  0  0  0  # atno 17343 bound_to 10162
  157.7465  131.0419  150.4667 LP  0  0  0  0  0  0  0  0  0  0  0  0  # atno 17370 bound_to 10713
  156.4867  130.4086  149.6430 LP  0  0  0  0  0  0  0  0  0  0  0  0  # atno 17371 bound_to 10713
  139.9032  134.8509  156.1812 LP  0  0  0  0  0  0  0  0  0  0  0  0  # atno 17394 bound_to 11000
  141.0506  133.6890  156.1765 LP  0  0  0  0  0  0  0  0  0  0  0  0  # atno 17395 bound_to 11000

$$$$
