AV-unprocessed.smi:3161|AV-procd|sdf|12059|dock3
  -GOLD-   2272017483D 1   1.00000     0.00000
 Structure written by MMmdl.
 40 41  0  0  0  0  0  0  0  0  1 V2000
  151.2228  136.5661  155.9094 C   0  0  0  0  0  0  0  0  0  0  0  0
  151.0263  137.9875  155.4674 C   0  0  0  0  0  0  0  0  0  0  0  0
  150.9892  138.4936  154.1369 C   0  0  0  0  0  0  0  0  0  0  0  0
  150.7949  139.8013  154.0890 N   0  0  0  0  0  0  0  0  0  0  0  0
  150.7076  140.1769  155.3830 N   0  0  0  0  0  0  0  0  0  0  0  0
  150.4952  141.5739  155.7203 C   0  0  0  0  0  0  0  0  0  0  0  0
  150.4422  141.8111  157.2429 C   0  0  2  0  0  0  0  0  0  0  0  0
  149.1486  141.2180  157.8305 C   0  0  0  0  0  0  0  0  0  0  0  0
  150.5636  143.2436  157.5364 N   0  0  0  0  0  0  0  0  0  0  0  0
  150.2872  143.6344  158.9173 C   0  0  0  0  0  0  0  0  0  0  0  0
  151.5506  143.5130  159.7809 C   0  0  2  0  0  0  0  0  0  0  0  0
  152.1901  142.1162  159.6634 C   0  0  0  0  0  0  0  0  0  0  0  0
  153.3968  141.9958  160.6015 C   0  0  0  0  0  0  0  0  0  0  0  0
  152.9833  142.3758  162.0271 C   0  0  0  0  0  0  0  0  0  0  0  0
  152.2901  143.7472  162.0342 C   0  0  0  0  0  0  0  0  0  0  0  0
  151.1807  143.7344  161.1410 O   0  0  0  0  0  0  0  0  0  0  0  0
  150.8411  139.1020  156.2357 C   0  0  0  0  0  0  0  0  0  0  0  0
  151.4883  135.9152  155.0759 H   0  0  0  0  0  0  0  0  0  0  0  0
  150.3182  136.1579  156.3604 H   0  0  0  0  0  0  0  0  0  0  0  0
  152.0188  136.4807  156.6492 H   0  0  0  0  0  0  0  0  0  0  0  0
  151.0956  137.9512  153.2091 H   0  0  0  0  0  0  0  0  0  0  0  0
  151.2783  142.1801  155.2609 H   0  0  0  0  0  0  0  0  0  0  0  0
  149.5555  141.8825  155.2606 H   0  0  0  0  0  0  0  0  0  0  0  0
  151.2844  141.2840  157.6931 H   0  0  0  0  0  0  0  0  0  0  0  0
  149.0354  140.1720  157.5443 H   0  0  0  0  0  0  0  0  0  0  0  0
  148.2681  141.7539  157.4743 H   0  0  0  0  0  0  0  0  0  0  0  0
  149.1432  141.2470  158.9198 H   0  0  0  0  0  0  0  0  0  0  0  0
  149.9709  143.7768  156.9076 H   0  0  0  0  0  0  0  0  0  0  0  0
  149.9110  144.6557  158.9717 H   0  0  0  0  0  0  0  0  0  0  0  0
  149.5078  142.9884  159.3228 H   0  0  0  0  0  0  0  0  0  0  0  0
  152.2764  144.2666  159.4680 H   0  0  0  0  0  0  0  0  0  0  0  0
  151.4541  141.3516  159.9153 H   0  0  0  0  0  0  0  0  0  0  0  0
  152.4991  141.9265  158.6350 H   0  0  0  0  0  0  0  0  0  0  0  0
  153.7988  140.9825  160.5780 H   0  0  0  0  0  0  0  0  0  0  0  0
  154.1938  142.6581  160.2612 H   0  0  0  0  0  0  0  0  0  0  0  0
  152.3021  141.6224  162.4244 H   0  0  0  0  0  0  0  0  0  0  0  0
  153.8541  142.3887  162.6831 H   0  0  0  0  0  0  0  0  0  0  0  0
  151.9325  143.9806  163.0371 H   0  0  0  0  0  0  0  0  0  0  0  0
  152.9876  144.5379  161.7536 H   0  0  0  0  0  0  0  0  0  0  0  0
  150.7955  139.2189  157.3085 H   0  0  0  0  0  0  0  0  0  0  0  0
  1  2  1  0  0  0  0
  1 18  1  0  0  0  0
  1 19  1  0  0  0  0
  1 20  1  0  0  0  0
  2 17  2  0  0  0  0
  2  3  1  0  0  0  0
  3  4  2  0  0  0  0
  3 21  1  0  0  0  0
  4  5  1  0  0  0  0
  5  6  1  0  0  0  0
  5 17  1  0  0  0  0
  6  7  1  0  0  0  0
  6 22  1  0  0  0  0
  6 23  1  0  0  0  0
  7  8  1  0  0  0  0
  7  9  1  0  0  0  0
  7 24  1  0  0  0  0
  8 25  1  0  0  0  0
  8 26  1  0  0  0  0
  8 27  1  0  0  0  0
  9 10  1  0  0  0  0
  9 28  1  0  0  0  0
 10 11  1  0  0  0  0
 10 29  1  0  0  0  0
 10 30  1  0  0  0  0
 11 16  1  0  0  0  0
 11 12  1  0  0  0  0
 11 31  1  0  0  0  0
 12 13  1  0  0  0  0
 12 32  1  0  0  0  0
 12 33  1  0  0  0  0
 13 14  1  0  0  0  0
 13 34  1  0  0  0  0
 13 35  1  0  0  0  0
 14 15  1  0  0  0  0
 14 36  1  0  0  0  0
 14 37  1  0  0  0  0
 15 16  1  0  0  0  0
 15 38  1  0  0  0  0
 15 39  1  0  0  0  0
 17 40  1  0  0  0  0
M  END
> <s_m_source_file>
AV-unprocessed.smi

> <i_m_source_file_index>
3161

> <i_lp_mmshare_version>
43012

> <i_f3d_flags>
0

> <s_epik_input>
W0NIM11jMVtjSF1ubihbY0hdMSlbQ0gyXVtDQEhdKFtDSDNdKVtOSF1bQ0gyXVtDQEBIXTJbQ0gyXVtDSDJdW0NIMl1bQ0gyXU8y

> <s_epik_cmdline>
J2VwaWtfcHl0aG9uJywgJy1waCcsICc3LjAnLCAnLXRuJywgJzgnLCAnLW1hJywgJzIwMCcsICctbWV0YWxfYmluZGluZycsICctaW1hZScsICc8aW5maWxlLm1hZT4nLCAnLW9tYWUnLCAnPG91dGZpbGUubWFlPic=

> <r_lp_tautomer_probability>
1

> <r_epik_Ionization_Penalty>
2.51986

> <r_epik_Ionization_Penalty_Charging>
0

> <r_epik_Ionization_Penalty_Neutral>
2.51986

> <r_epik_State_Penalty>
2.68614

> <r_epik_Charging_Adjusted_Penalty>
2.68614

> <i_epik_Tot_Q>
0

> <i_epik_Tot_abs_Q>
0

> <r_epik_Metal_State_Penalty>
2.68606

> <b_epik_Metal_Only>
0

> <s_lp_Force_Field>
OPLS_2005

> <r_lp_Energy>
14.7371

> <b_lp_Chiralities_Consistent>
1

> <s_lp_Variant>
AV-unprocessed.smi:3161-5

> <Gold.Version>
5.8.1

> <Gold.Id.Protein>
6NUR|6NUR_protein|mol2

> <Gold.PLP.Fitness>
46.9642

> <Gold.PLP.PLP>
-38.7023

> <Gold.PLP.part.hbond>
-2.4470

> <Gold.PLP.part.metal>
0.0000

> <Gold.PLP.part.buried>
-5.4667

> <Gold.PLP.part.nonpolar>
-29.7357

> <Gold.PLP.part.repulsive>
0.4631

> <Gold.PLP.ligand.clash>
0.0000

> <Gold.PLP.ligand.torsion>
0.3290

> <Gold.PLP.Chemscore.Hbond>
2.0000

> <Gold.PLP.Chemscore.CHOScore>
0.9499

> <Gold.PLP.Chemscore.Metal>
0.0000

> <Gold.Chemscore.Hbonds>
donor molecule, donor type, donor heavy atom, donor atom, acceptor molecule, acceptor atom, score
      L1  H     9    28       P1  8028  1.00
      P1  H  7989  7998       L1     4  0.86
      L1  C     3    21       P1  7949  0.81

> <Gold.PLP.Chemscore.Internal.Correction>
0.0704

> <Gold.Rescore>
     Score         DG    S(hbond)    S(metal)    S(lipo)     H(rot)  DE(clash)    DE(int)     intcor
     18.76     -19.26       1.74        0.00     100.96       1.50       0.06       0.44       ----

> <Gold.Chemscore.Fitness>
18.7611

> <Gold.Chemscore.DG>
-19.2584

> <Gold.Chemscore.ZeroCoef>
-5.4800

> <Gold.Chemscore.Hbond>
1.7406

> <Gold.Chemscore.Metal>
0.0000

> <Gold.Chemscore.Lipo>
100.9619

> <Gold.Chemscore.Internal_Hbond>
0.0000

> <Gold.Chemscore.DEClash>
0.0588

> <Gold.Chemscore.DEInternal>
0.4385

> <Gold.Chemscore.Rot>
1.5030

> <Gold.Chemscore.Internal.Correction>
   9.000000E+99

> <Gold.Chemscore.Hbonds>
donor molecule, donor type, donor heavy atom, donor atom, acceptor molecule, acceptor atom, score
      L1  H     9    28       P1  8028  0.99
      P1  H  7989  7998       L1     4  0.38

> <Gold.Chemscore.Hbond.Weighted>
-5.8135

> <Gold.Chemscore.Metal.Weighted>
-0.0000

> <Gold.Chemscore.Lipo.Weighted>
-11.8125

> <Gold.Chemscore.Internal_Hbond.Weighted>
0.0000

> <Gold.Chemscore.DEClash.Weighted>
0.0588

> <Gold.Chemscore.DEInternal.Weighted>
0.4385

> <Gold.Chemscore.Rot.Weighted>
3.8477

> <Gold.Chemscore.Internal.Correction.Weighted>
   9.000000E+99

> <Gold.Protein.RotatedTorsions>
[ 6907 6896 6895 6894 ] final   41.33 input  -60.11 | X-H torsion
[ 7974 7965 7964 7962 ] final -131.29 input  175.53 | X-H torsion
[ 8008 7997 7996 7995 ] final  -29.61 input   59.86 | X-H torsion
[ 10167 10162 10161 10158 ] final   -4.85 input  -65.29 | X-H torsion
[ 10718 10713 10712 10709 ] final -169.59 input   66.30 | X-H torsion
[ 10763 10752 10751 10750 ] final  -25.30 input  -60.55 | X-H torsion
[ 11005 11000 10999 10996 ] final  -61.41 input  -57.11 | X-H torsion

> <Gold.Protein.ActiveResidues>
 VAL166  LYS551  ARG553  GLY616  TRP617  ASP618  TYR619  PRO620  LYS621  CYS622 
 ASP623  PHE694  ASN695  SER759  ASP760  ASP761  ALA762  ILE779  LEU786  VAL792 
 PHE793  MET794  SER795  GLU796  ALA797  LYS798  CYS799  TRP800  GLU811  SER814 

> <Gold.Protein.RotatedAtoms>
  152.1939  134.8648  160.0514 H   0  0  0  0  0  0  0  0  0  0  0  0  # atno 6907 bound_to 6896
  151.9526  133.3665  159.4014 H   0  0  0  0  0  0  0  0  0  0  0  0  # atno 6908 bound_to 6896
  150.6940  134.4248  159.5265 H   0  0  0  0  0  0  0  0  0  0  0  0  # atno 6909 bound_to 6896
  144.9393  140.7220  143.4856 H   0  0  0  0  0  0  0  0  0  0  0  0  # atno 7974 bound_to 7965
  154.4283  140.1813  156.1275 H   0  0  0  0  0  0  0  0  0  0  0  0  # atno 8008 bound_to 7997
  156.0094  140.3352  155.6900 H   0  0  0  0  0  0  0  0  0  0  0  0  # atno 8009 bound_to 7997
  155.6132  140.0652  157.2691 H   0  0  0  0  0  0  0  0  0  0  0  0  # atno 8010 bound_to 7997
  140.6942  143.6376  150.8465 H   0  0  0  0  0  0  0  0  0  0  0  0  # atno 10167 bound_to 10162
  156.7137  130.9243  151.3091 H   0  0  0  0  0  0  0  0  0  0  0  0  # atno 10718 bound_to 10713
  153.6976  135.6958  153.5072 H   0  0  0  0  0  0  0  0  0  0  0  0  # atno 10763 bound_to 10752
  153.2366  135.4319  155.0652 H   0  0  0  0  0  0  0  0  0  0  0  0  # atno 10764 bound_to 10752
  154.8354  135.3497  154.6516 H   0  0  0  0  0  0  0  0  0  0  0  0  # atno 10765 bound_to 10752
  141.1323  133.6630  156.5371 H   0  0  0  0  0  0  0  0  0  0  0  0  # atno 11005 bound_to 11000
  145.3016  139.1848  143.4686 LP  0  0  0  0  0  0  0  0  0  0  0  0  # atno 17320 bound_to 7965
  146.3279  140.3008  142.8620 LP  0  0  0  0  0  0  0  0  0  0  0  0  # atno 17321 bound_to 7965
  140.0092  143.5661  152.2845 LP  0  0  0  0  0  0  0  0  0  0  0  0  # atno 17342 bound_to 10162
  139.6378  144.7652  151.2401 LP  0  0  0  0  0  0  0  0  0  0  0  0  # atno 17343 bound_to 10162
  157.6926  130.9249  150.0555 LP  0  0  0  0  0  0  0  0  0  0  0  0  # atno 17370 bound_to 10713
  156.1643  130.3644  149.9255 LP  0  0  0  0  0  0  0  0  0  0  0  0  # atno 17371 bound_to 10713
  140.4169  134.7222  157.4868 LP  0  0  0  0  0  0  0  0  0  0  0  0  # atno 17394 bound_to 11000
  140.0387  134.6299  155.9009 LP  0  0  0  0  0  0  0  0  0  0  0  0  # atno 17395 bound_to 11000

$$$$
