AV-unprocessed.smi:2224|AV-procd|sdf|8998|dock4
  -GOLD-   2272012203D 1   1.00000     0.00000
 Structure written by MMmdl.
 44 46  0  0  0  0  0  0  0  0  1 V2000
  152.0810  145.9171  160.3333 C   0  0  0  0  0  0  0  0  0  0  0  0
  152.0963  144.5444  159.6945 C   0  0  0  0  0  0  0  0  0  0  0  0
  152.8756  143.5028  160.2335 C   0  0  0  0  0  0  0  0  0  0  0  0
  152.8440  142.2488  159.5921 C   0  0  0  0  0  0  0  0  0  0  0  0
  153.6599  141.0850  160.1149 C   0  0  0  0  0  0  0  0  0  0  0  0
  152.1027  142.0029  158.4905 N   0  0  0  0  0  0  0  0  0  0  0  0
  151.3473  142.9985  157.9641 C   0  0  0  0  0  0  0  0  0  0  0  0
  150.5335  142.8448  156.8107 N   0  0  0  0  0  0  0  0  0  0  0  0
  150.2885  141.7246  156.1087 C   0  0  0  0  0  0  0  0  0  0  0  0
  150.7423  140.6084  156.3629 O   0  0  0  0  0  0  0  0  0  0  0  0
  149.4667  141.9705  155.0795 N   0  0  0  0  0  0  0  0  0  0  0  0
  148.9909  140.9611  154.1409 C   0  0  1  0  0  0  0  0  0  0  0  0
  148.6784  139.6308  154.8268 C   0  0  2  0  0  0  0  0  0  0  0  0
  149.2660  138.2657  154.7784 C   0  0  0  0  0  0  0  0  0  0  0  0
  147.9411  137.4687  154.6396 C   0  0  0  0  0  0  0  0  0  0  0  0
  146.9115  138.4522  154.3720 O   0  0  0  0  0  0  0  0  0  0  0  0
  147.6124  139.5128  153.7552 C   0  0  1  0  0  0  0  0  0  0  0  0
  147.4452  141.0432  153.8457 C   0  0  0  0  0  0  0  0  0  0  0  0
  146.4903  141.5999  154.9214 C   0  0  0  0  0  0  0  0  0  0  0  0
  147.0661  141.7341  152.5354 C   0  0  0  0  0  0  0  0  0  0  0  0
  151.3252  144.2870  158.5435 C   0  0  0  0  0  0  0  0  0  0  0  0
  152.6843  145.9398  161.2414 H   0  0  0  0  0  0  0  0  0  0  0  0
  151.0613  146.2010  160.5950 H   0  0  0  0  0  0  0  0  0  0  0  0
  152.4777  146.6598  159.6408 H   0  0  0  0  0  0  0  0  0  0  0  0
  153.4811  143.6608  161.1143 H   0  0  0  0  0  0  0  0  0  0  0  0
  154.1595  141.3397  161.0499 H   0  0  0  0  0  0  0  0  0  0  0  0
  154.4211  140.8015  159.3877 H   0  0  0  0  0  0  0  0  0  0  0  0
  153.0185  140.2219  160.2964 H   0  0  0  0  0  0  0  0  0  0  0  0
  150.0724  143.6834  156.4912 H   0  0  0  0  0  0  0  0  0  0  0  0
  149.1414  142.9156  154.9392 H   0  0  0  0  0  0  0  0  0  0  0  0
  149.6146  140.8486  153.2492 H   0  0  0  0  0  0  0  0  0  0  0  0
  148.2661  139.8059  155.8232 H   0  0  0  0  0  0  0  0  0  0  0  0
  149.9172  138.1313  153.9134 H   0  0  0  0  0  0  0  0  0  0  0  0
  149.8167  138.0081  155.6836 H   0  0  0  0  0  0  0  0  0  0  0  0
  148.0041  136.7501  153.8216 H   0  0  0  0  0  0  0  0  0  0  0  0
  147.6961  136.9233  155.5514 H   0  0  0  0  0  0  0  0  0  0  0  0
  148.0002  139.2015  152.7784 H   0  0  0  0  0  0  0  0  0  0  0  0
  145.4510  141.3852  154.6716 H   0  0  0  0  0  0  0  0  0  0  0  0
  146.5826  142.6828  155.0102 H   0  0  0  0  0  0  0  0  0  0  0  0
  146.6610  141.1902  155.9151 H   0  0  0  0  0  0  0  0  0  0  0  0
  146.0406  141.5052  152.2445 H   0  0  0  0  0  0  0  0  0  0  0  0
  147.7118  141.4191  151.7153 H   0  0  0  0  0  0  0  0  0  0  0  0
  147.1537  142.8183  152.6127 H   0  0  0  0  0  0  0  0  0  0  0  0
  150.7200  145.0723  158.1138 H   0  0  0  0  0  0  0  0  0  0  0  0
  1  2  1  0  0  0  0
  1 22  1  0  0  0  0
  1 23  1  0  0  0  0
  1 24  1  0  0  0  0
  2 21  1  0  0  0  0
  2  3  2  0  0  0  0
  3  4  1  0  0  0  0
  3 25  1  0  0  0  0
  4  5  1  0  0  0  0
  4  6  2  0  0  0  0
  5 26  1  0  0  0  0
  5 27  1  0  0  0  0
  5 28  1  0  0  0  0
  6  7  1  0  0  0  0
  7  8  1  0  0  0  0
  7 21  2  0  0  0  0
  8  9  1  0  0  0  0
  8 29  1  0  0  0  0
  9 10  2  0  0  0  0
  9 11  1  0  0  0  0
 11 12  1  0  0  0  0
 11 30  1  0  0  0  0
 12 18  1  0  0  0  0
 12 13  1  0  0  0  0
 12 31  1  0  0  0  0
 13 17  1  0  0  0  0
 13 14  1  0  0  0  0
 13 32  1  0  0  0  0
 14 15  1  0  0  0  0
 14 33  1  0  0  0  0
 14 34  1  0  0  0  0
 15 16  1  0  0  0  0
 15 35  1  0  0  0  0
 15 36  1  0  0  0  0
 16 17  1  0  0  0  0
 17 18  1  0  0  0  0
 17 37  1  0  0  0  0
 18 19  1  0  0  0  0
 18 20  1  0  0  0  0
 19 38  1  0  0  0  0
 19 39  1  0  0  0  0
 19 40  1  0  0  0  0
 20 41  1  0  0  0  0
 20 42  1  0  0  0  0
 20 43  1  0  0  0  0
 21 44  1  0  0  0  0
M  END
> <s_m_source_file>
AV-unprocessed.smi

> <i_m_source_file_index>
2224

> <i_lp_mmshare_version>
43012

> <i_f3d_flags>
0

> <s_epik_input>
W0NIM11jMVtjSF1jKFtDSDNdKW5jKFtjSF0xKVtOSF1DKD1PKVtOSF1bQ0BIXTJDKFtDSDNdKShbQ0gzXSlbQ0BIXShbQ0BASF0yMylPW0NIMl1bQ0gyXTM=

> <s_epik_cmdline>
J2VwaWtfcHl0aG9uJywgJy1waCcsICc3LjAnLCAnLXRuJywgJzgnLCAnLW1hJywgJzIwMCcsICctbWV0YWxfYmluZGluZycsICctaW1hZScsICc8aW5maWxlLm1hZT4nLCAnLW9tYWUnLCAnPG91dGZpbGUubWFlPic=

> <r_lp_tautomer_probability>
1

> <r_epik_Ionization_Penalty>
0.000276544

> <r_epik_Ionization_Penalty_Charging>
0

> <r_epik_Ionization_Penalty_Neutral>
0.000276544

> <r_epik_State_Penalty>
-0

> <r_epik_Charging_Adjusted_Penalty>
0

> <i_epik_Tot_Q>
0

> <i_epik_Tot_abs_Q>
0

> <r_epik_Metal_State_Penalty>
-0

> <b_epik_Metal_Only>
0

> <s_lp_Force_Field>
OPLS_2005

> <r_lp_Energy>
62.2425

> <b_lp_Chiralities_Consistent>
1

> <s_lp_Variant>
AV-unprocessed.smi:2224-8

> <Gold.Version>
5.8.1

> <Gold.Id.Protein>
6NUR|6NUR_protein|mol2

> <Gold.PLP.Fitness>
45.0836

> <Gold.PLP.PLP>
-39.3042

> <Gold.PLP.part.hbond>
-2.0000

> <Gold.PLP.part.metal>
0.0000

> <Gold.PLP.part.buried>
-5.9001

> <Gold.PLP.part.nonpolar>
-32.5890

> <Gold.PLP.part.repulsive>
0.3832

> <Gold.PLP.ligand.clash>
0.0000

> <Gold.PLP.ligand.torsion>
0.2435

> <Gold.PLP.Chemscore.Hbond>
2.0000

> <Gold.PLP.Chemscore.CHOScore>
0.0000

> <Gold.PLP.Chemscore.Metal>
0.0000

> <Gold.Chemscore.Hbonds>
donor molecule, donor type, donor heavy atom, donor atom, acceptor molecule, acceptor atom, score
      L1  H     8    29       P1  8028  1.00
      L1  H    11    30       P1  8028  0.99

> <Gold.PLP.Chemscore.Internal.Correction>
0.2664

> <Gold.Rescore>
     Score         DG    S(hbond)    S(metal)    S(lipo)     H(rot)  DE(clash)    DE(int)     intcor
     17.90     -22.88       1.93        0.00     115.36       1.00       2.09       2.88       ----

> <Gold.Chemscore.Fitness>
17.9042

> <Gold.Chemscore.DG>
-22.8774

> <Gold.Chemscore.ZeroCoef>
-5.4800

> <Gold.Chemscore.Hbond>
1.9344

> <Gold.Chemscore.Metal>
0.0000

> <Gold.Chemscore.Lipo>
115.3552

> <Gold.Chemscore.Internal_Hbond>
0.0000

> <Gold.Chemscore.DEClash>
2.0894

> <Gold.Chemscore.DEInternal>
2.8837

> <Gold.Chemscore.Rot>
1.0000

> <Gold.Chemscore.Internal.Correction>
   9.000000E+99

> <Gold.Chemscore.Hbonds>
donor molecule, donor type, donor heavy atom, donor atom, acceptor molecule, acceptor atom, score
      L1  H     8    29       P1  8028  1.00
      L1  H    11    30       P1  8028  0.93

> <Gold.Chemscore.Hbond.Weighted>
-6.4608

> <Gold.Chemscore.Metal.Weighted>
-0.0000

> <Gold.Chemscore.Lipo.Weighted>
-13.4966

> <Gold.Chemscore.Internal_Hbond.Weighted>
0.0000

> <Gold.Chemscore.DEClash.Weighted>
2.0894

> <Gold.Chemscore.DEInternal.Weighted>
2.8837

> <Gold.Chemscore.Rot.Weighted>
2.5600

> <Gold.Chemscore.Internal.Correction.Weighted>
   9.000000E+99

> <Gold.Protein.RotatedTorsions>
[ 6907 6896 6895 6894 ] final  -84.95 input  -60.11 | X-H torsion
[ 7974 7965 7964 7962 ] final  118.19 input  175.53 | X-H torsion
[ 8008 7997 7996 7995 ] final  129.99 input   59.86 | X-H torsion
[ 10167 10162 10161 10158 ] final   -3.25 input  -65.29 | X-H torsion
[ 10718 10713 10712 10709 ] final   69.13 input   66.30 | X-H torsion
[ 10763 10752 10751 10750 ] final -145.28 input  -60.55 | X-H torsion
[ 11005 11000 10999 10996 ] final  153.02 input  -57.11 | X-H torsion

> <Gold.Protein.ActiveResidues>
 VAL166  LYS551  ARG553  GLY616  TRP617  ASP618  TYR619  PRO620  LYS621  CYS622 
 ASP623  PHE694  ASN695  SER759  ASP760  ASP761  ALA762  ILE779  LEU786  VAL792 
 PHE793  MET794  SER795  GLU796  ALA797  LYS798  CYS799  TRP800  GLU811  SER814 

> <Gold.Protein.RotatedAtoms>
  150.6873  134.3280  159.4814 H   0  0  0  0  0  0  0  0  0  0  0  0  # atno 6907 bound_to 6896
  152.1148  134.9246  160.0574 H   0  0  0  0  0  0  0  0  0  0  0  0  # atno 6908 bound_to 6896
  152.0474  133.3969  159.4399 H   0  0  0  0  0  0  0  0  0  0  0  0  # atno 6909 bound_to 6896
  145.1582  139.3170  143.4531 H   0  0  0  0  0  0  0  0  0  0  0  0  # atno 7974 bound_to 7965
  156.2946  140.2607  156.2689 H   0  0  0  0  0  0  0  0  0  0  0  0  # atno 8008 bound_to 7997
  154.9714  140.0391  157.2255 H   0  0  0  0  0  0  0  0  0  0  0  0  # atno 8009 bound_to 7997
  154.7855  140.2802  155.6036 H   0  0  0  0  0  0  0  0  0  0  0  0  # atno 8010 bound_to 7997
  140.6883  143.6562  150.8306 H   0  0  0  0  0  0  0  0  0  0  0  0  # atno 10167 bound_to 10162
  157.6328  130.9409  150.0471 H   0  0  0  0  0  0  0  0  0  0  0  0  # atno 10718 bound_to 10713
  154.8391  135.3417  154.6478 H   0  0  0  0  0  0  0  0  0  0  0  0  # atno 10763 bound_to 10752
  153.7091  135.6965  153.5047 H   0  0  0  0  0  0  0  0  0  0  0  0  # atno 10764 bound_to 10752
  153.2465  135.4367  155.0707 H   0  0  0  0  0  0  0  0  0  0  0  0  # atno 10765 bound_to 10752
  140.1360  134.8770  157.2267 H   0  0  0  0  0  0  0  0  0  0  0  0  # atno 11005 bound_to 11000
  146.3486  140.1682  142.8590 LP  0  0  0  0  0  0  0  0  0  0  0  0  # atno 17320 bound_to 7965
  145.0359  140.8907  143.5081 LP  0  0  0  0  0  0  0  0  0  0  0  0  # atno 17321 bound_to 7965
  140.0272  143.5481  152.2775 LP  0  0  0  0  0  0  0  0  0  0  0  0  # atno 17342 bound_to 10162
  139.6260  144.7637  151.2636 LP  0  0  0  0  0  0  0  0  0  0  0  0  # atno 17343 bound_to 10162
  156.1545  130.3643  149.9390 LP  0  0  0  0  0  0  0  0  0  0  0  0  # atno 17370 bound_to 10713
  156.7402  130.9076  151.3631 LP  0  0  0  0  0  0  0  0  0  0  0  0  # atno 17371 bound_to 10713
  140.2782  134.3381  155.7351 LP  0  0  0  0  0  0  0  0  0  0  0  0  # atno 17394 bound_to 11000
  141.2178  133.7463  156.9324 LP  0  0  0  0  0  0  0  0  0  0  0  0  # atno 17395 bound_to 11000

$$$$
