AV-unprocessed.smi:2275|AV-procd|sdf|9170|dock3
  -GOLD-   2272012383D 1   1.00000     0.00000
 Structure written by MMmdl.
 38 39  0  0  0  0  0  0  0  0  1 V2000
  147.2734  132.4035  159.7478 C   0  0  0  0  0  0  0  0  0  0  0  0
  147.6954  133.8496  159.5570 C   0  0  0  0  0  0  0  0  0  0  0  0
  148.3757  134.1278  158.3678 N   0  0  0  0  0  0  0  0  0  0  0  0
  148.7800  135.3311  158.1227 C   0  0  0  0  0  0  0  0  0  0  0  0
  148.5535  136.3835  159.0246 N   0  0  0  0  0  0  0  0  0  0  0  0
  149.0693  137.7042  158.6278 C   0  0  0  0  0  0  0  0  0  0  0  0
  150.5712  137.6628  158.2674 C   0  0  2  0  0  0  0  0  0  0  0  0
  151.3298  137.1810  159.3587 O   0  0  0  0  0  0  0  0  0  0  0  0
  151.1344  139.0398  157.8758 C   0  0  0  0  0  0  0  0  0  0  0  0
  151.2306  139.8719  159.0260 O   0  0  0  0  0  0  0  0  0  0  0  0
  151.4560  141.2192  158.8418 C   0  0  0  0  0  0  0  0  0  0  0  0
  152.1665  141.8927  159.8570 C   0  0  0  0  0  0  0  0  0  0  0  0
  152.4429  143.2695  159.7526 C   0  0  0  0  0  0  0  0  0  0  0  0
  152.0091  143.9901  158.6247 C   0  0  0  0  0  0  0  0  0  0  0  0
  151.2981  143.3315  157.6044 C   0  0  0  0  0  0  0  0  0  0  0  0
  151.0211  141.9543  157.7096 C   0  0  0  0  0  0  0  0  0  0  0  0
  147.8843  136.2024  160.1999 C   0  0  0  0  0  0  0  0  0  0  0  0
  147.6720  137.1379  160.9737 O   0  0  0  0  0  0  0  0  0  0  0  0
  147.4386  134.8259  160.4699 C   0  0  0  0  0  0  0  0  0  0  0  0
  146.7044  134.5815  161.7824 C   0  0  0  0  0  0  0  0  0  0  0  0
  147.7464  131.9819  160.6352 H   0  0  0  0  0  0  0  0  0  0  0  0
  147.5594  131.7898  158.8926 H   0  0  0  0  0  0  0  0  0  0  0  0
  146.1914  132.3325  159.8615 H   0  0  0  0  0  0  0  0  0  0  0  0
  149.3123  135.6011  157.2089 H   0  0  0  0  0  0  0  0  0  0  0  0
  148.5018  138.0478  157.7608 H   0  0  0  0  0  0  0  0  0  0  0  0
  148.8801  138.4642  159.3890 H   0  0  0  0  0  0  0  0  0  0  0  0
  150.7418  136.9851  157.4300 H   0  0  0  0  0  0  0  0  0  0  0  0
  151.1145  137.6912  160.1242 H   0  0  0  0  0  0  0  0  0  0  0  0
  152.1038  138.9293  157.3864 H   0  0  0  0  0  0  0  0  0  0  0  0
  150.4537  139.5037  157.1603 H   0  0  0  0  0  0  0  0  0  0  0  0
  152.5041  141.3469  160.7258 H   0  0  0  0  0  0  0  0  0  0  0  0
  152.9881  143.7719  160.5379 H   0  0  0  0  0  0  0  0  0  0  0  0
  152.2209  145.0461  158.5429 H   0  0  0  0  0  0  0  0  0  0  0  0
  150.9639  143.8832  156.7380 H   0  0  0  0  0  0  0  0  0  0  0  0
  150.4726  141.4850  156.9071 H   0  0  0  0  0  0  0  0  0  0  0  0
  145.7925  135.1780  161.8201 H   0  0  0  0  0  0  0  0  0  0  0  0
  147.3333  134.8706  162.6251 H   0  0  0  0  0  0  0  0  0  0  0  0
  146.4217  133.5405  161.9290 H   0  0  0  0  0  0  0  0  0  0  0  0
  1  2  1  0  0  0  0
  1 21  1  0  0  0  0
  1 22  1  0  0  0  0
  1 23  1  0  0  0  0
  2 19  2  0  0  0  0
  2  3  1  0  0  0  0
  3  4  2  0  0  0  0
  4  5  1  0  0  0  0
  4 24  1  0  0  0  0
  5  6  1  0  0  0  0
  5 17  1  0  0  0  0
  6  7  1  0  0  0  0
  6 25  1  0  0  0  0
  6 26  1  0  0  0  0
  7  8  1  0  0  0  0
  7  9  1  0  0  0  0
  7 27  1  0  0  0  0
  8 28  1  0  0  0  0
  9 10  1  0  0  0  0
  9 29  1  0  0  0  0
  9 30  1  0  0  0  0
 10 11  1  0  0  0  0
 11 16  1  0  0  0  0
 11 12  2  0  0  0  0
 12 13  1  0  0  0  0
 12 31  1  0  0  0  0
 13 14  2  0  0  0  0
 13 32  1  0  0  0  0
 14 15  1  0  0  0  0
 14 33  1  0  0  0  0
 15 16  2  0  0  0  0
 15 34  1  0  0  0  0
 16 35  1  0  0  0  0
 17 18  2  0  0  0  0
 17 19  1  0  0  0  0
 19 20  1  0  0  0  0
 20 36  1  0  0  0  0
 20 37  1  0  0  0  0
 20 38  1  0  0  0  0
M  END
> <s_m_source_file>
AV-unprocessed.smi

> <i_m_source_file_index>
2275

> <i_lp_mmshare_version>
43012

> <i_f3d_flags>
0

> <s_epik_input>
W0NIM11jMW5bY0hdbihjKD1PKWMxW0NIM10pW0NIMl1bQ0BIXShbT0hdKVtDSDJdT2MyW2NIXVtjSF1bY0hdW2NIXVtjSF0y

> <s_epik_cmdline>
J2VwaWtfcHl0aG9uJywgJy1waCcsICc3LjAnLCAnLXRuJywgJzgnLCAnLW1hJywgJzIwMCcsICctbWV0YWxfYmluZGluZycsICctaW1hZScsICc8aW5maWxlLm1hZT4nLCAnLW9tYWUnLCAnPG91dGZpbGUubWFlPic=

> <r_lp_tautomer_probability>
1

> <r_epik_Ionization_Penalty>
4.18311e-05

> <r_epik_Ionization_Penalty_Charging>
1.04093e-07

> <r_epik_Ionization_Penalty_Neutral>
4.1727e-05

> <r_epik_State_Penalty>
-0

> <r_epik_Charging_Adjusted_Penalty>
1.04093e-07

> <i_epik_Tot_Q>
0

> <i_epik_Tot_abs_Q>
0

> <r_epik_Metal_State_Penalty>
-0

> <b_epik_Metal_Only>
0

> <s_lp_Force_Field>
OPLS_2005

> <r_lp_Energy>
24.2901

> <b_lp_Chiralities_Consistent>
1

> <s_lp_Variant>
AV-unprocessed.smi:2275-1

> <Gold.Version>
5.8.1

> <Gold.Id.Protein>
6NUR|6NUR_protein|mol2

> <Gold.PLP.Fitness>
46.3890

> <Gold.PLP.PLP>
-39.3351

> <Gold.PLP.part.hbond>
-3.2605

> <Gold.PLP.part.metal>
0.0000

> <Gold.PLP.part.buried>
-3.6860

> <Gold.PLP.part.nonpolar>
-32.0366

> <Gold.PLP.part.repulsive>
0.0000

> <Gold.PLP.ligand.clash>
0.0000

> <Gold.PLP.ligand.torsion>
0.5177

> <Gold.PLP.Chemscore.Hbond>
2.6709

> <Gold.PLP.Chemscore.CHOScore>
0.0000

> <Gold.PLP.Chemscore.Metal>
0.0000

> <Gold.Chemscore.Hbonds>
donor molecule, donor type, donor heavy atom, donor atom, acceptor molecule, acceptor atom, score
      P1  H  6896  6908       L1     8  0.80
      P1  H  6931  6943       L1    18  0.91
      P1  H  6934  6947       L1    18  0.91

> <Gold.PLP.Chemscore.Internal.Correction>
0.0767

> <Gold.Rescore>
     Score         DG    S(hbond)    S(metal)    S(lipo)     H(rot)  DE(clash)    DE(int)     intcor
     18.12     -18.78       2.57        0.00      92.32       2.38       0.03       0.63       ----

> <Gold.Chemscore.Fitness>
18.1194

> <Gold.Chemscore.DG>
-18.7778

> <Gold.Chemscore.ZeroCoef>
-5.4800

> <Gold.Chemscore.Hbond>
2.5736

> <Gold.Chemscore.Metal>
0.0000

> <Gold.Chemscore.Lipo>
92.3197

> <Gold.Chemscore.Internal_Hbond>
0.0000

> <Gold.Chemscore.DEClash>
0.0276

> <Gold.Chemscore.DEInternal>
0.6308

> <Gold.Chemscore.Rot>
2.3826

> <Gold.Chemscore.Internal.Correction>
   9.000000E+99

> <Gold.Chemscore.Hbonds>
donor molecule, donor type, donor heavy atom, donor atom, acceptor molecule, acceptor atom, score
      P1  H  6896  6908       L1     8  0.47
      P1  H  6931  6943       L1    18  0.86
      P1  H  6934  6947       L1    18  0.89

> <Gold.Chemscore.Hbond.Weighted>
-8.5960

> <Gold.Chemscore.Metal.Weighted>
-0.0000

> <Gold.Chemscore.Lipo.Weighted>
-10.8014

> <Gold.Chemscore.Internal_Hbond.Weighted>
0.0000

> <Gold.Chemscore.DEClash.Weighted>
0.0276

> <Gold.Chemscore.DEInternal.Weighted>
0.6308

> <Gold.Chemscore.Rot.Weighted>
6.0996

> <Gold.Chemscore.Internal.Correction.Weighted>
   9.000000E+99

> <Gold.Protein.RotatedTorsions>
[ 6907 6896 6895 6894 ] final -122.35 input  -60.11 | X-H torsion
[ 7974 7965 7964 7962 ] final  -90.45 input  175.53 | X-H torsion
[ 8008 7997 7996 7995 ] final -126.79 input   59.86 | X-H torsion
[ 10167 10162 10161 10158 ] final  -57.07 input  -65.29 | X-H torsion
[ 10718 10713 10712 10709 ] final   21.45 input   66.30 | X-H torsion
[ 10763 10752 10751 10750 ] final  -14.56 input  -60.55 | X-H torsion
[ 11005 11000 10999 10996 ] final  -50.82 input  -57.11 | X-H torsion

> <Gold.Protein.ActiveResidues>
 VAL166  LYS551  ARG553  GLY616  TRP617  ASP618  TYR619  PRO620  LYS621  CYS622 
 ASP623  PHE694  ASN695  SER759  ASP760  ASP761  ALA762  ILE779  LEU786  VAL792 
 PHE793  MET794  SER795  GLU796  ALA797  LYS798  CYS799  TRP800  GLU811  SER814 

> <Gold.Protein.RotatedAtoms>
  150.8568  133.7704  159.3006 H   0  0  0  0  0  0  0  0  0  0  0  0  # atno 6907 bound_to 6896
  151.5359  135.1067  159.9924 H   0  0  0  0  0  0  0  0  0  0  0  0  # atno 6908 bound_to 6896
  152.4595  133.7749  159.6875 H   0  0  0  0  0  0  0  0  0  0  0  0  # atno 6909 bound_to 6896
  145.4263  140.9554  143.2153 H   0  0  0  0  0  0  0  0  0  0  0  0  # atno 7974 bound_to 7965
  155.2356  140.0427  157.2968 H   0  0  0  0  0  0  0  0  0  0  0  0  # atno 8008 bound_to 7997
  154.5861  140.2414  155.7956 H   0  0  0  0  0  0  0  0  0  0  0  0  # atno 8009 bound_to 7997
  156.2227  140.2964  155.9999 H   0  0  0  0  0  0  0  0  0  0  0  0  # atno 8010 bound_to 7997
  140.6280  143.2447  151.5314 H   0  0  0  0  0  0  0  0  0  0  0  0  # atno 10167 bound_to 10162
  157.1387  130.6623  149.5974 H   0  0  0  0  0  0  0  0  0  0  0  0  # atno 10718 bound_to 10713
  153.5301  135.7014  153.5688 H   0  0  0  0  0  0  0  0  0  0  0  0  # atno 10763 bound_to 10752
  153.3699  135.3947  155.1780 H   0  0  0  0  0  0  0  0  0  0  0  0  # atno 10764 bound_to 10752
  154.8685  135.3809  154.4797 H   0  0  0  0  0  0  0  0  0  0  0  0  # atno 10765 bound_to 10752
  141.0837  133.6647  156.3787 H   0  0  0  0  0  0  0  0  0  0  0  0  # atno 11005 bound_to 11000
  144.8212  139.5788  143.6986 LP  0  0  0  0  0  0  0  0  0  0  0  0  # atno 17320 bound_to 7965
  146.2630  139.6455  142.9348 LP  0  0  0  0  0  0  0  0  0  0  0  0  # atno 17321 bound_to 7965
  139.5498  144.2426  152.1509 LP  0  0  0  0  0  0  0  0  0  0  0  0  # atno 17342 bound_to 10162
  140.1662  144.4979  150.6604 LP  0  0  0  0  0  0  0  0  0  0  0  0  # atno 17343 bound_to 10162
  155.9793  130.4785  150.6706 LP  0  0  0  0  0  0  0  0  0  0  0  0  # atno 17370 bound_to 10713
  157.4327  131.0851  151.1023 LP  0  0  0  0  0  0  0  0  0  0  0  0  # atno 17371 bound_to 10713
  140.5411  134.6119  157.5380 LP  0  0  0  0  0  0  0  0  0  0  0  0  # atno 17394 bound_to 11000
  139.9653  134.7383  156.0151 LP  0  0  0  0  0  0  0  0  0  0  0  0  # atno 17395 bound_to 11000

$$$$
