#       Name:                AV-unprocessed.smi:1834
#       Creating user name   scv26
#       Creation time:       Fri Mar 27 09:16:32 2020


#       File generated by GOLD software.
#

@<TRIPOS>MOLECULE
AV-unprocessed.smi:1834
    49    50     1
SMALL
NO_CHARGES


@<TRIPOS>ATOM
      1 ****        -0.3904   1.2544  -2.4033 C.3            1 S1                 0.0000
      2 ****        -1.7412   1.8715  -2.0124 C.3            1 S1                 0.0000
      3 ****        -2.3298   1.2488  -0.7992 N.4            1 S1                 1.0000
      4 ****        -3.8013   1.4481  -0.7328 C.3            1 S1                 0.0000
      5 ****        -4.4183   0.7044   0.4627 C.3            1 S1                 0.0000
      6 ****        -3.7365   1.1068   1.7789 C.3            1 S1                 0.0000
      7 ****        -2.2093   0.9269   1.6935 C.3            1 S1                 0.0000
      8 ****        -1.7976  -0.5637   1.7599 C.3            1 S1                 0.0000
      9 ****        -0.3490  -0.7441   1.7951 N.am           1 S1                 0.0000
     10 ****         0.4109  -1.0997   0.7490 C.2            1 S1                 0.0000
     11 ****        -0.0471  -1.3330  -0.3696 O.2            1 S1                 0.0000
     12 ****         1.7112  -1.1461   1.0852 N.am           1 S1                 0.0000
     13 ****         2.7862  -1.3829   0.2872 C.2            1 S1                 0.0000
     14 ****         2.8147  -1.7032  -1.0429 C.2            1 S1                 0.0000
     15 ****         4.2101  -1.8259  -1.3064 C.2            1 S1                 0.0000
     16 ****         4.8794  -2.1673  -2.6050 C.3            1 S1                 0.0000
     17 ****         4.9560  -1.6003  -0.2310 N.2            1 S1                 0.0000
     18 ****         4.0798  -1.3237   0.7583 N.pl3          1 S1                 0.0000
     19 ****         4.5732  -1.0286   2.0897 C.3            1 S1                 0.0000
     20 ****        -1.6668   1.6862   0.4593 C.3            1 S1                 0.0000
     21 ****        -0.0150   1.7090  -3.3202 H              1 S1                 0.0000
     22 ****        -0.4852   0.1839  -2.5855 H              1 S1                 0.0000
     23 ****         0.3701   1.4001  -1.6366 H              1 S1                 0.0000
     24 ****        -1.6448   2.9488  -1.8692 H              1 S1                 0.0000
     25 ****        -2.4207   1.7335  -2.8545 H              1 S1                 0.0000
     26 ****        -4.0200   2.5149  -0.6631 H              1 S1                 0.0000
     27 ****        -4.2656   1.0895  -1.6523 H              1 S1                 0.0000
     28 ****        -5.4858   0.9197   0.5198 H              1 S1                 0.0000
     29 ****        -4.3349  -0.3718   0.3096 H              1 S1                 0.0000
     30 ****        -3.9639   2.1522   1.9924 H              1 S1                 0.0000
     31 ****        -4.1461   0.5313   2.6098 H              1 S1                 0.0000
     32 ****        -1.7815   1.4039   2.5766 H              1 S1                 0.0000
     33 ****        -2.1999  -1.0103   2.6697 H              1 S1                 0.0000
     34 ****        -2.2351  -1.1274   0.9351 H              1 S1                 0.0000
     35 ****         0.1078  -0.5778   2.6805 H              1 S1                 0.0000
     36 ****         1.9300  -0.9392   2.0486 H              1 S1                 0.0000
     37 ****         1.9921  -1.8348  -1.7294 H              1 S1                 0.0000
     38 ****         4.1566  -2.2215  -3.4192 H              1 S1                 0.0000
     39 ****         5.3836  -3.1320  -2.5443 H              1 S1                 0.0000
     40 ****         5.6243  -1.4176  -2.8731 H              1 S1                 0.0000
     41 ****         3.8518  -0.4203   2.6354 H              1 S1                 0.0000
     42 ****         5.5139  -0.4803   2.0279 H              1 S1                 0.0000
     43 ****         4.7379  -1.9597   2.6323 H              1 S1                 0.0000
     44 ****        -0.5869   1.5684   0.3899 H              1 S1                 0.0000
     45 ****        -1.8380   2.7561   0.5898 H              1 S1                 0.0000
     46 ****        -2.1789   0.2533  -0.8846 H              1 S1                 0.0000
     47 ****        -1.0312  -1.2608  -0.5320 LP             1 S1                 0.0000
     48 ****         0.5649  -1.5948  -1.1159 LP             1 S1                 0.0000
     49 ****         5.9536  -1.6291  -0.1676 LP             1 S1                 0.0000
@<TRIPOS>BOND
    1    1    2 1     
    2    1   21 1     
    3    1   22 1     
    4    1   23 1     
    5    2    3 1     
    6    2   24 1     
    7    2   25 1     
    8    3   20 1     
    9    3    4 1     
   10    3   46 1     
   11    4    5 1     
   12    4   26 1     
   13    4   27 1     
   14    5    6 1     
   15    5   28 1     
   16    5   29 1     
   17    6    7 1     
   18    6   30 1     
   19    6   31 1     
   20    7    8 1     
   21    7   20 1     
   22    7   32 1     
   23    8    9 1     
   24    8   33 1     
   25    8   34 1     
   26    9   10 am    
   27    9   35 1     
   28   10   11 2     
   29   10   12 am    
   30   12   13 1     
   31   12   36 1     
   32   13   18 1     
   33   13   14 2     
   34   14   15 1     
   35   14   37 1     
   36   15   16 1     
   37   15   17 2     
   38   16   38 1     
   39   16   39 1     
   40   16   40 1     
   41   17   18 1     
   42   18   19 1     
   43   19   41 1     
   44   19   42 1     
   45   19   43 1     
   46   20   44 1     
   47   20   45 1     
   48   11   47 1     
   49   11   48 1     
   50   17   49 1     
@<TRIPOS>SUBSTRUCTURE
      1 S1             1
@<TRIPOS>SET
LONE_PAIRS      STATIC     ATOMS    <user>   **** ""
3 47 48 49
DONOR_HYDROGENS      STATIC     ATOMS    <user>   **** ""
3 46 35 36
ATOM$BLUE        STATIC     ATOMS    COLORGROUP SYSTEM
3 47 48 49
ATOM$RED        STATIC     ATOMS    COLORGROUP SYSTEM
3 46 35 36
