AV-unprocessed.smi:1897|AV-procd|sdf|7694|dock10
  -GOLD-   22720 9433D 1   1.00000     0.00000
 Structure written by MMmdl.
 38 40  0  0  0  0  0  0  0  0  3 V2000
  147.4476  136.1614  163.5968 C   0  0  0  0  0  0  0  0  0  0  0  0
  148.0086  136.0573  162.2200 C   0  0  0  0  0  0  0  0  0  0  0  0
  148.3547  137.1262  161.4988 N   0  0  0  0  0  0  0  0  0  0  0  0
  148.8567  136.7766  160.2538 N   0  0  0  0  0  0  0  0  0  0  0  0
  148.8711  135.4524  160.0455 C   0  0  0  0  0  0  0  0  0  0  0  0
  149.3158  134.9064  158.8981 N   0  5  0  0  0  0  0  0  0  0  0  0
  149.6017  135.6477  157.7965 C   0  0  0  0  0  0  0  0  0  0  0  0
  150.1359  136.7548  157.8447 O   0  0  0  0  0  0  0  0  0  0  0  0
  149.2794  135.1341  156.5947 N   0  0  0  0  0  0  0  0  0  0  0  0
  149.5083  135.7717  155.3043 C   0  0  2  0  0  0  0  0  0  0  0  0
  150.9920  136.0563  155.0030 C   0  0  0  0  0  0  0  0  0  0  0  0
  151.0102  137.4345  154.3131 C   0  0  0  0  0  0  0  0  0  0  0  0
  149.5916  137.8014  154.1409 N   0  3  2  0  0  0  0  0  0  0  0  0
  149.2757  139.2402  154.0094 C   0  0  0  0  0  0  0  0  0  0  0  0
  147.7629  139.4071  153.7600 C   0  0  0  0  0  0  0  0  0  0  0  0
  146.9221  138.6881  154.8354 C   0  0  0  0  0  0  0  0  0  0  0  0
  147.3603  137.2193  154.9950 C   0  0  0  0  0  0  0  0  0  0  0  0
  148.8748  137.1597  155.2522 C   0  0  1  0  0  0  0  0  0  0  0  0
  148.2623  134.5193  161.4123 S   0  0  0  0  0  0  0  0  0  0  0  0
  146.3815  136.3835  163.5487 H   0  0  0  0  0  0  0  0  0  0  0  0
  147.9485  136.9563  164.1502 H   0  0  0  0  0  0  0  0  0  0  0  0
  147.5870  135.2232  164.1339 H   0  0  0  0  0  0  0  0  0  0  0  0
  148.8378  134.2264  156.5841 H   0  0  0  0  0  0  0  0  0  0  0  0
  149.0875  135.1595  154.5039 H   0  0  0  0  0  0  0  0  0  0  0  0
  151.5858  136.0919  155.9177 H   0  0  0  0  0  0  0  0  0  0  0  0
  151.4163  135.2782  154.3677 H   0  0  0  0  0  0  0  0  0  0  0  0
  151.5108  138.1646  154.9509 H   0  0  0  0  0  0  0  0  0  0  0  0
  151.5256  137.4131  153.3526 H   0  0  0  0  0  0  0  0  0  0  0  0
  149.5747  139.7710  154.9146 H   0  0  0  0  0  0  0  0  0  0  0  0
  149.8437  139.6658  153.1817 H   0  0  0  0  0  0  0  0  0  0  0  0
  147.5034  140.4657  153.7280 H   0  0  0  0  0  0  0  0  0  0  0  0
  147.5136  139.0004  152.7790 H   0  0  0  0  0  0  0  0  0  0  0  0
  147.0353  139.2056  155.7889 H   0  0  0  0  0  0  0  0  0  0  0  0
  145.8632  138.7385  154.5799 H   0  0  0  0  0  0  0  0  0  0  0  0
  146.8184  136.7518  155.8178 H   0  0  0  0  0  0  0  0  0  0  0  0
  147.1093  136.6574  154.0942 H   0  0  0  0  0  0  0  0  0  0  0  0
  149.1093  137.6978  156.1743 H   0  0  0  0  0  0  0  0  0  0  0  0
  149.2768  137.3433  153.2977 H   0  0  0  0  0  0  0  0  0  0  0  0
  1  2  1  0  0  0  0
  1 20  1  0  0  0  0
  1 21  1  0  0  0  0
  1 22  1  0  0  0  0
  2 19  1  0  0  0  0
  2  3  2  0  0  0  0
  3  4  1  0  0  0  0
  4  5  2  0  0  0  0
  5  6  1  0  0  0  0
  5 19  1  0  0  0  0
  6  7  1  0  0  0  0
  7  8  2  0  0  0  0
  7  9  1  0  0  0  0
  9 10  1  0  0  0  0
  9 23  1  0  0  0  0
 10 18  1  0  0  0  0
 10 11  1  0  0  0  0
 10 24  1  0  0  0  0
 11 12  1  0  0  0  0
 11 25  1  0  0  0  0
 11 26  1  0  0  0  0
 12 13  1  0  0  0  0
 12 27  1  0  0  0  0
 12 28  1  0  0  0  0
 13 18  1  0  0  0  0
 13 14  1  0  0  0  0
 13 38  1  0  0  0  0
 14 15  1  0  0  0  0
 14 29  1  0  0  0  0
 14 30  1  0  0  0  0
 15 16  1  0  0  0  0
 15 31  1  0  0  0  0
 15 32  1  0  0  0  0
 16 17  1  0  0  0  0
 16 33  1  0  0  0  0
 16 34  1  0  0  0  0
 17 18  1  0  0  0  0
 17 35  1  0  0  0  0
 17 36  1  0  0  0  0
 18 37  1  0  0  0  0
M  CHG  1   6  -1
M  CHG  1  13   1
M  END
> <s_m_source_file>
AV-unprocessed.smi

> <i_m_source_file_index>
1897

> <i_lp_mmshare_version>
43012

> <i_f3d_flags>
0

> <s_epik_input>
W0NIM11jMW5uYyhzMSlbTkhdQyg9TylbTkhdW0NASF0oW0NIMl1bQ0gyXTIpW0NAQEhdKE4yMylbQ0gyXVtDSDJdW0NIMl1bQ0gyXTM=

> <s_epik_cmdline>
J2VwaWtfcHl0aG9uJywgJy1waCcsICc3LjAnLCAnLXRuJywgJzgnLCAnLW1hJywgJzIwMCcsICctbWV0YWxfYmluZGluZycsICctaW1hZScsICc8aW5maWxlLm1hZT4nLCAnLW9tYWUnLCAnPG91dGZpbGUubWFlPic=

> <r_lp_tautomer_probability>
1

> <r_epik_Ionization_Penalty>
3.77712

> <r_epik_Ionization_Penalty_Charging>
3.67739

> <r_epik_Ionization_Penalty_Neutral>
0.0997294

> <r_epik_State_Penalty>
3.67514

> <r_epik_Charging_Adjusted_Penalty>
7.35254

> <i_epik_Tot_Q>
0

> <i_epik_Tot_abs_Q>
2

> <r_epik_Metal_State_Penalty>
0.540795

> <b_epik_Metal_Only>
1

> <s_lp_Force_Field>
OPLS_2005

> <r_lp_Energy>
28.3617

> <b_lp_Chiralities_Consistent>
1

> <s_lp_Variant>
AV-unprocessed.smi:1897-11

> <Gold.Version>
5.8.1

> <Gold.Id.Protein>
6NUR|6NUR_protein|mol2

> <Gold.PLP.Fitness>
38.5826

> <Gold.PLP.PLP>
-22.2228

> <Gold.PLP.part.hbond>
-4.6745

> <Gold.PLP.part.metal>
0.0000

> <Gold.PLP.part.buried>
-0.2496

> <Gold.PLP.part.nonpolar>
-17.7083

> <Gold.PLP.part.repulsive>
0.0482

> <Gold.PLP.ligand.clash>
0.0000

> <Gold.PLP.ligand.torsion>
0.3205

> <Gold.PLP.Chemscore.Hbond>
5.6637

> <Gold.PLP.Chemscore.CHOScore>
0.0000

> <Gold.PLP.Chemscore.Metal>
0.0000

> <Gold.Chemscore.Hbonds>
donor molecule, donor type, donor heavy atom, donor atom, acceptor molecule, acceptor atom, score
      L1  H    13    38       P1  7948  2.00
      P1  H  6896  6907       L1     6  1.98
      P1  H  6931  6943       L1     3  0.60
      P1  H  6934  6947       L1     3  0.18

> <Gold.PLP.Chemscore.Internal.Correction>
0.0097

> <Gold.Rescore>
     Score         DG    S(hbond)    S(metal)    S(lipo)     H(rot)  DE(clash)    DE(int)     intcor
     10.80     -15.98       1.73        0.00      62.36       1.00       1.06       4.12       ----

> <Gold.Chemscore.Fitness>
10.7990

> <Gold.Chemscore.DG>
-15.9778

> <Gold.Chemscore.ZeroCoef>
-5.4800

> <Gold.Chemscore.Hbond>
1.7252

> <Gold.Chemscore.Metal>
0.0000

> <Gold.Chemscore.Lipo>
62.3563

> <Gold.Chemscore.Internal_Hbond>
0.0000

> <Gold.Chemscore.DEClash>
1.0637

> <Gold.Chemscore.DEInternal>
4.1151

> <Gold.Chemscore.Rot>
1.0000

> <Gold.Chemscore.Internal.Correction>
   9.000000E+99

> <Gold.Chemscore.Hbonds>
donor molecule, donor type, donor heavy atom, donor atom, acceptor molecule, acceptor atom, score
      L1  H    13    38       P1  7948  0.98
      P1  H  6896  6907       L1     6  0.22
      P1  H  6931  6943       L1     3  0.36
      P1  H  6934  6947       L1     3  0.05

> <Gold.Chemscore.Hbond.Weighted>
-5.7621

> <Gold.Chemscore.Metal.Weighted>
-0.0000

> <Gold.Chemscore.Lipo.Weighted>
-7.2957

> <Gold.Chemscore.Internal_Hbond.Weighted>
0.0000

> <Gold.Chemscore.DEClash.Weighted>
1.0637

> <Gold.Chemscore.DEInternal.Weighted>
4.1151

> <Gold.Chemscore.Rot.Weighted>
2.5600

> <Gold.Chemscore.Internal.Correction.Weighted>
   9.000000E+99

> <Gold.Protein.RotatedTorsions>
[ 6907 6896 6895 6894 ] final  -99.04 input  -60.11 | X-H torsion
[ 7974 7965 7964 7962 ] final   49.81 input  175.53 | X-H torsion
[ 8008 7997 7996 7995 ] final  -25.10 input   59.86 | X-H torsion
[ 10167 10162 10161 10158 ] final  -12.66 input  -65.29 | X-H torsion
[ 10718 10713 10712 10709 ] final  -62.88 input   66.30 | X-H torsion
[ 10763 10752 10751 10750 ] final  -54.31 input  -60.55 | X-H torsion
[ 11005 11000 10999 10996 ] final  -45.44 input  -57.11 | X-H torsion

> <Gold.Protein.ActiveResidues>
 VAL166  LYS551  ARG553  GLY616  TRP617  ASP618  TYR619  PRO620  LYS621  CYS622 
 ASP623  PHE694  ASN695  SER759  ASP760  ASP761  ALA762  ILE779  LEU786  VAL792 
 PHE793  MET794  SER795  GLU796  ALA797  LYS798  CYS799  TRP800  GLU811  SER814 

> <Gold.Protein.RotatedAtoms>
  150.7066  134.1102  159.3997 H   0  0  0  0  0  0  0  0  0  0  0  0  # atno 6907 bound_to 6896
  151.9089  135.0345  160.0522 H   0  0  0  0  0  0  0  0  0  0  0  0  # atno 6908 bound_to 6896
  152.2352  133.5055  159.5275 H   0  0  0  0  0  0  0  0  0  0  0  0  # atno 6909 bound_to 6896
  146.0073  139.4504  142.9978 H   0  0  0  0  0  0  0  0  0  0  0  0  # atno 7974 bound_to 7965
  154.4494  140.1936  156.0566 H   0  0  0  0  0  0  0  0  0  0  0  0  # atno 8008 bound_to 7997
  156.0614  140.3296  155.7439 H   0  0  0  0  0  0  0  0  0  0  0  0  # atno 8009 bound_to 7997
  155.5406  140.0586  157.2861 H   0  0  0  0  0  0  0  0  0  0  0  0  # atno 8010 bound_to 7997
  140.7166  143.5509  150.9302 H   0  0  0  0  0  0  0  0  0  0  0  0  # atno 10167 bound_to 10162
  156.0826  130.4214  150.1198 H   0  0  0  0  0  0  0  0  0  0  0  0  # atno 10718 bound_to 10713
  154.1728  135.6456  153.5014 H   0  0  0  0  0  0  0  0  0  0  0  0  # atno 10763 bound_to 10752
  153.0079  135.5387  154.6595 H   0  0  0  0  0  0  0  0  0  0  0  0  # atno 10764 bound_to 10752
  154.5938  135.2937  155.0579 H   0  0  0  0  0  0  0  0  0  0  0  0  # atno 10765 bound_to 10752
  141.0515  133.6741  156.3013 H   0  0  0  0  0  0  0  0  0  0  0  0  # atno 11005 bound_to 11000
  145.7396  141.0013  143.1308 LP  0  0  0  0  0  0  0  0  0  0  0  0  # atno 17320 bound_to 7965
  144.6940  139.9083  143.7462 LP  0  0  0  0  0  0  0  0  0  0  0  0  # atno 17321 bound_to 7965
  139.9233  143.6580  152.3092 LP  0  0  0  0  0  0  0  0  0  0  0  0  # atno 17342 bound_to 10162
  139.7004  144.7635  151.1282 LP  0  0  0  0  0  0  0  0  0  0  0  0  # atno 17343 bound_to 10162
  156.9226  130.9688  151.3546 LP  0  0  0  0  0  0  0  0  0  0  0  0  # atno 17370 bound_to 10713
  157.5949  130.8470  149.8714 LP  0  0  0  0  0  0  0  0  0  0  0  0  # atno 17371 bound_to 10713
  140.6045  134.5521  157.5523 LP  0  0  0  0  0  0  0  0  0  0  0  0  # atno 17394 bound_to 11000
  139.9355  134.7884  156.0815 LP  0  0  0  0  0  0  0  0  0  0  0  0  # atno 17395 bound_to 11000

$$$$
