AV-unprocessed.smi:1981|AV-procd|sdf|8019|dock3
  -GOLD-   2272010213D 1   1.00000     0.00000
 Structure written by MMmdl.
 45 46  0  0  0  0  0  0  0  0  1 V2000
  147.7983  136.5212  161.1150 C   0  0  0  0  0  0  0  0  0  0  0  0
  147.2391  137.4108  160.1646 O   0  0  0  0  0  0  0  0  0  0  0  0
  147.5450  137.0408  158.8311 C   0  0  0  0  0  0  0  0  0  0  0  0
  146.7160  137.9065  157.8708 C   0  0  0  0  0  0  0  0  0  0  0  0
  147.4581  138.2075  156.6427 N   0  0  0  0  0  0  0  0  0  0  0  0
  148.5992  138.9652  156.8457 N   0  0  0  0  0  0  0  0  0  0  0  0
  149.3484  139.2943  155.8434 C   0  0  0  0  0  0  0  0  0  0  0  0
  150.5836  140.1070  156.0205 C   0  0  0  0  0  0  0  0  0  0  0  0
  151.4978  140.0905  155.1946 O   0  0  0  0  0  0  0  0  0  0  0  0
  150.6252  140.8518  157.1401 N   0  0  0  0  0  0  0  0  0  0  0  0
  151.7216  141.7301  157.5341 C   0  0  0  0  0  0  0  0  0  0  0  0
  152.1567  141.4432  158.9904 C   0  0  0  0  0  0  0  0  0  0  0  0
  153.1597  142.4967  159.4930 C   0  0  0  0  0  0  0  0  0  0  0  0
  152.5584  143.8271  159.3481 N   0  0  0  0  0  0  0  0  0  0  0  0
  152.1392  144.5603  160.4073 C   0  0  0  0  0  0  0  0  0  0  0  0
  152.3794  144.0340  161.8241 C   0  0  0  0  0  0  0  0  0  0  0  0
  151.5724  145.6461  160.2823 O   0  0  0  0  0  0  0  0  0  0  0  0
  152.3381  144.1680  157.9373 C   0  0  0  0  0  0  0  0  0  0  0  0
  151.2914  143.2022  157.3536 C   0  0  0  0  0  0  0  0  0  0  0  0
  149.0095  138.8779  154.4930 C   0  0  0  0  0  0  0  0  0  0  0  0
  147.8965  138.1338  154.3114 C   0  0  0  0  0  0  0  0  0  0  0  0
  147.0348  137.7433  155.4285 C   0  0  0  0  0  0  0  0  0  0  0  0
  146.0233  137.0562  155.2905 O   0  0  0  0  0  0  0  0  0  0  0  0
  147.5385  136.8487  162.1215 H   0  0  0  0  0  0  0  0  0  0  0  0
  148.8861  136.4962  161.0398 H   0  0  0  0  0  0  0  0  0  0  0  0
  147.4147  135.5091  160.9804 H   0  0  0  0  0  0  0  0  0  0  0  0
  148.6100  137.1842  158.6409 H   0  0  0  0  0  0  0  0  0  0  0  0
  147.3217  135.9838  158.6785 H   0  0  0  0  0  0  0  0  0  0  0  0
  145.7734  137.4088  157.6365 H   0  0  0  0  0  0  0  0  0  0  0  0
  146.4362  138.8353  158.3714 H   0  0  0  0  0  0  0  0  0  0  0  0
  149.8326  140.8053  157.7645 H   0  0  0  0  0  0  0  0  0  0  0  0
  152.5751  141.5513  156.8774 H   0  0  0  0  0  0  0  0  0  0  0  0
  151.2829  141.4425  159.6442 H   0  0  0  0  0  0  0  0  0  0  0  0
  152.5976  140.4487  159.0648 H   0  0  0  0  0  0  0  0  0  0  0  0
  153.4502  142.2731  160.5203 H   0  0  0  0  0  0  0  0  0  0  0  0
  154.0793  142.4480  158.9081 H   0  0  0  0  0  0  0  0  0  0  0  0
  153.4436  143.8791  162.0038 H   0  0  0  0  0  0  0  0  0  0  0  0
  151.8509  143.0936  161.9818 H   0  0  0  0  0  0  0  0  0  0  0  0
  152.0177  144.7477  162.5652 H   0  0  0  0  0  0  0  0  0  0  0  0
  152.0214  145.1980  157.7809 H   0  0  0  0  0  0  0  0  0  0  0  0
  153.2788  144.0689  157.3938 H   0  0  0  0  0  0  0  0  0  0  0  0
  151.1336  143.4186  156.2965 H   0  0  0  0  0  0  0  0  0  0  0  0
  150.3347  143.3727  157.8501 H   0  0  0  0  0  0  0  0  0  0  0  0
  149.6273  139.1515  153.6498 H   0  0  0  0  0  0  0  0  0  0  0  0
  147.6331  137.8164  153.3130 H   0  0  0  0  0  0  0  0  0  0  0  0
  1  2  1  0  0  0  0
  1 24  1  0  0  0  0
  1 25  1  0  0  0  0
  1 26  1  0  0  0  0
  2  3  1  0  0  0  0
  3  4  1  0  0  0  0
  3 27  1  0  0  0  0
  3 28  1  0  0  0  0
  4  5  1  0  0  0  0
  4 29  1  0  0  0  0
  4 30  1  0  0  0  0
  5 22  1  0  0  0  0
  5  6  1  0  0  0  0
  6  7  2  0  0  0  0
  7  8  1  0  0  0  0
  7 20  1  0  0  0  0
  8  9  2  0  0  0  0
  8 10  1  0  0  0  0
 10 11  1  0  0  0  0
 10 31  1  0  0  0  0
 11 19  1  0  0  0  0
 11 12  1  0  0  0  0
 11 32  1  0  0  0  0
 12 13  1  0  0  0  0
 12 33  1  0  0  0  0
 12 34  1  0  0  0  0
 13 14  1  0  0  0  0
 13 35  1  0  0  0  0
 13 36  1  0  0  0  0
 14 15  1  0  0  0  0
 14 18  1  0  0  0  0
 15 16  1  0  0  0  0
 15 17  2  0  0  0  0
 16 37  1  0  0  0  0
 16 38  1  0  0  0  0
 16 39  1  0  0  0  0
 18 19  1  0  0  0  0
 18 40  1  0  0  0  0
 18 41  1  0  0  0  0
 19 42  1  0  0  0  0
 19 43  1  0  0  0  0
 20 21  2  0  0  0  0
 20 44  1  0  0  0  0
 21 22  1  0  0  0  0
 21 45  1  0  0  0  0
 22 23  2  0  0  0  0
M  END
> <s_m_source_file>
AV-unprocessed.smi

> <i_m_source_file_index>
1981

> <i_lp_mmshare_version>
43012

> <i_f3d_flags>
0

> <s_epik_input>
W0NIM11PW0NIMl1bQ0gyXW4xbmMoW2NIXVtjSF1jMT1PKUMoPU8pW05IXVtDSF0yW0NIMl1bQ0gyXU4oQyg9TylbQ0gzXSlbQ0gyXVtDSDJdMg==

> <s_epik_cmdline>
J2VwaWtfcHl0aG9uJywgJy1waCcsICc3LjAnLCAnLXRuJywgJzgnLCAnLW1hJywgJzIwMCcsICctbWV0YWxfYmluZGluZycsICctaW1hZScsICc8aW5maWxlLm1hZT4nLCAnLW9tYWUnLCAnPG91dGZpbGUubWFlPic=

> <r_lp_tautomer_probability>
1

> <r_epik_Ionization_Penalty>
2.32097e-06

> <r_epik_Ionization_Penalty_Charging>
6.14723e-09

> <r_epik_Ionization_Penalty_Neutral>
2.31482e-06

> <r_epik_State_Penalty>
-0

> <r_epik_Charging_Adjusted_Penalty>
6.14723e-09

> <i_epik_Tot_Q>
0

> <i_epik_Tot_abs_Q>
0

> <r_epik_Metal_State_Penalty>
-0

> <b_epik_Metal_Only>
0

> <s_lp_Force_Field>
OPLS_2005

> <r_lp_Energy>
40.8399

> <b_lp_Chiralities_Consistent>
1

> <s_lp_Variant>
AV-unprocessed.smi:1981-1

> <Gold.Version>
5.8.1

> <Gold.Id.Protein>
6NUR|6NUR_protein|mol2

> <Gold.PLP.Fitness>
43.1446

> <Gold.PLP.PLP>
-38.3352

> <Gold.PLP.part.hbond>
-2.0000

> <Gold.PLP.part.metal>
0.0000

> <Gold.PLP.part.buried>
-7.0452

> <Gold.PLP.part.nonpolar>
-28.9477

> <Gold.PLP.part.repulsive>
0.3064

> <Gold.PLP.ligand.clash>
0.0000

> <Gold.PLP.ligand.torsion>
0.6081

> <Gold.PLP.Chemscore.Hbond>
2.0000

> <Gold.PLP.Chemscore.CHOScore>
0.0000

> <Gold.PLP.Chemscore.Metal>
0.0000

> <Gold.Chemscore.Hbonds>
donor molecule, donor type, donor heavy atom, donor atom, acceptor molecule, acceptor atom, score
      P1  H  6934  6947       L1     2  1.00
      P1  H  7989  7998       L1     9  1.00

> <Gold.PLP.Chemscore.Internal.Correction>
0.0257

> <Gold.Rescore>
     Score         DG    S(hbond)    S(metal)    S(lipo)     H(rot)  DE(clash)    DE(int)     intcor
     16.90     -17.69       1.90        0.00      87.16       1.69       0.08       0.71       ----

> <Gold.Chemscore.Fitness>
16.8978

> <Gold.Chemscore.DG>
-17.6924

> <Gold.Chemscore.ZeroCoef>
-5.4800

> <Gold.Chemscore.Hbond>
1.8956

> <Gold.Chemscore.Metal>
0.0000

> <Gold.Chemscore.Lipo>
87.1575

> <Gold.Chemscore.Internal_Hbond>
0.0000

> <Gold.Chemscore.DEClash>
0.0800

> <Gold.Chemscore.DEInternal>
0.7146

> <Gold.Chemscore.Rot>
1.6861

> <Gold.Chemscore.Internal.Correction>
   9.000000E+99

> <Gold.Chemscore.Hbonds>
donor molecule, donor type, donor heavy atom, donor atom, acceptor molecule, acceptor atom, score
      P1  H  6934  6947       L1     2  0.64
      P1  H  7989  7998       L1     9  0.96

> <Gold.Chemscore.Hbond.Weighted>
-6.3314

> <Gold.Chemscore.Metal.Weighted>
-0.0000

> <Gold.Chemscore.Lipo.Weighted>
-10.1974

> <Gold.Chemscore.Internal_Hbond.Weighted>
0.0000

> <Gold.Chemscore.DEClash.Weighted>
0.0800

> <Gold.Chemscore.DEInternal.Weighted>
0.7146

> <Gold.Chemscore.Rot.Weighted>
4.3164

> <Gold.Chemscore.Internal.Correction.Weighted>
   9.000000E+99

> <Gold.Protein.RotatedTorsions>
[ 6907 6896 6895 6894 ] final -158.08 input  -60.11 | X-H torsion
[ 7974 7965 7964 7962 ] final -128.56 input  175.53 | X-H torsion
[ 8008 7997 7996 7995 ] final -142.12 input   59.86 | X-H torsion
[ 10167 10162 10161 10158 ] final  -52.55 input  -65.29 | X-H torsion
[ 10718 10713 10712 10709 ] final   96.80 input   66.30 | X-H torsion
[ 10763 10752 10751 10750 ] final   84.51 input  -60.55 | X-H torsion
[ 11005 11000 10999 10996 ] final  145.30 input  -57.11 | X-H torsion

> <Gold.Protein.ActiveResidues>
 VAL166  LYS551  ARG553  GLY616  TRP617  ASP618  TYR619  PRO620  LYS621  CYS622 
 ASP623  PHE694  ASN695  SER759  ASP760  ASP761  ALA762  ILE779  LEU786  VAL792 
 PHE793  MET794  SER795  GLU796  ALA797  LYS798  CYS799  TRP800  GLU811  SER814 

> <Gold.Protein.RotatedAtoms>
  151.3127  133.4073  159.2647 H   0  0  0  0  0  0  0  0  0  0  0  0  # atno 6907 bound_to 6896
  151.0100  134.9390  159.8012 H   0  0  0  0  0  0  0  0  0  0  0  0  # atno 6908 bound_to 6896
  152.5298  134.3092  159.9159 H   0  0  0  0  0  0  0  0  0  0  0  0  # atno 6909 bound_to 6896
  144.9659  140.7495  143.4700 H   0  0  0  0  0  0  0  0  0  0  0  0  # atno 7974 bound_to 7965
  155.4890  140.0566  157.2956 H   0  0  0  0  0  0  0  0  0  0  0  0  # atno 8008 bound_to 7997
  154.4631  140.2005  156.0143 H   0  0  0  0  0  0  0  0  0  0  0  0  # atno 8009 bound_to 7997
  156.0925  140.3231  155.7839 H   0  0  0  0  0  0  0  0  0  0  0  0  # atno 8010 bound_to 7997
  140.6531  143.2580  151.4664 H   0  0  0  0  0  0  0  0  0  0  0  0  # atno 10167 bound_to 10162
  157.6922  131.0589  150.4547 H   0  0  0  0  0  0  0  0  0  0  0  0  # atno 10718 bound_to 10713
  153.1388  135.4651  154.9464 H   0  0  0  0  0  0  0  0  0  0  0  0  # atno 10763 bound_to 10752
  154.7729  135.3164  154.8154 H   0  0  0  0  0  0  0  0  0  0  0  0  # atno 10764 bound_to 10752
  153.8681  135.6906  153.4831 H   0  0  0  0  0  0  0  0  0  0  0  0  # atno 10765 bound_to 10752
  140.0701  134.9156  157.1331 H   0  0  0  0  0  0  0  0  0  0  0  0  # atno 11005 bound_to 11000
  145.2631  139.1984  143.4881 LP  0  0  0  0  0  0  0  0  0  0  0  0  # atno 17320 bound_to 7965
  146.3367  140.2564  142.8600 LP  0  0  0  0  0  0  0  0  0  0  0  0  # atno 17321 bound_to 7965
  139.5749  144.1841  152.1890 LP  0  0  0  0  0  0  0  0  0  0  0  0  # atno 17342 bound_to 10162
  140.1149  144.5425  150.6901 LP  0  0  0  0  0  0  0  0  0  0  0  0  # atno 17343 bound_to 10162
  156.4895  130.4092  149.6415 LP  0  0  0  0  0  0  0  0  0  0  0  0  # atno 17370 bound_to 10713
  156.3430  130.7392  151.2340 LP  0  0  0  0  0  0  0  0  0  0  0  0  # atno 17371 bound_to 10713
  140.3640  134.2463  155.7184 LP  0  0  0  0  0  0  0  0  0  0  0  0  # atno 17394 bound_to 11000
  141.2008  133.7977  157.0469 LP  0  0  0  0  0  0  0  0  0  0  0  0  # atno 17395 bound_to 11000

$$$$
