AV-unprocessed.smi:1979|AV-procd|sdf|8016|dock3
  -GOLD-   2272010203D 1   1.00000     0.00000
 Structure written by MMmdl.
 28 28  0  0  0  0  0  0  0  0  1 V2000
  153.9790  142.2749  162.9495 N   0  0  0  0  0  0  0  0  0  0  0  0
  153.4482  142.4680  161.9399 C   0  0  0  0  0  0  0  0  0  0  0  0
  152.7818  142.7109  160.6719 C   0  0  0  0  0  0  0  0  0  0  0  0
  152.3474  144.0036  160.3199 C   0  0  0  0  0  0  0  0  0  0  0  0
  151.7068  144.1907  159.0795 C   0  0  0  0  0  0  0  0  0  0  0  0
  151.5235  143.0714  158.2317 C   0  0  0  0  0  0  0  0  0  0  0  0
  150.9007  143.1655  156.9807 N   0  0  0  0  0  0  0  0  0  0  0  0
  150.9070  142.0365  156.0630 C   0  0  0  0  0  0  0  0  0  0  0  0
  149.9826  140.9136  156.5447 C   0  0  0  0  0  0  0  0  0  0  0  0
  149.9789  139.8723  155.5824 O   0  0  0  0  0  0  0  0  0  0  0  0
  151.2828  139.4209  155.2548 C   0  0  0  0  0  0  0  0  0  0  0  0
  151.1761  138.2737  154.2430 C   0  0  0  0  0  0  0  0  0  0  0  0
  150.0240  138.4367  153.4440 O   0  0  0  0  0  0  0  0  0  0  0  0
  151.9388  141.8315  158.5716 N   0  0  0  0  0  0  0  0  0  0  0  0
  152.5531  141.6592  159.7621 C   0  0  0  0  0  0  0  0  0  0  0  0
  152.4992  144.8419  160.9847 H   0  0  0  0  0  0  0  0  0  0  0  0
  151.3687  145.1781  158.8027 H   0  0  0  0  0  0  0  0  0  0  0  0
  150.2378  143.9102  156.8195 H   0  0  0  0  0  0  0  0  0  0  0  0
  150.5688  142.3833  155.0861 H   0  0  0  0  0  0  0  0  0  0  0  0
  151.9229  141.6589  155.9402 H   0  0  0  0  0  0  0  0  0  0  0  0
  150.3005  140.5428  157.5206 H   0  0  0  0  0  0  0  0  0  0  0  0
  148.9703  141.3043  156.6576 H   0  0  0  0  0  0  0  0  0  0  0  0
  151.8331  140.2469  154.8017 H   0  0  0  0  0  0  0  0  0  0  0  0
  151.8352  139.1123  156.1442 H   0  0  0  0  0  0  0  0  0  0  0  0
  152.0685  138.2094  153.6197 H   0  0  0  0  0  0  0  0  0  0  0  0
  151.0799  137.3238  154.7694 H   0  0  0  0  0  0  0  0  0  0  0  0
  149.8374  137.6158  153.0148 H   0  0  0  0  0  0  0  0  0  0  0  0
  152.8692  140.6513  159.9896 H   0  0  0  0  0  0  0  0  0  0  0  0
  1  2  3  0  0  0  0
  2  3  1  0  0  0  0
  3 15  1  0  0  0  0
  3  4  2  0  0  0  0
  4  5  1  0  0  0  0
  4 16  1  0  0  0  0
  5  6  2  0  0  0  0
  5 17  1  0  0  0  0
  6  7  1  0  0  0  0
  6 14  1  0  0  0  0
  7  8  1  0  0  0  0
  7 18  1  0  0  0  0
  8  9  1  0  0  0  0
  8 19  1  0  0  0  0
  8 20  1  0  0  0  0
  9 10  1  0  0  0  0
  9 21  1  0  0  0  0
  9 22  1  0  0  0  0
 10 11  1  0  0  0  0
 11 12  1  0  0  0  0
 11 23  1  0  0  0  0
 11 24  1  0  0  0  0
 12 13  1  0  0  0  0
 12 25  1  0  0  0  0
 12 26  1  0  0  0  0
 13 27  1  0  0  0  0
 14 15  2  0  0  0  0
 15 28  1  0  0  0  0
M  END
> <s_m_source_file>
AV-unprocessed.smi

> <i_m_source_file_index>
1979

> <i_lp_mmshare_version>
43012

> <i_f3d_flags>
0

> <s_epik_input>
TiNDYzFbY0hdW2NIXWMobltjSF0xKVtOSF1bQ0gyXVtDSDJdT1tDSDJdW0NIMl1bT0hd

> <s_epik_cmdline>
J2VwaWtfcHl0aG9uJywgJy1waCcsICc3LjAnLCAnLXRuJywgJzgnLCAnLW1hJywgJzIwMCcsICctbWV0YWxfYmluZGluZycsICctaW1hZScsICc8aW5maWxlLm1hZT4nLCAnLW9tYWUnLCAnPG91dGZpbGUubWFlPic=

> <r_lp_tautomer_probability>
1

> <r_epik_Ionization_Penalty>
1.11368e-05

> <r_epik_Ionization_Penalty_Charging>
0

> <r_epik_Ionization_Penalty_Neutral>
1.11368e-05

> <r_epik_State_Penalty>
-0

> <r_epik_Charging_Adjusted_Penalty>
0

> <i_epik_Tot_Q>
0

> <i_epik_Tot_abs_Q>
0

> <r_epik_Metal_State_Penalty>
-0

> <b_epik_Metal_Only>
0

> <s_lp_Force_Field>
OPLS_2005

> <r_lp_Energy>
5.28627

> <b_lp_Chiralities_Consistent>
1

> <s_lp_Variant>
AV-unprocessed.smi:1979-1

> <Gold.Version>
5.8.1

> <Gold.Id.Protein>
6NUR|6NUR_protein|mol2

> <Gold.PLP.Fitness>
41.7260

> <Gold.PLP.PLP>
-36.2325

> <Gold.PLP.part.hbond>
-3.8275

> <Gold.PLP.part.metal>
0.0000

> <Gold.PLP.part.buried>
-6.4862

> <Gold.PLP.part.nonpolar>
-25.8589

> <Gold.PLP.part.repulsive>
0.0856

> <Gold.PLP.ligand.clash>
0.0000

> <Gold.PLP.ligand.torsion>
0.2839

> <Gold.PLP.Chemscore.Hbond>
2.0000

> <Gold.PLP.Chemscore.CHOScore>
0.0000

> <Gold.PLP.Chemscore.Metal>
0.0000

> <Gold.Chemscore.Hbonds>
donor molecule, donor type, donor heavy atom, donor atom, acceptor molecule, acceptor atom, score
      L1  H     7    18       P1  8028  0.99
      L1  H    13    27       P1  7948  1.00

> <Gold.PLP.Chemscore.Internal.Correction>
0.0612

> <Gold.Rescore>
     Score         DG    S(hbond)    S(metal)    S(lipo)     H(rot)  DE(clash)    DE(int)     intcor
     11.63     -13.27       1.91        0.00      75.19       2.88       0.23       1.41       ----

> <Gold.Chemscore.Fitness>
11.6350

> <Gold.Chemscore.DG>
-13.2750

> <Gold.Chemscore.ZeroCoef>
-5.4800

> <Gold.Chemscore.Hbond>
1.9065

> <Gold.Chemscore.Metal>
0.0000

> <Gold.Chemscore.Lipo>
75.1893

> <Gold.Chemscore.Internal_Hbond>
0.0000

> <Gold.Chemscore.DEClash>
0.2265

> <Gold.Chemscore.DEInternal>
1.4135

> <Gold.Chemscore.Rot>
2.8788

> <Gold.Chemscore.Internal.Correction>
   9.000000E+99

> <Gold.Chemscore.Hbonds>
donor molecule, donor type, donor heavy atom, donor atom, acceptor molecule, acceptor atom, score
      L1  H     7    18       P1  8028  0.93
      L1  H    13    27       P1  7948  0.44

> <Gold.Chemscore.Hbond.Weighted>
-6.3677

> <Gold.Chemscore.Metal.Weighted>
-0.0000

> <Gold.Chemscore.Lipo.Weighted>
-8.7971

> <Gold.Chemscore.Internal_Hbond.Weighted>
0.0000

> <Gold.Chemscore.DEClash.Weighted>
0.2265

> <Gold.Chemscore.DEInternal.Weighted>
1.4135

> <Gold.Chemscore.Rot.Weighted>
7.3699

> <Gold.Chemscore.Internal.Correction.Weighted>
   9.000000E+99

> <Gold.Protein.RotatedTorsions>
[ 6907 6896 6895 6894 ] final -134.53 input  -60.11 | X-H torsion
[ 7974 7965 7964 7962 ] final -147.59 input  175.53 | X-H torsion
[ 8008 7997 7996 7995 ] final  -55.81 input   59.86 | X-H torsion
[ 10167 10162 10161 10158 ] final  169.35 input  -65.29 | X-H torsion
[ 10718 10713 10712 10709 ] final  -65.76 input   66.30 | X-H torsion
[ 10763 10752 10751 10750 ] final  140.30 input  -60.55 | X-H torsion
[ 11005 11000 10999 10996 ] final   -4.04 input  -57.11 | X-H torsion

> <Gold.Protein.ActiveResidues>
 VAL166  LYS551  ARG553  GLY616  TRP617  ASP618  TYR619  PRO620  LYS621  CYS622 
 ASP623  PHE694  ASN695  SER759  ASP760  ASP761  ALA762  ILE779  LEU786  VAL792 
 PHE793  MET794  SER795  GLU796  ALA797  LYS798  CYS799  TRP800  GLU811  SER814 

> <Gold.Protein.RotatedAtoms>
  150.9870  133.6188  159.2713 H   0  0  0  0  0  0  0  0  0  0  0  0  # atno 6907 bound_to 6896
  151.3422  135.0865  159.9384 H   0  0  0  0  0  0  0  0  0  0  0  0  # atno 6908 bound_to 6896
  152.5234  133.9479  159.7712 H   0  0  0  0  0  0  0  0  0  0  0  0  # atno 6909 bound_to 6896
  144.8084  140.5307  143.5659 H   0  0  0  0  0  0  0  0  0  0  0  0  # atno 7974 bound_to 7965
  154.4208  140.1144  156.5537 H   0  0  0  0  0  0  0  0  0  0  0  0  # atno 8008 bound_to 7997
  155.6383  140.3496  155.4687 H   0  0  0  0  0  0  0  0  0  0  0  0  # atno 8009 bound_to 7997
  155.9892  140.1176  157.0644 H   0  0  0  0  0  0  0  0  0  0  0  0  # atno 8010 bound_to 7997
  139.4990  144.3715  151.9719 H   0  0  0  0  0  0  0  0  0  0  0  0  # atno 10167 bound_to 10162
  156.0651  130.4252  150.1611 H   0  0  0  0  0  0  0  0  0  0  0  0  # atno 10718 bound_to 10713
  153.9204  135.3001  155.3448 H   0  0  0  0  0  0  0  0  0  0  0  0  # atno 10763 bound_to 10752
  154.7578  135.4949  153.9410 H   0  0  0  0  0  0  0  0  0  0  0  0  # atno 10764 bound_to 10752
  153.1144  135.6767  153.9546 H   0  0  0  0  0  0  0  0  0  0  0  0  # atno 10765 bound_to 10752
  140.6759  133.9195  155.8524 H   0  0  0  0  0  0  0  0  0  0  0  0  # atno 11005 bound_to 11000
  145.5383  139.1475  143.3461 LP  0  0  0  0  0  0  0  0  0  0  0  0  # atno 17320 bound_to 7965
  146.2379  140.5523  142.8947 LP  0  0  0  0  0  0  0  0  0  0  0  0  # atno 17321 bound_to 7965
  140.3152  144.3492  150.6023 LP  0  0  0  0  0  0  0  0  0  0  0  0  # atno 17342 bound_to 10162
  140.5767  143.2176  151.7502 LP  0  0  0  0  0  0  0  0  0  0  0  0  # atno 17343 bound_to 10162
  156.9672  130.9823  151.3466 LP  0  0  0  0  0  0  0  0  0  0  0  0  # atno 17370 bound_to 10713
  157.5687  130.8295  149.8362 LP  0  0  0  0  0  0  0  0  0  0  0  0  # atno 17371 bound_to 10713
  141.0355  134.0695  157.3964 LP  0  0  0  0  0  0  0  0  0  0  0  0  # atno 17394 bound_to 11000
  139.8967  135.0147  156.7063 LP  0  0  0  0  0  0  0  0  0  0  0  0  # atno 17395 bound_to 11000

$$$$
