AV-unprocessed.smi:2525|AV-procd|sdf|9932|dock2
  -GOLD-   2272013573D 1   1.00000     0.00000
 Structure written by MMmdl.
 44 45  0  0  0  0  0  0  0  0  1 V2000
  148.8703  141.4706  158.0192 C   0  0  0  0  0  0  0  0  0  0  0  0
  149.6018  140.9531  156.7662 C   0  0  0  0  0  0  0  0  0  0  0  0
  150.8244  140.0206  157.0010 C   0  0  0  0  0  0  0  0  0  0  0  0
  151.7890  140.6894  158.0044 C   0  0  0  0  0  0  0  0  0  0  0  0
  152.8746  139.7598  158.5711 C   0  0  0  0  0  0  0  0  0  0  0  0
  150.5490  138.5122  157.2566 C   0  0  1  0  0  0  0  0  0  0  0  0
  149.2464  138.2010  157.8321 N   0  0  0  0  0  0  0  0  0  0  0  0
  148.9817  137.1273  158.5913 C   0  0  0  0  0  0  0  0  0  0  0  0
  149.8302  136.2953  158.9107 O   0  0  0  0  0  0  0  0  0  0  0  0
  147.5391  136.9740  159.0763 C   0  0  0  0  0  0  0  0  0  0  0  0
  147.4904  136.5050  160.4505 N   0  0  0  0  0  0  0  0  0  0  0  0
  146.9583  135.3297  160.9399 C   0  0  0  0  0  0  0  0  0  0  0  0
  147.1748  135.4186  162.2852 C   0  0  0  0  0  0  0  0  0  0  0  0
  147.8202  136.6240  162.5552 N   0  0  0  0  0  0  0  0  0  0  0  0
  148.0054  137.2674  161.4456 N   0  0  0  0  0  0  0  0  0  0  0  0
  150.5877  138.2627  155.7461 C   0  0  2  0  0  0  0  0  0  0  0  0
  151.0803  136.9209  155.2177 C   0  0  0  0  0  0  0  0  0  0  0  0
  151.4737  139.5201  155.6782 C   0  0  2  0  0  0  0  0  0  0  0  0
  152.8565  139.2195  155.8377 O   0  0  0  0  0  0  0  0  0  0  0  0
  153.4512  138.6957  154.6627 C   0  0  0  0  0  0  0  0  0  0  0  0
  147.9620  142.0017  157.7339 H   0  0  0  0  0  0  0  0  0  0  0  0
  149.4810  142.1730  158.5854 H   0  0  0  0  0  0  0  0  0  0  0  0
  148.5769  140.6657  158.6900 H   0  0  0  0  0  0  0  0  0  0  0  0
  148.8610  140.4475  156.1475 H   0  0  0  0  0  0  0  0  0  0  0  0
  149.9047  141.8144  156.1704 H   0  0  0  0  0  0  0  0  0  0  0  0
  152.2548  141.5712  157.5664 H   0  0  0  0  0  0  0  0  0  0  0  0
  151.2231  141.0857  158.8481 H   0  0  0  0  0  0  0  0  0  0  0  0
  153.4688  140.2797  159.3227 H   0  0  0  0  0  0  0  0  0  0  0  0
  153.5605  139.4163  157.7975 H   0  0  0  0  0  0  0  0  0  0  0  0
  152.4384  138.8817  159.0476 H   0  0  0  0  0  0  0  0  0  0  0  0
  151.3842  138.0141  157.7556 H   0  0  0  0  0  0  0  0  0  0  0  0
  148.4894  138.8356  157.6227 H   0  0  0  0  0  0  0  0  0  0  0  0
  147.0192  137.9309  159.0152 H   0  0  0  0  0  0  0  0  0  0  0  0
  147.0046  136.2758  158.4298 H   0  0  0  0  0  0  0  0  0  0  0  0
  146.4936  134.5773  160.3197 H   0  0  0  0  0  0  0  0  0  0  0  0
  146.9217  134.7249  163.0734 H   0  0  0  0  0  0  0  0  0  0  0  0
  149.6172  138.4955  155.3040 H   0  0  0  0  0  0  0  0  0  0  0  0
  152.0513  136.6552  155.6363 H   0  0  0  0  0  0  0  0  0  0  0  0
  151.1777  136.9352  154.1322 H   0  0  0  0  0  0  0  0  0  0  0  0
  150.3850  136.1213  155.4745 H   0  0  0  0  0  0  0  0  0  0  0  0
  151.2661  140.1719  154.8275 H   0  0  0  0  0  0  0  0  0  0  0  0
  154.4945  138.4498  154.8599 H   0  0  0  0  0  0  0  0  0  0  0  0
  153.4261  139.4276  153.8546 H   0  0  0  0  0  0  0  0  0  0  0  0
  152.9489  137.7886  154.3266 H   0  0  0  0  0  0  0  0  0  0  0  0
  1  2  1  0  0  0  0
  1 21  1  0  0  0  0
  1 22  1  0  0  0  0
  1 23  1  0  0  0  0
  2  3  1  0  0  0  0
  2 24  1  0  0  0  0
  2 25  1  0  0  0  0
  3 18  1  0  0  0  0
  3  4  1  0  0  0  0
  3  6  1  0  0  0  0
  4  5  1  0  0  0  0
  4 26  1  0  0  0  0
  4 27  1  0  0  0  0
  5 28  1  0  0  0  0
  5 29  1  0  0  0  0
  5 30  1  0  0  0  0
  6  7  1  0  0  0  0
  6 16  1  0  0  0  0
  6 31  1  0  0  0  0
  7  8  1  0  0  0  0
  7 32  1  0  0  0  0
  8  9  2  0  0  0  0
  8 10  1  0  0  0  0
 10 11  1  0  0  0  0
 10 33  1  0  0  0  0
 10 34  1  0  0  0  0
 11 15  1  0  0  0  0
 11 12  1  0  0  0  0
 12 13  2  0  0  0  0
 12 35  1  0  0  0  0
 13 14  1  0  0  0  0
 13 36  1  0  0  0  0
 14 15  2  0  0  0  0
 16 17  1  0  0  0  0
 16 18  1  0  0  0  0
 16 37  1  0  0  0  0
 17 38  1  0  0  0  0
 17 39  1  0  0  0  0
 17 40  1  0  0  0  0
 18 19  1  0  0  0  0
 18 41  1  0  0  0  0
 19 20  1  0  0  0  0
 20 42  1  0  0  0  0
 20 43  1  0  0  0  0
 20 44  1  0  0  0  0
M  END
> <s_m_source_file>
AV-unprocessed.smi

> <i_m_source_file_index>
2525

> <i_lp_mmshare_version>
43012

> <i_f3d_flags>
0

> <s_epik_input>
W0NIM11PW0NAQEhdMVtDQEhdKFtDSDNdKVtDQEBIXShDMShbQ0gyXVtDSDNdKVtDSDJdW0NIM10pW05IXUMoPU8pW0NIMl1uMltjSF1bY0hdbm4y

> <s_epik_cmdline>
J2VwaWtfcHl0aG9uJywgJy1waCcsICc3LjAnLCAnLXRuJywgJzgnLCAnLW1hJywgJzIwMCcsICctbWV0YWxfYmluZGluZycsICctaW1hZScsICc8aW5maWxlLm1hZT4nLCAnLW9tYWUnLCAnPG91dGZpbGUubWFlPic=

> <r_lp_tautomer_probability>
1

> <r_epik_Ionization_Penalty>
1.18045e-06

> <r_epik_Ionization_Penalty_Charging>
0

> <r_epik_Ionization_Penalty_Neutral>
1.18045e-06

> <r_epik_State_Penalty>
-0

> <r_epik_Charging_Adjusted_Penalty>
0

> <i_epik_Tot_Q>
0

> <i_epik_Tot_abs_Q>
0

> <r_epik_Metal_State_Penalty>
-0

> <b_epik_Metal_Only>
0

> <s_lp_Force_Field>
OPLS_2005

> <r_lp_Energy>
28.9829

> <b_lp_Chiralities_Consistent>
1

> <s_lp_Variant>
AV-unprocessed.smi:2525-7

> <Gold.Version>
5.8.1

> <Gold.Id.Protein>
6NUR|6NUR_protein|mol2

> <Gold.PLP.Fitness>
39.5363

> <Gold.PLP.PLP>
-30.3544

> <Gold.PLP.part.hbond>
-4.6676

> <Gold.PLP.part.metal>
0.0000

> <Gold.PLP.part.buried>
-4.4335

> <Gold.PLP.part.nonpolar>
-21.2320

> <Gold.PLP.part.repulsive>
0.0825

> <Gold.PLP.ligand.clash>
0.0000

> <Gold.PLP.ligand.torsion>
0.9914

> <Gold.PLP.Chemscore.Hbond>
3.4836

> <Gold.PLP.Chemscore.CHOScore>
0.0000

> <Gold.PLP.Chemscore.Metal>
0.0000

> <Gold.Chemscore.Hbonds>
donor molecule, donor type, donor heavy atom, donor atom, acceptor molecule, acceptor atom, score
      P1  H  6896  6908       L1     9  0.91
      P1  H  6931  6943       L1    15  0.86
      P1  H  6934  6947       L1    15  0.61
      P1  H  7997  8008       L1    19  0.85

> <Gold.PLP.Chemscore.Internal.Correction>
0.7140

> <Gold.Rescore>
     Score         DG    S(hbond)    S(metal)    S(lipo)     H(rot)  DE(clash)    DE(int)     intcor
     12.31     -14.91       1.87        0.00      70.58       1.98       0.16       2.44       ----

> <Gold.Chemscore.Fitness>
12.3065

> <Gold.Chemscore.DG>
-14.9051

> <Gold.Chemscore.ZeroCoef>
-5.4800

> <Gold.Chemscore.Hbond>
1.8684

> <Gold.Chemscore.Metal>
0.0000

> <Gold.Chemscore.Lipo>
70.5774

> <Gold.Chemscore.Internal_Hbond>
0.0000

> <Gold.Chemscore.DEClash>
0.1632

> <Gold.Chemscore.DEInternal>
2.4354

> <Gold.Chemscore.Rot>
1.9817

> <Gold.Chemscore.Internal.Correction>
   9.000000E+99

> <Gold.Chemscore.Hbonds>
donor molecule, donor type, donor heavy atom, donor atom, acceptor molecule, acceptor atom, score
      P1  H  6896  6908       L1     9  0.82
      P1  H  6931  6943       L1    15  0.18
      P1  H  6934  6947       L1    15  0.13
      P1  H  7997  8008       L1    19  0.14

> <Gold.Chemscore.Hbond.Weighted>
-6.2406

> <Gold.Chemscore.Metal.Weighted>
-0.0000

> <Gold.Chemscore.Lipo.Weighted>
-8.2576

> <Gold.Chemscore.Internal_Hbond.Weighted>
0.0000

> <Gold.Chemscore.DEClash.Weighted>
0.1632

> <Gold.Chemscore.DEInternal.Weighted>
2.4354

> <Gold.Chemscore.Rot.Weighted>
5.0731

> <Gold.Chemscore.Internal.Correction.Weighted>
   9.000000E+99

> <Gold.Protein.RotatedTorsions>
[ 6907 6896 6895 6894 ] final  167.27 input  -60.11 | X-H torsion
[ 7974 7965 7964 7962 ] final  -19.29 input  175.53 | X-H torsion
[ 8008 7997 7996 7995 ] final  -52.43 input   59.86 | X-H torsion
[ 10167 10162 10161 10158 ] final  152.73 input  -65.29 | X-H torsion
[ 10718 10713 10712 10709 ] final -150.33 input   66.30 | X-H torsion
[ 10763 10752 10751 10750 ] final    0.64 input  -60.55 | X-H torsion
[ 11005 11000 10999 10996 ] final   81.87 input  -57.11 | X-H torsion

> <Gold.Protein.ActiveResidues>
 VAL166  LYS551  ARG553  GLY616  TRP617  ASP618  TYR619  PRO620  LYS621  CYS622 
 ASP623  PHE694  ASN695  SER759  ASP760  ASP761  ALA762  ILE779  LEU786  VAL792 
 PHE793  MET794  SER795  GLU796  ALA797  LYS798  CYS799  TRP800  GLU811  SER814 

> <Gold.Protein.RotatedAtoms>
  151.8659  133.3466  159.3718 H   0  0  0  0  0  0  0  0  0  0  0  0  # atno 6907 bound_to 6896
  150.7166  134.5161  159.5640 H   0  0  0  0  0  0  0  0  0  0  0  0  # atno 6908 bound_to 6896
  152.2683  134.7960  160.0469 H   0  0  0  0  0  0  0  0  0  0  0  0  # atno 6909 bound_to 6896
  146.1849  140.4042  142.8480 H   0  0  0  0  0  0  0  0  0  0  0  0  # atno 7974 bound_to 7965
  154.4107  140.1224  156.4991 H   0  0  0  0  0  0  0  0  0  0  0  0  # atno 8008 bound_to 7997
  155.6913  140.3495  155.4875 H   0  0  0  0  0  0  0  0  0  0  0  0  # atno 8009 bound_to 7997
  155.9466  140.1097  157.1001 H   0  0  0  0  0  0  0  0  0  0  0  0  # atno 8010 bound_to 7997
  139.4831  144.5333  151.7687 H   0  0  0  0  0  0  0  0  0  0  0  0  # atno 10167 bound_to 10162
  156.4447  130.8139  151.2369 H   0  0  0  0  0  0  0  0  0  0  0  0  # atno 10718 bound_to 10713
  153.3181  135.6967  153.7054 H   0  0  0  0  0  0  0  0  0  0  0  0  # atno 10763 bound_to 10752
  153.5905  135.3481  155.2909 H   0  0  0  0  0  0  0  0  0  0  0  0  # atno 10764 bound_to 10752
  154.8591  135.4317  154.2338 H   0  0  0  0  0  0  0  0  0  0  0  0  # atno 10765 bound_to 10752
  139.9083  134.8029  156.2099 H   0  0  0  0  0  0  0  0  0  0  0  0  # atno 11005 bound_to 11000
  144.8379  140.6811  143.6248 LP  0  0  0  0  0  0  0  0  0  0  0  0  # atno 17320 bound_to 7965
  145.3969  139.1605  143.4198 LP  0  0  0  0  0  0  0  0  0  0  0  0  # atno 17321 bound_to 7965
  140.4862  144.1377  150.5941 LP  0  0  0  0  0  0  0  0  0  0  0  0  # atno 17342 bound_to 10162
  140.4222  143.2606  151.9700 LP  0  0  0  0  0  0  0  0  0  0  0  0  # atno 17343 bound_to 10162
  157.7505  131.0157  150.3515 LP  0  0  0  0  0  0  0  0  0  0  0  0  # atno 17370 bound_to 10713
  156.3880  130.3892  149.7051 LP  0  0  0  0  0  0  0  0  0  0  0  0  # atno 17371 bound_to 10713
  141.0472  133.6907  156.1705 LP  0  0  0  0  0  0  0  0  0  0  0  0  # atno 17394 bound_to 11000
  140.6866  134.4711  157.5589 LP  0  0  0  0  0  0  0  0  0  0  0  0  # atno 17395 bound_to 11000

$$$$
