AV-unprocessed.smi:2040|AV-procd|sdf|8288|dock2
  -GOLD-   2272010553D 1   1.00000     0.00000
 Structure written by MMmdl.
 38 39  0  0  0  0  0  0  0  0  1 V2000
  150.4348  142.1274  156.1551 C   0  0  0  0  0  0  0  0  0  0  0  0
  150.1784  140.8780  155.3653 C   0  0  0  0  0  0  0  0  0  0  0  0
  148.9719  140.4807  154.7189 C   0  0  0  0  0  0  0  0  0  0  0  0
  149.3099  139.2764  154.1643 C   0  0  0  0  0  0  0  0  0  0  0  0
  148.5468  138.4352  153.4169 N   0  0  0  0  0  0  0  0  0  0  0  0
  147.2074  138.3897  153.3093 C   0  0  0  0  0  0  0  0  0  0  0  0
  146.4180  139.1270  153.9003 O   0  0  0  0  0  0  0  0  0  0  0  0
  146.8230  137.4184  152.4686 N   0  0  0  0  0  0  0  0  0  0  0  0
  145.4407  137.1017  152.1176 C   0  0  2  0  0  0  0  0  0  0  0  0
  144.6387  136.8022  153.3963 C   0  0  0  0  0  0  0  0  0  0  0  0
  145.4286  135.9175  151.1321 C   0  0  1  0  0  0  0  0  0  0  0  0
  146.1069  134.6452  151.6491 C   0  0  0  0  0  0  0  0  0  0  0  0
  145.3670  133.5161  150.9453 C   0  0  0  0  0  0  0  0  0  0  0  0
  144.1891  134.2098  150.2591 C   0  0  0  0  0  0  0  0  0  0  0  0
  144.1003  135.4746  150.8962 O   0  0  0  0  0  0  0  0  0  0  0  0
  150.6248  139.0009  154.4664 N   0  0  0  0  0  0  0  0  0  0  0  0
  151.4323  137.8529  154.1025 C   0  0  0  0  0  0  0  0  0  0  0  0
  151.1574  139.9932  155.2121 N   0  0  0  0  0  0  0  0  0  0  0  0
  149.5757  142.7977  156.1216 H   0  0  0  0  0  0  0  0  0  0  0  0
  151.2946  142.6718  155.7635 H   0  0  0  0  0  0  0  0  0  0  0  0
  150.6340  141.8957  157.2017 H   0  0  0  0  0  0  0  0  0  0  0  0
  148.0302  141.0068  154.6796 H   0  0  0  0  0  0  0  0  0  0  0  0
  149.0591  137.7479  152.8842 H   0  0  0  0  0  0  0  0  0  0  0  0
  147.5395  136.8642  152.0230 H   0  0  0  0  0  0  0  0  0  0  0  0
  144.9935  137.9637  151.6189 H   0  0  0  0  0  0  0  0  0  0  0  0
  143.5920  136.5989  153.1704 H   0  0  0  0  0  0  0  0  0  0  0  0
  144.6608  137.6481  154.0840 H   0  0  0  0  0  0  0  0  0  0  0  0
  145.0402  135.9354  153.9221 H   0  0  0  0  0  0  0  0  0  0  0  0
  145.8732  136.2105  150.1785 H   0  0  0  0  0  0  0  0  0  0  0  0
  147.1783  134.6361  151.4466 H   0  0  0  0  0  0  0  0  0  0  0  0
  145.9702  134.5507  152.7273 H   0  0  0  0  0  0  0  0  0  0  0  0
  145.9974  133.0017  150.2191 H   0  0  0  0  0  0  0  0  0  0  0  0
  145.0212  132.7791  151.6711 H   0  0  0  0  0  0  0  0  0  0  0  0
  144.3948  134.3572  149.1976 H   0  0  0  0  0  0  0  0  0  0  0  0
  143.2583  133.6499  150.3516 H   0  0  0  0  0  0  0  0  0  0  0  0
  150.9846  136.9464  154.5103 H   0  0  0  0  0  0  0  0  0  0  0  0
  152.4448  137.9548  154.4953 H   0  0  0  0  0  0  0  0  0  0  0  0
  151.4815  137.7697  153.0167 H   0  0  0  0  0  0  0  0  0  0  0  0
  1  2  1  0  0  0  0
  1 19  1  0  0  0  0
  1 20  1  0  0  0  0
  1 21  1  0  0  0  0
  2 18  2  0  0  0  0
  2  3  1  0  0  0  0
  3  4  2  0  0  0  0
  3 22  1  0  0  0  0
  4  5  1  0  0  0  0
  4 16  1  0  0  0  0
  5  6  1  0  0  0  0
  5 23  1  0  0  0  0
  6  7  2  0  0  0  0
  6  8  1  0  0  0  0
  8  9  1  0  0  0  0
  8 24  1  0  0  0  0
  9 10  1  0  0  0  0
  9 11  1  0  0  0  0
  9 25  1  0  0  0  0
 10 26  1  0  0  0  0
 10 27  1  0  0  0  0
 10 28  1  0  0  0  0
 11 15  1  0  0  0  0
 11 12  1  0  0  0  0
 11 29  1  0  0  0  0
 12 13  1  0  0  0  0
 12 30  1  0  0  0  0
 12 31  1  0  0  0  0
 13 14  1  0  0  0  0
 13 32  1  0  0  0  0
 13 33  1  0  0  0  0
 14 15  1  0  0  0  0
 14 34  1  0  0  0  0
 14 35  1  0  0  0  0
 16 17  1  0  0  0  0
 16 18  1  0  0  0  0
 17 36  1  0  0  0  0
 17 37  1  0  0  0  0
 17 38  1  0  0  0  0
M  END
> <s_m_source_file>
AV-unprocessed.smi

> <i_m_source_file_index>
2040

> <i_lp_mmshare_version>
43012

> <i_f3d_flags>
0

> <s_epik_input>
W0NIM11jMVtjSF1jKG4objEpW0NIM10pW05IXUMoPU8pW05IXVtDQEhdKFtDSDNdKVtDQEBIXTJbQ0gyXVtDSDJdW0NIMl1PMg==

> <s_epik_cmdline>
J2VwaWtfcHl0aG9uJywgJy1waCcsICc3LjAnLCAnLXRuJywgJzgnLCAnLW1hJywgJzIwMCcsICctbWV0YWxfYmluZGluZycsICctaW1hZScsICc8aW5maWxlLm1hZT4nLCAnLW9tYWUnLCAnPG91dGZpbGUubWFlPic=

> <r_lp_tautomer_probability>
1

> <r_epik_Ionization_Penalty>
9.09088e-05

> <r_epik_Ionization_Penalty_Charging>
0

> <r_epik_Ionization_Penalty_Neutral>
9.09088e-05

> <r_epik_State_Penalty>
-0

> <r_epik_Charging_Adjusted_Penalty>
0

> <i_epik_Tot_Q>
0

> <i_epik_Tot_abs_Q>
0

> <r_epik_Metal_State_Penalty>
-0

> <b_epik_Metal_Only>
0

> <s_lp_Force_Field>
OPLS_2005

> <r_lp_Energy>
19.5885

> <b_lp_Chiralities_Consistent>
1

> <s_lp_Variant>
AV-unprocessed.smi:2040-3

> <Gold.Version>
5.8.1

> <Gold.Id.Protein>
6NUR|6NUR_protein|mol2

> <Gold.PLP.Fitness>
36.7859

> <Gold.PLP.PLP>
-30.6695

> <Gold.PLP.part.hbond>
-3.8490

> <Gold.PLP.part.metal>
0.0000

> <Gold.PLP.part.buried>
-0.5138

> <Gold.PLP.part.nonpolar>
-27.5532

> <Gold.PLP.part.repulsive>
0.5250

> <Gold.PLP.ligand.clash>
0.0000

> <Gold.PLP.ligand.torsion>
0.1171

> <Gold.PLP.Chemscore.Hbond>
2.1103

> <Gold.PLP.Chemscore.CHOScore>
0.0000

> <Gold.PLP.Chemscore.Metal>
0.0000

> <Gold.Chemscore.Hbonds>
donor molecule, donor type, donor heavy atom, donor atom, acceptor molecule, acceptor atom, score
      L1  H     5    23       P1  7948  0.94
      L1  H     8    24       P1  7948  1.00
      P1  H  7989  7998       L1    18  0.16

> <Gold.PLP.Chemscore.Internal.Correction>
0.0198

> <Gold.Rescore>
     Score         DG    S(hbond)    S(metal)    S(lipo)     H(rot)  DE(clash)    DE(int)     intcor
     13.61     -16.11       1.94        0.00      62.40       1.23       0.22       2.28       ----

> <Gold.Chemscore.Fitness>
13.6132

> <Gold.Chemscore.DG>
-16.1119

> <Gold.Chemscore.ZeroCoef>
-5.4800

> <Gold.Chemscore.Hbond>
1.9428

> <Gold.Chemscore.Metal>
0.0000

> <Gold.Chemscore.Lipo>
62.4048

> <Gold.Chemscore.Internal_Hbond>
0.0000

> <Gold.Chemscore.DEClash>
0.2176

> <Gold.Chemscore.DEInternal>
2.2811

> <Gold.Chemscore.Rot>
1.2338

> <Gold.Chemscore.Internal.Correction>
   9.000000E+99

> <Gold.Chemscore.Hbonds>
donor molecule, donor type, donor heavy atom, donor atom, acceptor molecule, acceptor atom, score
      L1  H     5    23       P1  7948  0.91
      L1  H     8    24       P1  7948  0.93

> <Gold.Chemscore.Hbond.Weighted>
-6.4890

> <Gold.Chemscore.Metal.Weighted>
-0.0000

> <Gold.Chemscore.Lipo.Weighted>
-7.3014

> <Gold.Chemscore.Internal_Hbond.Weighted>
0.0000

> <Gold.Chemscore.DEClash.Weighted>
0.2176

> <Gold.Chemscore.DEInternal.Weighted>
2.2811

> <Gold.Chemscore.Rot.Weighted>
3.1584

> <Gold.Chemscore.Internal.Correction.Weighted>
   9.000000E+99

> <Gold.Protein.RotatedTorsions>
[ 6907 6896 6895 6894 ] final  121.47 input  -60.11 | X-H torsion
[ 7974 7965 7964 7962 ] final    3.81 input  175.53 | X-H torsion
[ 8008 7997 7996 7995 ] final   -5.70 input   59.86 | X-H torsion
[ 10167 10162 10161 10158 ] final  -70.46 input  -65.29 | X-H torsion
[ 10718 10713 10712 10709 ] final  -82.61 input   66.30 | X-H torsion
[ 10763 10752 10751 10750 ] final  131.78 input  -60.55 | X-H torsion
[ 11005 11000 10999 10996 ] final  112.28 input  -57.11 | X-H torsion

> <Gold.Protein.ActiveResidues>
 VAL166  LYS551  ARG553  GLY616  TRP617  ASP618  TYR619  PRO620  LYS621  CYS622 
 ASP623  PHE694  ASN695  SER759  ASP760  ASP761  ALA762  ILE779  LEU786  VAL792 
 PHE793  MET794  SER795  GLU796  ALA797  LYS798  CYS799  TRP800  GLU811  SER814 

> <Gold.Protein.RotatedAtoms>
  152.4319  133.7293  159.6577 H   0  0  0  0  0  0  0  0  0  0  0  0  # atno 6907 bound_to 6896
  150.8199  133.8260  159.3149 H   0  0  0  0  0  0  0  0  0  0  0  0  # atno 6908 bound_to 6896
  151.5945  135.1053  160.0098 H   0  0  0  0  0  0  0  0  0  0  0  0  # atno 6909 bound_to 6896
  146.2445  140.0629  142.8367 H   0  0  0  0  0  0  0  0  0  0  0  0  # atno 7974 bound_to 7965
  154.6013  140.2452  155.7789 H   0  0  0  0  0  0  0  0  0  0  0  0  # atno 8008 bound_to 7997
  156.2312  140.2966  156.0146 H   0  0  0  0  0  0  0  0  0  0  0  0  # atno 8009 bound_to 7997
  155.2207  140.0400  157.2938 H   0  0  0  0  0  0  0  0  0  0  0  0  # atno 8010 bound_to 7997
  140.5351  143.2318  151.7192 H   0  0  0  0  0  0  0  0  0  0  0  0  # atno 10167 bound_to 10162
  156.0030  130.4639  150.4131 H   0  0  0  0  0  0  0  0  0  0  0  0  # atno 10718 bound_to 10713
  153.7799  135.3170  155.3364 H   0  0  0  0  0  0  0  0  0  0  0  0  # atno 10763 bound_to 10752
  154.8165  135.4632  154.0661 H   0  0  0  0  0  0  0  0  0  0  0  0  # atno 10764 bound_to 10752
  153.1947  135.6913  153.8393 H   0  0  0  0  0  0  0  0  0  0  0  0  # atno 10765 bound_to 10752
  139.8923  134.9526  156.6561 H   0  0  0  0  0  0  0  0  0  0  0  0  # atno 11005 bound_to 11000
  145.0884  140.9268  143.4784 LP  0  0  0  0  0  0  0  0  0  0  0  0  # atno 17320 bound_to 7965
  145.0797  139.2969  143.5790 LP  0  0  0  0  0  0  0  0  0  0  0  0  # atno 17321 bound_to 7965
  139.4968  144.4056  152.0136 LP  0  0  0  0  0  0  0  0  0  0  0  0  # atno 17342 bound_to 10162
  140.3160  144.3483  150.6021 LP  0  0  0  0  0  0  0  0  0  0  0  0  # atno 17343 bound_to 10162
  157.2192  131.0478  151.2556 LP  0  0  0  0  0  0  0  0  0  0  0  0  # atno 17370 bound_to 10713
  157.3816  130.7234  149.6634 LP  0  0  0  0  0  0  0  0  0  0  0  0  # atno 17371 bound_to 10713
  140.7483  133.8919  155.8328 LP  0  0  0  0  0  0  0  0  0  0  0  0  # atno 17394 bound_to 11000
  141.0022  134.1135  157.4306 LP  0  0  0  0  0  0  0  0  0  0  0  0  # atno 17395 bound_to 11000

$$$$
