AV-unprocessed.smi:342|AV-procd|sdf|2386|dock1
  -GOLD-   2262022313D 1   1.00000     0.00000
 Structure written by MMmdl.
 42 44  0  0  0  0  0  0  0  0  2 V2000
  148.7741  133.0149  152.6194 O   0  0  0  0  0  0  0  0  0  0  0  0
  147.7423  132.8268  153.5665 C   0  0  2  0  0  0  0  0  0  0  0  0
  147.3593  134.1980  154.1653 C   0  0  0  0  0  0  0  0  0  0  0  0
  146.7451  135.1056  153.1635 N   0  3  0  0  0  0  0  0  0  0  0  0
  145.7319  134.4443  152.3033 C   0  0  0  0  0  0  0  0  0  0  0  0
  145.1767  135.4379  151.2689 C   0  0  0  0  0  0  0  0  0  0  0  0
  144.6266  136.5658  151.9379 O   0  0  0  0  0  0  0  0  0  0  0  0
  145.6055  137.2615  152.6995 C   0  0  0  0  0  0  0  0  0  0  0  0
  146.1781  136.3284  153.7801 C   0  0  0  0  0  0  0  0  0  0  0  0
  148.2399  131.8060  154.6115 C   0  0  0  0  0  0  0  0  0  0  0  0
  148.6864  130.5539  154.0130 N   0  0  0  0  0  0  0  0  0  0  0  0
  149.8797  129.9185  154.1597 C   0  0  0  0  0  0  0  0  0  0  0  0
  150.9906  130.4703  155.0104 C   0  0  0  0  0  0  0  0  0  0  0  0
  151.2422  131.7430  154.7006 F   0  0  0  0  0  0  0  0  0  0  0  0
  150.6606  130.4224  156.3009 F   0  0  0  0  0  0  0  0  0  0  0  0
  152.1159  129.7802  154.8278 F   0  0  0  0  0  0  0  0  0  0  0  0
  150.0056  128.7720  153.4878 N   0  0  0  0  0  0  0  0  0  0  0  0
  148.7967  128.6626  152.8318 C   0  0  0  0  0  0  0  0  0  0  0  0
  148.3159  127.6653  151.9537 C   0  0  0  0  0  0  0  0  0  0  0  0
  147.0283  127.7723  151.3889 C   0  0  0  0  0  0  0  0  0  0  0  0
  146.2060  128.8764  151.6923 C   0  0  0  0  0  0  0  0  0  0  0  0
  146.6659  129.8805  152.5659 C   0  0  0  0  0  0  0  0  0  0  0  0
  147.9506  129.7668  153.1312 C   0  0  0  0  0  0  0  0  0  0  0  0
  148.5692  133.7737  152.0940 H   0  0  0  0  0  0  0  0  0  0  0  0
  146.8914  132.3960  153.0417 H   0  0  0  0  0  0  0  0  0  0  0  0
  146.6681  134.0854  155.0015 H   0  0  0  0  0  0  0  0  0  0  0  0
  148.2592  134.6591  154.5747 H   0  0  0  0  0  0  0  0  0  0  0  0
  146.1654  133.5909  151.7840 H   0  0  0  0  0  0  0  0  0  0  0  0
  144.9188  134.0608  152.9220 H   0  0  0  0  0  0  0  0  0  0  0  0
  145.9569  135.7550  150.5749 H   0  0  0  0  0  0  0  0  0  0  0  0
  144.3954  134.9641  150.6744 H   0  0  0  0  0  0  0  0  0  0  0  0
  146.3959  137.6341  152.0459 H   0  0  0  0  0  0  0  0  0  0  0  0
  145.1397  138.1312  153.1627 H   0  0  0  0  0  0  0  0  0  0  0  0
  145.3955  136.0517  154.4885 H   0  0  0  0  0  0  0  0  0  0  0  0
  146.9510  136.8529  154.3435 H   0  0  0  0  0  0  0  0  0  0  0  0
  149.0774  132.2252  155.1708 H   0  0  0  0  0  0  0  0  0  0  0  0
  147.4583  131.6072  155.3433 H   0  0  0  0  0  0  0  0  0  0  0  0
  148.9399  126.8178  151.7115 H   0  0  0  0  0  0  0  0  0  0  0  0
  146.6714  127.0053  150.7173 H   0  0  0  0  0  0  0  0  0  0  0  0
  145.2223  128.9523  151.2521 H   0  0  0  0  0  0  0  0  0  0  0  0
  146.0378  130.7287  152.7933 H   0  0  0  0  0  0  0  0  0  0  0  0
  147.4943  135.4135  152.5595 H   0  0  0  0  0  0  0  0  0  0  0  0
  1  2  1  0  0  0  0
  1 24  1  0  0  0  0
  2  3  1  0  0  0  0
  2 10  1  0  0  0  0
  2 25  1  0  0  0  0
  3  4  1  0  0  0  0
  3 26  1  0  0  0  0
  3 27  1  0  0  0  0
  4  9  1  0  0  0  0
  4  5  1  0  0  0  0
  4 42  1  0  0  0  0
  5  6  1  0  0  0  0
  5 28  1  0  0  0  0
  5 29  1  0  0  0  0
  6  7  1  0  0  0  0
  6 30  1  0  0  0  0
  6 31  1  0  0  0  0
  7  8  1  0  0  0  0
  8  9  1  0  0  0  0
  8 32  1  0  0  0  0
  8 33  1  0  0  0  0
  9 34  1  0  0  0  0
  9 35  1  0  0  0  0
 10 11  1  0  0  0  0
 10 36  1  0  0  0  0
 10 37  1  0  0  0  0
 11 23  1  0  0  0  0
 11 12  1  0  0  0  0
 12 13  1  0  0  0  0
 12 17  2  0  0  0  0
 13 14  1  0  0  0  0
 13 15  1  0  0  0  0
 13 16  1  0  0  0  0
 17 18  1  0  0  0  0
 18 23  2  0  0  0  0
 18 19  1  0  0  0  0
 19 20  2  0  0  0  0
 19 38  1  0  0  0  0
 20 21  1  0  0  0  0
 20 39  1  0  0  0  0
 21 22  2  0  0  0  0
 21 40  1  0  0  0  0
 22 23  1  0  0  0  0
 22 41  1  0  0  0  0
M  CHG  1   4   1
M  END
> <s_m_source_file>
AV-unprocessed.smi

> <i_m_source_file_index>
342

> <i_lp_mmshare_version>
43012

> <i_f3d_flags>
0

> <s_epik_input>
W2NIXTFbY0hdW2NIXVtjSF1jKGMxMiluKGMobjIpQyhGKShGKUYpW0NIMl1bQ0BIXShbT0hdKVtDSDJdTjNbQ0gyXVtDSDJdT1tDSDJdW0NIMl0z

> <s_epik_cmdline>
J2VwaWtfcHl0aG9uJywgJy1waCcsICc3LjAnLCAnLXRuJywgJzgnLCAnLW1hJywgJzIwMCcsICctbWV0YWxfYmluZGluZycsICctaW1hZScsICc8aW5maWxlLm1hZT4nLCAnLW9tYWUnLCAnPG91dGZpbGUubWFlPic=

> <r_epik_Ionization_Penalty>
0.608409

> <r_epik_Ionization_Penalty_Charging>
0.608065

> <r_epik_Ionization_Penalty_Neutral>
0.000344684

> <r_epik_State_Penalty>
0.623026

> <r_epik_Charging_Adjusted_Penalty>
1.23109

> <i_epik_Tot_Q>
1

> <i_epik_Tot_abs_Q>
1

> <r_epik_Metal_State_Penalty>
0.623013

> <b_epik_Metal_Only>
0

> <s_lp_Force_Field>
OPLS_2005

> <r_lp_Energy>
26.0931

> <b_lp_Chiralities_Consistent>
1

> <s_lp_Variant>
AV-unprocessed.smi:342-3

> <Gold.Version>
5.8.1

> <Gold.Id.Protein>
6NUR|6NUR_protein|mol2

> <Gold.PLP.Fitness>
41.3395

> <Gold.PLP.PLP>
-35.9926

> <Gold.PLP.part.hbond>
-1.1809

> <Gold.PLP.part.metal>
0.0000

> <Gold.PLP.part.buried>
-4.8696

> <Gold.PLP.part.nonpolar>
-30.7498

> <Gold.PLP.part.repulsive>
1.8245

> <Gold.PLP.ligand.clash>
0.0000

> <Gold.PLP.ligand.torsion>
0.3831

> <Gold.PLP.Chemscore.Hbond>
2.0041

> <Gold.PLP.Chemscore.CHOScore>
0.0000

> <Gold.PLP.Chemscore.Metal>
0.0000

> <Gold.Chemscore.Hbonds>
donor molecule, donor type, donor heavy atom, donor atom, acceptor molecule, acceptor atom, score
      L1  H     4    42       P1  7948  2.00

> <Gold.PLP.Chemscore.Internal.Correction>
0.1009

> <Gold.Rescore>
     Score         DG    S(hbond)    S(metal)    S(lipo)     H(rot)  DE(clash)    DE(int)     intcor
     11.48     -11.64       1.00        0.00      74.97       2.32       0.01       0.16       ----

> <Gold.Chemscore.Fitness>
11.4791

> <Gold.Chemscore.DG>
-11.6416

> <Gold.Chemscore.ZeroCoef>
-5.4800

> <Gold.Chemscore.Hbond>
0.9974

> <Gold.Chemscore.Metal>
0.0000

> <Gold.Chemscore.Lipo>
74.9661

> <Gold.Chemscore.Internal_Hbond>
0.0000

> <Gold.Chemscore.DEClash>
0.0075

> <Gold.Chemscore.DEInternal>
0.1550

> <Gold.Chemscore.Rot>
2.3206

> <Gold.Chemscore.Internal.Correction>
   9.000000E+99

> <Gold.Chemscore.Hbonds>
donor molecule, donor type, donor heavy atom, donor atom, acceptor molecule, acceptor atom, score
      L1  H     4    42       P1  7948  1.00

> <Gold.Chemscore.Hbond.Weighted>
-3.3313

> <Gold.Chemscore.Metal.Weighted>
-0.0000

> <Gold.Chemscore.Lipo.Weighted>
-8.7710

> <Gold.Chemscore.Internal_Hbond.Weighted>
0.0000

> <Gold.Chemscore.DEClash.Weighted>
0.0075

> <Gold.Chemscore.DEInternal.Weighted>
0.1550

> <Gold.Chemscore.Rot.Weighted>
5.9407

> <Gold.Chemscore.Internal.Correction.Weighted>
   9.000000E+99

> <Gold.Protein.RotatedTorsions>
[ 6907 6896 6895 6894 ] final   25.21 input  -60.11 | X-H torsion
[ 7974 7965 7964 7962 ] final   24.71 input  175.53 | X-H torsion
[ 8008 7997 7996 7995 ] final -159.21 input   59.86 | X-H torsion
[ 10167 10162 10161 10158 ] final   -8.62 input  -65.29 | X-H torsion
[ 10718 10713 10712 10709 ] final  122.15 input   66.30 | X-H torsion
[ 10763 10752 10751 10750 ] final  -44.88 input  -60.55 | X-H torsion
[ 11005 11000 10999 10996 ] final  -35.23 input  -57.11 | X-H torsion

> <Gold.Protein.ActiveResidues>
 VAL166  LYS551  ARG553  GLY616  TRP617  ASP618  TYR619  PRO620  LYS621  CYS622 
 ASP623  PHE694  ASN695  SER759  ASP760  ASP761  ALA762  ILE779  LEU786  VAL792 
 PHE793  MET794  SER795  GLU796  ALA797  LYS798  CYS799  TRP800  GLU811  SER814 

> <Gold.Protein.RotatedAtoms>
  151.9691  135.0085  160.0551 H   0  0  0  0  0  0  0  0  0  0  0  0  # atno 6907 bound_to 6896
  152.1799  133.4695  159.4961 H   0  0  0  0  0  0  0  0  0  0  0  0  # atno 6908 bound_to 6896
  150.6915  134.1764  159.4274 H   0  0  0  0  0  0  0  0  0  0  0  0  # atno 6909 bound_to 6896
  146.1924  139.7566  142.8822 H   0  0  0  0  0  0  0  0  0  0  0  0  # atno 7974 bound_to 7965
  155.7591  140.0837  157.2164 H   0  0  0  0  0  0  0  0  0  0  0  0  # atno 8008 bound_to 7997
  154.4005  140.1546  156.2868 H   0  0  0  0  0  0  0  0  0  0  0  0  # atno 8009 bound_to 7997
  155.8857  140.3418  155.5922 H   0  0  0  0  0  0  0  0  0  0  0  0  # atno 8010 bound_to 7997
  140.7064  143.5949  150.8856 H   0  0  0  0  0  0  0  0  0  0  0  0  # atno 10167 bound_to 10162
  157.5764  131.1079  150.8271 H   0  0  0  0  0  0  0  0  0  0  0  0  # atno 10718 bound_to 10713
  154.0194  135.6671  153.4771 H   0  0  0  0  0  0  0  0  0  0  0  0  # atno 10763 bound_to 10752
  153.0587  135.5041  154.8037 H   0  0  0  0  0  0  0  0  0  0  0  0  # atno 10764 bound_to 10752
  154.6947  135.3067  154.9394 H   0  0  0  0  0  0  0  0  0  0  0  0  # atno 10765 bound_to 10752
  140.9779  133.7072  156.1634 H   0  0  0  0  0  0  0  0  0  0  0  0  # atno 11005 bound_to 11000
  145.3750  141.0349  143.3209 LP  0  0  0  0  0  0  0  0  0  0  0  0  # atno 17320 bound_to 7965
  144.8513  139.5318  143.6855 LP  0  0  0  0  0  0  0  0  0  0  0  0  # atno 17321 bound_to 7965
  139.9674  143.6095  152.2984 LP  0  0  0  0  0  0  0  0  0  0  0  0  # atno 17342 bound_to 10162
  139.6670  144.7662  151.1855 LP  0  0  0  0  0  0  0  0  0  0  0  0  # atno 17343 bound_to 10162
  156.8729  130.5152  149.5295 LP  0  0  0  0  0  0  0  0  0  0  0  0  # atno 17370 bound_to 10713
  156.0809  130.5819  150.9560 LP  0  0  0  0  0  0  0  0  0  0  0  0  # atno 17371 bound_to 10713
  140.7230  134.4337  157.5573 LP  0  0  0  0  0  0  0  0  0  0  0  0  # atno 17394 bound_to 11000
  139.8938  134.8722  156.2206 LP  0  0  0  0  0  0  0  0  0  0  0  0  # atno 17395 bound_to 11000

$$$$
