#       Name:                AV-unprocessed.smi:1037
#       Creating user name   scv26
#       Creation time:       Fri Mar 27 02:53:36 2020


#       File generated by GOLD software.
#

@<TRIPOS>MOLECULE
AV-unprocessed.smi:1037
    35    35     1
SMALL
NO_CHARGES


@<TRIPOS>ATOM
      1 ****        -4.0080  -2.8890   0.4399 N.am           1 S1                 0.0000
      2 ****        -2.6997  -2.7947   0.1921 C.2            1 S1                 0.0000
      3 ****        -1.8569  -2.9093   1.0808 O.2            1 S1                 0.0000
      4 ****        -2.2923  -2.5591  -1.2682 C.3            1 S1                 0.0000
      5 ****        -0.9523  -1.9932  -1.4027 N.am           1 S1                 0.0000
      6 ****        -0.6411  -0.6968  -1.2483 C.2            1 S1                 0.0000
      7 ****        -1.4789   0.1736  -1.0071 O.2            1 S1                 0.0000
      8 ****         0.8414  -0.3337  -1.4114 C.3            1 S1                 0.0000
      9 ****         1.2358   0.8436  -0.6190 N.am           1 S1                 0.0000
     10 ****         1.2950   2.0760  -1.2939 C.2            1 S1                 0.0000
     11 ****         1.6373   3.2086  -0.6654 C.2            1 S1                 0.0000
     12 ****         1.9501   3.1406   0.7412 C.2            1 S1                 0.0000
     13 ****         1.8992   1.9701   1.4182 C.2            1 S1                 0.0000
     14 ****         2.2242   1.8807   2.9075 C.3            1 S1                 0.0000
     15 ****         1.1794   1.4087   3.5888 F              1 S1                 0.0000
     16 ****         3.2588   1.0647   3.1126 F              1 S1                 0.0000
     17 ****         2.5382   3.0725   3.4179 F              1 S1                 0.0000
     18 ****         1.5187   0.7274   0.7158 C.2            1 S1                 0.0000
     19 ****         1.4569  -0.3617   1.2890 O.2            1 S1                 0.0000
     20 ****        -4.3283  -3.0378   1.3858 H              1 S1                 0.0000
     21 ****        -4.6728  -2.8055  -0.3155 H              1 S1                 0.0000
     22 ****        -2.3136  -3.5150  -1.7918 H              1 S1                 0.0000
     23 ****        -3.0223  -1.9150  -1.7617 H              1 S1                 0.0000
     24 ****        -0.2032  -2.6409  -1.5990 H              1 S1                 0.0000
     25 ****         1.4621  -1.1907  -1.1424 H              1 S1                 0.0000
     26 ****         1.0334  -0.1663  -2.4720 H              1 S1                 0.0000
     27 ****         1.0388   2.0419  -2.3428 H              1 S1                 0.0000
     28 ****         1.6736   4.1484  -1.1966 H              1 S1                 0.0000
     29 ****         2.2271   4.0521   1.2494 H              1 S1                 0.0000
     30 ****        -2.1442  -3.0786   2.0235 LP             1 S1                 0.0000
     31 ****        -0.8845  -2.8332   0.8604 LP             1 S1                 0.0000
     32 ****        -2.4440  -0.0725  -0.9174 LP             1 S1                 0.0000
     33 ****        -1.1939   1.1262  -0.9011 LP             1 S1                 0.0000
     34 ****         1.1963  -1.1813   0.7786 LP             1 S1                 0.0000
     35 ****         1.6673  -0.4260   2.2645 LP             1 S1                 0.0000
@<TRIPOS>BOND
    1    1    2 am    
    2    1   20 1     
    3    1   21 1     
    4    2    3 2     
    5    2    4 1     
    6    4    5 1     
    7    4   22 1     
    8    4   23 1     
    9    5    6 am    
   10    5   24 1     
   11    6    7 2     
   12    6    8 1     
   13    8    9 1     
   14    8   25 1     
   15    8   26 1     
   16    9   18 am    
   17    9   10 1     
   18   10   11 2     
   19   10   27 1     
   20   11   12 1     
   21   11   28 1     
   22   12   13 2     
   23   12   29 1     
   24   13   14 1     
   25   13   18 1     
   26   14   15 1     
   27   14   16 1     
   28   14   17 1     
   29   18   19 2     
   30    3   30 1     
   31    3   31 1     
   32    7   32 1     
   33    7   33 1     
   34   19   34 1     
   35   19   35 1     
@<TRIPOS>SUBSTRUCTURE
      1 S1             1
@<TRIPOS>SET
LONE_PAIRS      STATIC     ATOMS    <user>   **** ""
6 30 31 32 33 34 35
DONOR_HYDROGENS      STATIC     ATOMS    <user>   **** ""
3 20 21 24
ATOM$BLUE        STATIC     ATOMS    COLORGROUP SYSTEM
6 30 31 32 33 34 35
ATOM$RED        STATIC     ATOMS    COLORGROUP SYSTEM
3 20 21 24
