AV-unprocessed.smi:1784|AV-procd|sdf|7199|dock3
  -GOLD-   22720 8443D 1   1.00000     0.00000
 Structure written by MMmdl.
 44 46  0  0  0  0  0  0  0  0  2 V2000
  150.6186  140.7093  156.4155 O   0  0  0  0  0  0  0  0  0  0  0  0
  150.1375  141.8203  156.1934 C   0  0  0  0  0  0  0  0  0  0  0  0
  150.6181  142.9576  156.7145 N   0  0  0  0  0  0  0  0  0  0  0  0
  151.7908  143.0535  157.5767 C   0  0  0  0  0  0  0  0  0  0  0  0
  151.4092  143.5192  158.9917 C   0  0  1  0  0  0  0  0  0  0  0  0
  152.5096  143.2941  160.0282 C   0  0  0  0  0  0  0  0  0  0  0  0
  152.1790  144.3472  161.0606 C   0  0  0  0  0  0  0  0  0  0  0  0
  151.7413  145.5119  160.1790 C   0  0  0  0  0  0  0  0  0  0  0  0
  151.1569  144.9233  159.0203 O   0  0  0  0  0  0  0  0  0  0  0  0
  149.0882  142.0590  155.3892 N   0  0  0  0  0  0  0  0  0  0  0  0
  148.3539  141.1197  154.6118 C   0  0  0  0  0  0  0  0  0  0  0  0
  148.9012  139.8529  154.2829 C   0  0  0  0  0  0  0  0  0  0  0  0
  148.1626  138.9511  153.4942 C   0  0  0  0  0  0  0  0  0  0  0  0
  146.8843  139.3277  153.0482 C   0  0  0  0  0  0  0  0  0  0  0  0
  146.3830  140.5314  153.3946 N   0  3  0  0  0  0  0  0  0  0  0  0
  147.0383  141.4365  154.1639 C   0  0  0  0  0  0  0  0  0  0  0  0
  146.3797  142.6527  154.4563 N   0  0  0  0  0  0  0  0  0  0  0  0
  145.7620  143.4342  153.3910 C   0  0  0  0  0  0  0  0  0  0  0  0
  144.8741  144.4474  154.1081 C   0  0  0  0  0  0  0  0  0  0  0  0
  144.3790  143.6530  155.3130 C   0  0  0  0  0  0  0  0  0  0  0  0
  145.5643  142.7470  155.6628 C   0  0  0  0  0  0  0  0  0  0  0  0
  150.1585  143.8244  156.4775 H   0  0  0  0  0  0  0  0  0  0  0  0
  152.2437  142.0632  157.6285 H   0  0  0  0  0  0  0  0  0  0  0  0
  152.5437  143.7138  157.1424 H   0  0  0  0  0  0  0  0  0  0  0  0
  150.5023  143.0111  159.3239 H   0  0  0  0  0  0  0  0  0  0  0  0
  152.5117  142.2822  160.4341 H   0  0  0  0  0  0  0  0  0  0  0  0
  153.4924  143.4925  159.5980 H   0  0  0  0  0  0  0  0  0  0  0  0
  151.3493  144.0136  161.6851 H   0  0  0  0  0  0  0  0  0  0  0  0
  153.0199  144.5944  161.7091 H   0  0  0  0  0  0  0  0  0  0  0  0
  151.0421  146.1779  160.6849 H   0  0  0  0  0  0  0  0  0  0  0  0
  152.6057  146.1001  159.8686 H   0  0  0  0  0  0  0  0  0  0  0  0
  148.8688  143.0301  155.2240 H   0  0  0  0  0  0  0  0  0  0  0  0
  149.8797  139.5560  154.6292 H   0  0  0  0  0  0  0  0  0  0  0  0
  148.5732  137.9864  153.2341 H   0  0  0  0  0  0  0  0  0  0  0  0
  146.2477  138.7046  152.4367 H   0  0  0  0  0  0  0  0  0  0  0  0
  146.5115  143.9226  152.7678 H   0  0  0  0  0  0  0  0  0  0  0  0
  145.1474  142.7955  152.7552 H   0  0  0  0  0  0  0  0  0  0  0  0
  145.4707  145.2978  154.4420 H   0  0  0  0  0  0  0  0  0  0  0  0
  144.0657  144.8244  153.4808 H   0  0  0  0  0  0  0  0  0  0  0  0
  144.0702  144.2871  156.1445 H   0  0  0  0  0  0  0  0  0  0  0  0
  143.5239  143.0419  155.0211 H   0  0  0  0  0  0  0  0  0  0  0  0
  145.2270  141.7694  156.0100 H   0  0  0  0  0  0  0  0  0  0  0  0
  146.1598  143.2037  156.4536 H   0  0  0  0  0  0  0  0  0  0  0  0
  145.4487  140.7717  153.0632 H   0  0  0  0  0  0  0  0  0  0  0  0
  1  2  2  0  0  0  0
  2  3  1  0  0  0  0
  2 10  1  0  0  0  0
  3  4  1  0  0  0  0
  3 22  1  0  0  0  0
  4  5  1  0  0  0  0
  4 23  1  0  0  0  0
  4 24  1  0  0  0  0
  5  9  1  0  0  0  0
  5  6  1  0  0  0  0
  5 25  1  0  0  0  0
  6  7  1  0  0  0  0
  6 26  1  0  0  0  0
  6 27  1  0  0  0  0
  7  8  1  0  0  0  0
  7 28  1  0  0  0  0
  7 29  1  0  0  0  0
  8  9  1  0  0  0  0
  8 30  1  0  0  0  0
  8 31  1  0  0  0  0
 10 11  1  0  0  0  0
 10 32  1  0  0  0  0
 11 16  1  0  0  0  0
 11 12  2  0  0  0  0
 12 13  1  0  0  0  0
 12 33  1  0  0  0  0
 13 14  2  0  0  0  0
 13 34  1  0  0  0  0
 14 15  1  0  0  0  0
 14 35  1  0  0  0  0
 15 16  2  0  0  0  0
 15 44  1  0  0  0  0
 16 17  1  0  0  0  0
 17 21  1  0  0  0  0
 17 18  1  0  0  0  0
 18 19  1  0  0  0  0
 18 36  1  0  0  0  0
 18 37  1  0  0  0  0
 19 20  1  0  0  0  0
 19 38  1  0  0  0  0
 19 39  1  0  0  0  0
 20 21  1  0  0  0  0
 20 40  1  0  0  0  0
 20 41  1  0  0  0  0
 21 42  1  0  0  0  0
 21 43  1  0  0  0  0
M  CHG  1  15   1
M  END
> <s_m_source_file>
AV-unprocessed.smi

> <i_m_source_file_index>
1784

> <i_lp_mmshare_version>
43012

> <i_f3d_flags>
0

> <s_epik_input>
TzFbQ0gyXVtDSDJdW0NIMl1bQ0BIXTFbQ0gyXVtOSF1DKD1PKVtOSF1jMltjSF1bY0hdW2NIXW5jMk4zW0NIMl1bQ0gyXVtDSDJdW0NIMl0z

> <s_epik_cmdline>
J2VwaWtfcHl0aG9uJywgJy1waCcsICc3LjAnLCAnLXRuJywgJzgnLCAnLW1hJywgJzIwMCcsICctbWV0YWxfYmluZGluZycsICctaW1hZScsICc8aW5maWxlLm1hZT4nLCAnLW9tYWUnLCAnPG91dGZpbGUubWFlPic=

> <r_lp_tautomer_probability>
0.999994

> <r_epik_Ionization_Penalty>
1.11624

> <r_epik_Ionization_Penalty_Charging>
1.11622

> <r_epik_Ionization_Penalty_Neutral>
1.90191e-05

> <r_epik_State_Penalty>
1.17466

> <r_epik_Charging_Adjusted_Penalty>
2.29088

> <i_epik_Tot_Q>
1

> <i_epik_Tot_abs_Q>
1

> <r_epik_Metal_State_Penalty>
1.25978

> <b_epik_Metal_Only>
0

> <s_lp_Force_Field>
OPLS_2005

> <r_lp_Energy>
50.8632

> <b_lp_Chiralities_Consistent>
1

> <s_lp_Variant>
AV-unprocessed.smi:1784-4

> <Gold.Version>
5.8.1

> <Gold.Id.Protein>
6NUR|6NUR_protein|mol2

> <Gold.PLP.Fitness>
53.4767

> <Gold.PLP.PLP>
-42.4742

> <Gold.PLP.part.hbond>
-3.0000

> <Gold.PLP.part.metal>
0.0000

> <Gold.PLP.part.buried>
-6.8009

> <Gold.PLP.part.nonpolar>
-32.6271

> <Gold.PLP.part.repulsive>
0.5874

> <Gold.PLP.ligand.clash>
0.0000

> <Gold.PLP.ligand.torsion>
0.6980

> <Gold.PLP.Chemscore.Hbond>
4.0000

> <Gold.PLP.Chemscore.CHOScore>
0.0000

> <Gold.PLP.Chemscore.Metal>
0.0000

> <Gold.Chemscore.Hbonds>
donor molecule, donor type, donor heavy atom, donor atom, acceptor molecule, acceptor atom, score
      L1  H     3    22       P1  8028  1.00
      L1  H    10    32       P1  8028  1.00
      L1  H    15    44       P1 10175  2.00

> <Gold.PLP.Chemscore.Internal.Correction>
0.3985

> <Gold.Rescore>
     Score         DG    S(hbond)    S(metal)    S(lipo)     H(rot)  DE(clash)    DE(int)     intcor
     20.97     -23.65       2.86        0.00     104.33       1.40       0.65       2.03       ----

> <Gold.Chemscore.Fitness>
20.9655

> <Gold.Chemscore.DG>
-23.6462

> <Gold.Chemscore.ZeroCoef>
-5.4800

> <Gold.Chemscore.Hbond>
2.8592

> <Gold.Chemscore.Metal>
0.0000

> <Gold.Chemscore.Lipo>
104.3281

> <Gold.Chemscore.Internal_Hbond>
0.0000

> <Gold.Chemscore.DEClash>
0.6532

> <Gold.Chemscore.DEInternal>
2.0275

> <Gold.Chemscore.Rot>
1.4023

> <Gold.Chemscore.Internal.Correction>
   9.000000E+99

> <Gold.Chemscore.Hbonds>
donor molecule, donor type, donor heavy atom, donor atom, acceptor molecule, acceptor atom, score
      L1  H     3    22       P1  8028  0.96
      L1  H    10    32       P1  8028  0.98
      L1  H    15    44       P1 10175  0.65

> <Gold.Chemscore.Hbond.Weighted>
-9.5497

> <Gold.Chemscore.Metal.Weighted>
-0.0000

> <Gold.Chemscore.Lipo.Weighted>
-12.2064

> <Gold.Chemscore.Internal_Hbond.Weighted>
0.0000

> <Gold.Chemscore.DEClash.Weighted>
0.6532

> <Gold.Chemscore.DEInternal.Weighted>
2.0275

> <Gold.Chemscore.Rot.Weighted>
3.5898

> <Gold.Chemscore.Internal.Correction.Weighted>
   9.000000E+99

> <Gold.Protein.RotatedTorsions>
[ 6907 6896 6895 6894 ] final  115.28 input  -60.11 | X-H torsion
[ 7974 7965 7964 7962 ] final -175.63 input  175.53 | X-H torsion
[ 8008 7997 7996 7995 ] final  -35.38 input   59.86 | X-H torsion
[ 10167 10162 10161 10158 ] final  158.77 input  -65.29 | X-H torsion
[ 10718 10713 10712 10709 ] final   71.01 input   66.30 | X-H torsion
[ 10763 10752 10751 10750 ] final  116.22 input  -60.55 | X-H torsion
[ 11005 11000 10999 10996 ] final  -53.38 input  -57.11 | X-H torsion

> <Gold.Protein.ActiveResidues>
 VAL166  LYS551  ARG553  GLY616  TRP617  ASP618  TYR619  PRO620  LYS621  CYS622 
 ASP623  PHE694  ASN695  SER759  ASP760  ASP761  ALA762  ILE779  LEU786  VAL792 
 PHE793  MET794  SER795  GLU796  ALA797  LYS798  CYS799  TRP800  GLU811  SER814 

> <Gold.Protein.RotatedAtoms>
  152.4751  133.8119  159.7007 H   0  0  0  0  0  0  0  0  0  0  0  0  # atno 6907 bound_to 6896
  150.8763  133.7425  159.2952 H   0  0  0  0  0  0  0  0  0  0  0  0  # atno 6908 bound_to 6896
  151.4944  135.1062  159.9864 H   0  0  0  0  0  0  0  0  0  0  0  0  # atno 6909 bound_to 6896
  144.7128  140.1291  143.6400 H   0  0  0  0  0  0  0  0  0  0  0  0  # atno 7974 bound_to 7965
  154.4097  140.1659  156.2202 H   0  0  0  0  0  0  0  0  0  0  0  0  # atno 8008 bound_to 7997
  155.9370  140.3411  155.6273 H   0  0  0  0  0  0  0  0  0  0  0  0  # atno 8009 bound_to 7997
  155.7036  140.0748  157.2391 H   0  0  0  0  0  0  0  0  0  0  0  0  # atno 8010 bound_to 7997
  139.4828  144.4793  151.8467 H   0  0  0  0  0  0  0  0  0  0  0  0  # atno 10167 bound_to 10162
  157.6430  130.9506  150.0730 H   0  0  0  0  0  0  0  0  0  0  0  0  # atno 10718 bound_to 10713
  153.5339  135.3572  155.2688 H   0  0  0  0  0  0  0  0  0  0  0  0  # atno 10763 bound_to 10752
  154.8724  135.4075  154.3120 H   0  0  0  0  0  0  0  0  0  0  0  0  # atno 10764 bound_to 10752
  153.3814  135.7068  153.6630 H   0  0  0  0  0  0  0  0  0  0  0  0  # atno 10765 bound_to 10752
  141.0973  133.6623  156.4164 H   0  0  0  0  0  0  0  0  0  0  0  0  # atno 11005 bound_to 11000
  145.9302  139.2601  143.1329 LP  0  0  0  0  0  0  0  0  0  0  0  0  # atno 17320 bound_to 7965
  145.9530  140.8894  143.0249 LP  0  0  0  0  0  0  0  0  0  0  0  0  # atno 17321 bound_to 7965
  140.4267  144.2170  150.5887 LP  0  0  0  0  0  0  0  0  0  0  0  0  # atno 17342 bound_to 10162
  140.4820  143.2376  151.8942 LP  0  0  0  0  0  0  0  0  0  0  0  0  # atno 17343 bound_to 10162
  156.1729  130.3647  149.9141 LP  0  0  0  0  0  0  0  0  0  0  0  0  # atno 17370 bound_to 10713
  156.7112  130.8971  151.3609 LP  0  0  0  0  0  0  0  0  0  0  0  0  # atno 17371 bound_to 10713
  140.5109  134.6396  157.5284 LP  0  0  0  0  0  0  0  0  0  0  0  0  # atno 17394 bound_to 11000
  139.9813  134.7132  155.9854 LP  0  0  0  0  0  0  0  0  0  0  0  0  # atno 17395 bound_to 11000

$$$$
