AV-unprocessed.smi:1815|AV-procd|sdf|7359|dock8
  -GOLD-   22720 9 23D 1   1.00000     0.00000
 Structure written by MMmdl.
 38 39  0  0  0  0  0  0  0  0  2 V2000
  152.9466  142.6603  162.0633 C   0  0  0  0  0  0  0  0  0  0  0  0
  153.2731  143.1246  160.6335 C   0  0  1  0  0  0  0  0  0  0  0  0
  153.3466  141.9636  159.6249 C   0  0  0  0  0  0  0  0  0  0  0  0
  152.0290  141.4126  159.3096 N   0  0  0  0  0  0  0  0  0  0  0  0
  152.1023  140.2781  158.3856 C   0  0  0  0  0  0  0  0  0  0  0  0
  150.7463  139.6406  158.0164 C   0  0  0  0  0  0  0  0  0  0  0  0
  150.0203  140.3685  156.9795 N   0  0  0  0  0  0  0  0  0  0  0  0
  150.4591  140.6118  155.7349 C   0  0  0  0  0  0  0  0  0  0  0  0
  151.5566  140.1821  155.3711 O   0  0  0  0  0  0  0  0  0  0  0  0
  149.6110  141.3627  154.9959 N   0  5  0  0  0  0  0  0  0  0  0  0
  148.6427  140.7666  154.2816 C   0  0  0  0  0  0  0  0  0  0  0  0
  148.6294  139.4524  154.0299 N   0  0  0  0  0  0  0  0  0  0  0  0
  147.5308  139.0432  153.2723 C   0  0  0  0  0  0  0  0  0  0  0  0
  146.6922  140.0712  152.9324 C   0  0  0  0  0  0  0  0  0  0  0  0
  147.2615  141.5933  153.5565 S   0  0  0  0  0  0  0  0  0  0  0  0
  151.2032  142.4931  158.7881 C   0  0  0  0  0  0  0  0  0  0  0  0
  151.0651  143.6405  159.8070 C   0  0  2  0  0  0  0  0  0  0  0  0
  150.2597  144.8174  159.2468 C   0  0  0  0  0  0  0  0  0  0  0  0
  152.3594  144.1209  160.1688 O   0  0  0  0  0  0  0  0  0  0  0  0
  153.7100  141.9726  162.4294 H   0  0  0  0  0  0  0  0  0  0  0  0
  151.9911  142.1389  162.1173 H   0  0  0  0  0  0  0  0  0  0  0  0
  152.9069  143.5067  162.7488 H   0  0  0  0  0  0  0  0  0  0  0  0
  154.2536  143.6000  160.6692 H   0  0  0  0  0  0  0  0  0  0  0  0
  153.8148  142.3249  158.7083 H   0  0  0  0  0  0  0  0  0  0  0  0
  154.0144  141.2013  160.0151 H   0  0  0  0  0  0  0  0  0  0  0  0
  152.5359  140.6195  157.4448 H   0  0  0  0  0  0  0  0  0  0  0  0
  152.7935  139.5226  158.7623 H   0  0  0  0  0  0  0  0  0  0  0  0
  150.8849  138.5915  157.7508 H   0  0  0  0  0  0  0  0  0  0  0  0
  150.1100  139.6373  158.9014 H   0  0  0  0  0  0  0  0  0  0  0  0
  149.1181  140.7434  157.2328 H   0  0  0  0  0  0  0  0  0  0  0  0
  147.4255  137.9985  153.0205 H   0  0  0  0  0  0  0  0  0  0  0  0
  145.7805  140.0276  152.3561 H   0  0  0  0  0  0  0  0  0  0  0  0
  151.6304  142.8708  157.8577 H   0  0  0  0  0  0  0  0  0  0  0  0
  150.2099  142.1141  158.5449 H   0  0  0  0  0  0  0  0  0  0  0  0
  150.5581  143.2725  160.6996 H   0  0  0  0  0  0  0  0  0  0  0  0
  149.2526  144.5063  158.9686 H   0  0  0  0  0  0  0  0  0  0  0  0
  150.7380  145.2374  158.3616 H   0  0  0  0  0  0  0  0  0  0  0  0
  150.1688  145.6130  159.9865 H   0  0  0  0  0  0  0  0  0  0  0  0
  1  2  1  0  0  0  0
  1 20  1  0  0  0  0
  1 21  1  0  0  0  0
  1 22  1  0  0  0  0
  2 19  1  0  0  0  0
  2  3  1  0  0  0  0
  2 23  1  0  0  0  0
  3  4  1  0  0  0  0
  3 24  1  0  0  0  0
  3 25  1  0  0  0  0
  4  5  1  0  0  0  0
  4 16  1  0  0  0  0
  5  6  1  0  0  0  0
  5 26  1  0  0  0  0
  5 27  1  0  0  0  0
  6  7  1  0  0  0  0
  6 28  1  0  0  0  0
  6 29  1  0  0  0  0
  7  8  1  0  0  0  0
  7 30  1  0  0  0  0
  8  9  2  0  0  0  0
  8 10  1  0  0  0  0
 10 11  1  0  0  0  0
 11 15  1  0  0  0  0
 11 12  2  0  0  0  0
 12 13  1  0  0  0  0
 13 14  2  0  0  0  0
 13 31  1  0  0  0  0
 14 15  1  0  0  0  0
 14 32  1  0  0  0  0
 16 17  1  0  0  0  0
 16 33  1  0  0  0  0
 16 34  1  0  0  0  0
 17 18  1  0  0  0  0
 17 19  1  0  0  0  0
 17 35  1  0  0  0  0
 18 36  1  0  0  0  0
 18 37  1  0  0  0  0
 18 38  1  0  0  0  0
M  CHG  1  10  -1
M  END
> <s_m_source_file>
AV-unprocessed.smi

> <i_m_source_file_index>
1815

> <i_lp_mmshare_version>
43012

> <i_f3d_flags>
0

> <s_epik_input>
W0NIM11bQ0BASF0xW0NIMl1OKFtDSDJdW0NASF0oTzEpW0NIM10pW0NIMl1bQ0gyXVtOSF1DKD1PKVtOSF1jMm5bY0hdW2NIXXMy

> <s_epik_cmdline>
J2VwaWtfcHl0aG9uJywgJy1waCcsICc3LjAnLCAnLXRuJywgJzgnLCAnLW1hJywgJzIwMCcsICctbWV0YWxfYmluZGluZycsICctaW1hZScsICc8aW5maWxlLm1hZT4nLCAnLW9tYWUnLCAnPG91dGZpbGUubWFlPic=

> <r_lp_tautomer_probability>
0.999

> <r_epik_Ionization_Penalty>
7.22374

> <r_epik_Ionization_Penalty_Charging>
5.82415

> <r_epik_Ionization_Penalty_Neutral>
1.39959

> <r_epik_State_Penalty>
6.03347

> <r_epik_Charging_Adjusted_Penalty>
11.8576

> <i_epik_Tot_Q>
-1

> <i_epik_Tot_abs_Q>
1

> <r_epik_Metal_State_Penalty>
2.01024

> <b_epik_Metal_Only>
1

> <s_lp_Force_Field>
OPLS_2005

> <r_lp_Energy>
24.221

> <b_lp_Chiralities_Consistent>
1

> <s_lp_Variant>
AV-unprocessed.smi:1815-10

> <Gold.Version>
5.8.1

> <Gold.Id.Protein>
6NUR|6NUR_protein|mol2

> <Gold.PLP.Fitness>
40.3042

> <Gold.PLP.PLP>
-33.3086

> <Gold.PLP.part.hbond>
-1.5284

> <Gold.PLP.part.metal>
0.0000

> <Gold.PLP.part.buried>
-5.1075

> <Gold.PLP.part.nonpolar>
-28.0128

> <Gold.PLP.part.repulsive>
0.8637

> <Gold.PLP.ligand.clash>
0.0000

> <Gold.PLP.ligand.torsion>
0.8937

> <Gold.PLP.Chemscore.Hbond>
0.9120

> <Gold.PLP.Chemscore.CHOScore>
1.9958

> <Gold.PLP.Chemscore.Metal>
0.0000

> <Gold.Chemscore.Hbonds>
donor molecule, donor type, donor heavy atom, donor atom, acceptor molecule, acceptor atom, score
      P1  H  7989  7998       L1     9  0.94
      L1  C    13    31       P1  7948  0.83
      L1  C    14    32       P1 10175  1.00

> <Gold.PLP.Chemscore.Internal.Correction>
0.0595

> <Gold.Rescore>
     Score         DG    S(hbond)    S(metal)    S(lipo)     H(rot)  DE(clash)    DE(int)     intcor
     11.34     -14.94       0.93        0.00      88.63       1.57       1.60       2.00       ----

> <Gold.Chemscore.Fitness>
11.3435

> <Gold.Chemscore.DG>
-14.9404

> <Gold.Chemscore.ZeroCoef>
-5.4800

> <Gold.Chemscore.Hbond>
0.9294

> <Gold.Chemscore.Metal>
0.0000

> <Gold.Chemscore.Lipo>
88.6267

> <Gold.Chemscore.Internal_Hbond>
0.0000

> <Gold.Chemscore.DEClash>
1.5956

> <Gold.Chemscore.DEInternal>
2.0013

> <Gold.Chemscore.Rot>
1.5676

> <Gold.Chemscore.Internal.Correction>
   9.000000E+99

> <Gold.Chemscore.Hbonds>
donor molecule, donor type, donor heavy atom, donor atom, acceptor molecule, acceptor atom, score
      P1  H  7989  7998       L1     9  0.31

> <Gold.Chemscore.Hbond.Weighted>
-3.1041

> <Gold.Chemscore.Metal.Weighted>
-0.0000

> <Gold.Chemscore.Lipo.Weighted>
-10.3693

> <Gold.Chemscore.Internal_Hbond.Weighted>
0.0000

> <Gold.Chemscore.DEClash.Weighted>
1.5956

> <Gold.Chemscore.DEInternal.Weighted>
2.0013

> <Gold.Chemscore.Rot.Weighted>
4.0130

> <Gold.Chemscore.Internal.Correction.Weighted>
   9.000000E+99

> <Gold.Protein.RotatedTorsions>
[ 6907 6896 6895 6894 ] final  -12.06 input  -60.11 | X-H torsion
[ 7974 7965 7964 7962 ] final   51.87 input  175.53 | X-H torsion
[ 8008 7997 7996 7995 ] final -124.58 input   59.86 | X-H torsion
[ 10167 10162 10161 10158 ] final  100.71 input  -65.29 | X-H torsion
[ 10718 10713 10712 10709 ] final  -29.79 input   66.30 | X-H torsion
[ 10763 10752 10751 10750 ] final   73.71 input  -60.55 | X-H torsion
[ 11005 11000 10999 10996 ] final  -52.06 input  -57.11 | X-H torsion

> <Gold.Protein.ActiveResidues>
 VAL166  LYS551  ARG553  GLY616  TRP617  ASP618  TYR619  PRO620  LYS621  CYS622 
 ASP623  PHE694  ASN695  SER759  ASP760  ASP761  ALA762  ILE779  LEU786  VAL792 
 PHE793  MET794  SER795  GLU796  ALA797  LYS798  CYS799  TRP800  GLU811  SER814 

> <Gold.Protein.RotatedAtoms>
  151.3764  135.0932  159.9481 H   0  0  0  0  0  0  0  0  0  0  0  0  # atno 6907 bound_to 6896
  152.5121  133.9114  159.7500 H   0  0  0  0  0  0  0  0  0  0  0  0  # atno 6908 bound_to 6896
  150.9539  133.6464  159.2796 H   0  0  0  0  0  0  0  0  0  0  0  0  # atno 6909 bound_to 6896
  145.9871  139.4300  143.0096 H   0  0  0  0  0  0  0  0  0  0  0  0  # atno 7974 bound_to 7965
  155.1993  140.0415  157.2914 H   0  0  0  0  0  0  0  0  0  0  0  0  # atno 8008 bound_to 7997
  154.6086  140.2471  155.7670 H   0  0  0  0  0  0  0  0  0  0  0  0  # atno 8009 bound_to 7997
  156.2365  140.2919  156.0336 H   0  0  0  0  0  0  0  0  0  0  0  0  # atno 8010 bound_to 7997
  139.7503  144.6986  151.0443 H   0  0  0  0  0  0  0  0  0  0  0  0  # atno 10167 bound_to 10162
  156.4080  130.4402  149.7273 H   0  0  0  0  0  0  0  0  0  0  0  0  # atno 10718 bound_to 10713
  153.0539  135.5052  154.7935 H   0  0  0  0  0  0  0  0  0  0  0  0  # atno 10763 bound_to 10752
  154.6775  135.2963  154.9660 H   0  0  0  0  0  0  0  0  0  0  0  0  # atno 10764 bound_to 10752
  154.0458  135.6711  153.4847 H   0  0  0  0  0  0  0  0  0  0  0  0  # atno 10765 bound_to 10752
  141.0904  133.6634  156.3969 H   0  0  0  0  0  0  0  0  0  0  0  0  # atno 11005 bound_to 11000
  145.7685  140.9906  143.1162 LP  0  0  0  0  0  0  0  0  0  0  0  0  # atno 17320 bound_to 7965
  144.6878  139.9418  143.7475 LP  0  0  0  0  0  0  0  0  0  0  0  0  # atno 17321 bound_to 7965
  140.7797  143.4817  151.0009 LP  0  0  0  0  0  0  0  0  0  0  0  0  # atno 17342 bound_to 10162
  139.8505  143.7444  152.3178 LP  0  0  0  0  0  0  0  0  0  0  0  0  # atno 17343 bound_to 10162
  156.4263  130.7793  151.2812 LP  0  0  0  0  0  0  0  0  0  0  0  0  # atno 17370 bound_to 10713
  157.7506  131.0167  150.3557 LP  0  0  0  0  0  0  0  0  0  0  0  0  # atno 17371 bound_to 10713
  140.5265  134.6254  157.5335 LP  0  0  0  0  0  0  0  0  0  0  0  0  # atno 17394 bound_to 11000
  139.9729  134.7263  156.0006 LP  0  0  0  0  0  0  0  0  0  0  0  0  # atno 17395 bound_to 11000

$$$$
