AV-unprocessed.smi:1570|AV-procd|sdf|6315|dock8
  -GOLD-   22720 6523D 1   1.00000     0.00000
 Structure written by MMmdl.
 51 53  0  0  0  0  0  0  0  0  1 V2000
  153.6695  142.0666  162.2081 C   0  0  0  0  0  0  0  0  0  0  0  0
  154.1789  141.4267  160.9108 C   0  0  0  0  0  0  0  0  0  0  0  0
  153.1615  141.4721  159.8633 N   0  0  0  0  0  0  0  0  0  0  0  0
  152.6995  140.4242  159.1409 C   0  0  0  0  0  0  0  0  0  0  0  0
  153.0541  139.2514  159.2592 O   0  0  0  0  0  0  0  0  0  0  0  0
  151.7767  140.8903  158.2669 N   0  0  0  0  0  0  0  0  0  0  0  0
  151.0111  140.0993  157.3051 C   0  0  0  0  0  0  0  0  0  0  0  0
  151.5315  140.2945  155.8636 C   0  0  1  0  0  0  0  0  0  0  0  0
  152.8802  139.8809  155.7686 O   0  0  0  0  0  0  0  0  0  0  0  0
  150.7104  139.5805  154.7634 C   0  0  0  0  0  0  0  0  0  0  0  0
  149.2784  139.8932  154.6729 N   0  0  0  0  0  0  0  0  0  0  0  0
  148.6573  139.1313  153.5952 C   0  0  0  0  0  0  0  0  0  0  0  0
  147.1433  139.3880  153.4978 C   0  0  2  0  0  0  0  0  0  0  0  0
  146.5076  138.6472  152.3167 C   0  0  0  0  0  0  0  0  0  0  0  0
  146.9135  140.7839  153.3208 O   0  0  0  0  0  0  0  0  0  0  0  0
  147.5054  141.6256  154.3107 C   0  0  1  0  0  0  0  0  0  0  0  0
  146.7404  141.5629  155.6439 C   0  0  0  0  0  0  0  0  0  0  0  0
  149.0086  141.3133  154.4560 C   0  0  0  0  0  0  0  0  0  0  0  0
  151.6406  142.2753  158.4375 C   0  0  0  0  0  0  0  0  0  0  0  0
  150.8177  143.2118  157.7878 C   0  0  0  0  0  0  0  0  0  0  0  0
  150.9245  144.5613  158.1986 C   0  0  0  0  0  0  0  0  0  0  0  0
  151.8286  144.9395  159.2250 C   0  0  0  0  0  0  0  0  0  0  0  0
  152.6433  143.9759  159.8644 C   0  0  0  0  0  0  0  0  0  0  0  0
  152.5157  142.6422  159.4388 C   0  0  0  0  0  0  0  0  0  0  0  0
  154.4335  142.0274  162.9844 H   0  0  0  0  0  0  0  0  0  0  0  0
  152.7867  141.5486  162.5839 H   0  0  0  0  0  0  0  0  0  0  0  0
  153.4052  143.1134  162.0545 H   0  0  0  0  0  0  0  0  0  0  0  0
  155.0809  141.9405  160.5748 H   0  0  0  0  0  0  0  0  0  0  0  0
  154.4721  140.3926  161.0935 H   0  0  0  0  0  0  0  0  0  0  0  0
  151.0209  139.0492  157.5976 H   0  0  0  0  0  0  0  0  0  0  0  0
  149.9685  140.4152  157.3687 H   0  0  0  0  0  0  0  0  0  0  0  0
  151.5057  141.3590  155.6256 H   0  0  0  0  0  0  0  0  0  0  0  0
  152.9641  139.3143  155.0167 H   0  0  0  0  0  0  0  0  0  0  0  0
  151.1864  139.7287  153.7929 H   0  0  0  0  0  0  0  0  0  0  0  0
  150.8063  138.5125  154.9657 H   0  0  0  0  0  0  0  0  0  0  0  0
  149.1324  139.3822  152.6453 H   0  0  0  0  0  0  0  0  0  0  0  0
  148.8249  138.0652  153.7540 H   0  0  0  0  0  0  0  0  0  0  0  0
  146.6566  139.0524  154.4141 H   0  0  0  0  0  0  0  0  0  0  0  0
  146.6459  137.5696  152.4089 H   0  0  0  0  0  0  0  0  0  0  0  0
  146.9478  138.9620  151.3701 H   0  0  0  0  0  0  0  0  0  0  0  0
  145.4359  138.8416  152.2674 H   0  0  0  0  0  0  0  0  0  0  0  0
  147.4110  142.6463  153.9392 H   0  0  0  0  0  0  0  0  0  0  0  0
  147.1363  142.2903  156.3527 H   0  0  0  0  0  0  0  0  0  0  0  0
  146.8121  140.5815  156.1123 H   0  0  0  0  0  0  0  0  0  0  0  0
  145.6838  141.7870  155.4965 H   0  0  0  0  0  0  0  0  0  0  0  0
  149.3974  141.9084  155.2779 H   0  0  0  0  0  0  0  0  0  0  0  0
  149.5284  141.6472  153.5567 H   0  0  0  0  0  0  0  0  0  0  0  0
  150.1303  142.9185  157.0083 H   0  0  0  0  0  0  0  0  0  0  0  0
  150.3102  145.3129  157.7251 H   0  0  0  0  0  0  0  0  0  0  0  0
  151.8950  145.9755  159.5226 H   0  0  0  0  0  0  0  0  0  0  0  0
  153.3326  144.2578  160.6464 H   0  0  0  0  0  0  0  0  0  0  0  0
  1  2  1  0  0  0  0
  1 25  1  0  0  0  0
  1 26  1  0  0  0  0
  1 27  1  0  0  0  0
  2  3  1  0  0  0  0
  2 28  1  0  0  0  0
  2 29  1  0  0  0  0
  3 24  1  0  0  0  0
  3  4  1  0  0  0  0
  4  5  2  0  0  0  0
  4  6  1  0  0  0  0
  6  7  1  0  0  0  0
  6 19  1  0  0  0  0
  7  8  1  0  0  0  0
  7 30  1  0  0  0  0
  7 31  1  0  0  0  0
  8  9  1  0  0  0  0
  8 10  1  0  0  0  0
  8 32  1  0  0  0  0
  9 33  1  0  0  0  0
 10 11  1  0  0  0  0
 10 34  1  0  0  0  0
 10 35  1  0  0  0  0
 11 18  1  0  0  0  0
 11 12  1  0  0  0  0
 12 13  1  0  0  0  0
 12 36  1  0  0  0  0
 12 37  1  0  0  0  0
 13 14  1  0  0  0  0
 13 15  1  0  0  0  0
 13 38  1  0  0  0  0
 14 39  1  0  0  0  0
 14 40  1  0  0  0  0
 14 41  1  0  0  0  0
 15 16  1  0  0  0  0
 16 17  1  0  0  0  0
 16 18  1  0  0  0  0
 16 42  1  0  0  0  0
 17 43  1  0  0  0  0
 17 44  1  0  0  0  0
 17 45  1  0  0  0  0
 18 46  1  0  0  0  0
 18 47  1  0  0  0  0
 19 24  2  0  0  0  0
 19 20  1  0  0  0  0
 20 21  2  0  0  0  0
 20 48  1  0  0  0  0
 21 22  1  0  0  0  0
 21 49  1  0  0  0  0
 22 23  2  0  0  0  0
 22 50  1  0  0  0  0
 23 24  1  0  0  0  0
 23 51  1  0  0  0  0
M  END
> <s_m_source_file>
AV-unprocessed.smi

> <i_m_source_file_index>
1570

> <i_lp_mmshare_version>
43012

> <i_f3d_flags>
0

> <s_epik_input>
W2NIXTFbY0hdW2NIXVtjSF1jKGMxMiluKFtDSDJdW0NIM10pYyg9TyluMltDSDJdW0NASF0oW09IXSlbQ0gyXU4zW0NIMl1bQ0BASF0oW0NIM10pT1tDQEBIXShbQ0gzXSlbQ0gyXTM=

> <s_epik_cmdline>
J2VwaWtfcHl0aG9uJywgJy1waCcsICc3LjAnLCAnLXRuJywgJzgnLCAnLW1hJywgJzIwMCcsICctbWV0YWxfYmluZGluZycsICctaW1hZScsICc8aW5maWxlLm1hZT4nLCAnLW9tYWUnLCAnPG91dGZpbGUubWFlPic=

> <r_epik_Ionization_Penalty>
0.214359

> <r_epik_Ionization_Penalty_Charging>
2.30976e-09

> <r_epik_Ionization_Penalty_Neutral>
0.214359

> <r_epik_State_Penalty>
0.204533

> <r_epik_Charging_Adjusted_Penalty>
0.204533

> <i_epik_Tot_Q>
0

> <i_epik_Tot_abs_Q>
0

> <r_epik_Metal_State_Penalty>
0.204533

> <b_epik_Metal_Only>
0

> <s_lp_Force_Field>
OPLS_2005

> <r_lp_Energy>
68.4361

> <b_lp_Chiralities_Consistent>
1

> <s_lp_Variant>
AV-unprocessed.smi:1570-4

> <Gold.Version>
5.8.1

> <Gold.Id.Protein>
6NUR|6NUR_protein|mol2

> <Gold.PLP.Fitness>
59.6894

> <Gold.PLP.PLP>
-57.1298

> <Gold.PLP.part.hbond>
-1.0000

> <Gold.PLP.part.metal>
0.0000

> <Gold.PLP.part.buried>
-2.7385

> <Gold.PLP.part.nonpolar>
-53.9443

> <Gold.PLP.part.repulsive>
0.2754

> <Gold.PLP.ligand.clash>
0.0000

> <Gold.PLP.ligand.torsion>
0.2415

> <Gold.PLP.Chemscore.Hbond>
1.0000

> <Gold.PLP.Chemscore.CHOScore>
0.0000

> <Gold.PLP.Chemscore.Metal>
0.0000

> <Gold.Chemscore.Hbonds>
donor molecule, donor type, donor heavy atom, donor atom, acceptor molecule, acceptor atom, score
      P1  H  7997  8009       L1     9  0.80

> <Gold.PLP.Chemscore.Internal.Correction>
0.0427

> <Gold.Rescore>
     Score         DG    S(hbond)    S(metal)    S(lipo)     H(rot)  DE(clash)    DE(int)     intcor
     21.03     -21.39       0.98        0.00     153.13       2.06       0.29       0.07       ----

> <Gold.Chemscore.Fitness>
21.0349

> <Gold.Chemscore.DG>
-21.3941

> <Gold.Chemscore.ZeroCoef>
-5.4800

> <Gold.Chemscore.Hbond>
0.9774

> <Gold.Chemscore.Metal>
0.0000

> <Gold.Chemscore.Lipo>
153.1313

> <Gold.Chemscore.Internal_Hbond>
0.0000

> <Gold.Chemscore.DEClash>
0.2933

> <Gold.Chemscore.DEInternal>
0.0659

> <Gold.Chemscore.Rot>
2.0574

> <Gold.Chemscore.Internal.Correction>
   9.000000E+99

> <Gold.Chemscore.Hbonds>
donor molecule, donor type, donor heavy atom, donor atom, acceptor molecule, acceptor atom, score
      P1  H  7997  8009       L1     9  0.11

> <Gold.Chemscore.Hbond.Weighted>
-3.2646

> <Gold.Chemscore.Metal.Weighted>
-0.0000

> <Gold.Chemscore.Lipo.Weighted>
-17.9164

> <Gold.Chemscore.Internal_Hbond.Weighted>
0.0000

> <Gold.Chemscore.DEClash.Weighted>
0.2933

> <Gold.Chemscore.DEInternal.Weighted>
0.0659

> <Gold.Chemscore.Rot.Weighted>
5.2669

> <Gold.Chemscore.Internal.Correction.Weighted>
   9.000000E+99

> <Gold.Protein.RotatedTorsions>
[ 6907 6896 6895 6894 ] final  -22.49 input  -60.11 | X-H torsion
[ 7974 7965 7964 7962 ] final  -94.15 input  175.53 | X-H torsion
[ 8008 7997 7996 7995 ] final -136.03 input   59.86 | X-H torsion
[ 10167 10162 10161 10158 ] final   -5.53 input  -65.29 | X-H torsion
[ 10718 10713 10712 10709 ] final  174.22 input   66.30 | X-H torsion
[ 10763 10752 10751 10750 ] final -142.79 input  -60.55 | X-H torsion
[ 11005 11000 10999 10996 ] final   -7.74 input  -57.11 | X-H torsion

> <Gold.Protein.ActiveResidues>
 VAL166  LYS551  ARG553  GLY616  TRP617  ASP618  TYR619  PRO620  LYS621  CYS622 
 ASP623  PHE694  ASN695  SER759  ASP760  ASP761  ALA762  ILE779  LEU786  VAL792 
 PHE793  MET794  SER795  GLU796  ALA797  LYS798  CYS799  TRP800  GLU811  SER814 

> <Gold.Protein.RotatedAtoms>
  151.2178  135.0507  159.8937 H   0  0  0  0  0  0  0  0  0  0  0  0  # atno 6907 bound_to 6896
  152.5418  134.0674  159.8189 H   0  0  0  0  0  0  0  0  0  0  0  0  # atno 6908 bound_to 6896
  151.0836  133.5323  159.2651 H   0  0  0  0  0  0  0  0  0  0  0  0  # atno 6909 bound_to 6896
  145.3771  140.9513  143.2415 H   0  0  0  0  0  0  0  0  0  0  0  0  # atno 7974 bound_to 7965
  155.3885  140.0498  157.3041 H   0  0  0  0  0  0  0  0  0  0  0  0  # atno 8008 bound_to 7997
  154.5048  140.2170  155.9235 H   0  0  0  0  0  0  0  0  0  0  0  0  # atno 8009 bound_to 7997
  156.1512  140.3135  155.8656 H   0  0  0  0  0  0  0  0  0  0  0  0  # atno 8010 bound_to 7997
  140.6966  143.6298  150.8534 H   0  0  0  0  0  0  0  0  0  0  0  0  # atno 10167 bound_to 10162
  156.9527  131.0036  151.2945 H   0  0  0  0  0  0  0  0  0  0  0  0  # atno 10718 bound_to 10713
  154.8495  135.3486  154.6084 H   0  0  0  0  0  0  0  0  0  0  0  0  # atno 10763 bound_to 10752
  153.6692  135.6986  153.5157 H   0  0  0  0  0  0  0  0  0  0  0  0  # atno 10764 bound_to 10752
  153.2756  135.4279  155.0986 H   0  0  0  0  0  0  0  0  0  0  0  0  # atno 10765 bound_to 10752
  140.7160  133.8868  155.8785 H   0  0  0  0  0  0  0  0  0  0  0  0  # atno 11005 bound_to 11000
  144.8534  139.5286  143.6845 LP  0  0  0  0  0  0  0  0  0  0  0  0  # atno 17320 bound_to 7965
  146.2859  139.7003  142.9196 LP  0  0  0  0  0  0  0  0  0  0  0  0  # atno 17321 bound_to 7965
  140.0016  143.5738  152.2873 LP  0  0  0  0  0  0  0  0  0  0  0  0  # atno 17342 bound_to 10162
  139.6429  144.7656  151.2302 LP  0  0  0  0  0  0  0  0  0  0  0  0  # atno 17343 bound_to 10162
  157.5711  130.8311  149.8392 LP  0  0  0  0  0  0  0  0  0  0  0  0  # atno 17370 bound_to 10713
  156.0356  130.3752  150.1571 LP  0  0  0  0  0  0  0  0  0  0  0  0  # atno 17371 bound_to 10713
  141.0044  134.1106  157.4285 LP  0  0  0  0  0  0  0  0  0  0  0  0  # atno 17394 bound_to 11000
  139.8860  135.0077  156.6468 LP  0  0  0  0  0  0  0  0  0  0  0  0  # atno 17395 bound_to 11000

$$$$
