#       Name:                AV-unprocessed.smi:527
#       Creating user name   scv26
#       Creation time:       Thu Mar 26 23:31:34 2020


#       File generated by GOLD software.
#

@<TRIPOS>MOLECULE
AV-unprocessed.smi:527
    47    48     1
SMALL
NO_CHARGES


@<TRIPOS>ATOM
      1 ****        -4.4294  -1.1063   1.4098 C.3            1 S1                 0.0000
      2 ****        -3.7984  -0.2690   0.2851 C.3            1 S1                 0.0000
      3 ****        -4.3213  -0.6879  -1.1037 C.3            1 S1                 0.0000
      4 ****        -3.7671   0.2229  -2.2106 C.3            1 S1                 0.0000
      5 ****        -2.2323   0.2796  -2.1799 C.3            1 S1                 0.0000
      6 ****        -1.7145   0.6996  -0.7904 C.3            1 S1                 0.0000
      7 ****        -0.2547   0.7772  -0.8100 N.am           1 S1                 0.0000
      8 ****         0.4973   1.4740   0.0548 C.2            1 S1                 0.0000
      9 ****         0.0257   2.1374   0.9806 O.2            1 S1                 0.0000
     10 ****         1.8079   1.3408  -0.2270 N.am           1 S1                 0.0000
     11 ****         2.8483   1.8872   0.4356 C.2            1 S1                 0.0000
     12 ****         2.7587   2.6103   1.4296 O.2            1 S1                 0.0000
     13 ****         4.2366   1.5502  -0.1112 C.3            1 S1                 0.0000
     14 ****         4.8298   0.4179   0.6073 N.pl3          1 S1                 0.0000
     15 ****         4.8645  -0.8942   0.2086 C.2            1 S1                 0.0000
     16 ****         5.5149  -1.5863   1.1978 C.2            1 S1                 0.0000
     17 ****         5.8486  -0.6692   2.1584 N.pl3          1 S1                 1.0000
     18 ****         5.4325   0.5490   1.7972 C.2            1 S1                 0.0000
     19 ****        -2.2471  -0.2405   0.3271 C.3            1 S1                 0.0000
     20 ****        -1.6014  -1.6454   0.3000 C.3            1 S1                 0.0000
     21 ****        -4.2427  -2.1719   1.2770 H              1 S1                 0.0000
     22 ****        -5.5108  -0.9681   1.4361 H              1 S1                 0.0000
     23 ****        -4.0386  -0.8144   2.3849 H              1 S1                 0.0000
     24 ****        -4.1333   0.7562   0.4518 H              1 S1                 0.0000
     25 ****        -4.0537  -1.7245  -1.3106 H              1 S1                 0.0000
     26 ****        -5.4110  -0.6480  -1.1173 H              1 S1                 0.0000
     27 ****        -4.1074  -0.1271  -3.1858 H              1 S1                 0.0000
     28 ****        -4.1698   1.2290  -2.0870 H              1 S1                 0.0000
     29 ****        -1.8248  -0.6931  -2.4575 H              1 S1                 0.0000
     30 ****        -1.8819   0.9837  -2.9356 H              1 S1                 0.0000
     31 ****        -2.0944   1.7052  -0.5973 H              1 S1                 0.0000
     32 ****         0.2133   0.2607  -1.5402 H              1 S1                 0.0000
     33 ****         2.0365   0.7657  -1.0243 H              1 S1                 0.0000
     34 ****         4.1879   1.3004  -1.1724 H              1 S1                 0.0000
     35 ****         4.9008   2.4100  -0.0094 H              1 S1                 0.0000
     36 ****         4.4356  -1.2300  -0.7248 H              1 S1                 0.0000
     37 ****         5.7584  -2.6351   1.2882 H              1 S1                 0.0000
     38 ****         5.5547   1.4589   2.3583 H              1 S1                 0.0000
     39 ****        -1.9673   0.2036   1.2834 H              1 S1                 0.0000
     40 ****        -1.8417  -2.1902  -0.6120 H              1 S1                 0.0000
     41 ****        -1.9307  -2.2520   1.1428 H              1 S1                 0.0000
     42 ****        -0.5155  -1.5884   0.3712 H              1 S1                 0.0000
     43 ****         6.3379  -0.8798   3.0195 H              1 S1                 0.0000
     44 ****        -0.9645   2.1745   1.1155 LP             1 S1                 0.0000
     45 ****         0.6333   2.6386   1.5968 LP             1 S1                 0.0000
     46 ****         1.8596   2.8336   1.8061 LP             1 S1                 0.0000
     47 ****         3.5851   2.9738   1.8597 LP             1 S1                 0.0000
@<TRIPOS>BOND
    1    1    2 1     
    2    1   21 1     
    3    1   22 1     
    4    1   23 1     
    5    2   19 1     
    6    2    3 1     
    7    2   24 1     
    8    3    4 1     
    9    3   25 1     
   10    3   26 1     
   11    4    5 1     
   12    4   27 1     
   13    4   28 1     
   14    5    6 1     
   15    5   29 1     
   16    5   30 1     
   17    6    7 1     
   18    6   19 1     
   19    6   31 1     
   20    7    8 1     
   21    7   32 1     
   22    8    9 2     
   23    8   10 1     
   24   10   11 1     
   25   10   33 1     
   26   11   12 2     
   27   11   13 1     
   28   13   14 1     
   29   13   34 1     
   30   13   35 1     
   31   14   18 1     
   32   14   15 1     
   33   15   16 2     
   34   15   36 1     
   35   16   17 1     
   36   16   37 1     
   37   17   18 2     
   38   17   43 1     
   39   18   38 1     
   40   19   20 1     
   41   19   39 1     
   42   20   40 1     
   43   20   41 1     
   44   20   42 1     
   45    9   44 1     
   46    9   45 1     
   47   12   46 1     
   48   12   47 1     
@<TRIPOS>SUBSTRUCTURE
      1 S1             1
@<TRIPOS>SET
LONE_PAIRS      STATIC     ATOMS    <user>   **** ""
4 44 45 46 47
DONOR_HYDROGENS      STATIC     ATOMS    <user>   **** ""
3 32 33 43
ATOM$BLUE        STATIC     ATOMS    COLORGROUP SYSTEM
4 44 45 46 47
ATOM$RED        STATIC     ATOMS    COLORGROUP SYSTEM
3 32 33 43
