AV-unprocessed.smi:3255|AV-procd|sdf|12457|dock10
  -GOLD-   2272018353D 1   1.00000     0.00000
 Structure written by MMmdl.
 39 40  0  0  0  0  0  0  0  0  2 V2000
  150.8578  134.1419  155.7319 C   0  0  0  0  0  0  0  0  0  0  0  0
  149.8907  135.3346  155.6751 C   0  0  2  0  0  0  0  0  0  0  0  0
  149.0391  135.1836  154.4978 N   0  0  0  0  0  0  0  0  0  0  0  0
  147.8357  134.5946  154.4828 C   0  0  0  0  0  0  0  0  0  0  0  0
  147.3115  134.0645  155.4629 O   0  0  0  0  0  0  0  0  0  0  0  0
  147.2530  134.6845  153.2790 N   0  0  0  0  0  0  0  0  0  0  0  0
  145.9041  134.2224  152.9636 C   0  0  0  0  0  0  0  0  0  0  0  0
  145.9088  132.8339  152.2943 C   0  0  0  0  0  0  0  0  0  0  0  0
  144.9586  132.7304  151.1818 N   0  0  0  0  0  0  0  0  0  0  0  0
  145.2016  132.2483  149.9208 C   0  0  0  0  0  0  0  0  0  0  0  0
  144.0260  132.3640  149.2252 C   0  0  0  0  0  0  0  0  0  0  0  0
  143.1152  132.9073  150.0909 N   0  3  0  0  0  0  0  0  0  0  0  0
  143.6830  133.1257  151.2813 C   0  0  0  0  0  0  0  0  0  0  0  0
  150.6339  136.6871  155.6183 C   0  0  2  0  0  0  0  0  0  0  0  0
  149.7332  137.9016  155.3815 C   0  0  0  0  0  0  0  0  0  0  0  0
  150.6506  138.9164  154.7157 C   0  0  0  0  0  0  0  0  0  0  0  0
  151.8921  138.1067  154.3371 C   0  0  0  0  0  0  0  0  0  0  0  0
  151.5065  136.7503  154.4991 O   0  0  0  0  0  0  0  0  0  0  0  0
  151.4763  134.1729  156.6291 H   0  0  0  0  0  0  0  0  0  0  0  0
  151.5241  134.1287  154.8687 H   0  0  0  0  0  0  0  0  0  0  0  0
  150.3140  133.1966  155.7470 H   0  0  0  0  0  0  0  0  0  0  0  0
  149.2744  135.3047  156.5755 H   0  0  0  0  0  0  0  0  0  0  0  0
  149.3794  135.5909  153.6392 H   0  0  0  0  0  0  0  0  0  0  0  0
  147.7669  135.1331  152.5345 H   0  0  0  0  0  0  0  0  0  0  0  0
  145.3509  134.1663  153.9012 H   0  0  0  0  0  0  0  0  0  0  0  0
  145.3754  134.9494  152.3447 H   0  0  0  0  0  0  0  0  0  0  0  0
  146.9033  132.5898  151.9179 H   0  0  0  0  0  0  0  0  0  0  0  0
  145.6491  132.0645  153.0226 H   0  0  0  0  0  0  0  0  0  0  0  0
  146.1699  131.8786  149.6165 H   0  0  0  0  0  0  0  0  0  0  0  0
  143.7771  132.1109  148.2049 H   0  0  0  0  0  0  0  0  0  0  0  0
  143.2075  133.5493  152.1480 H   0  0  0  0  0  0  0  0  0  0  0  0
  151.2215  136.8349  156.5269 H   0  0  0  0  0  0  0  0  0  0  0  0
  148.9217  137.6441  154.6996 H   0  0  0  0  0  0  0  0  0  0  0  0
  149.2885  138.2780  156.3033 H   0  0  0  0  0  0  0  0  0  0  0  0
  150.1715  139.3487  153.8364 H   0  0  0  0  0  0  0  0  0  0  0  0
  150.9109  139.7316  155.3916 H   0  0  0  0  0  0  0  0  0  0  0  0
  152.2270  138.3031  153.3186 H   0  0  0  0  0  0  0  0  0  0  0  0
  152.7174  138.3273  155.0157 H   0  0  0  0  0  0  0  0  0  0  0  0
  142.1516  133.1193  149.8640 H   0  0  0  0  0  0  0  0  0  0  0  0
  1  2  1  0  0  0  0
  1 19  1  0  0  0  0
  1 20  1  0  0  0  0
  1 21  1  0  0  0  0
  2  3  1  0  0  0  0
  2 14  1  0  0  0  0
  2 22  1  0  0  0  0
  3  4  1  0  0  0  0
  3 23  1  0  0  0  0
  4  5  2  0  0  0  0
  4  6  1  0  0  0  0
  6  7  1  0  0  0  0
  6 24  1  0  0  0  0
  7  8  1  0  0  0  0
  7 25  1  0  0  0  0
  7 26  1  0  0  0  0
  8  9  1  0  0  0  0
  8 27  1  0  0  0  0
  8 28  1  0  0  0  0
  9 13  1  0  0  0  0
  9 10  1  0  0  0  0
 10 11  2  0  0  0  0
 10 29  1  0  0  0  0
 11 12  1  0  0  0  0
 11 30  1  0  0  0  0
 12 13  2  0  0  0  0
 12 39  1  0  0  0  0
 13 31  1  0  0  0  0
 14 18  1  0  0  0  0
 14 15  1  0  0  0  0
 14 32  1  0  0  0  0
 15 16  1  0  0  0  0
 15 33  1  0  0  0  0
 15 34  1  0  0  0  0
 16 17  1  0  0  0  0
 16 35  1  0  0  0  0
 16 36  1  0  0  0  0
 17 18  1  0  0  0  0
 17 37  1  0  0  0  0
 17 38  1  0  0  0  0
M  CHG  1  12   1
M  END
> <s_m_source_file>
AV-unprocessed.smi

> <i_m_source_file_index>
3255

> <i_lp_mmshare_version>
43012

> <i_f3d_flags>
0

> <s_epik_input>
TzFbQ0gyXVtDSDJdW0NIMl1bQ0BIXTFbQ0BIXShbQ0gzXSlbTkhdQyg9TylbTkhdW0NIMl1bQ0gyXW4yW2NIXVtjSF1uW2NIXTI=

> <s_epik_cmdline>
J2VwaWtfcHl0aG9uJywgJy1waCcsICc3LjAnLCAnLXRuJywgJzgnLCAnLW1hJywgJzIwMCcsICctbWV0YWxfYmluZGluZycsICctaW1hZScsICc8aW5maWxlLm1hZT4nLCAnLW9tYWUnLCAnPG91dGZpbGUubWFlPic=

> <r_lp_tautomer_probability>
1

> <r_epik_Ionization_Penalty>
0.256241

> <r_epik_Ionization_Penalty_Charging>
0

> <r_epik_Ionization_Penalty_Neutral>
0.256241

> <r_epik_State_Penalty>
0.247735

> <r_epik_Charging_Adjusted_Penalty>
0.247735

> <i_epik_Tot_Q>
1

> <i_epik_Tot_abs_Q>
1

> <r_epik_Metal_State_Penalty>
0.537184

> <b_epik_Metal_Only>
0

> <s_lp_Force_Field>
OPLS_2005

> <r_lp_Energy>
16.926

> <b_lp_Chiralities_Consistent>
1

> <s_lp_Variant>
AV-unprocessed.smi:3255-1

> <Gold.Version>
5.8.1

> <Gold.Id.Protein>
6NUR|6NUR_protein|mol2

> <Gold.PLP.Fitness>
44.9262

> <Gold.PLP.PLP>
-31.9839

> <Gold.PLP.part.hbond>
-4.0000

> <Gold.PLP.part.metal>
0.0000

> <Gold.PLP.part.buried>
-6.4376

> <Gold.PLP.part.nonpolar>
-22.7841

> <Gold.PLP.part.repulsive>
0.2715

> <Gold.PLP.ligand.clash>
0.0000

> <Gold.PLP.ligand.torsion>
0.9455

> <Gold.PLP.Chemscore.Hbond>
4.9280

> <Gold.PLP.Chemscore.CHOScore>
0.0000

> <Gold.PLP.Chemscore.Metal>
0.0000

> <Gold.Chemscore.Hbonds>
donor molecule, donor type, donor heavy atom, donor atom, acceptor molecule, acceptor atom, score
      L1  H     3    23       P1  7948  0.98
      L1  H     6    24       P1  7948  1.00
      L1  H    12    39       P1 10186  1.82
      P1  H 10752 10764       L1    18  1.00

> <Gold.PLP.Chemscore.Internal.Correction>
0.0493

> <Gold.Rescore>
     Score         DG    S(hbond)    S(metal)    S(lipo)     H(rot)  DE(clash)    DE(int)     intcor
     17.20     -18.43       3.42        0.00      62.70       2.26       0.00       1.22       ----

> <Gold.Chemscore.Fitness>
17.2011

> <Gold.Chemscore.DG>
-18.4269

> <Gold.Chemscore.ZeroCoef>
-5.4800

> <Gold.Chemscore.Hbond>
3.4151

> <Gold.Chemscore.Metal>
0.0000

> <Gold.Chemscore.Lipo>
62.7021

> <Gold.Chemscore.Internal_Hbond>
0.0000

> <Gold.Chemscore.DEClash>
0.0029

> <Gold.Chemscore.DEInternal>
1.2229

> <Gold.Chemscore.Rot>
2.2640

> <Gold.Chemscore.Internal.Correction>
   9.000000E+99

> <Gold.Chemscore.Hbonds>
donor molecule, donor type, donor heavy atom, donor atom, acceptor molecule, acceptor atom, score
      L1  H     3    23       P1  7948  0.32
      L1  H     6    24       P1  7948  0.97
      L1  H    12    39       P1 10186  0.88
      P1  H 10752 10764       L1    18  0.71

> <Gold.Chemscore.Hbond.Weighted>
-11.4065

> <Gold.Chemscore.Metal.Weighted>
-0.0000

> <Gold.Chemscore.Lipo.Weighted>
-7.3361

> <Gold.Chemscore.Internal_Hbond.Weighted>
0.0000

> <Gold.Chemscore.DEClash.Weighted>
0.0029

> <Gold.Chemscore.DEInternal.Weighted>
1.2229

> <Gold.Chemscore.Rot.Weighted>
5.7958

> <Gold.Chemscore.Internal.Correction.Weighted>
   9.000000E+99

> <Gold.Protein.RotatedTorsions>
[ 6907 6896 6895 6894 ] final   82.52 input  -60.11 | X-H torsion
[ 7974 7965 7964 7962 ] final  128.91 input  175.53 | X-H torsion
[ 8008 7997 7996 7995 ] final  174.08 input   59.86 | X-H torsion
[ 10167 10162 10161 10158 ] final  103.96 input  -65.29 | X-H torsion
[ 10718 10713 10712 10709 ] final  140.53 input   66.30 | X-H torsion
[ 10763 10752 10751 10750 ] final  -55.24 input  -60.55 | X-H torsion
[ 11005 11000 10999 10996 ] final -118.09 input  -57.11 | X-H torsion

> <Gold.Protein.ActiveResidues>
 VAL166  LYS551  ARG553  GLY616  TRP617  ASP618  TYR619  PRO620  LYS621  CYS622 
 ASP623  PHE694  ASN695  SER759  ASP760  ASP761  ALA762  ILE779  LEU786  VAL792 
 PHE793  MET794  SER795  GLU796  ALA797  LYS798  CYS799  TRP800  GLU811  SER814 

> <Gold.Protein.RotatedAtoms>
  152.5301  134.3037  159.9087 H   0  0  0  0  0  0  0  0  0  0  0  0  # atno 6907 bound_to 6896
  151.2987  133.4125  159.2646 H   0  0  0  0  0  0  0  0  0  0  0  0  # atno 6908 bound_to 6896
  151.0138  134.9433  159.8079 H   0  0  0  0  0  0  0  0  0  0  0  0  # atno 6909 bound_to 6896
  145.0344  139.4017  143.5133 H   0  0  0  0  0  0  0  0  0  0  0  0  # atno 7974 bound_to 7965
  156.1011  140.1443  156.9466 H   0  0  0  0  0  0  0  0  0  0  0  0  # atno 8008 bound_to 7997
  154.4703  140.0912  156.7172 H   0  0  0  0  0  0  0  0  0  0  0  0  # atno 8009 bound_to 7997
  155.4759  140.3443  155.4334 H   0  0  0  0  0  0  0  0  0  0  0  0  # atno 8010 bound_to 7997
  139.7218  144.7056  151.0861 H   0  0  0  0  0  0  0  0  0  0  0  0  # atno 10167 bound_to 10162
  157.4023  131.1018  151.0539 H   0  0  0  0  0  0  0  0  0  0  0  0  # atno 10718 bound_to 10713
  154.1876  135.6433  153.5051 H   0  0  0  0  0  0  0  0  0  0  0  0  # atno 10763 bound_to 10752
  153.0043  135.5421  154.6449 H   0  0  0  0  0  0  0  0  0  0  0  0  # atno 10764 bound_to 10752
  154.5829  135.2927  155.0687 H   0  0  0  0  0  0  0  0  0  0  0  0  # atno 10765 bound_to 10752
  141.0309  133.9982  157.3143 H   0  0  0  0  0  0  0  0  0  0  0  0  # atno 11005 bound_to 11000
  146.3502  139.9912  142.8685 LP  0  0  0  0  0  0  0  0  0  0  0  0  # atno 17320 bound_to 7965
  145.1728  140.9729  143.4311 LP  0  0  0  0  0  0  0  0  0  0  0  0  # atno 17321 bound_to 7965
  140.7755  143.5156  150.9598 LP  0  0  0  0  0  0  0  0  0  0  0  0  # atno 17342 bound_to 10162
  139.8843  143.7032  152.3153 LP  0  0  0  0  0  0  0  0  0  0  0  0  # atno 17343 bound_to 10162
  157.1534  130.6194  149.5589 LP  0  0  0  0  0  0  0  0  0  0  0  0  # atno 17370 bound_to 10713
  155.9826  130.4841  150.6892 LP  0  0  0  0  0  0  0  0  0  0  0  0  # atno 17371 bound_to 10713
  139.9207  135.0200  156.8055 LP  0  0  0  0  0  0  0  0  0  0  0  0  # atno 17394 bound_to 11000
  140.6407  133.9820  155.7706 LP  0  0  0  0  0  0  0  0  0  0  0  0  # atno 17395 bound_to 11000

$$$$
