AV-unprocessed.smi:774|AV-procd|sdf|3694|dock4
  -GOLD-   22720 1113D 1   1.00000     0.00000
 Structure written by MMmdl.
 37 38  0  0  0  0  0  0  0  0  1 V2000
  154.4166  140.2784  159.7383 C   0  0  0  0  0  0  0  0  0  0  0  0
  153.5732  141.5534  159.8194 C   0  0  0  0  0  0  0  0  0  0  0  0
  152.7268  141.6891  161.4181 S   0  0  0  0  0  0  0  0  0  0  0  0
  151.6963  143.1558  161.1233 C   0  0  1  0  0  0  0  0  0  0  0  0
  152.4321  144.4701  161.3796 C   0  0  0  0  0  0  0  0  0  0  0  0
  151.6220  145.5148  160.6109 C   0  0  0  0  0  0  0  0  0  0  0  0
  150.9953  144.7725  159.4158 C   0  0  2  0  0  0  0  0  0  0  0  0
  149.5680  145.0668  159.3110 N   0  0  0  0  0  0  0  0  0  0  0  0
  148.6297  144.6519  160.1736 C   0  0  0  0  0  0  0  0  0  0  0  0
  148.8749  143.9741  161.1716 O   0  0  0  0  0  0  0  0  0  0  0  0
  147.4110  145.0912  159.8159 N   0  0  0  0  0  0  0  0  0  0  0  0
  146.1632  144.8205  160.4384 C   0  0  0  0  0  0  0  0  0  0  0  0
  146.0245  144.1175  161.6594 C   0  0  0  0  0  0  0  0  0  0  0  0
  144.7317  143.8872  162.1676 C   0  0  0  0  0  0  0  0  0  0  0  0
  143.6266  144.3619  161.4348 C   0  0  0  0  0  0  0  0  0  0  0  0
  143.7435  145.0212  160.2629 N   0  0  0  0  0  0  0  0  0  0  0  0
  144.9862  145.2367  159.7808 C   0  0  0  0  0  0  0  0  0  0  0  0
  151.2426  143.2717  159.6654 C   0  0  0  0  0  0  0  0  0  0  0  0
  154.9188  140.2062  158.7734 H   0  0  0  0  0  0  0  0  0  0  0  0
  153.7969  139.3897  159.8583 H   0  0  0  0  0  0  0  0  0  0  0  0
  155.1821  140.2621  160.5144 H   0  0  0  0  0  0  0  0  0  0  0  0
  154.2058  142.4299  159.6764 H   0  0  0  0  0  0  0  0  0  0  0  0
  152.8322  141.5557  159.0205 H   0  0  0  0  0  0  0  0  0  0  0  0
  150.8144  143.1041  161.7633 H   0  0  0  0  0  0  0  0  0  0  0  0
  152.5138  144.7099  162.4400 H   0  0  0  0  0  0  0  0  0  0  0  0
  153.4421  144.4177  160.9708 H   0  0  0  0  0  0  0  0  0  0  0  0
  150.8468  145.9152  161.2664 H   0  0  0  0  0  0  0  0  0  0  0  0
  152.2402  146.3556  160.2947 H   0  0  0  0  0  0  0  0  0  0  0  0
  151.5053  145.0747  158.4991 H   0  0  0  0  0  0  0  0  0  0  0  0
  149.2759  145.6252  158.5225 H   0  0  0  0  0  0  0  0  0  0  0  0
  147.3771  145.7282  159.0333 H   0  0  0  0  0  0  0  0  0  0  0  0
  146.8769  143.7397  162.2025 H   0  0  0  0  0  0  0  0  0  0  0  0
  144.5909  143.3539  163.0961 H   0  0  0  0  0  0  0  0  0  0  0  0
  142.6215  144.2018  161.7963 H   0  0  0  0  0  0  0  0  0  0  0  0
  145.0416  145.7638  158.8393 H   0  0  0  0  0  0  0  0  0  0  0  0
  152.0404  142.9326  159.0030 H   0  0  0  0  0  0  0  0  0  0  0  0
  150.3721  142.6479  159.4579 H   0  0  0  0  0  0  0  0  0  0  0  0
  1  2  1  0  0  0  0
  1 19  1  0  0  0  0
  1 20  1  0  0  0  0
  1 21  1  0  0  0  0
  2  3  1  0  0  0  0
  2 22  1  0  0  0  0
  2 23  1  0  0  0  0
  3  4  1  0  0  0  0
  4 18  1  0  0  0  0
  4  5  1  0  0  0  0
  4 24  1  0  0  0  0
  5  6  1  0  0  0  0
  5 25  1  0  0  0  0
  5 26  1  0  0  0  0
  6  7  1  0  0  0  0
  6 27  1  0  0  0  0
  6 28  1  0  0  0  0
  7  8  1  0  0  0  0
  7 18  1  0  0  0  0
  7 29  1  0  0  0  0
  8  9  1  0  0  0  0
  8 30  1  0  0  0  0
  9 10  2  0  0  0  0
  9 11  1  0  0  0  0
 11 12  1  0  0  0  0
 11 31  1  0  0  0  0
 12 17  1  0  0  0  0
 12 13  2  0  0  0  0
 13 14  1  0  0  0  0
 13 32  1  0  0  0  0
 14 15  2  0  0  0  0
 14 33  1  0  0  0  0
 15 16  1  0  0  0  0
 15 34  1  0  0  0  0
 16 17  2  0  0  0  0
 17 35  1  0  0  0  0
 18 36  1  0  0  0  0
 18 37  1  0  0  0  0
M  END
> <s_m_source_file>
AV-unprocessed.smi

> <i_m_source_file_index>
774

> <i_lp_mmshare_version>
43012

> <i_f3d_flags>
0

> <s_epik_input>
W0NIM11bQ0gyXVNbQ0BASF0xW0NIMl1bQ0gyXVtDQEhdKFtDSDJdMSlbTkhdQyg9TylbTkhdYzJbY0hdW2NIXVtjSF1uW2NIXTI=

> <s_epik_cmdline>
J2VwaWtfcHl0aG9uJywgJy1waCcsICc3LjAnLCAnLXRuJywgJzgnLCAnLW1hJywgJzIwMCcsICctbWV0YWxfYmluZGluZycsICctaW1hZScsICc8aW5maWxlLm1hZT4nLCAnLW9tYWUnLCAnPG91dGZpbGUubWFlPic=

> <r_epik_Ionization_Penalty>
0.00485718

> <r_epik_Ionization_Penalty_Charging>
0

> <r_epik_Ionization_Penalty_Neutral>
0.00485718

> <r_epik_State_Penalty>
0.00349461

> <r_epik_Charging_Adjusted_Penalty>
0.00349461

> <i_epik_Tot_Q>
0

> <i_epik_Tot_abs_Q>
0

> <r_epik_Metal_State_Penalty>
-0

> <b_epik_Metal_Only>
0

> <s_lp_Force_Field>
OPLS_2005

> <r_lp_Energy>
19.7013

> <b_lp_Chiralities_Consistent>
1

> <s_lp_Variant>
AV-unprocessed.smi:774-4

> <Gold.Version>
5.8.1

> <Gold.Id.Protein>
6NUR|6NUR_protein|mol2

> <Gold.PLP.Fitness>
46.1612

> <Gold.PLP.PLP>
-39.1671

> <Gold.PLP.part.hbond>
-3.0000

> <Gold.PLP.part.metal>
0.0000

> <Gold.PLP.part.buried>
-5.6414

> <Gold.PLP.part.nonpolar>
-30.7214

> <Gold.PLP.part.repulsive>
0.5721

> <Gold.PLP.ligand.clash>
0.0000

> <Gold.PLP.ligand.torsion>
0.4217

> <Gold.PLP.Chemscore.Hbond>
2.6080

> <Gold.PLP.Chemscore.CHOScore>
0.0000

> <Gold.PLP.Chemscore.Metal>
0.0000

> <Gold.Chemscore.Hbonds>
donor molecule, donor type, donor heavy atom, donor atom, acceptor molecule, acceptor atom, score
      L1  H     8    30       P1  8029  0.93
      L1  H    11    31       P1  8029  0.90
      P1  H  6933  6944       L1    10  0.66

> <Gold.PLP.Chemscore.Internal.Correction>
0.0134

> <Gold.Rescore>
     Score         DG    S(hbond)    S(metal)    S(lipo)     H(rot)  DE(clash)    DE(int)     intcor
     19.23     -23.81       2.56        0.00     112.26       1.30       0.19       4.39       ----

> <Gold.Chemscore.Fitness>
19.2348

> <Gold.Chemscore.DG>
-23.8107

> <Gold.Chemscore.ZeroCoef>
-5.4800

> <Gold.Chemscore.Hbond>
2.5553

> <Gold.Chemscore.Metal>
0.0000

> <Gold.Chemscore.Lipo>
112.2586

> <Gold.Chemscore.Internal_Hbond>
0.0000

> <Gold.Chemscore.DEClash>
0.1887

> <Gold.Chemscore.DEInternal>
4.3872

> <Gold.Chemscore.Rot>
1.3041

> <Gold.Chemscore.Internal.Correction>
   9.000000E+99

> <Gold.Chemscore.Hbonds>
donor molecule, donor type, donor heavy atom, donor atom, acceptor molecule, acceptor atom, score
      L1  H     8    30       P1  8029  0.87
      L1  H    11    31       P1  8029  0.88
      P1  H  6933  6944       L1    10  0.66

> <Gold.Chemscore.Hbond.Weighted>
-8.5348

> <Gold.Chemscore.Metal.Weighted>
-0.0000

> <Gold.Chemscore.Lipo.Weighted>
-13.1343

> <Gold.Chemscore.Internal_Hbond.Weighted>
0.0000

> <Gold.Chemscore.DEClash.Weighted>
0.1887

> <Gold.Chemscore.DEInternal.Weighted>
4.3872

> <Gold.Chemscore.Rot.Weighted>
3.3384

> <Gold.Chemscore.Internal.Correction.Weighted>
   9.000000E+99

> <Gold.Protein.RotatedTorsions>
[ 6907 6896 6895 6894 ] final   -6.79 input  -60.11 | X-H torsion
[ 7974 7965 7964 7962 ] final  118.28 input  175.53 | X-H torsion
[ 8008 7997 7996 7995 ] final   -0.66 input   59.86 | X-H torsion
[ 10167 10162 10161 10158 ] final  -89.06 input  -65.29 | X-H torsion
[ 10718 10713 10712 10709 ] final  -59.62 input   66.30 | X-H torsion
[ 10763 10752 10751 10750 ] final -108.71 input  -60.55 | X-H torsion
[ 11005 11000 10999 10996 ] final  125.66 input  -57.11 | X-H torsion

> <Gold.Protein.ActiveResidues>
 VAL166  LYS551  ARG553  GLY616  TRP617  ASP618  TYR619  PRO620  LYS621  CYS622 
 ASP623  PHE694  ASN695  SER759  ASP760  ASP761  ALA762  ILE779  LEU786  VAL792 
 PHE793  MET794  SER795  GLU796  ALA797  LYS798  CYS799  TRP800  GLU811  SER814 

> <Gold.Protein.RotatedAtoms>
  151.4600  135.1037  159.9721 H   0  0  0  0  0  0  0  0  0  0  0  0  # atno 6907 bound_to 6896
  152.4856  133.8361  159.7139 H   0  0  0  0  0  0  0  0  0  0  0  0  # atno 6908 bound_to 6896
  150.8963  133.7116  159.2918 H   0  0  0  0  0  0  0  0  0  0  0  0  # atno 6909 bound_to 6896
  145.1571  139.3176  143.4536 H   0  0  0  0  0  0  0  0  0  0  0  0  # atno 7974 bound_to 7965
  154.6556  140.2579  155.7165 H   0  0  0  0  0  0  0  0  0  0  0  0  # atno 8008 bound_to 7997
  156.2595  140.2859  156.0928 H   0  0  0  0  0  0  0  0  0  0  0  0  # atno 8009 bound_to 7997
  155.1385  140.0380  157.2783 H   0  0  0  0  0  0  0  0  0  0  0  0  # atno 8010 bound_to 7997
  140.3685  143.2806  151.9529 H   0  0  0  0  0  0  0  0  0  0  0  0  # atno 10167 bound_to 10162
  156.1049  130.4181  150.0740 H   0  0  0  0  0  0  0  0  0  0  0  0  # atno 10718 bound_to 10713
  154.8151  135.4627  154.0623 H   0  0  0  0  0  0  0  0  0  0  0  0  # atno 10763 bound_to 10752
  153.2022  135.6870  153.8224 H   0  0  0  0  0  0  0  0  0  0  0  0  # atno 10764 bound_to 10752
  153.7705  135.3271  155.3328 H   0  0  0  0  0  0  0  0  0  0  0  0  # atno 10765 bound_to 10752
  139.9417  134.9634  156.8592 H   0  0  0  0  0  0  0  0  0  0  0  0  # atno 11005 bound_to 11000
  146.3487  140.1667  142.8590 LP  0  0  0  0  0  0  0  0  0  0  0  0  # atno 17320 bound_to 7965
  145.0370  140.8916  143.5075 LP  0  0  0  0  0  0  0  0  0  0  0  0  # atno 17321 bound_to 7965
  139.4806  144.5928  151.7742 LP  0  0  0  0  0  0  0  0  0  0  0  0  # atno 17342 bound_to 10162
  140.5057  144.1102  150.5982 LP  0  0  0  0  0  0  0  0  0  0  0  0  # atno 17343 bound_to 10162
  156.8719  130.9527  151.3608 LP  0  0  0  0  0  0  0  0  0  0  0  0  # atno 17370 bound_to 10713
  157.6224  130.8665  149.9131 LP  0  0  0  0  0  0  0  0  0  0  0  0  # atno 17371 bound_to 10713
  140.5934  134.0240  155.7508 LP  0  0  0  0  0  0  0  0  0  0  0  0  # atno 17394 bound_to 11000
  141.1054  133.9701  157.3005 LP  0  0  0  0  0  0  0  0  0  0  0  0  # atno 17395 bound_to 11000

$$$$
