#       Name:                AV-unprocessed.smi:2883
#       Creating user name   scv26
#       Creation time:       Fri Mar 27 15:55:02 2020


#       File generated by GOLD software.
#

@<TRIPOS>MOLECULE
AV-unprocessed.smi:2883
    43    45     1
SMALL
NO_CHARGES


@<TRIPOS>ATOM
      1 ****        -1.9267   2.3236   0.2655 C.3            1 S1                 0.0000
      2 ****        -2.8218   1.1657  -0.2345 C.3            1 S1                 0.0000
      3 ****        -4.0727   1.1614   0.6735 C.3            1 S1                 0.0000
      4 ****        -3.2429   1.4245  -1.6926 C.3            1 S1                 0.0000
      5 ****        -2.0791  -0.1751  -0.1475 C.ar           1 S1                 0.0000
      6 ****        -2.7842  -1.3085   0.0195 N.pl3          1 S1                 1.0000
      7 ****        -2.1584  -2.5102  -0.0086 C.ar           1 S1                 0.0000
      8 ****        -0.7742  -2.5868  -0.2461 C.ar           1 S1                 0.0000
      9 ****        -0.0997  -1.3737  -0.4597 C.ar           1 S1                 0.0000
     10 ****         1.2775  -1.3832  -0.7197 N.pl3          1 S1                 0.0000
     11 ****         2.0531  -0.1461  -0.7010 C.3            1 S1                 0.0000
     12 ****         3.5046  -0.3398  -1.1463 C.3            1 S1                 0.0000
     13 ****         4.2789   0.2804   0.0255 C.3            1 S1                 0.0000
     14 ****         4.2710  -0.6383   1.2539 C.3            1 S1                 0.0000
     15 ****         2.8284  -0.4982   1.7363 C.3            1 S1                 0.0000
     16 ****         2.2379   0.4731   0.6994 C.3            1 S1                 0.0000
     17 ****         3.3722   1.2852   0.4490 O.3            1 S1                 0.0000
     18 ****        -0.7667  -0.1998  -0.4272 N.ar           1 S1                 0.0000
     19 ****        -2.4613   3.2741   0.2484 H              1 S1                 0.0000
     20 ****        -1.0381   2.4510  -0.3540 H              1 S1                 0.0000
     21 ****        -1.5927   2.1546   1.2902 H              1 S1                 0.0000
     22 ****        -3.8095   0.9547   1.7117 H              1 S1                 0.0000
     23 ****        -4.8027   0.4141   0.3607 H              1 S1                 0.0000
     24 ****        -4.5812   2.1261   0.6518 H              1 S1                 0.0000
     25 ****        -3.7762   2.3707  -1.7915 H              1 S1                 0.0000
     26 ****        -3.9005   0.6363  -2.0615 H              1 S1                 0.0000
     27 ****        -2.3763   1.4653  -2.3538 H              1 S1                 0.0000
     28 ****        -2.7885  -3.3727   0.1514 H              1 S1                 0.0000
     29 ****        -0.2608  -3.5371  -0.2727 H              1 S1                 0.0000
     30 ****         1.7779  -2.2601  -0.7007 H              1 S1                 0.0000
     31 ****         1.5845   0.5847  -1.3622 H              1 S1                 0.0000
     32 ****         3.7811  -1.3824  -1.3110 H              1 S1                 0.0000
     33 ****         3.6917   0.2083  -2.0704 H              1 S1                 0.0000
     34 ****         5.2686   0.6502  -0.2433 H              1 S1                 0.0000
     35 ****         4.5383  -1.6662   1.0065 H              1 S1                 0.0000
     36 ****         4.9652  -0.2774   2.0137 H              1 S1                 0.0000
     37 ****         2.2999  -1.4507   1.7829 H              1 S1                 0.0000
     38 ****         2.8055  -0.0537   2.7319 H              1 S1                 0.0000
     39 ****         1.3695   1.0259   1.0589 H              1 S1                 0.0000
     40 ****        -3.7919  -1.2713   0.1750 H              1 S1                 0.0000
     41 ****         3.1988   1.9598  -0.2686 LP             1 S1                 0.0000
     42 ****         3.6888   1.7513   1.2751 LP             1 S1                 0.0000
     43 ****        -0.2808   0.6544  -0.6123 LP             1 S1                 0.0000
@<TRIPOS>BOND
    1    1    2 1     
    2    1   19 1     
    3    1   20 1     
    4    1   21 1     
    5    2    3 1     
    6    2    4 1     
    7    2    5 1     
    8    3   22 1     
    9    3   23 1     
   10    3   24 1     
   11    4   25 1     
   12    4   26 1     
   13    4   27 1     
   14    5   18 ar    
   15    5    6 ar    
   16    6    7 ar    
   17    6   40 1     
   18    7    8 ar    
   19    7   28 1     
   20    8    9 ar    
   21    8   29 1     
   22    9   10 1     
   23    9   18 ar    
   24   10   11 1     
   25   10   30 1     
   26   11   16 1     
   27   11   12 1     
   28   11   31 1     
   29   12   13 1     
   30   12   32 1     
   31   12   33 1     
   32   13   17 1     
   33   13   14 1     
   34   13   34 1     
   35   14   15 1     
   36   14   35 1     
   37   14   36 1     
   38   15   16 1     
   39   15   37 1     
   40   15   38 1     
   41   16   17 1     
   42   16   39 1     
   43   17   41 1     
   44   17   42 1     
   45   18   43 1     
@<TRIPOS>SUBSTRUCTURE
      1 S1             1
@<TRIPOS>SET
LONE_PAIRS      STATIC     ATOMS    <user>   **** ""
3 41 42 43
DONOR_HYDROGENS      STATIC     ATOMS    <user>   **** ""
2 40 30
ATOM$BLUE        STATIC     ATOMS    COLORGROUP SYSTEM
3 41 42 43
ATOM$RED        STATIC     ATOMS    COLORGROUP SYSTEM
2 40 30
