#       Name:                AV-unprocessed.smi:1803
#       Creating user name   scv26
#       Creation time:       Fri Mar 27 08:54:04 2020


#       File generated by GOLD software.
#

@<TRIPOS>MOLECULE
AV-unprocessed.smi:1803
    40    42     1
SMALL
NO_CHARGES


@<TRIPOS>ATOM
      1 ****        -2.1675  -2.1049   1.3092 O.2            1 S1                 0.0000
      2 ****        -0.9411  -2.1023   1.3979 C.2            1 S1                 0.0000
      3 ****        -0.2439  -3.2528   1.5059 N.am           1 S1                 0.0000
      4 ****        -0.6780  -4.6098   1.5422 C.2            1 S1                 0.0000
      5 ****        -1.9622  -4.9907   1.6428 N.2            1 S1                 0.0000
      6 ****        -2.0960  -6.3716   1.6837 N.2            1 S1                 0.0000
      7 ****        -0.9083  -6.9805   1.6262 C.2            1 S1                 0.0000
      8 ****         0.4890  -5.9245   1.5171 S.3            1 S1                 0.0000
      9 ****        -0.2173  -0.9708   1.3939 N.am           1 S1                 0.0000
     10 ****        -0.7585   0.3716   1.2095 C.3            1 S1                 0.0000
     11 ****         0.1842   1.4725   1.6779 C.3            1 S1                 0.0000
     12 ****        -0.3496   2.7134   0.9549 C.3            1 S1                 0.0000
     13 ****        -1.0178   2.2368  -0.2811 N.4            1 S1                 1.0000
     14 ****        -0.4931   2.8540  -1.5288 C.3            1 S1                 0.0000
     15 ****        -0.9277   2.0519  -2.7643 C.3            1 S1                 0.0000
     16 ****        -0.3709   0.6163  -2.7290 C.3            1 S1                 0.0000
     17 ****        -0.0526   0.1419  -1.2984 C.3            1 S1                 0.0000
     18 ****        -1.0301   0.7463  -0.2598 C.3            1 S1                 0.0000
     19 ****         0.7442  -3.1298   1.6741 H              1 S1                 0.0000
     20 ****        -0.8547  -8.0588   1.6523 H              1 S1                 0.0000
     21 ****         0.7861  -1.0531   1.4789 H              1 S1                 0.0000
     22 ****        -1.6873   0.4671   1.7760 H              1 S1                 0.0000
     23 ****         0.1961   1.5893   2.7621 H              1 S1                 0.0000
     24 ****         1.2039   1.2638   1.3503 H              1 S1                 0.0000
     25 ****        -1.1012   3.2093   1.5700 H              1 S1                 0.0000
     26 ****         0.4427   3.4386   0.7642 H              1 S1                 0.0000
     27 ****        -0.8499   3.8823  -1.5930 H              1 S1                 0.0000
     28 ****         0.5970   2.8992  -1.4977 H              1 S1                 0.0000
     29 ****        -2.0174   2.0198  -2.8004 H              1 S1                 0.0000
     30 ****        -0.6080   2.5528  -3.6784 H              1 S1                 0.0000
     31 ****        -1.0928  -0.0560  -3.1940 H              1 S1                 0.0000
     32 ****         0.5355   0.5510  -3.3318 H              1 S1                 0.0000
     33 ****        -0.0737  -0.9479  -1.2754 H              1 S1                 0.0000
     34 ****         0.9682   0.4286  -1.0416 H              1 S1                 0.0000
     35 ****        -2.0352   0.4149  -0.5253 H              1 S1                 0.0000
     36 ****        -1.9848   2.5189  -0.2053 H              1 S1                 0.0000
     37 ****        -2.6675  -2.9709   1.3163 LP             1 S1                 0.0000
     38 ****        -2.6649  -1.2410   1.2300 LP             1 S1                 0.0000
     39 ****        -2.7320  -4.3537   1.6835 LP             1 S1                 0.0000
     40 ****        -2.9715  -6.8506   1.7481 LP             1 S1                 0.0000
@<TRIPOS>BOND
    1    1    2 2     
    2    2    3 am    
    3    2    9 am    
    4    3    4 1     
    5    3   19 1     
    6    4    8 1     
    7    4    5 2     
    8    5    6 1     
    9    6    7 2     
   10    7    8 1     
   11    7   20 1     
   12    9   10 1     
   13    9   21 1     
   14   10   18 1     
   15   10   11 1     
   16   10   22 1     
   17   11   12 1     
   18   11   23 1     
   19   11   24 1     
   20   12   13 1     
   21   12   25 1     
   22   12   26 1     
   23   13   18 1     
   24   13   14 1     
   25   13   36 1     
   26   14   15 1     
   27   14   27 1     
   28   14   28 1     
   29   15   16 1     
   30   15   29 1     
   31   15   30 1     
   32   16   17 1     
   33   16   31 1     
   34   16   32 1     
   35   17   18 1     
   36   17   33 1     
   37   17   34 1     
   38   18   35 1     
   39    1   37 1     
   40    1   38 1     
   41    5   39 1     
   42    6   40 1     
@<TRIPOS>SUBSTRUCTURE
      1 S1             1
@<TRIPOS>SET
LONE_PAIRS      STATIC     ATOMS    <user>   **** ""
4 37 38 39 40
DONOR_HYDROGENS      STATIC     ATOMS    <user>   **** ""
3 19 21 36
ATOM$BLUE        STATIC     ATOMS    COLORGROUP SYSTEM
4 37 38 39 40
ATOM$RED        STATIC     ATOMS    COLORGROUP SYSTEM
3 19 21 36
