AV-unprocessed.smi:694|AV-procd|sdf|3382|dock10
  -GOLD-   22720 0363D 1   1.00000     0.00000
 Structure written by MMmdl.
 42 43  0  0  0  0  0  0  0  0  1 V2000
  153.4927  142.4708  162.0981 C   0  0  0  0  0  0  0  0  0  0  0  0
  153.6011  141.6339  160.9074 N   0  0  0  0  0  0  0  0  0  0  0  0
  154.6040  140.5776  160.8493 C   0  0  0  0  0  0  0  0  0  0  0  0
  152.7418  141.8617  159.8082 C   0  0  0  0  0  0  0  0  0  0  0  0
  152.4902  143.1689  159.3231 C   0  0  0  0  0  0  0  0  0  0  0  0
  151.6231  143.3401  158.2272 C   0  0  0  0  0  0  0  0  0  0  0  0
  151.0205  142.2122  157.6379 C   0  0  0  0  0  0  0  0  0  0  0  0
  150.1649  142.4227  156.5216 N   0  0  0  0  0  0  0  0  0  0  0  0
  149.2531  141.5911  155.9880 C   0  0  0  0  0  0  0  0  0  0  0  0
  148.9607  140.4775  156.4223 O   0  0  0  0  0  0  0  0  0  0  0  0
  148.6708  142.1378  154.9114 N   0  0  0  0  0  0  0  0  0  0  0  0
  147.6399  141.4963  154.1013 C   0  0  0  0  0  0  0  0  0  0  0  0
  146.3150  142.2891  154.1009 C   0  0  2  0  0  0  0  0  0  0  0  0
  146.3999  143.6560  153.4124 C   0  0  0  0  0  0  0  0  0  0  0  0
  145.2303  144.4786  153.9741 C   0  0  0  0  0  0  0  0  0  0  0  0
  144.6736  143.6911  155.1710 C   0  0  0  0  0  0  0  0  0  0  0  0
  145.7052  142.6000  155.4772 C   0  0  2  0  0  0  0  0  0  0  0  0
  146.6740  143.1215  156.3684 O   0  0  0  0  0  0  0  0  0  0  0  0
  151.3388  140.9450  158.1809 C   0  0  0  0  0  0  0  0  0  0  0  0
  152.1682  140.7772  159.2322 N   0  0  0  0  0  0  0  0  0  0  0  0
  152.4985  142.3845  162.5379 H   0  0  0  0  0  0  0  0  0  0  0  0
  153.6706  143.5173  161.8472 H   0  0  0  0  0  0  0  0  0  0  0  0
  154.2197  142.1819  162.8572 H   0  0  0  0  0  0  0  0  0  0  0  0
  155.3068  140.7599  160.0358 H   0  0  0  0  0  0  0  0  0  0  0  0
  154.1309  139.6077  160.6930 H   0  0  0  0  0  0  0  0  0  0  0  0
  155.1757  140.5215  161.7756 H   0  0  0  0  0  0  0  0  0  0  0  0
  152.9434  144.0418  159.7679 H   0  0  0  0  0  0  0  0  0  0  0  0
  151.4234  144.3312  157.8470 H   0  0  0  0  0  0  0  0  0  0  0  0
  150.2369  143.3330  156.0916 H   0  0  0  0  0  0  0  0  0  0  0  0
  148.9685  143.0588  154.6247 H   0  0  0  0  0  0  0  0  0  0  0  0
  148.0226  141.3925  153.0858 H   0  0  0  0  0  0  0  0  0  0  0  0
  147.4679  140.4813  154.4636 H   0  0  0  0  0  0  0  0  0  0  0  0
  145.5744  141.7067  153.5498 H   0  0  0  0  0  0  0  0  0  0  0  0
  147.3414  144.1448  153.6666 H   0  0  0  0  0  0  0  0  0  0  0  0
  146.3605  143.5700  152.3260 H   0  0  0  0  0  0  0  0  0  0  0  0
  145.5770  145.4653  154.2829 H   0  0  0  0  0  0  0  0  0  0  0  0
  144.4553  144.6279  153.2215 H   0  0  0  0  0  0  0  0  0  0  0  0
  144.4573  144.3280  156.0297 H   0  0  0  0  0  0  0  0  0  0  0  0
  143.7342  143.2199  154.8785 H   0  0  0  0  0  0  0  0  0  0  0  0
  145.2447  141.7214  155.9302 H   0  0  0  0  0  0  0  0  0  0  0  0
  146.6798  142.5901  157.1496 H   0  0  0  0  0  0  0  0  0  0  0  0
  150.9484  140.0269  157.7719 H   0  0  0  0  0  0  0  0  0  0  0  0
  1  2  1  0  0  0  0
  1 21  1  0  0  0  0
  1 22  1  0  0  0  0
  1 23  1  0  0  0  0
  2  3  1  0  0  0  0
  2  4  1  0  0  0  0
  3 24  1  0  0  0  0
  3 25  1  0  0  0  0
  3 26  1  0  0  0  0
  4 20  1  0  0  0  0
  4  5  2  0  0  0  0
  5  6  1  0  0  0  0
  5 27  1  0  0  0  0
  6  7  2  0  0  0  0
  6 28  1  0  0  0  0
  7  8  1  0  0  0  0
  7 19  1  0  0  0  0
  8  9  1  0  0  0  0
  8 29  1  0  0  0  0
  9 10  2  0  0  0  0
  9 11  1  0  0  0  0
 11 12  1  0  0  0  0
 11 30  1  0  0  0  0
 12 13  1  0  0  0  0
 12 31  1  0  0  0  0
 12 32  1  0  0  0  0
 13 17  1  0  0  0  0
 13 14  1  0  0  0  0
 13 33  1  0  0  0  0
 14 15  1  0  0  0  0
 14 34  1  0  0  0  0
 14 35  1  0  0  0  0
 15 16  1  0  0  0  0
 15 36  1  0  0  0  0
 15 37  1  0  0  0  0
 16 17  1  0  0  0  0
 16 38  1  0  0  0  0
 16 39  1  0  0  0  0
 17 18  1  0  0  0  0
 17 40  1  0  0  0  0
 18 41  1  0  0  0  0
 19 20  2  0  0  0  0
 19 42  1  0  0  0  0
M  END
> <s_m_source_file>
AV-unprocessed.smi

> <i_m_source_file_index>
694

> <i_lp_mmshare_version>
43012

> <i_f3d_flags>
0

> <s_epik_input>
W0NIM11OKFtDSDNdKWMxW2NIXVtjSF1jKFtjSF1uMSlbTkhdQyg9TylbTkhdW0NIMl1bQ0BASF0yW0NIMl1bQ0gyXVtDSDJdW0NASF0yW09IXQ==

> <s_epik_cmdline>
J2VwaWtfcHl0aG9uJywgJy1waCcsICc3LjAnLCAnLXRuJywgJzgnLCAnLW1hJywgJzIwMCcsICctbWV0YWxfYmluZGluZycsICctaW1hZScsICc8aW5maWxlLm1hZT4nLCAnLW9tYWUnLCAnPG91dGZpbGUubWFlPic=

> <r_lp_tautomer_probability>
1

> <r_epik_Ionization_Penalty>
0.60335

> <r_epik_Ionization_Penalty_Charging>
0

> <r_epik_Ionization_Penalty_Neutral>
0.60335

> <r_epik_State_Penalty>
0.616805

> <r_epik_Charging_Adjusted_Penalty>
0.616805

> <i_epik_Tot_Q>
0

> <i_epik_Tot_abs_Q>
0

> <r_epik_Metal_State_Penalty>
0.301709

> <b_epik_Metal_Only>
0

> <s_lp_Force_Field>
OPLS_2005

> <r_lp_Energy>
30.3621

> <b_lp_Chiralities_Consistent>
1

> <s_lp_Variant>
AV-unprocessed.smi:694-7

> <Gold.Version>
5.8.1

> <Gold.Id.Protein>
6NUR|6NUR_protein|mol2

> <Gold.PLP.Fitness>
47.8749

> <Gold.PLP.PLP>
-43.8434

> <Gold.PLP.part.hbond>
-2.0043

> <Gold.PLP.part.metal>
0.0000

> <Gold.PLP.part.buried>
-5.6994

> <Gold.PLP.part.nonpolar>
-37.0441

> <Gold.PLP.part.repulsive>
0.2598

> <Gold.PLP.ligand.clash>
0.0000

> <Gold.PLP.ligand.torsion>
0.8479

> <Gold.PLP.Chemscore.Hbond>
1.9040

> <Gold.PLP.Chemscore.CHOScore>
0.0000

> <Gold.PLP.Chemscore.Metal>
0.0000

> <Gold.Chemscore.Hbonds>
donor molecule, donor type, donor heavy atom, donor atom, acceptor molecule, acceptor atom, score
      L1  H     8    29       P1  8028  0.66
      L1  H    11    30       P1  8028  0.58

> <Gold.PLP.Chemscore.Internal.Correction>
0.0154

> <Gold.Rescore>
     Score         DG    S(hbond)    S(metal)    S(lipo)     H(rot)  DE(clash)    DE(int)     intcor
     13.82     -17.25       1.83        0.00      86.12       1.73       0.10       3.33       ----

> <Gold.Chemscore.Fitness>
13.8233

> <Gold.Chemscore.DG>
-17.2527

> <Gold.Chemscore.ZeroCoef>
-5.4800

> <Gold.Chemscore.Hbond>
1.8309

> <Gold.Chemscore.Metal>
0.0000

> <Gold.Chemscore.Lipo>
86.1171

> <Gold.Chemscore.Internal_Hbond>
0.0000

> <Gold.Chemscore.DEClash>
0.0969

> <Gold.Chemscore.DEInternal>
3.3325

> <Gold.Chemscore.Rot>
1.7259

> <Gold.Chemscore.Internal.Correction>
   9.000000E+99

> <Gold.Chemscore.Hbonds>
donor molecule, donor type, donor heavy atom, donor atom, acceptor molecule, acceptor atom, score
      L1  H     8    29       P1  8028  0.65
      L1  H    11    30       P1  8028  0.58

> <Gold.Chemscore.Hbond.Weighted>
-6.1154

> <Gold.Chemscore.Metal.Weighted>
-0.0000

> <Gold.Chemscore.Lipo.Weighted>
-10.0757

> <Gold.Chemscore.Internal_Hbond.Weighted>
0.0000

> <Gold.Chemscore.DEClash.Weighted>
0.0969

> <Gold.Chemscore.DEInternal.Weighted>
3.3325

> <Gold.Chemscore.Rot.Weighted>
4.4184

> <Gold.Chemscore.Internal.Correction.Weighted>
   9.000000E+99

> <Gold.Protein.RotatedTorsions>
[ 6907 6896 6895 6894 ] final    5.17 input  -60.11 | X-H torsion
[ 7974 7965 7964 7962 ] final  119.42 input  175.53 | X-H torsion
[ 8008 7997 7996 7995 ] final  126.86 input   59.86 | X-H torsion
[ 10167 10162 10161 10158 ] final -120.51 input  -65.29 | X-H torsion
[ 10718 10713 10712 10709 ] final  -70.94 input   66.30 | X-H torsion
[ 10763 10752 10751 10750 ] final   62.28 input  -60.55 | X-H torsion
[ 11005 11000 10999 10996 ] final  112.28 input  -57.11 | X-H torsion

> <Gold.Protein.ActiveResidues>
 VAL166  LYS551  ARG553  GLY616  TRP617  ASP618  TYR619  PRO620  LYS621  CYS622 
 ASP623  PHE694  ASN695  SER759  ASP760  ASP761  ALA762  ILE779  LEU786  VAL792 
 PHE793  MET794  SER795  GLU796  ALA797  LYS798  CYS799  TRP800  GLU811  SER814 

> <Gold.Protein.RotatedAtoms>
  151.6532  135.0999  160.0164 H   0  0  0  0  0  0  0  0  0  0  0  0  # atno 6907 bound_to 6896
  152.3989  133.6783  159.6308 H   0  0  0  0  0  0  0  0  0  0  0  0  # atno 6908 bound_to 6896
  150.7892  133.8743  159.3308 H   0  0  0  0  0  0  0  0  0  0  0  0  # atno 6909 bound_to 6896
  145.1433  139.3255  143.4604 H   0  0  0  0  0  0  0  0  0  0  0  0  # atno 7974 bound_to 7965
  156.2875  140.2682  156.2180 H   0  0  0  0  0  0  0  0  0  0  0  0  # atno 8008 bound_to 7997
  155.0197  140.0386  157.2450 H   0  0  0  0  0  0  0  0  0  0  0  0  # atno 8009 bound_to 7997
  154.7446  140.2731  155.6349 H   0  0  0  0  0  0  0  0  0  0  0  0  # atno 8010 bound_to 7997
  140.0351  143.5209  152.2158 H   0  0  0  0  0  0  0  0  0  0  0  0  # atno 10167 bound_to 10162
  156.0385  130.4341  150.2369 H   0  0  0  0  0  0  0  0  0  0  0  0  # atno 10718 bound_to 10713
  152.9977  135.5471  154.6168 H   0  0  0  0  0  0  0  0  0  0  0  0  # atno 10763 bound_to 10752
  154.5476  135.2824  155.1040 H   0  0  0  0  0  0  0  0  0  0  0  0  # atno 10764 bound_to 10752
  154.2293  135.6436  153.5222 H   0  0  0  0  0  0  0  0  0  0  0  0  # atno 10765 bound_to 10752
  139.8923  134.9526  156.6561 H   0  0  0  0  0  0  0  0  0  0  0  0  # atno 11005 bound_to 11000
  146.3503  140.1478  142.8593 LP  0  0  0  0  0  0  0  0  0  0  0  0  # atno 17320 bound_to 7965
  145.0509  140.9017  143.4996 LP  0  0  0  0  0  0  0  0  0  0  0  0  # atno 17321 bound_to 7965
  139.6050  144.7594  151.3082 LP  0  0  0  0  0  0  0  0  0  0  0  0  # atno 17342 bound_to 10162
  140.7285  143.6934  150.7904 LP  0  0  0  0  0  0  0  0  0  0  0  0  # atno 17343 bound_to 10162
  157.0467  131.0051  151.3267 LP  0  0  0  0  0  0  0  0  0  0  0  0  # atno 17370 bound_to 10713
  157.5170  130.7974  149.7767 LP  0  0  0  0  0  0  0  0  0  0  0  0  # atno 17371 bound_to 10713
  140.7483  133.8919  155.8328 LP  0  0  0  0  0  0  0  0  0  0  0  0  # atno 17394 bound_to 11000
  141.0022  134.1135  157.4306 LP  0  0  0  0  0  0  0  0  0  0  0  0  # atno 17395 bound_to 11000

$$$$
