#       Name:                AV-unprocessed.smi:1230
#       Creating user name   scv26
#       Creation time:       Fri Mar 27 04:22:45 2020


#       File generated by GOLD software.
#

@<TRIPOS>MOLECULE
AV-unprocessed.smi:1230
    46    47     1
SMALL
NO_CHARGES


@<TRIPOS>ATOM
      1 ****         0.0565   1.5319   1.6222 C.3            1 S1                 0.0000
      2 ****        -0.8330   1.7548   0.3895 C.3            1 S1                 0.0000
      3 ****        -2.0173   0.7675   0.3591 C.3            1 S1                 0.0000
      4 ****        -2.9354   1.0271  -0.8457 C.3            1 S1                 0.0000
      5 ****        -2.1503   0.9753  -2.1647 C.3            1 S1                 0.0000
      6 ****        -0.9618   1.9517  -2.1461 C.3            1 S1                 0.0000
      7 ****        -0.0380   1.7124  -0.9375 C.3            1 S1                 0.0000
      8 ****         0.5621   0.4332  -1.0959 O.3            1 S1                 0.0000
      9 ****         1.9791   0.4261  -1.0113 C.3            1 S1                 0.0000
     10 ****         2.4555  -1.0310  -0.9144 C.3            1 S1                 0.0000
     11 ****         2.0238  -1.6405   0.3510 N.am           1 S1                 0.0000
     12 ****         0.7991  -2.3299   0.3518 C.2            1 S1                 0.0000
     13 ****         0.2974  -2.8772   1.4744 C.2            1 S1                 0.0000
     14 ****        -0.9502  -3.5667   1.5046 C.1            1 S1                 0.0000
     15 ****        -1.9682  -4.1183   1.4989 N.1            1 S1                 0.0000
     16 ****         1.0575  -2.7495   2.7153 C.2            1 S1                 0.0000
     17 ****         0.6251  -3.2445   3.7554 O.2            1 S1                 0.0000
     18 ****         2.2401  -2.0689   2.6574 N.pl3          1 S1                -1.0000
     19 ****         2.7349  -1.5065   1.5107 C.2            1 S1                 0.0000
     20 ****         3.7934  -0.8781   1.4903 O.2            1 S1                 0.0000
     21 ****         0.4615   0.5206   1.6430 H              1 S1                 0.0000
     22 ****        -0.5077   1.6767   2.5436 H              1 S1                 0.0000
     23 ****         0.8951   2.2284   1.6358 H              1 S1                 0.0000
     24 ****        -1.2490   2.7591   0.4821 H              1 S1                 0.0000
     25 ****        -1.6454  -0.2576   0.3209 H              1 S1                 0.0000
     26 ****        -2.5947   0.8490   1.2805 H              1 S1                 0.0000
     27 ****        -3.7412   0.2928  -0.8635 H              1 S1                 0.0000
     28 ****        -3.4088   2.0041  -0.7409 H              1 S1                 0.0000
     29 ****        -1.7897  -0.0399  -2.3340 H              1 S1                 0.0000
     30 ****        -2.8105   1.2106  -2.9997 H              1 S1                 0.0000
     31 ****        -0.3929   1.8628  -3.0721 H              1 S1                 0.0000
     32 ****        -1.3381   2.9749  -2.1147 H              1 S1                 0.0000
     33 ****         0.7189   2.4995  -0.9309 H              1 S1                 0.0000
     34 ****         2.3954   0.9039  -1.8988 H              1 S1                 0.0000
     35 ****         2.3251   0.9917  -0.1450 H              1 S1                 0.0000
     36 ****         2.0754  -1.6027  -1.7620 H              1 S1                 0.0000
     37 ****         3.5418  -1.0719  -1.0073 H              1 S1                 0.0000
     38 ****         0.2932  -2.3692  -0.6021 H              1 S1                 0.0000
     39 ****         0.3022   0.0765  -1.9933 LP             1 S1                 0.0000
     40 ****         0.2048  -0.1687  -0.3817 LP             1 S1                 0.0000
     41 ****        -2.8474  -4.5947   1.4940 LP             1 S1                 0.0000
     42 ****        -0.2467  -3.7343   3.7513 LP             1 S1                 0.0000
     43 ****         1.1455  -3.1571   4.6048 LP             1 S1                 0.0000
     44 ****         2.7739  -1.9761   3.4979 LP             1 S1                 0.0000
     45 ****         4.1197  -0.4759   0.6349 LP             1 S1                 0.0000
     46 ****         4.3269  -0.7700   2.3292 LP             1 S1                 0.0000
@<TRIPOS>BOND
    1    1    2 1     
    2    1   21 1     
    3    1   22 1     
    4    1   23 1     
    5    2    7 1     
    6    2    3 1     
    7    2   24 1     
    8    3    4 1     
    9    3   25 1     
   10    3   26 1     
   11    4    5 1     
   12    4   27 1     
   13    4   28 1     
   14    5    6 1     
   15    5   29 1     
   16    5   30 1     
   17    6    7 1     
   18    6   31 1     
   19    6   32 1     
   20    7    8 1     
   21    7   33 1     
   22    8    9 1     
   23    9   10 1     
   24    9   34 1     
   25    9   35 1     
   26   10   11 1     
   27   10   36 1     
   28   10   37 1     
   29   11   19 am    
   30   11   12 1     
   31   12   13 2     
   32   12   38 1     
   33   13   14 1     
   34   13   16 1     
   35   14   15 3     
   36   16   17 2     
   37   16   18 1     
   38   18   19 1     
   39   19   20 2     
   40    8   39 1     
   41    8   40 1     
   42   15   41 1     
   43   17   42 1     
   44   17   43 1     
   45   18   44 1     
   46   20   45 1     
   47   20   46 1     
@<TRIPOS>SUBSTRUCTURE
      1 S1             1
@<TRIPOS>SET
LONE_PAIRS      STATIC     ATOMS    <user>   **** ""
8 39 40 41 42 43 44 45 46
ATOM$BLUE        STATIC     ATOMS    COLORGROUP SYSTEM
8 39 40 41 42 43 44 45 46
