#       Name:                AV-unprocessed.smi:287
#       Creating user name   scv26
#       Creation time:       Thu Mar 26 21:58:48 2020


#       File generated by GOLD software.
#

@<TRIPOS>MOLECULE
AV-unprocessed.smi:287
    70    73     1
SMALL
NO_CHARGES


@<TRIPOS>ATOM
      1 ****        -1.7092   3.9590  -3.6480 C.3            1 S1                 0.0000
      2 ****        -2.2358   3.7497  -2.2697 C.2            1 S1                 0.0000
      3 ****        -2.7892   2.6841  -1.6220 C.2            1 S1                 0.0000
      4 ****        -3.0900   3.1030  -0.2914 C.2            1 S1                 0.0000
      5 ****        -3.7189   2.2437   0.7973 C.3            1 S1                 0.0000
      6 ****        -5.2199   2.0651   0.5164 C.3            1 S1                 0.0000
      7 ****        -3.6442   2.8386   2.0784 O.3            1 S1                 0.0000
      8 ****        -3.0335   0.8644   0.9297 C.3            1 S1                 0.0000
      9 ****        -1.5770   0.9515   0.9022 N.pl3          1 S1                 0.0000
     10 ****        -0.8302  -0.1713   0.8687 C.ar           1 S1                 0.0000
     11 ****        -1.4069  -1.3984   0.9532 N.ar           1 S1                 0.0000
     12 ****        -0.6459  -2.4960   0.9120 C.ar           1 S1                 0.0000
     13 ****         0.6800  -2.5874   0.7924 N.ar           1 S1                 0.0000
     14 ****         1.2639  -1.3563   0.7089 C.ar           1 S1                 0.0000
     15 ****         0.5810  -0.1091   0.7398 C.ar           1 S1                 0.0000
     16 ****         1.4937   0.9316   0.6272 N.2            1 S1                 0.0000
     17 ****         2.6487   0.3293   0.5327 C.2            1 S1                 0.0000
     18 ****         2.6026  -1.0466   0.5685 N.pl3          1 S1                 0.0000
     19 ****         3.7536  -1.9979   0.4719 C.3            1 S1                 0.0000
     20 ****         3.5028  -3.1097   1.2669 O.3            1 S1                 0.0000
     21 ****         4.2028  -4.2311   0.7385 C.3            1 S1                 0.0000
     22 ****         3.3208  -5.4867   0.8673 C.3            1 S1                 0.0000
     23 ****         2.2712  -5.4970  -0.0783 O.3            1 S1                 0.0000
     24 ****         4.6499  -3.8638  -0.6932 C.3            1 S1                 0.0000
     25 ****         6.0586  -3.7300  -0.7248 O.3            1 S1                 0.0000
     26 ****         3.9965  -2.5114  -0.9543 C.3            1 S1                 0.0000
     27 ****         2.8097  -2.6566  -1.7125 O.3            1 S1                 0.0000
     28 ****        -2.7018   4.4205  -0.2430 C.2            1 S1                 0.0000
     29 ****        -2.7360   5.4739   0.8147 C.3            1 S1                 0.0000
     30 ****        -2.1786   4.8184  -1.4362 O.3            1 S1                 0.0000
     31 ****         4.6100  -1.4539   0.8731 H              1 S1                 0.0000
     32 ****         5.0763  -4.3730   1.3773 H              1 S1                 0.0000
     33 ****         4.3686  -4.6110  -1.4365 H              1 S1                 0.0000
     34 ****         4.6493  -1.8172  -1.4855 H              1 S1                 0.0000
     35 ****        -1.7108   3.0256  -4.2111 H              1 S1                 0.0000
     36 ****        -0.6860   4.3336  -3.6185 H              1 S1                 0.0000
     37 ****        -2.3200   4.6817  -4.1891 H              1 S1                 0.0000
     38 ****        -2.9544   1.7073  -2.0521 H              1 S1                 0.0000
     39 ****        -5.3866   1.5748  -0.4434 H              1 S1                 0.0000
     40 ****        -5.7344   3.0266   0.4868 H              1 S1                 0.0000
     41 ****        -5.7011   1.4562   1.2826 H              1 S1                 0.0000
     42 ****        -4.0491   2.2565   2.7031 H              1 S1                 0.0000
     43 ****        -3.3666   0.3464   1.8304 H              1 S1                 0.0000
     44 ****        -3.3355   0.2447   0.0839 H              1 S1                 0.0000
     45 ****        -1.1892   1.8825   0.8440 H              1 S1                 0.0000
     46 ****        -1.1740  -3.4353   0.9838 H              1 S1                 0.0000
     47 ****         3.5739   0.8772   0.4288 H              1 S1                 0.0000
     48 ****         3.9260  -6.3783   0.7022 H              1 S1                 0.0000
     49 ****         2.9065  -5.5637   1.8728 H              1 S1                 0.0000
     50 ****         1.7502  -6.2735   0.0577 H              1 S1                 0.0000
     51 ****         6.3158  -3.0996  -0.0698 H              1 S1                 0.0000
     52 ****         2.3482  -1.8319  -1.7069 H              1 S1                 0.0000
     53 ****        -3.7393   5.5725   1.2296 H              1 S1                 0.0000
     54 ****        -2.4427   6.4450   0.4150 H              1 S1                 0.0000
     55 ****        -2.0545   5.2259   1.6285 H              1 S1                 0.0000
     56 ****        -4.1261   3.7148   2.0721 LP             1 S1                 0.0000
     57 ****        -2.6868   2.9865   2.3264 LP             1 S1                 0.0000
     58 ****        -2.3992  -1.4802   1.0461 LP             1 S1                 0.0000
     59 ****         1.1836  -3.4510   0.7671 LP             1 S1                 0.0000
     60 ****         1.3093   1.9144   0.6201 LP             1 S1                 0.0000
     61 ****         2.5213  -3.3012   1.2740 LP             1 S1                 0.0000
     62 ****         3.8142  -2.9306   2.2001 LP             1 S1                 0.0000
     63 ****         2.6512  -5.5041  -1.0033 LP             1 S1                 0.0000
     64 ****         1.7016  -4.6839   0.0418 LP             1 S1                 0.0000
     65 ****         6.3469  -3.4137  -1.6286 LP             1 S1                 0.0000
     66 ****         6.4855  -4.6129  -0.5288 LP             1 S1                 0.0000
     67 ****         2.2351  -3.3677  -1.3071 LP             1 S1                 0.0000
     68 ****         3.0386  -2.9089  -2.6527 LP             1 S1                 0.0000
     69 ****        -2.7141   5.5753  -1.8108 LP             1 S1                 0.0000
     70 ****        -1.2295   5.1093  -1.3153 LP             1 S1                 0.0000
@<TRIPOS>BOND
    1    1    2 1     
    2    1   35 1     
    3    1   36 1     
    4    1   37 1     
    5    2   30 1     
    6    2    3 2     
    7    3    4 1     
    8    3   38 1     
    9    4    5 1     
   10    4   28 2     
   11    5    6 1     
   12    5    7 1     
   13    5    8 1     
   14    6   39 1     
   15    6   40 1     
   16    6   41 1     
   17    7   42 1     
   18    8    9 1     
   19    8   43 1     
   20    8   44 1     
   21    9   10 1     
   22    9   45 1     
   23   10   15 ar    
   24   10   11 ar    
   25   11   12 ar    
   26   12   13 ar    
   27   12   46 1     
   28   13   14 ar    
   29   14   18 1     
   30   14   15 ar    
   31   15   16 1     
   32   16   17 2     
   33   17   18 1     
   34   17   47 1     
   35   18   19 1     
   36   19   31 1     
   37   19   26 1     
   38   19   20 1     
   39   20   21 1     
   40   21   32 1     
   41   21   22 1     
   42   21   24 1     
   43   22   23 1     
   44   22   48 1     
   45   22   49 1     
   46   23   50 1     
   47   24   33 1     
   48   24   25 1     
   49   24   26 1     
   50   25   51 1     
   51   26   34 1     
   52   26   27 1     
   53   27   52 1     
   54   28   29 1     
   55   28   30 1     
   56   29   53 1     
   57   29   54 1     
   58   29   55 1     
   59    7   56 1     
   60    7   57 1     
   61   11   58 1     
   62   13   59 1     
   63   16   60 1     
   64   20   61 1     
   65   20   62 1     
   66   23   63 1     
   67   23   64 1     
   68   25   65 1     
   69   25   66 1     
   70   27   67 1     
   71   27   68 1     
   72   30   69 1     
   73   30   70 1     
@<TRIPOS>SUBSTRUCTURE
      1 S1             1
@<TRIPOS>SET
LONE_PAIRS      STATIC     ATOMS    <user>   **** ""
15 56 57 58 59 60 61 62 63 64 65 66 67 68 69 70
DONOR_HYDROGENS      STATIC     ATOMS    <user>   **** ""
5 42 45 50 51 52
ATOM$BLUE        STATIC     ATOMS    COLORGROUP SYSTEM
15 56 57 58 59 60 61 62 63 64 65 66 67 68 69 70
ATOM$RED        STATIC     ATOMS    COLORGROUP SYSTEM
5 42 45 50 51 52
