AV-unprocessed.smi:3175|AV-procd|sdf|12123|dock9
  -GOLD-   2272017563D 1   1.00000     0.00000
 Structure written by MMmdl.
 38 39  0  0  0  0  0  0  0  0  2 V2000
  150.7358  140.3259  155.0845 O   0  0  0  0  0  0  0  0  0  0  0  0
  149.9219  141.2382  155.2269 C   0  0  0  0  0  0  0  0  0  0  0  0
  148.8056  141.4462  154.1987 C   0  0  0  0  0  0  0  0  0  0  0  0
  147.6274  142.2816  154.7404 C   0  0  0  0  0  0  0  0  0  0  0  0
  146.9064  141.6240  155.9186 C   0  0  0  0  0  0  0  0  0  0  0  0
  145.5581  142.3449  155.9994 C   0  0  0  0  0  0  0  0  0  0  0  0
  145.2555  142.8430  154.5781 C   0  0  0  0  0  0  0  0  0  0  0  0
  146.4959  142.5248  153.7334 C   0  0  0  0  0  0  0  0  0  0  0  0
  149.9575  142.1014  156.2534 N   0  0  0  0  0  0  0  0  0  0  0  0
  150.9355  142.0773  157.3374 C   0  0  0  0  0  0  0  0  0  0  0  0
  151.4211  143.4829  157.7438 C   0  0  0  0  0  0  0  0  0  0  0  0
  151.8279  143.5863  159.2036 C   0  0  0  0  0  0  0  0  0  0  0  0
  152.6382  142.5922  159.7948 C   0  0  0  0  0  0  0  0  0  0  0  0
  152.9964  142.7101  161.1540 C   0  0  0  0  0  0  0  0  0  0  0  0
  152.5361  143.8201  161.8915 C   0  0  0  0  0  0  0  0  0  0  0  0
  151.7627  144.7519  161.2920 N   0  3  0  0  0  0  0  0  0  0  0  0
  151.3990  144.6759  159.9931 C   0  0  0  0  0  0  0  0  0  0  0  0
  149.2123  141.9167  153.3020 H   0  0  0  0  0  0  0  0  0  0  0  0
  148.4457  140.4633  153.8930 H   0  0  0  0  0  0  0  0  0  0  0  0
  147.9974  143.2510  155.0798 H   0  0  0  0  0  0  0  0  0  0  0  0
  146.7405  140.5657  155.7117 H   0  0  0  0  0  0  0  0  0  0  0  0
  147.4721  141.6948  156.8481 H   0  0  0  0  0  0  0  0  0  0  0  0
  144.7733  141.6928  156.3838 H   0  0  0  0  0  0  0  0  0  0  0  0
  145.6352  143.1972  156.6760 H   0  0  0  0  0  0  0  0  0  0  0  0
  144.3693  142.3613  154.1637 H   0  0  0  0  0  0  0  0  0  0  0  0
  145.0656  143.9168  154.5914 H   0  0  0  0  0  0  0  0  0  0  0  0
  146.7297  143.3228  153.0277 H   0  0  0  0  0  0  0  0  0  0  0  0
  146.3138  141.6183  153.1541 H   0  0  0  0  0  0  0  0  0  0  0  0
  149.2479  142.8187  156.2943 H   0  0  0  0  0  0  0  0  0  0  0  0
  150.4606  141.5960  158.1926 H   0  0  0  0  0  0  0  0  0  0  0  0
  151.7835  141.4475  157.0633 H   0  0  0  0  0  0  0  0  0  0  0  0
  152.2684  143.7712  157.1205 H   0  0  0  0  0  0  0  0  0  0  0  0
  150.6397  144.2166  157.5420 H   0  0  0  0  0  0  0  0  0  0  0  0
  152.9804  141.7474  159.2146 H   0  0  0  0  0  0  0  0  0  0  0  0
  153.6153  141.9595  161.6235 H   0  0  0  0  0  0  0  0  0  0  0  0
  152.7614  143.9894  162.9344 H   0  0  0  0  0  0  0  0  0  0  0  0
  150.7757  145.4800  159.6291 H   0  0  0  0  0  0  0  0  0  0  0  0
  151.4397  145.5473  161.8435 H   0  0  0  0  0  0  0  0  0  0  0  0
  1  2  2  0  0  0  0
  2  3  1  0  0  0  0
  2  9  1  0  0  0  0
  3  4  1  0  0  0  0
  3 18  1  0  0  0  0
  3 19  1  0  0  0  0
  4  8  1  0  0  0  0
  4  5  1  0  0  0  0
  4 20  1  0  0  0  0
  5  6  1  0  0  0  0
  5 21  1  0  0  0  0
  5 22  1  0  0  0  0
  6  7  1  0  0  0  0
  6 23  1  0  0  0  0
  6 24  1  0  0  0  0
  7  8  1  0  0  0  0
  7 25  1  0  0  0  0
  7 26  1  0  0  0  0
  8 27  1  0  0  0  0
  8 28  1  0  0  0  0
  9 10  1  0  0  0  0
  9 29  1  0  0  0  0
 10 11  1  0  0  0  0
 10 30  1  0  0  0  0
 10 31  1  0  0  0  0
 11 12  1  0  0  0  0
 11 32  1  0  0  0  0
 11 33  1  0  0  0  0
 12 17  1  0  0  0  0
 12 13  2  0  0  0  0
 13 14  1  0  0  0  0
 13 34  1  0  0  0  0
 14 15  2  0  0  0  0
 14 35  1  0  0  0  0
 15 16  1  0  0  0  0
 15 36  1  0  0  0  0
 16 17  2  0  0  0  0
 16 38  1  0  0  0  0
 17 37  1  0  0  0  0
M  CHG  1  16   1
M  END
> <s_m_source_file>
AV-unprocessed.smi

> <i_m_source_file_index>
3175

> <i_lp_mmshare_version>
43012

> <i_f3d_flags>
0

> <s_epik_input>
W0NIMl0xW0NIMl1bQ0gyXVtDSDJdW0NIXTFbQ0gyXUMoPU8pW05IXVtDSDJdW0NIMl1jMltjSF1bY0hdW2NIXW5bY0hdMg==

> <s_epik_cmdline>
J2VwaWtfcHl0aG9uJywgJy1waCcsICc3LjAnLCAnLXRuJywgJzgnLCAnLW1hJywgJzIwMCcsICctbWV0YWxfYmluZGluZycsICctaW1hZScsICc8aW5maWxlLm1hZT4nLCAnLW9tYWUnLCAnPG91dGZpbGUubWFlPic=

> <r_epik_Ionization_Penalty>
2.25127

> <r_epik_Ionization_Penalty_Charging>
2.25127

> <r_epik_Ionization_Penalty_Neutral>
2.03742e-08

> <r_epik_State_Penalty>
2.39841

> <r_epik_Charging_Adjusted_Penalty>
4.64968

> <i_epik_Tot_Q>
1

> <i_epik_Tot_abs_Q>
1

> <r_epik_Metal_State_Penalty>
2.41158

> <b_epik_Metal_Only>
0

> <s_lp_Force_Field>
OPLS_2005

> <r_lp_Energy>
27.035

> <b_lp_Chiralities_Consistent>
1

> <s_lp_Variant>
AV-unprocessed.smi:3175-2

> <Gold.Version>
5.8.1

> <Gold.Id.Protein>
6NUR|6NUR_protein|mol2

> <Gold.PLP.Fitness>
48.1646

> <Gold.PLP.PLP>
-44.0606

> <Gold.PLP.part.hbond>
-3.0000

> <Gold.PLP.part.metal>
0.0000

> <Gold.PLP.part.buried>
-2.7767

> <Gold.PLP.part.nonpolar>
-37.4198

> <Gold.PLP.part.repulsive>
0.2264

> <Gold.PLP.ligand.clash>
0.0000

> <Gold.PLP.ligand.torsion>
0.7739

> <Gold.PLP.Chemscore.Hbond>
1.8800

> <Gold.PLP.Chemscore.CHOScore>
0.0000

> <Gold.PLP.Chemscore.Metal>
0.0000

> <Gold.Chemscore.Hbonds>
donor molecule, donor type, donor heavy atom, donor atom, acceptor molecule, acceptor atom, score
      L1  H     9    29       P1  8028  0.81
      P1  H  7989  7998       L1     1  1.00

> <Gold.PLP.Chemscore.Internal.Correction>
0.0117

> <Gold.Rescore>
     Score         DG    S(hbond)    S(metal)    S(lipo)     H(rot)  DE(clash)    DE(int)     intcor
     15.11     -17.33       0.99        0.00     108.00       1.59       1.42       0.80       ----

> <Gold.Chemscore.Fitness>
15.1125

> <Gold.Chemscore.DG>
-17.3292

> <Gold.Chemscore.ZeroCoef>
-5.4800

> <Gold.Chemscore.Hbond>
0.9857

> <Gold.Chemscore.Metal>
0.0000

> <Gold.Chemscore.Lipo>
107.9973

> <Gold.Chemscore.Internal_Hbond>
0.0000

> <Gold.Chemscore.DEClash>
1.4198

> <Gold.Chemscore.DEInternal>
0.7968

> <Gold.Chemscore.Rot>
1.5933

> <Gold.Chemscore.Internal.Correction>
   9.000000E+99

> <Gold.Chemscore.Hbonds>
donor molecule, donor type, donor heavy atom, donor atom, acceptor molecule, acceptor atom, score
      L1  H     9    29       P1  8028  0.75
      P1  H  7989  7998       L1     1  0.29

> <Gold.Chemscore.Hbond.Weighted>
-3.2924

> <Gold.Chemscore.Metal.Weighted>
-0.0000

> <Gold.Chemscore.Lipo.Weighted>
-12.6357

> <Gold.Chemscore.Internal_Hbond.Weighted>
0.0000

> <Gold.Chemscore.DEClash.Weighted>
1.4198

> <Gold.Chemscore.DEInternal.Weighted>
0.7968

> <Gold.Chemscore.Rot.Weighted>
4.0789

> <Gold.Chemscore.Internal.Correction.Weighted>
   9.000000E+99

> <Gold.Protein.RotatedTorsions>
[ 6907 6896 6895 6894 ] final -146.89 input  -60.11 | X-H torsion
[ 7974 7965 7964 7962 ] final  100.43 input  175.53 | X-H torsion
[ 8008 7997 7996 7995 ] final  -76.19 input   59.86 | X-H torsion
[ 10167 10162 10161 10158 ] final -108.41 input  -65.29 | X-H torsion
[ 10718 10713 10712 10709 ] final  -46.15 input   66.30 | X-H torsion
[ 10763 10752 10751 10750 ] final   81.44 input  -60.55 | X-H torsion
[ 11005 11000 10999 10996 ] final -164.23 input  -57.11 | X-H torsion

> <Gold.Protein.ActiveResidues>
 VAL166  LYS551  ARG553  GLY616  TRP617  ASP618  TYR619  PRO620  LYS621  CYS622 
 ASP623  PHE694  ASN695  SER759  ASP760  ASP761  ALA762  ILE779  LEU786  VAL792 
 PHE793  MET794  SER795  GLU796  ALA797  LYS798  CYS799  TRP800  GLU811  SER814 

> <Gold.Protein.RotatedAtoms>
  151.1479  133.4927  159.2595 H   0  0  0  0  0  0  0  0  0  0  0  0  # atno 6907 bound_to 6896
  151.1585  135.0261  159.8710 H   0  0  0  0  0  0  0  0  0  0  0  0  # atno 6908 bound_to 6896
  152.5463  134.1355  159.8510 H   0  0  0  0  0  0  0  0  0  0  0  0  # atno 6909 bound_to 6896
  145.3856  139.2372  143.3379 H   0  0  0  0  0  0  0  0  0  0  0  0  # atno 7974 bound_to 7965
  154.5483  140.0731  156.8626 H   0  0  0  0  0  0  0  0  0  0  0  0  # atno 8008 bound_to 7997
  155.3043  140.3386  155.4228 H   0  0  0  0  0  0  0  0  0  0  0  0  # atno 8009 bound_to 7997
  156.1938  140.1696  156.8025 H   0  0  0  0  0  0  0  0  0  0  0  0  # atno 8010 bound_to 7997
  140.1665  143.4078  152.1387 H   0  0  0  0  0  0  0  0  0  0  0  0  # atno 10167 bound_to 10162
  156.2212  130.4166  149.8991 H   0  0  0  0  0  0  0  0  0  0  0  0  # atno 10718 bound_to 10713
  153.1117  135.4765  154.9047 H   0  0  0  0  0  0  0  0  0  0  0  0  # atno 10763 bound_to 10752
  154.7488  135.3100  154.8599 H   0  0  0  0  0  0  0  0  0  0  0  0  # atno 10764 bound_to 10752
  153.9186  135.6857  153.4802 H   0  0  0  0  0  0  0  0  0  0  0  0  # atno 10765 bound_to 10752
  140.5893  134.5061  157.5190 H   0  0  0  0  0  0  0  0  0  0  0  0  # atno 11005 bound_to 11000
  146.2821  140.4531  142.8772 LP  0  0  0  0  0  0  0  0  0  0  0  0  # atno 17320 bound_to 7965
  144.8476  140.6953  143.6189 LP  0  0  0  0  0  0  0  0  0  0  0  0  # atno 17321 bound_to 7965
  139.5357  144.7207  151.4901 LP  0  0  0  0  0  0  0  0  0  0  0  0  # atno 17342 bound_to 10162
  140.6610  143.8499  150.6888 LP  0  0  0  0  0  0  0  0  0  0  0  0  # atno 17343 bound_to 10162
  156.6637  130.8792  151.3551 LP  0  0  0  0  0  0  0  0  0  0  0  0  # atno 17370 bound_to 10713
  157.7088  130.9416  150.1019 LP  0  0  0  0  0  0  0  0  0  0  0  0  # atno 17371 bound_to 10713
  139.9281  134.8016  156.1008 LP  0  0  0  0  0  0  0  0  0  0  0  0  # atno 17394 bound_to 11000
  141.0945  133.6701  156.2615 LP  0  0  0  0  0  0  0  0  0  0  0  0  # atno 17395 bound_to 11000

$$$$
