#       Name:                AV-unprocessed.smi:3334
#       Creating user name   scv26
#       Creation time:       Fri Mar 27 19:21:55 2020


#       File generated by GOLD software.
#

@<TRIPOS>MOLECULE
AV-unprocessed.smi:3334
    44    45     1
SMALL
NO_CHARGES


@<TRIPOS>ATOM
      1 ****        -3.7081   0.9326   2.1928 C.3            1 S1                 0.0000
      2 ****        -2.3795   1.1180   1.4456 C.3            1 S1                 0.0000
      3 ****        -2.5712   1.2213  -0.0730 C.3            1 S1                 0.0000
      4 ****        -1.3781   0.0659   1.8098 C.2            1 S1                 0.0000
      5 ****        -0.1587   0.3495   2.2742 N.2            1 S1                 0.0000
      6 ****         0.6020  -0.7931   2.5430 C.2            1 S1                 0.0000
      7 ****         2.0157  -0.6483   3.0337 C.3            1 S1                 0.0000
      8 ****         3.0654  -0.7244   1.9086 C.3            1 S1                 0.0000
      9 ****         2.6764   0.0852   0.7577 N.am           1 S1                 0.0000
     10 ****         2.8491  -0.2610  -0.5257 C.2            1 S1                 0.0000
     11 ****         3.5177  -1.2305  -0.8844 O.2            1 S1                 0.0000
     12 ****         2.1188   0.5988  -1.5625 C.3            1 S1                 0.0000
     13 ****         1.2639  -0.2323  -2.5454 C.3            1 S1                 0.0000
     14 ****         0.2043  -1.0769  -1.8770 C.2            1 S1                 0.0000
     15 ****        -1.0042  -0.8964  -2.4034 C.2            1 S1                 0.0000
     16 ****        -1.0007   0.1104  -3.5196 C.3            1 S1                 0.0000
     17 ****         0.4520   0.6367  -3.5395 C.3            1 S1                 0.0000
     18 ****        -0.0598  -1.9610   2.2577 C.2            1 S1                 0.0000
     19 ****        -1.6605  -1.6650   1.6355 S.3            1 S1                 0.0000
     20 ****        -3.5530   0.9252   3.2722 H              1 S1                 0.0000
     21 ****        -4.1933  -0.0045   1.9186 H              1 S1                 0.0000
     22 ****        -4.4019   1.7421   1.9653 H              1 S1                 0.0000
     23 ****        -1.9687   2.0734   1.7752 H              1 S1                 0.0000
     24 ****        -1.6241   1.4252  -0.5736 H              1 S1                 0.0000
     25 ****        -3.2591   2.0273  -0.3287 H              1 S1                 0.0000
     26 ****        -2.9767   0.2969  -0.4847 H              1 S1                 0.0000
     27 ****         2.1253   0.3071   3.5487 H              1 S1                 0.0000
     28 ****         2.2344  -1.4095   3.7831 H              1 S1                 0.0000
     29 ****         4.0423  -0.4053   2.2726 H              1 S1                 0.0000
     30 ****         3.1683  -1.7682   1.6075 H              1 S1                 0.0000
     31 ****         2.1202   0.9056   0.9518 H              1 S1                 0.0000
     32 ****         1.4857   1.3255  -1.0502 H              1 S1                 0.0000
     33 ****         2.8628   1.1730  -2.1153 H              1 S1                 0.0000
     34 ****         1.9085  -0.9104  -3.1068 H              1 S1                 0.0000
     35 ****         0.4301  -1.7629  -1.0734 H              1 S1                 0.0000
     36 ****        -1.9021  -1.4080  -2.0899 H              1 S1                 0.0000
     37 ****        -1.2670  -0.3770  -4.4578 H              1 S1                 0.0000
     38 ****        -1.7185   0.9071  -3.3225 H              1 S1                 0.0000
     39 ****         0.4613   1.6837  -3.2336 H              1 S1                 0.0000
     40 ****         0.8777   0.5956  -4.5426 H              1 S1                 0.0000
     41 ****         0.3028  -2.9732   2.3574 H              1 S1                 0.0000
     42 ****         0.1757   1.2814   2.4150 LP             1 S1                 0.0000
     43 ****         3.9670  -1.8078  -0.2026 LP             1 S1                 0.0000
     44 ****         3.6115  -1.4407  -1.8576 LP             1 S1                 0.0000
@<TRIPOS>BOND
    1    1    2 1     
    2    1   20 1     
    3    1   21 1     
    4    1   22 1     
    5    2    3 1     
    6    2    4 1     
    7    2   23 1     
    8    3   24 1     
    9    3   25 1     
   10    3   26 1     
   11    4   19 1     
   12    4    5 2     
   13    5    6 1     
   14    6    7 1     
   15    6   18 2     
   16    7    8 1     
   17    7   27 1     
   18    7   28 1     
   19    8    9 1     
   20    8   29 1     
   21    8   30 1     
   22    9   10 am    
   23    9   31 1     
   24   10   11 2     
   25   10   12 1     
   26   12   13 1     
   27   12   32 1     
   28   12   33 1     
   29   13   17 1     
   30   13   14 1     
   31   13   34 1     
   32   14   15 2     
   33   14   35 1     
   34   15   16 1     
   35   15   36 1     
   36   16   17 1     
   37   16   37 1     
   38   16   38 1     
   39   17   39 1     
   40   17   40 1     
   41   18   19 1     
   42   18   41 1     
   43    5   42 1     
   44   11   43 1     
   45   11   44 1     
@<TRIPOS>SUBSTRUCTURE
      1 S1             1
@<TRIPOS>SET
LONE_PAIRS      STATIC     ATOMS    <user>   **** ""
3 42 43 44
DONOR_HYDROGENS      STATIC     ATOMS    <user>   **** ""
1 31
ATOM$BLUE        STATIC     ATOMS    COLORGROUP SYSTEM
3 42 43 44
ATOM$RED        STATIC     ATOMS    COLORGROUP SYSTEM
1 31
