#       Name:                AV-unprocessed.smi:3098
#       Creating user name   scv26
#       Creation time:       Fri Mar 27 17:17:44 2020


#       File generated by GOLD software.
#

@<TRIPOS>MOLECULE
AV-unprocessed.smi:3098
    34    35     1
SMALL
NO_CHARGES


@<TRIPOS>ATOM
      1 ****        -4.5199   1.2022  -0.4036 N.4            1 S1                 1.0000
      2 ****        -3.9984  -0.1745  -0.4216 C.3            1 S1                 0.0000
      3 ****        -2.4841  -0.1828  -0.3627 C.ar           1 S1                 0.0000
      4 ****        -1.8075  -0.1971   0.8751 C.ar           1 S1                 0.0000
      5 ****        -0.4624  -0.1993   0.9851 N.ar           1 S1                 0.0000
      6 ****         0.2776  -0.1914  -0.1505 C.ar           1 S1                 0.0000
      7 ****         1.6751  -0.1908  -0.0327 N.3            1 S1                 0.0000
      8 ****         2.2096   1.0329   0.5519 C.3            1 S1                 0.0000
      9 ****         3.7475   1.0029   0.5195 C.3            1 S1                 0.0000
     10 ****         4.2161  -0.1665   1.1851 O.3            1 S1                 0.0000
     11 ****         3.7494  -1.3603   0.5626 C.3            1 S1                 0.0000
     12 ****         2.2115  -1.3916   0.5961 C.3            1 S1                 0.0000
     13 ****        -0.3079  -0.1808  -1.4357 C.ar           1 S1                 0.0000
     14 ****         0.4608  -0.1724  -2.5512 F              1 S1                 0.0000
     15 ****        -1.7119  -0.1780  -1.5423 C.ar           1 S1                 0.0000
     16 ****        -5.5292   1.1814  -0.4397 H              1 S1                 0.0000
     17 ****        -4.1656   1.7082  -1.2028 H              1 S1                 0.0000
     18 ****        -4.4062  -0.7257   0.4263 H              1 S1                 0.0000
     19 ****        -4.3393  -0.6777  -1.3271 H              1 S1                 0.0000
     20 ****        -2.3599  -0.2011   1.8032 H              1 S1                 0.0000
     21 ****         1.8398   1.8989   0.0014 H              1 S1                 0.0000
     22 ****         1.8634   1.1321   1.5817 H              1 S1                 0.0000
     23 ****         4.1163   1.0222  -0.5074 H              1 S1                 0.0000
     24 ****         4.1518   1.8828   1.0203 H              1 S1                 0.0000
     25 ****         4.1181  -1.4164  -0.4629 H              1 S1                 0.0000
     26 ****         4.1546  -2.2206   1.0951 H              1 S1                 0.0000
     27 ****         1.8660  -1.4546   1.6290 H              1 S1                 0.0000
     28 ****         1.8431  -2.2770   0.0767 H              1 S1                 0.0000
     29 ****        -2.1849  -0.1697  -2.5135 H              1 S1                 0.0000
     30 ****        -4.2242   1.6644   0.4445 H              1 S1                 0.0000
     31 ****        -0.0222  -0.2066   1.8830 LP             1 S1                 0.0000
     32 ****         2.0053  -0.2101  -0.9764 LP             1 S1                 0.0000
     33 ****         3.8946  -0.1495   2.1318 LP             1 S1                 0.0000
     34 ****         5.2160  -0.1659   1.1726 LP             1 S1                 0.0000
@<TRIPOS>BOND
    1    1    2 1     
    2    1   16 1     
    3    1   17 1     
    4    1   30 1     
    5    2    3 1     
    6    2   18 1     
    7    2   19 1     
    8    3   15 ar    
    9    3    4 ar    
   10    4    5 ar    
   11    4   20 1     
   12    5    6 ar    
   13    6    7 1     
   14    6   13 ar    
   15    7   12 1     
   16    7    8 1     
   17    8    9 1     
   18    8   21 1     
   19    8   22 1     
   20    9   10 1     
   21    9   23 1     
   22    9   24 1     
   23   10   11 1     
   24   11   12 1     
   25   11   25 1     
   26   11   26 1     
   27   12   27 1     
   28   12   28 1     
   29   13   14 1     
   30   13   15 ar    
   31   15   29 1     
   32    5   31 1     
   33    7   32 1     
   34   10   33 1     
   35   10   34 1     
@<TRIPOS>SUBSTRUCTURE
      1 S1             1
@<TRIPOS>SET
LONE_PAIRS      STATIC     ATOMS    <user>   **** ""
4 31 32 33 34
DONOR_HYDROGENS      STATIC     ATOMS    <user>   **** ""
3 16 17 30
ATOM$BLUE        STATIC     ATOMS    COLORGROUP SYSTEM
4 31 32 33 34
ATOM$RED        STATIC     ATOMS    COLORGROUP SYSTEM
3 16 17 30
