AV-unprocessed.smi:1207|AV-procd|sdf|5058|dock3
  -GOLD-   22720 4 93D 1   1.00000     0.00000
 Structure written by MMmdl.
 53 55  0  0  0  0  0  0  0  0  3 V2000
  152.5007  143.8768  160.8807 C   0  0  0  0  0  0  0  0  0  0  0  0
  152.1732  142.9889  159.6922 C   0  0  0  0  0  0  0  0  0  0  0  0
  152.3914  141.5976  159.8097 C   0  0  0  0  0  0  0  0  0  0  0  0
  152.0853  140.8121  158.7048 C   0  0  0  0  0  0  0  0  0  0  0  0
  152.1867  139.4338  158.5049 N   0  3  0  0  0  0  0  0  0  0  0  0
  151.7660  139.1244  157.2470 C   0  0  0  0  0  0  0  0  0  0  0  0
  151.3994  140.2863  156.6398 N   0  0  0  0  0  0  0  0  0  0  0  0
  150.8801  140.5249  155.2863 C   0  0  0  0  0  0  0  0  0  0  0  0
  149.4121  140.0839  155.1241 C   0  0  1  0  0  0  0  0  0  0  0  0
  148.6133  141.2162  154.8394 O   0  0  0  0  0  0  0  0  0  0  0  0
  149.2350  139.0516  153.9928 C   0  0  0  0  0  0  0  0  0  0  0  0
  149.5088  137.6691  154.4609 N   0  3  1  0  0  0  0  0  0  0  0  0
  150.9259  137.4738  154.8454 C   0  0  0  0  0  0  0  0  0  0  0  0
  148.5644  137.2078  155.5107 C   0  0  0  0  0  0  0  0  0  0  0  0
  149.0721  135.9567  156.1762 C   0  0  0  0  0  0  0  0  0  0  0  0
  149.4113  135.7839  157.5487 C   0  0  0  0  0  0  0  0  0  0  0  0
  149.3407  136.7915  158.6606 C   0  0  0  0  0  0  0  0  0  0  0  0
  149.8233  134.5546  157.8047 N   0  0  0  0  0  0  0  0  0  0  0  0
  149.7736  133.8724  156.5855 O   0  0  0  0  0  0  0  0  0  0  0  0
  149.3243  134.7268  155.6318 C   0  0  0  0  0  0  0  0  0  0  0  0
  149.2038  134.1734  154.2521 C   0  0  0  0  0  0  0  0  0  0  0  0
  151.5774  141.3647  157.5132 C   0  0  0  0  0  0  0  0  0  0  0  0
  151.3527  142.7329  157.3816 C   0  0  0  0  0  0  0  0  0  0  0  0
  151.6603  143.5493  158.4934 C   0  0  0  0  0  0  0  0  0  0  0  0
  151.4299  145.0467  158.3785 C   0  0  0  0  0  0  0  0  0  0  0  0
  152.8773  143.2949  161.7223 H   0  0  0  0  0  0  0  0  0  0  0  0
  151.6118  144.4110  161.2172 H   0  0  0  0  0  0  0  0  0  0  0  0
  153.2644  144.6074  160.6133 H   0  0  0  0  0  0  0  0  0  0  0  0
  152.7804  141.1642  160.7196 H   0  0  0  0  0  0  0  0  0  0  0  0
  151.7335  138.1365  156.8104 H   0  0  0  0  0  0  0  0  0  0  0  0
  150.9837  141.5907  155.0774 H   0  0  0  0  0  0  0  0  0  0  0  0
  151.5255  140.0051  154.5769 H   0  0  0  0  0  0  0  0  0  0  0  0
  149.0666  139.6667  156.0689 H   0  0  0  0  0  0  0  0  0  0  0  0
  148.9926  141.6799  154.1080 H   0  0  0  0  0  0  0  0  0  0  0  0
  148.2163  139.1269  153.6085 H   0  0  0  0  0  0  0  0  0  0  0  0
  149.8922  139.2806  153.1522 H   0  0  0  0  0  0  0  0  0  0  0  0
  151.1870  138.0920  155.7052 H   0  0  0  0  0  0  0  0  0  0  0  0
  151.5895  137.7367  154.0211 H   0  0  0  0  0  0  0  0  0  0  0  0
  151.1237  136.4324  155.0993 H   0  0  0  0  0  0  0  0  0  0  0  0
  148.3969  138.0111  156.2292 H   0  0  0  0  0  0  0  0  0  0  0  0
  147.5857  137.0110  155.0739 H   0  0  0  0  0  0  0  0  0  0  0  0
  149.8125  137.7300  158.3691 H   0  0  0  0  0  0  0  0  0  0  0  0
  149.8447  136.4368  159.5603 H   0  0  0  0  0  0  0  0  0  0  0  0
  148.3053  137.0078  158.9240 H   0  0  0  0  0  0  0  0  0  0  0  0
  148.6292  134.8385  153.6080 H   0  0  0  0  0  0  0  0  0  0  0  0
  148.7027  133.2053  154.2671 H   0  0  0  0  0  0  0  0  0  0  0  0
  150.1885  134.0369  153.8047 H   0  0  0  0  0  0  0  0  0  0  0  0
  150.9609  143.1592  156.4702 H   0  0  0  0  0  0  0  0  0  0  0  0
  151.0420  145.3172  157.3960 H   0  0  0  0  0  0  0  0  0  0  0  0
  152.3628  145.5906  158.5291 H   0  0  0  0  0  0  0  0  0  0  0  0
  150.7091  145.3817  159.1248 H   0  0  0  0  0  0  0  0  0  0  0  0
  149.3551  137.0793  153.6549 H   0  0  0  0  0  0  0  0  0  0  0  0
  152.5176  138.7518  159.1760 H   0  0  0  0  0  0  0  0  0  0  0  0
  1  2  1  0  0  0  0
  1 26  1  0  0  0  0
  1 27  1  0  0  0  0
  1 28  1  0  0  0  0
  2 24  1  0  0  0  0
  2  3  2  0  0  0  0
  3  4  1  0  0  0  0
  3 29  1  0  0  0  0
  4 22  2  0  0  0  0
  4  5  1  0  0  0  0
  5  6  2  0  0  0  0
  5 53  1  0  0  0  0
  6  7  1  0  0  0  0
  6 30  1  0  0  0  0
  7  8  1  0  0  0  0
  7 22  1  0  0  0  0
  8  9  1  0  0  0  0
  8 31  1  0  0  0  0
  8 32  1  0  0  0  0
  9 10  1  0  0  0  0
  9 11  1  0  0  0  0
  9 33  1  0  0  0  0
 10 34  1  0  0  0  0
 11 12  1  0  0  0  0
 11 35  1  0  0  0  0
 11 36  1  0  0  0  0
 12 13  1  0  0  0  0
 12 14  1  0  0  0  0
 12 52  1  0  0  0  0
 13 37  1  0  0  0  0
 13 38  1  0  0  0  0
 13 39  1  0  0  0  0
 14 15  1  0  0  0  0
 14 40  1  0  0  0  0
 14 41  1  0  0  0  0
 15 20  2  0  0  0  0
 15 16  1  0  0  0  0
 16 17  1  0  0  0  0
 16 18  2  0  0  0  0
 17 42  1  0  0  0  0
 17 43  1  0  0  0  0
 17 44  1  0  0  0  0
 18 19  1  0  0  0  0
 19 20  1  0  0  0  0
 20 21  1  0  0  0  0
 21 45  1  0  0  0  0
 21 46  1  0  0  0  0
 21 47  1  0  0  0  0
 22 23  1  0  0  0  0
 23 24  2  0  0  0  0
 23 48  1  0  0  0  0
 24 25  1  0  0  0  0
 25 49  1  0  0  0  0
 25 50  1  0  0  0  0
 25 51  1  0  0  0  0
M  CHG  1   5   1
M  CHG  1  12   1
M  END
> <s_m_source_file>
AV-unprocessed.smi

> <i_m_source_file_index>
1207

> <i_lp_mmshare_version>
43012

> <i_f3d_flags>
0

> <s_epik_input>
W0NIM11jKFtjSF0xKWMoW0NIM10pW2NIXWMoYzEyKW4oW2NIXW4yKVtDSDJdW0NASF0oW09IXSlbQ0gyXU4oW0NIM10pW0NIMl1jM2MoW0NIM10pbm9jM1tDSDNd

> <s_epik_cmdline>
J2VwaWtfcHl0aG9uJywgJy1waCcsICc3LjAnLCAnLXRuJywgJzgnLCAnLW1hJywgJzIwMCcsICctbWV0YWxfYmluZGluZycsICctaW1hZScsICc8aW5maWxlLm1hZT4nLCAnLW9tYWUnLCAnPG91dGZpbGUubWFlPic=

> <r_epik_Ionization_Penalty>
1.77463

> <r_epik_Ionization_Penalty_Charging>
1.77463

> <r_epik_Ionization_Penalty_Neutral>
3.70885e-06

> <r_epik_State_Penalty>
1.85225

> <r_epik_Charging_Adjusted_Penalty>
3.62688

> <i_epik_Tot_Q>
2

> <i_epik_Tot_abs_Q>
2

> <r_epik_Metal_State_Penalty>
1.92674

> <b_epik_Metal_Only>
0

> <s_lp_Force_Field>
OPLS_2005

> <r_lp_Energy>
18.8212

> <b_lp_Chiralities_Consistent>
1

> <s_lp_Variant>
AV-unprocessed.smi:1207-10

> <Gold.Version>
5.8.1

> <Gold.Id.Protein>
6NUR|6NUR_protein|mol2

> <Gold.PLP.Fitness>
48.2760

> <Gold.PLP.PLP>
-42.3966

> <Gold.PLP.part.hbond>
-2.0000

> <Gold.PLP.part.metal>
0.0000

> <Gold.PLP.part.buried>
-2.3029

> <Gold.PLP.part.nonpolar>
-37.5513

> <Gold.PLP.part.repulsive>
0.0941

> <Gold.PLP.ligand.clash>
0.3502

> <Gold.PLP.ligand.torsion>
1.3705

> <Gold.PLP.Chemscore.Hbond>
2.9120

> <Gold.PLP.Chemscore.CHOScore>
0.0000

> <Gold.PLP.Chemscore.Metal>
0.0000

> <Gold.Chemscore.Hbonds>
donor molecule, donor type, donor heavy atom, donor atom, acceptor molecule, acceptor atom, score
      L1  H    12    52       P1  7948  2.00
      P1  H  6896  6909       L1    18  0.94

> <Gold.PLP.Chemscore.Internal.Correction>
0.2348

> <Gold.Rescore>
     Score         DG    S(hbond)    S(metal)    S(lipo)     H(rot)  DE(clash)    DE(int)     intcor
     18.32     -19.89       1.94        0.00     123.15       2.54       0.15       1.42       ----

> <Gold.Chemscore.Fitness>
18.3245

> <Gold.Chemscore.DG>
-19.8900

> <Gold.Chemscore.ZeroCoef>
-5.4800

> <Gold.Chemscore.Hbond>
1.9437

> <Gold.Chemscore.Metal>
0.0000

> <Gold.Chemscore.Lipo>
123.1451

> <Gold.Chemscore.Internal_Hbond>
0.0000

> <Gold.Chemscore.DEClash>
0.1456

> <Gold.Chemscore.DEInternal>
1.4199

> <Gold.Chemscore.Rot>
2.5351

> <Gold.Chemscore.Internal.Correction>
   9.000000E+99

> <Gold.Chemscore.Hbonds>
donor molecule, donor type, donor heavy atom, donor atom, acceptor molecule, acceptor atom, score
      L1  H    12    52       P1  7948  0.93
      P1  H  6896  6909       L1    18  0.91

> <Gold.Chemscore.Hbond.Weighted>
-6.4920

> <Gold.Chemscore.Metal.Weighted>
-0.0000

> <Gold.Chemscore.Lipo.Weighted>
-14.4080

> <Gold.Chemscore.Internal_Hbond.Weighted>
0.0000

> <Gold.Chemscore.DEClash.Weighted>
0.1456

> <Gold.Chemscore.DEInternal.Weighted>
1.4199

> <Gold.Chemscore.Rot.Weighted>
6.4900

> <Gold.Chemscore.Internal.Correction.Weighted>
   9.000000E+99

> <Gold.Protein.RotatedTorsions>
[ 6907 6896 6895 6894 ] final   12.17 input  -60.11 | X-H torsion
[ 7974 7965 7964 7962 ] final -134.17 input  175.53 | X-H torsion
[ 8008 7997 7996 7995 ] final -116.04 input   59.86 | X-H torsion
[ 10167 10162 10161 10158 ] final  107.67 input  -65.29 | X-H torsion
[ 10718 10713 10712 10709 ] final  -84.89 input   66.30 | X-H torsion
[ 10763 10752 10751 10750 ] final  169.96 input  -60.55 | X-H torsion
[ 11005 11000 10999 10996 ] final  -73.99 input  -57.11 | X-H torsion

> <Gold.Protein.ActiveResidues>
 VAL166  LYS551  ARG553  GLY616  TRP617  ASP618  TYR619  PRO620  LYS621  CYS622 
 ASP623  PHE694  ASN695  SER759  ASP760  ASP761  ALA762  ILE779  LEU786  VAL792 
 PHE793  MET794  SER795  GLU796  ALA797  LYS798  CYS799  TRP800  GLU811  SER814 

> <Gold.Protein.RotatedAtoms>
  151.7661  135.0798  160.0352 H   0  0  0  0  0  0  0  0  0  0  0  0  # atno 6907 bound_to 6896
  152.3320  133.5965  159.5825 H   0  0  0  0  0  0  0  0  0  0  0  0  # atno 6908 bound_to 6896
  150.7428  133.9769  159.3605 H   0  0  0  0  0  0  0  0  0  0  0  0  # atno 6909 bound_to 6896
  144.9127  140.6916  143.5015 H   0  0  0  0  0  0  0  0  0  0  0  0  # atno 7974 bound_to 7965
  155.0615  140.0393  157.2578 H   0  0  0  0  0  0  0  0  0  0  0  0  # atno 8008 bound_to 7997
  154.7056  140.2682  155.6653 H   0  0  0  0  0  0  0  0  0  0  0  0  # atno 8009 bound_to 7997
  156.2774  140.2732  156.1681 H   0  0  0  0  0  0  0  0  0  0  0  0  # atno 8010 bound_to 7997
  139.6908  144.7108  151.1351 H   0  0  0  0  0  0  0  0  0  0  0  0  # atno 10167 bound_to 10162
  156.0002  130.4713  150.4479 H   0  0  0  0  0  0  0  0  0  0  0  0  # atno 10718 bound_to 10713
  154.3906  135.2754  155.2157 H   0  0  0  0  0  0  0  0  0  0  0  0  # atno 10763 bound_to 10752
  154.4224  135.5997  153.6022 H   0  0  0  0  0  0  0  0  0  0  0  0  # atno 10764 bound_to 10752
  152.9832  135.5976  154.4161 H   0  0  0  0  0  0  0  0  0  0  0  0  # atno 10765 bound_to 10752
  141.1630  133.6896  156.7297 H   0  0  0  0  0  0  0  0  0  0  0  0  # atno 11005 bound_to 11000
  145.3427  139.1728  143.4477 LP  0  0  0  0  0  0  0  0  0  0  0  0  # atno 17320 bound_to 7965
  146.3166  140.3470  142.8653 LP  0  0  0  0  0  0  0  0  0  0  0  0  # atno 17321 bound_to 7965
  140.7682  143.5561  150.9150 LP  0  0  0  0  0  0  0  0  0  0  0  0  # atno 17342 bound_to 10162
  139.9239  143.6573  152.3091 LP  0  0  0  0  0  0  0  0  0  0  0  0  # atno 17343 bound_to 10162
  157.2515  131.0547  151.2376 LP  0  0  0  0  0  0  0  0  0  0  0  0  # atno 17370 bound_to 10713
  157.3524  130.7089  149.6449 LP  0  0  0  0  0  0  0  0  0  0  0  0  # atno 17371 bound_to 10713
  140.2755  134.8359  157.3886 LP  0  0  0  0  0  0  0  0  0  0  0  0  # atno 17394 bound_to 11000
  140.1482  134.4884  155.7981 LP  0  0  0  0  0  0  0  0  0  0  0  0  # atno 17395 bound_to 11000

$$$$
