AV-unprocessed.smi:21|AV-procd|sdf|146|dock8
  -GOLD-   2262015363D 1   1.00000     0.00000
 Structure written by MMmdl.
 62 65  0  0  0  0  0  0  0  0  2 V2000
  145.9125  131.8970  150.5743 C   0  0  0  0  0  0  0  0  0  0  0  0
  146.1143  133.2707  150.8660 O   0  0  0  0  0  0  0  0  0  0  0  0
  144.9551  134.0722  150.6785 C   0  0  2  0  0  0  0  0  0  0  0  0
  145.2891  135.5118  151.0439 C   0  0  0  0  0  0  0  0  0  0  0  0
  145.1828  135.5453  152.5749 C   0  0  1  0  0  0  0  0  0  0  0  0
  144.9190  136.9562  153.1587 C   0  0  0  0  0  0  0  0  0  0  0  0
  146.1201  137.7944  153.1701 N   0  0  0  0  0  0  0  0  0  0  0  0
  146.5458  138.4053  151.9171 C   0  0  0  0  0  0  0  0  0  0  0  0
  146.5860  138.2841  154.3529 C   0  0  0  0  0  0  0  0  0  0  0  0
  146.1126  137.7334  155.5024 N   0  0  0  0  0  0  0  0  0  0  0  0
  146.5213  138.1779  156.6932 C   0  0  0  0  0  0  0  0  0  0  0  0
  147.3857  139.1550  156.9646 N   0  0  0  0  0  0  0  0  0  0  0  0
  147.8702  139.7165  155.8213 C   0  0  0  0  0  0  0  0  0  0  0  0
  147.5284  139.3496  154.4866 C   0  0  0  0  0  0  0  0  0  0  0  0
  148.2106  140.1711  153.5944 N   0  0  0  0  0  0  0  0  0  0  0  0
  148.9176  140.9631  154.3519 C   0  0  0  0  0  0  0  0  0  0  0  0
  148.7863  140.7472  155.7038 N   0  0  0  0  0  0  0  0  0  0  0  0
  149.4430  141.4869  156.7673 C   0  0  0  0  0  0  0  0  0  0  0  0
  150.9933  141.4765  156.7052 C   0  0  2  0  0  0  0  0  0  0  0  0
  151.4850  140.0245  156.5018 C   0  0  0  0  0  0  0  0  0  0  0  0
  151.5187  139.6708  155.1340 O   0  0  0  0  0  0  0  0  0  0  0  0
  151.6905  142.1809  157.9062 C   0  0  1  0  0  0  0  0  0  0  0  0
  151.3132  143.6426  158.0907 C   0  0  0  0  0  0  0  0  0  0  0  0
  151.7523  143.9101  159.5225 C   0  0  0  0  0  0  0  0  0  0  0  0
  151.4379  142.7142  160.2195 O   0  0  0  0  0  0  0  0  0  0  0  0
  151.3450  141.6303  159.2997 C   0  0  0  0  0  0  0  0  0  0  0  0
  144.1826  134.4955  152.9288 N   0  3  1  0  0  0  0  0  0  0  0  0
  142.9720  134.9186  153.6719 C   0  0  0  0  0  0  0  0  0  0  0  0
  143.8712  133.7226  151.7031 C   0  0  0  0  0  0  0  0  0  0  0  0
  144.5979  134.0034  149.6494 H   0  0  0  0  0  0  0  0  0  0  0  0
  146.1275  135.1798  152.9797 H   0  0  0  0  0  0  0  0  0  0  0  0
  146.8392  131.3495  150.7451 H   0  0  0  0  0  0  0  0  0  0  0  0
  145.6288  131.7553  149.5307 H   0  0  0  0  0  0  0  0  0  0  0  0
  145.1429  131.4558  151.2077 H   0  0  0  0  0  0  0  0  0  0  0  0
  146.2677  135.8249  150.6776 H   0  0  0  0  0  0  0  0  0  0  0  0
  144.5429  136.1749  150.6042 H   0  0  0  0  0  0  0  0  0  0  0  0
  144.0993  137.4441  152.6319 H   0  0  0  0  0  0  0  0  0  0  0  0
  144.5889  136.8661  154.1936 H   0  0  0  0  0  0  0  0  0  0  0  0
  147.6224  138.5792  151.9132 H   0  0  0  0  0  0  0  0  0  0  0  0
  146.0340  139.3543  151.7561 H   0  0  0  0  0  0  0  0  0  0  0  0
  146.3164  137.7532  151.0737 H   0  0  0  0  0  0  0  0  0  0  0  0
  146.0943  137.6792  157.5508 H   0  0  0  0  0  0  0  0  0  0  0  0
  149.5642  141.7251  153.9411 H   0  0  0  0  0  0  0  0  0  0  0  0
  149.0744  142.5132  156.7498 H   0  0  0  0  0  0  0  0  0  0  0  0
  149.1061  141.0577  157.7116 H   0  0  0  0  0  0  0  0  0  0  0  0
  151.2886  142.0134  155.8034 H   0  0  0  0  0  0  0  0  0  0  0  0
  152.4855  139.9005  156.9169 H   0  0  0  0  0  0  0  0  0  0  0  0
  150.8500  139.3154  157.0326 H   0  0  0  0  0  0  0  0  0  0  0  0
  152.0412  138.8894  155.0379 H   0  0  0  0  0  0  0  0  0  0  0  0
  152.7725  142.1289  157.7739 H   0  0  0  0  0  0  0  0  0  0  0  0
  151.8018  144.3071  157.3775 H   0  0  0  0  0  0  0  0  0  0  0  0
  150.2339  143.7748  158.0012 H   0  0  0  0  0  0  0  0  0  0  0  0
  152.8299  144.0734  159.5678 H   0  0  0  0  0  0  0  0  0  0  0  0
  151.2558  144.7750  159.9629 H   0  0  0  0  0  0  0  0  0  0  0  0
  150.3236  141.2494  159.3325 H   0  0  0  0  0  0  0  0  0  0  0  0
  152.0152  140.8273  159.6036 H   0  0  0  0  0  0  0  0  0  0  0  0
  142.3899  135.6463  153.1050 H   0  0  0  0  0  0  0  0  0  0  0  0
  143.2314  135.3498  154.6387 H   0  0  0  0  0  0  0  0  0  0  0  0
  142.3330  134.0564  153.8656 H   0  0  0  0  0  0  0  0  0  0  0  0
  142.9055  134.0432  151.3084 H   0  0  0  0  0  0  0  0  0  0  0  0
  143.7963  132.6563  151.9142 H   0  0  0  0  0  0  0  0  0  0  0  0
  144.6753  133.8602  153.5406 H   0  0  0  0  0  0  0  0  0  0  0  0
  1  2  1  0  0  0  0
  1 32  1  0  0  0  0
  1 33  1  0  0  0  0
  1 34  1  0  0  0  0
  2  3  1  0  0  0  0
  3 30  1  0  0  0  0
  3 29  1  0  0  0  0
  3  4  1  0  0  0  0
  4  5  1  0  0  0  0
  4 35  1  0  0  0  0
  4 36  1  0  0  0  0
  5 31  1  0  0  0  0
  5  6  1  0  0  0  0
  5 27  1  0  0  0  0
  6  7  1  0  0  0  0
  6 37  1  0  0  0  0
  6 38  1  0  0  0  0
  7  8  1  0  0  0  0
  7  9  1  0  0  0  0
  8 39  1  0  0  0  0
  8 40  1  0  0  0  0
  8 41  1  0  0  0  0
  9 14  1  0  0  0  0
  9 10  2  0  0  0  0
 10 11  1  0  0  0  0
 11 12  2  0  0  0  0
 11 42  1  0  0  0  0
 12 13  1  0  0  0  0
 13 17  1  0  0  0  0
 13 14  2  0  0  0  0
 14 15  1  0  0  0  0
 15 16  2  0  0  0  0
 16 17  1  0  0  0  0
 16 43  1  0  0  0  0
 17 18  1  0  0  0  0
 18 19  1  0  0  0  0
 18 44  1  0  0  0  0
 18 45  1  0  0  0  0
 19 20  1  0  0  0  0
 19 22  1  0  0  0  0
 19 46  1  0  0  0  0
 20 21  1  0  0  0  0
 20 47  1  0  0  0  0
 20 48  1  0  0  0  0
 21 49  1  0  0  0  0
 22 26  1  0  0  0  0
 22 23  1  0  0  0  0
 22 50  1  0  0  0  0
 23 24  1  0  0  0  0
 23 51  1  0  0  0  0
 23 52  1  0  0  0  0
 24 25  1  0  0  0  0
 24 53  1  0  0  0  0
 24 54  1  0  0  0  0
 25 26  1  0  0  0  0
 26 55  1  0  0  0  0
 26 56  1  0  0  0  0
 27 28  1  0  0  0  0
 27 29  1  0  0  0  0
 27 62  1  0  0  0  0
 28 57  1  0  0  0  0
 28 58  1  0  0  0  0
 28 59  1  0  0  0  0
 29 60  1  0  0  0  0
 29 61  1  0  0  0  0
M  CHG  1  27   1
M  END
> <s_m_source_file>
AV-unprocessed.smi

> <i_m_source_file_index>
21

> <i_lp_mmshare_version>
43012

> <i_f3d_flags>
0

> <s_epik_input>
W0NIM11PW0NASF0xW0NIMl1bQ0BIXShOKFtDSDNdKVtDSDJdMSlbQ0gyXU4oW0NIM10pYyhuW2NIXW4yKWMoYzIzKW5bY0hdbjNbQ0gyXVtDQEhdKFtDSDJdW09IXSlbQ0BASF00W0NIMl1bQ0gyXU9bQ0gyXTQ=

> <s_epik_cmdline>
J2VwaWtfcHl0aG9uJywgJy1waCcsICc3LjAnLCAnLXRuJywgJzgnLCAnLW1hJywgJzIwMCcsICctbWV0YWxfYmluZGluZycsICctaW1hZScsICc8aW5maWxlLm1hZT4nLCAnLW9tYWUnLCAnPG91dGZpbGUubWFlPic=

> <r_lp_tautomer_probability>
1

> <r_epik_Ionization_Penalty>
0.0157465

> <r_epik_Ionization_Penalty_Charging>
0.015354

> <r_epik_Ionization_Penalty_Neutral>
0.000392529

> <r_epik_State_Penalty>
0.0120612

> <r_epik_Charging_Adjusted_Penalty>
0.0274152

> <i_epik_Tot_Q>
1

> <i_epik_Tot_abs_Q>
1

> <r_epik_Metal_State_Penalty>
0.0121253

> <b_epik_Metal_Only>
0

> <s_lp_Force_Field>
OPLS_2005

> <r_lp_Energy>
61.785

> <b_lp_Chiralities_Consistent>
1

> <s_lp_Variant>
AV-unprocessed.smi:21-26

> <Gold.Version>
5.8.1

> <Gold.Id.Protein>
6NUR|6NUR_protein|mol2

> <Gold.PLP.Fitness>
47.1902

> <Gold.PLP.PLP>
-45.0800

> <Gold.PLP.part.hbond>
-1.5159

> <Gold.PLP.part.metal>
0.0000

> <Gold.PLP.part.buried>
-7.0817

> <Gold.PLP.part.nonpolar>
-39.9100

> <Gold.PLP.part.repulsive>
3.3236

> <Gold.PLP.ligand.clash>
0.0000

> <Gold.PLP.ligand.torsion>
0.7978

> <Gold.PLP.Chemscore.Hbond>
1.0000

> <Gold.PLP.Chemscore.CHOScore>
0.0000

> <Gold.PLP.Chemscore.Metal>
0.0000

> <Gold.Chemscore.Hbonds>
donor molecule, donor type, donor heavy atom, donor atom, acceptor molecule, acceptor atom, score
      P1  H  7989  7998       L1    21  1.00

> <Gold.PLP.Chemscore.Internal.Correction>
0.7058

> <Gold.Rescore>
     Score         DG    S(hbond)    S(metal)    S(lipo)     H(rot)  DE(clash)    DE(int)     intcor
     10.48     -14.11       0.97        0.00     113.26       3.08       1.54       2.08       ----

> <Gold.Chemscore.Fitness>
10.4830

> <Gold.Chemscore.DG>
-14.1098

> <Gold.Chemscore.ZeroCoef>
-5.4800

> <Gold.Chemscore.Hbond>
0.9739

> <Gold.Chemscore.Metal>
0.0000

> <Gold.Chemscore.Lipo>
113.2561

> <Gold.Chemscore.Internal_Hbond>
0.0000

> <Gold.Chemscore.DEClash>
1.5426

> <Gold.Chemscore.DEInternal>
2.0842

> <Gold.Chemscore.Rot>
3.0758

> <Gold.Chemscore.Internal.Correction>
   9.000000E+99

> <Gold.Chemscore.Hbonds>
donor molecule, donor type, donor heavy atom, donor atom, acceptor molecule, acceptor atom, score
      P1  H  7989  7998       L1    21  0.76

> <Gold.Chemscore.Hbond.Weighted>
-3.2530

> <Gold.Chemscore.Metal.Weighted>
-0.0000

> <Gold.Chemscore.Lipo.Weighted>
-13.2510

> <Gold.Chemscore.Internal_Hbond.Weighted>
0.0000

> <Gold.Chemscore.DEClash.Weighted>
1.5426

> <Gold.Chemscore.DEInternal.Weighted>
2.0842

> <Gold.Chemscore.Rot.Weighted>
7.8741

> <Gold.Chemscore.Internal.Correction.Weighted>
   9.000000E+99

> <Gold.Protein.RotatedTorsions>
[ 6907 6896 6895 6894 ] final  144.15 input  -60.11 | X-H torsion
[ 7974 7965 7964 7962 ] final   82.76 input  175.53 | X-H torsion
[ 8008 7997 7996 7995 ] final  175.99 input   59.86 | X-H torsion
[ 10167 10162 10161 10158 ] final  -54.84 input  -65.29 | X-H torsion
[ 10718 10713 10712 10709 ] final  -63.25 input   66.30 | X-H torsion
[ 10763 10752 10751 10750 ] final   73.67 input  -60.55 | X-H torsion
[ 11005 11000 10999 10996 ] final    1.78 input  -57.11 | X-H torsion

> <Gold.Protein.ActiveResidues>
 VAL166  LYS551  ARG553  GLY616  TRP617  ASP618  TYR619  PRO620  LYS621  CYS622 
 ASP623  PHE694  ASN695  SER759  ASP760  ASP761  ALA762  ILE779  LEU786  VAL792 
 PHE793  MET794  SER795  GLU796  ALA797  LYS798  CYS799  TRP800  GLU811  SER814 

> <Gold.Protein.RotatedAtoms>
  152.1972  133.4815  159.5039 H   0  0  0  0  0  0  0  0  0  0  0  0  # atno 6907 bound_to 6896
  150.6962  134.1636  159.4195 H   0  0  0  0  0  0  0  0  0  0  0  0  # atno 6908 bound_to 6896
  151.9553  135.0149  160.0595 H   0  0  0  0  0  0  0  0  0  0  0  0  # atno 6909 bound_to 6896
  145.6208  139.2385  143.2139 H   0  0  0  0  0  0  0  0  0  0  0  0  # atno 7974 bound_to 7965
  156.0812  140.1395  156.9710 H   0  0  0  0  0  0  0  0  0  0  0  0  # atno 8008 bound_to 7997
  154.4586  140.0951  156.6878 H   0  0  0  0  0  0  0  0  0  0  0  0  # atno 8009 bound_to 7997
  155.5072  140.3452  155.4384 H   0  0  0  0  0  0  0  0  0  0  0  0  # atno 8010 bound_to 7997
  140.6408  143.2507  151.4994 H   0  0  0  0  0  0  0  0  0  0  0  0  # atno 10167 bound_to 10162
  156.0803  130.4218  150.1250 H   0  0  0  0  0  0  0  0  0  0  0  0  # atno 10718 bound_to 10713
  153.0537  135.5054  154.7929 H   0  0  0  0  0  0  0  0  0  0  0  0  # atno 10763 bound_to 10752
  154.6771  135.2962  154.9666 H   0  0  0  0  0  0  0  0  0  0  0  0  # atno 10764 bound_to 10752
  154.0464  135.6710  153.4848 H   0  0  0  0  0  0  0  0  0  0  0  0  # atno 10765 bound_to 10752
  140.6117  133.9742  155.8180 H   0  0  0  0  0  0  0  0  0  0  0  0  # atno 11005 bound_to 11000
  146.1432  140.7028  142.9357 LP  0  0  0  0  0  0  0  0  0  0  0  0  # atno 17320 bound_to 7965
  144.7232  140.4440  143.6993 LP  0  0  0  0  0  0  0  0  0  0  0  0  # atno 17321 bound_to 7965
  139.5617  144.2140  152.1702 LP  0  0  0  0  0  0  0  0  0  0  0  0  # atno 17342 bound_to 10162
  140.1410  144.5202  150.6744 LP  0  0  0  0  0  0  0  0  0  0  0  0  # atno 17343 bound_to 10162
  156.9282  130.9705  151.3537 LP  0  0  0  0  0  0  0  0  0  0  0  0  # atno 17370 bound_to 10713
  157.5917  130.8448  149.8669 LP  0  0  0  0  0  0  0  0  0  0  0  0  # atno 17371 bound_to 10713
  141.0803  134.0072  157.3395 LP  0  0  0  0  0  0  0  0  0  0  0  0  # atno 17394 bound_to 11000
  139.9189  135.0199  156.7990 LP  0  0  0  0  0  0  0  0  0  0  0  0  # atno 17395 bound_to 11000

$$$$
