#       Name:                AV-unprocessed.smi:2811
#       Creating user name   scv26
#       Creation time:       Fri Mar 27 15:27:04 2020


#       File generated by GOLD software.
#

@<TRIPOS>MOLECULE
AV-unprocessed.smi:2811
    43    45     1
SMALL
NO_CHARGES


@<TRIPOS>ATOM
      1 ****        -1.1442   6.5109   0.7109 C.3            1 S1                 0.0000
      2 ****         0.0690   5.6930   0.3214 C.ar           1 S1                 0.0000
      3 ****         1.2746   6.3229  -0.0405 C.ar           1 S1                 0.0000
      4 ****         2.3678   5.5096  -0.3953 C.ar           1 S1                 0.0000
      5 ****         3.6942   6.1201  -0.7970 C.3            1 S1                 0.0000
      6 ****         2.3085   4.1609  -0.4071 N.ar           1 S1                 0.0000
      7 ****         1.1527   3.5391  -0.0615 C.ar           1 S1                 0.0000
      8 ****         0.9701   2.1247  -0.0352 N.am           1 S1                 0.0000
      9 ****         1.8142   1.1065  -0.3096 C.2            1 S1                 0.0000
     10 ****         2.9747   1.3199  -0.6571 O.2            1 S1                 0.0000
     11 ****         1.3135  -0.1325  -0.1841 N.am           1 S1                 0.0000
     12 ****         2.0428  -1.3698  -0.4369 C.3            1 S1                 0.0000
     13 ****         2.1234  -1.7162  -1.9288 C.3            1 S1                 0.0000
     14 ****         1.4476  -3.0931  -1.9694 C.3            1 S1                 0.0000
     15 ****         2.3035  -4.1775  -1.2985 C.3            1 S1                 0.0000
     16 ****         2.1542  -3.8261   0.1821 C.3            1 S1                 0.0000
     17 ****         1.2663  -2.5767   0.1158 C.3            1 S1                 0.0000
     18 ****         0.4420  -2.9104  -0.9890 O.3            1 S1                 0.0000
     19 ****         0.0101   4.2846   0.3084 C.ar           1 S1                 0.0000
     20 ****        -0.8517   7.4984   1.0689 H              1 S1                 0.0000
     21 ****        -1.7044   6.0159   1.5047 H              1 S1                 0.0000
     22 ****        -1.8032   6.6374  -0.1481 H              1 S1                 0.0000
     23 ****         1.3588   7.4001  -0.0470 H              1 S1                 0.0000
     24 ****         3.7715   7.1510  -0.4506 H              1 S1                 0.0000
     25 ****         3.7980   6.1134  -1.8822 H              1 S1                 0.0000
     26 ****         4.5242   5.5566  -0.3689 H              1 S1                 0.0000
     27 ****         0.0451   1.8320   0.2437 H              1 S1                 0.0000
     28 ****         0.3484  -0.2224   0.1027 H              1 S1                 0.0000
     29 ****         3.0327  -1.3109   0.0195 H              1 S1                 0.0000
     30 ****         1.5654  -1.0036  -2.5383 H              1 S1                 0.0000
     31 ****         3.1487  -1.7459  -2.2990 H              1 S1                 0.0000
     32 ****         1.0709  -3.3714  -2.9539 H              1 S1                 0.0000
     33 ****         1.9001  -5.1710  -1.4978 H              1 S1                 0.0000
     34 ****         3.3398  -4.1549  -1.6376 H              1 S1                 0.0000
     35 ****         1.6487  -4.6313   0.7163 H              1 S1                 0.0000
     36 ****         3.1092  -3.6368   0.6735 H              1 S1                 0.0000
     37 ****         0.7228  -2.3785   1.0405 H              1 S1                 0.0000
     38 ****        -0.9071   3.7818   0.5803 H              1 S1                 0.0000
     39 ****         3.1105   3.6239  -0.6687 LP             1 S1                 0.0000
     40 ****         3.3069   2.2594  -0.7404 LP             1 S1                 0.0000
     41 ****         3.5858   0.5539  -0.8563 LP             1 S1                 0.0000
     42 ****        -0.0806  -3.7476  -0.8274 LP             1 S1                 0.0000
     43 ****        -0.1837  -2.1677  -1.2277 LP             1 S1                 0.0000
@<TRIPOS>BOND
    1    1    2 1     
    2    1   20 1     
    3    1   21 1     
    4    1   22 1     
    5    2   19 ar    
    6    2    3 ar    
    7    3    4 ar    
    8    3   23 1     
    9    4    5 1     
   10    4    6 ar    
   11    5   24 1     
   12    5   25 1     
   13    5   26 1     
   14    6    7 ar    
   15    7    8 1     
   16    7   19 ar    
   17    8    9 am    
   18    8   27 1     
   19    9   10 2     
   20    9   11 am    
   21   11   12 1     
   22   11   28 1     
   23   12   17 1     
   24   12   13 1     
   25   12   29 1     
   26   13   14 1     
   27   13   30 1     
   28   13   31 1     
   29   14   18 1     
   30   14   15 1     
   31   14   32 1     
   32   15   16 1     
   33   15   33 1     
   34   15   34 1     
   35   16   17 1     
   36   16   35 1     
   37   16   36 1     
   38   17   18 1     
   39   17   37 1     
   40   19   38 1     
   41    6   39 1     
   42   10   40 1     
   43   10   41 1     
   44   18   42 1     
   45   18   43 1     
@<TRIPOS>SUBSTRUCTURE
      1 S1             1
@<TRIPOS>SET
LONE_PAIRS      STATIC     ATOMS    <user>   **** ""
5 39 40 41 42 43
DONOR_HYDROGENS      STATIC     ATOMS    <user>   **** ""
2 27 28
ATOM$BLUE        STATIC     ATOMS    COLORGROUP SYSTEM
5 39 40 41 42 43
ATOM$RED        STATIC     ATOMS    COLORGROUP SYSTEM
2 27 28
