AV-unprocessed.smi:236|AV-procd|sdf|1810|dock6
  -GOLD-   2262020393D 1   1.00000     0.00000
 Structure written by MMmdl.
 58 62  0  0  0  0  0  0  0  0  1 V2000
  144.2136  136.1420  161.2343 C   0  0  0  0  0  0  0  0  0  0  0  0
  144.6878  135.1488  162.3076 C   0  0  1  0  0  0  0  0  0  0  0  0
  143.5784  134.8005  163.1304 O   0  0  0  0  0  0  0  0  0  0  0  0
  143.7829  133.4911  163.6296 C   0  0  0  0  0  0  0  0  0  0  0  0
  144.3390  132.7685  162.4137 C   0  0  0  0  0  0  0  0  0  0  0  0
  145.2835  133.8049  161.8019 C   0  0  1  0  0  0  0  0  0  0  0  0
  145.2265  133.6788  160.3905 O   0  0  0  0  0  0  0  0  0  0  0  0
  146.7608  133.6487  162.2499 C   0  0  0  0  0  0  0  0  0  0  0  0
  147.6498  134.6930  161.7619 N   0  0  0  0  0  0  0  0  0  0  0  0
  148.3501  135.6044  162.5205 C   0  0  0  0  0  0  0  0  0  0  0  0
  149.0837  136.4455  161.8439 N   0  0  0  0  0  0  0  0  0  0  0  0
  148.8900  136.0745  160.5187 C   0  0  0  0  0  0  0  0  0  0  0  0
  149.3751  136.5522  159.2682 C   0  0  0  0  0  0  0  0  0  0  0  0
  150.2175  137.5945  159.1128 N   0  0  0  0  0  0  0  0  0  0  0  0
  151.5988  137.1915  158.8877 C   0  0  0  0  0  0  0  0  0  0  0  0
  152.5089  138.4299  158.8880 C   0  0  0  0  0  0  0  0  0  0  0  0
  152.0368  139.3641  157.9218 O   0  0  0  0  0  0  0  0  0  0  0  0
  150.7159  139.8227  158.2060 C   0  0  1  0  0  0  0  0  0  0  0  0
  150.3387  140.8748  157.1555 C   0  0  0  0  0  0  0  0  0  0  0  0
  151.1888  141.9999  157.3040 O   0  0  0  0  0  0  0  0  0  0  0  0
  151.0965  142.5890  158.5891 C   0  0  0  0  0  0  0  0  0  0  0  0
  152.0731  143.7427  158.6736 C   0  0  0  0  0  0  0  0  0  0  0  0
  152.2719  144.4943  159.9706 C   0  0  0  0  0  0  0  0  0  0  0  0
  151.5676  145.1604  158.8166 C   0  0  0  0  0  0  0  0  0  0  0  0
  149.7634  138.6116  158.1725 C   0  0  0  0  0  0  0  0  0  0  0  0
  148.9512  135.9305  158.1409 N   0  0  0  0  0  0  0  0  0  0  0  0
  148.1092  134.8959  158.2253 C   0  0  0  0  0  0  0  0  0  0  0  0
  147.5757  134.3398  159.3154 N   0  0  0  0  0  0  0  0  0  0  0  0
  147.9953  134.9699  160.4504 C   0  0  0  0  0  0  0  0  0  0  0  0
  145.0365  136.4452  160.5868 H   0  0  0  0  0  0  0  0  0  0  0  0
  143.8066  137.0428  161.6940 H   0  0  0  0  0  0  0  0  0  0  0  0
  143.4312  135.7099  160.6097 H   0  0  0  0  0  0  0  0  0  0  0  0
  145.4112  135.6547  162.9488 H   0  0  0  0  0  0  0  0  0  0  0  0
  144.5078  133.5098  164.4451 H   0  0  0  0  0  0  0  0  0  0  0  0
  142.8558  133.0502  163.9963 H   0  0  0  0  0  0  0  0  0  0  0  0
  144.8043  131.8165  162.6630 H   0  0  0  0  0  0  0  0  0  0  0  0
  143.5129  132.5542  161.7334 H   0  0  0  0  0  0  0  0  0  0  0  0
  144.3400  133.4624  160.1456 H   0  0  0  0  0  0  0  0  0  0  0  0
  146.8202  133.6379  163.3390 H   0  0  0  0  0  0  0  0  0  0  0  0
  147.1542  132.6873  161.9173 H   0  0  0  0  0  0  0  0  0  0  0  0
  148.2945  135.6297  163.5992 H   0  0  0  0  0  0  0  0  0  0  0  0
  151.9160  136.4937  159.6637 H   0  0  0  0  0  0  0  0  0  0  0  0
  151.6806  136.6726  157.9319 H   0  0  0  0  0  0  0  0  0  0  0  0
  152.5366  138.8936  159.8753 H   0  0  0  0  0  0  0  0  0  0  0  0
  153.5316  138.1461  158.6400 H   0  0  0  0  0  0  0  0  0  0  0  0
  150.6872  140.2798  159.1970 H   0  0  0  0  0  0  0  0  0  0  0  0
  150.4159  140.4556  156.1509 H   0  0  0  0  0  0  0  0  0  0  0  0
  149.3046  141.1914  157.3015 H   0  0  0  0  0  0  0  0  0  0  0  0
  150.0872  142.9664  158.7598 H   0  0  0  0  0  0  0  0  0  0  0  0
  151.3185  141.8569  159.3673 H   0  0  0  0  0  0  0  0  0  0  0  0
  152.9534  143.6207  158.0451 H   0  0  0  0  0  0  0  0  0  0  0  0
  151.6670  144.2002  160.8263 H   0  0  0  0  0  0  0  0  0  0  0  0
  153.2804  144.8285  160.2060 H   0  0  0  0  0  0  0  0  0  0  0  0
  152.1056  145.9413  158.2831 H   0  0  0  0  0  0  0  0  0  0  0  0
  150.4932  145.3105  158.9035 H   0  0  0  0  0  0  0  0  0  0  0  0
  149.7293  138.2004  157.1632 H   0  0  0  0  0  0  0  0  0  0  0  0
  148.7501  138.9230  158.4296 H   0  0  0  0  0  0  0  0  0  0  0  0
  147.8203  134.4509  157.2844 H   0  0  0  0  0  0  0  0  0  0  0  0
  1  2  1  0  0  0  0
  1 30  1  0  0  0  0
  1 31  1  0  0  0  0
  1 32  1  0  0  0  0
  2  6  1  0  0  0  0
  2  3  1  0  0  0  0
  2 33  1  0  0  0  0
  3  4  1  0  0  0  0
  4  5  1  0  0  0  0
  4 34  1  0  0  0  0
  4 35  1  0  0  0  0
  5  6  1  0  0  0  0
  5 36  1  0  0  0  0
  5 37  1  0  0  0  0
  6  7  1  0  0  0  0
  6  8  1  0  0  0  0
  7 38  1  0  0  0  0
  8  9  1  0  0  0  0
  8 39  1  0  0  0  0
  8 40  1  0  0  0  0
  9 29  1  0  0  0  0
  9 10  1  0  0  0  0
 10 11  2  0  0  0  0
 10 41  1  0  0  0  0
 11 12  1  0  0  0  0
 12 29  2  0  0  0  0
 12 13  1  0  0  0  0
 13 14  1  0  0  0  0
 13 26  2  0  0  0  0
 14 25  1  0  0  0  0
 14 15  1  0  0  0  0
 15 16  1  0  0  0  0
 15 42  1  0  0  0  0
 15 43  1  0  0  0  0
 16 17  1  0  0  0  0
 16 44  1  0  0  0  0
 16 45  1  0  0  0  0
 17 18  1  0  0  0  0
 18 19  1  0  0  0  0
 18 25  1  0  0  0  0
 18 46  1  0  0  0  0
 19 20  1  0  0  0  0
 19 47  1  0  0  0  0
 19 48  1  0  0  0  0
 20 21  1  0  0  0  0
 21 22  1  0  0  0  0
 21 49  1  0  0  0  0
 21 50  1  0  0  0  0
 22 24  1  0  0  0  0
 22 23  1  0  0  0  0
 22 51  1  0  0  0  0
 23 24  1  0  0  0  0
 23 52  1  0  0  0  0
 23 53  1  0  0  0  0
 24 54  1  0  0  0  0
 24 55  1  0  0  0  0
 25 56  1  0  0  0  0
 25 57  1  0  0  0  0
 26 27  1  0  0  0  0
 27 28  2  0  0  0  0
 27 58  1  0  0  0  0
 28 29  1  0  0  0  0
M  END
> <s_m_source_file>
AV-unprocessed.smi

> <i_m_source_file_index>
236

> <i_lp_mmshare_version>
43012

> <i_f3d_flags>
0

> <s_epik_input>
W0NIMl0xW0NIMl1PW0NAQEhdKFtDSDNdKVtDQEBdMShbT0hdKVtDSDJdbihbY0hdbjIpYyhjMjMpbltjSF1uYzNONFtDSDJdW0NIMl1PW0NASF0oW0NIMl00KVtDSDJdT1tDSDJdW0NIXTVbQ0gyXVtDSDJdNQ==

> <s_epik_cmdline>
J2VwaWtfcHl0aG9uJywgJy1waCcsICc3LjAnLCAnLXRuJywgJzgnLCAnLW1hJywgJzIwMCcsICctbWV0YWxfYmluZGluZycsICctaW1hZScsICc8aW5maWxlLm1hZT4nLCAnLW9tYWUnLCAnPG91dGZpbGUubWFlPic=

> <r_lp_tautomer_probability>
1

> <r_epik_Ionization_Penalty>
7.21838e-05

> <r_epik_Ionization_Penalty_Charging>
0

> <r_epik_Ionization_Penalty_Neutral>
7.21838e-05

> <r_epik_State_Penalty>
-0

> <r_epik_Charging_Adjusted_Penalty>
0

> <i_epik_Tot_Q>
0

> <i_epik_Tot_abs_Q>
0

> <r_epik_Metal_State_Penalty>
-0

> <b_epik_Metal_Only>
0

> <s_lp_Force_Field>
OPLS_2005

> <r_lp_Energy>
50.1764

> <b_lp_Chiralities_Consistent>
1

> <s_lp_Variant>
AV-unprocessed.smi:236-2

> <Gold.Version>
5.8.1

> <Gold.Id.Protein>
6NUR|6NUR_protein|mol2

> <Gold.PLP.Fitness>
50.7400

> <Gold.PLP.PLP>
-48.3721

> <Gold.PLP.part.hbond>
-2.0105

> <Gold.PLP.part.metal>
0.0000

> <Gold.PLP.part.buried>
-7.0561

> <Gold.PLP.part.nonpolar>
-40.9577

> <Gold.PLP.part.repulsive>
0.1333

> <Gold.PLP.ligand.clash>
0.0000

> <Gold.PLP.ligand.torsion>
0.7537

> <Gold.PLP.Chemscore.Hbond>
0.9913

> <Gold.PLP.Chemscore.CHOScore>
0.0000

> <Gold.PLP.Chemscore.Metal>
0.0000

> <Gold.Chemscore.Hbonds>
donor molecule, donor type, donor heavy atom, donor atom, acceptor molecule, acceptor atom, score
      P1  H  6931  6943       L1    11  1.00

> <Gold.PLP.Chemscore.Internal.Correction>
0.9017

> <Gold.Rescore>
     Score         DG    S(hbond)    S(metal)    S(lipo)     H(rot)  DE(clash)    DE(int)     intcor
     11.55     -13.78       0.97        0.00     106.12       2.87       0.00       2.23       ----

> <Gold.Chemscore.Fitness>
11.5543

> <Gold.Chemscore.DG>
-13.7843

> <Gold.Chemscore.ZeroCoef>
-5.4800

> <Gold.Chemscore.Hbond>
0.9653

> <Gold.Chemscore.Metal>
0.0000

> <Gold.Chemscore.Lipo>
106.1180

> <Gold.Chemscore.Internal_Hbond>
0.0000

> <Gold.Chemscore.DEClash>
0.0000

> <Gold.Chemscore.DEInternal>
2.2300

> <Gold.Chemscore.Rot>
2.8655

> <Gold.Chemscore.Internal.Correction>
   9.000000E+99

> <Gold.Chemscore.Hbonds>
donor molecule, donor type, donor heavy atom, donor atom, acceptor molecule, acceptor atom, score
      P1  H  6931  6943       L1    11  0.65

> <Gold.Chemscore.Hbond.Weighted>
-3.2243

> <Gold.Chemscore.Metal.Weighted>
-0.0000

> <Gold.Chemscore.Lipo.Weighted>
-12.4158

> <Gold.Chemscore.Internal_Hbond.Weighted>
0.0000

> <Gold.Chemscore.DEClash.Weighted>
0.0000

> <Gold.Chemscore.DEInternal.Weighted>
2.2300

> <Gold.Chemscore.Rot.Weighted>
7.3358

> <Gold.Chemscore.Internal.Correction.Weighted>
   9.000000E+99

> <Gold.Protein.RotatedTorsions>
[ 6907 6896 6895 6894 ] final -117.75 input  -60.11 | X-H torsion
[ 7974 7965 7964 7962 ] final  157.58 input  175.53 | X-H torsion
[ 8008 7997 7996 7995 ] final    5.46 input   59.86 | X-H torsion
[ 10167 10162 10161 10158 ] final  178.32 input  -65.29 | X-H torsion
[ 10718 10713 10712 10709 ] final -152.63 input   66.30 | X-H torsion
[ 10763 10752 10751 10750 ] final -110.89 input  -60.55 | X-H torsion
[ 11005 11000 10999 10996 ] final   30.43 input  -57.11 | X-H torsion

> <Gold.Protein.ActiveResidues>
 VAL166  LYS551  ARG553  GLY616  TRP617  ASP618  TYR619  PRO620  LYS621  CYS622 
 ASP623  PHE694  ASN695  SER759  ASP760  ASP761  ALA762  ILE779  LEU786  VAL792 
 PHE793  MET794  SER795  GLU796  ALA797  LYS798  CYS799  TRP800  GLU811  SER814 

> <Gold.Protein.RotatedAtoms>
  150.8162  133.8332  159.3159 H   0  0  0  0  0  0  0  0  0  0  0  0  # atno 6907 bound_to 6896
  151.6104  135.1039  160.0089 H   0  0  0  0  0  0  0  0  0  0  0  0  # atno 6908 bound_to 6896
  152.4254  133.7145  159.6554 H   0  0  0  0  0  0  0  0  0  0  0  0  # atno 6909 bound_to 6896
  144.7895  139.7360  143.6227 H   0  0  0  0  0  0  0  0  0  0  0  0  # atno 7974 bound_to 7965
  154.7287  140.2726  155.6475 H   0  0  0  0  0  0  0  0  0  0  0  0  # atno 8008 bound_to 7997
  156.2844  140.2720  156.1906 H   0  0  0  0  0  0  0  0  0  0  0  0  # atno 8009 bound_to 7997
  155.0410  140.0371  157.2499 H   0  0  0  0  0  0  0  0  0  0  0  0  # atno 8010 bound_to 7997
  139.5289  144.2693  152.0641 H   0  0  0  0  0  0  0  0  0  0  0  0  # atno 10167 bound_to 10162
  156.4751  130.8277  151.2505 H   0  0  0  0  0  0  0  0  0  0  0  0  # atno 10718 bound_to 10713
  154.8272  135.4547  154.0955 H   0  0  0  0  0  0  0  0  0  0  0  0  # atno 10763 bound_to 10752
  153.2259  135.6900  153.7952 H   0  0  0  0  0  0  0  0  0  0  0  0  # atno 10764 bound_to 10752
  153.7352  135.3321  155.3270 H   0  0  0  0  0  0  0  0  0  0  0  0  # atno 10765 bound_to 10752
  140.2944  134.2827  155.7768 H   0  0  0  0  0  0  0  0  0  0  0  0  # atno 11005 bound_to 11000
  146.2141  139.5519  142.9661 LP  0  0  0  0  0  0  0  0  0  0  0  0  # atno 17320 bound_to 7965
  145.5832  141.0380  143.2111 LP  0  0  0  0  0  0  0  0  0  0  0  0  # atno 17321 bound_to 7965
  140.2154  144.4521  150.6366 LP  0  0  0  0  0  0  0  0  0  0  0  0  # atno 17342 bound_to 10162
  140.6453  143.2212  151.6199 LP  0  0  0  0  0  0  0  0  0  0  0  0  # atno 17343 bound_to 10162
  157.7488  131.0063  150.3148 LP  0  0  0  0  0  0  0  0  0  0  0  0  # atno 17370 bound_to 10713
  156.3579  130.3842  149.7275 LP  0  0  0  0  0  0  0  0  0  0  0  0  # atno 17371 bound_to 10713
  141.2140  133.7606  156.9673 LP  0  0  0  0  0  0  0  0  0  0  0  0  # atno 17394 bound_to 11000
  140.1166  134.9443  157.2143 LP  0  0  0  0  0  0  0  0  0  0  0  0  # atno 17395 bound_to 11000

$$$$
