AV-unprocessed.smi:2047|AV-procd|sdf|8316|dock1
  -GOLD-   2272010583D 1   1.00000     0.00000
 Structure written by MMmdl.
 42 44  0  0  0  0  0  0  0  0  1 V2000
  150.8174  135.0028  155.9026 O   0  0  0  0  0  0  0  0  0  0  0  0
  150.1435  135.4171  154.9595 C   0  0  0  0  0  0  0  0  0  0  0  0
  149.2613  134.6883  154.2553 N   0  0  0  0  0  0  0  0  0  0  0  0
  148.9420  133.3081  154.3990 C   0  0  0  0  0  0  0  0  0  0  0  0
  149.5510  132.5026  155.3927 C   0  0  0  0  0  0  0  0  0  0  0  0
  149.1514  131.1628  155.5359 C   0  0  0  0  0  0  0  0  0  0  0  0
  148.1416  130.6766  154.6895 C   0  0  0  0  0  0  0  0  0  0  0  0
  147.5412  131.4332  153.7496 N   0  0  0  0  0  0  0  0  0  0  0  0
  147.9257  132.7236  153.5894 C   0  0  0  0  0  0  0  0  0  0  0  0
  147.2712  133.4646  152.5788 N   0  0  0  0  0  0  0  0  0  0  0  0
  146.4194  134.5972  152.9262 C   0  0  0  0  0  0  0  0  0  0  0  0
  145.6061  134.8799  151.6665 C   0  0  0  0  0  0  0  0  0  0  0  0
  145.3799  133.4795  151.1050 C   0  0  0  0  0  0  0  0  0  0  0  0
  146.6637  132.7281  151.4739 C   0  0  0  0  0  0  0  0  0  0  0  0
  150.2177  136.6708  154.4914 N   0  0  0  0  0  0  0  0  0  0  0  0
  151.0824  137.7160  155.0306 C   0  0  1  0  0  0  0  0  0  0  0  0
  150.6955  139.1194  154.5191 C   0  0  0  0  0  0  0  0  0  0  0  0
  151.3827  140.1718  155.3983 C   0  0  0  0  0  0  0  0  0  0  0  0
  151.5533  139.4178  157.0605 S   0  0  0  0  0  0  0  0  0  0  0  0
  152.9780  139.3839  157.4234 O   0  0  0  0  0  0  0  0  0  0  0  0
  150.5534  139.9958  157.9710 O   0  0  0  0  0  0  0  0  0  0  0  0
  151.0124  137.7394  156.5634 C   0  0  0  0  0  0  0  0  0  0  0  0
  148.8473  135.1439  153.4551 H   0  0  0  0  0  0  0  0  0  0  0  0
  150.3003  132.8949  156.0630 H   0  0  0  0  0  0  0  0  0  0  0  0
  149.5995  130.5278  156.2857 H   0  0  0  0  0  0  0  0  0  0  0  0
  147.8017  129.6551  154.7730 H   0  0  0  0  0  0  0  0  0  0  0  0
  145.7436  134.3392  153.7427 H   0  0  0  0  0  0  0  0  0  0  0  0
  147.0110  135.4613  153.2297 H   0  0  0  0  0  0  0  0  0  0  0  0
  144.6784  135.4149  151.8709 H   0  0  0  0  0  0  0  0  0  0  0  0
  146.1953  135.4728  150.9654 H   0  0  0  0  0  0  0  0  0  0  0  0
  144.5280  133.0184  151.6069 H   0  0  0  0  0  0  0  0  0  0  0  0
  145.1804  133.4771  150.0330 H   0  0  0  0  0  0  0  0  0  0  0  0
  147.3510  132.7332  150.6280 H   0  0  0  0  0  0  0  0  0  0  0  0
  146.4559  131.6897  151.7357 H   0  0  0  0  0  0  0  0  0  0  0  0
  149.6302  136.9224  153.7101 H   0  0  0  0  0  0  0  0  0  0  0  0
  152.1163  137.5150  154.7436 H   0  0  0  0  0  0  0  0  0  0  0  0
  150.9490  139.2552  153.4673 H   0  0  0  0  0  0  0  0  0  0  0  0
  149.6151  139.2460  154.6033 H   0  0  0  0  0  0  0  0  0  0  0  0
  152.3835  140.3921  155.0261 H   0  0  0  0  0  0  0  0  0  0  0  0
  150.8219  141.1045  155.4619 H   0  0  0  0  0  0  0  0  0  0  0  0
  149.9890  137.6052  156.9155 H   0  0  0  0  0  0  0  0  0  0  0  0
  151.6448  136.9855  157.0325 H   0  0  0  0  0  0  0  0  0  0  0  0
  1  2  2  0  0  0  0
  2  3  1  0  0  0  0
  2 15  1  0  0  0  0
  3  4  1  0  0  0  0
  3 23  1  0  0  0  0
  4  9  1  0  0  0  0
  4  5  2  0  0  0  0
  5  6  1  0  0  0  0
  5 24  1  0  0  0  0
  6  7  2  0  0  0  0
  6 25  1  0  0  0  0
  7  8  1  0  0  0  0
  7 26  1  0  0  0  0
  8  9  2  0  0  0  0
  9 10  1  0  0  0  0
 10 14  1  0  0  0  0
 10 11  1  0  0  0  0
 11 12  1  0  0  0  0
 11 27  1  0  0  0  0
 11 28  1  0  0  0  0
 12 13  1  0  0  0  0
 12 29  1  0  0  0  0
 12 30  1  0  0  0  0
 13 14  1  0  0  0  0
 13 31  1  0  0  0  0
 13 32  1  0  0  0  0
 14 33  1  0  0  0  0
 14 34  1  0  0  0  0
 15 16  1  0  0  0  0
 15 35  1  0  0  0  0
 16 22  1  0  0  0  0
 16 17  1  0  0  0  0
 16 36  1  0  0  0  0
 17 18  1  0  0  0  0
 17 37  1  0  0  0  0
 17 38  1  0  0  0  0
 18 19  1  0  0  0  0
 18 39  1  0  0  0  0
 18 40  1  0  0  0  0
 19 20  2  0  0  0  0
 19 21  2  0  0  0  0
 19 22  1  0  0  0  0
 22 41  1  0  0  0  0
 22 42  1  0  0  0  0
M  END
> <s_m_source_file>
AV-unprocessed.smi

> <i_m_source_file_index>
2047

> <i_lp_mmshare_version>
43012

> <i_f3d_flags>
0

> <s_epik_input>
Tz1TMSg9TylbQ0gyXVtDSDJdW0NASF0oW0NIMl0xKVtOSF1DKD1PKVtOSF1jMltjSF1bY0hdW2NIXW5jMk4zW0NIMl1bQ0gyXVtDSDJdW0NIMl0z

> <s_epik_cmdline>
J2VwaWtfcHl0aG9uJywgJy1waCcsICc3LjAnLCAnLXRuJywgJzgnLCAnLW1hJywgJzIwMCcsICctbWV0YWxfYmluZGluZycsICctaW1hZScsICc8aW5maWxlLm1hZT4nLCAnLW9tYWUnLCAnPG91dGZpbGUubWFlPic=

> <r_lp_tautomer_probability>
1

> <r_epik_Ionization_Penalty>
0.0840625

> <r_epik_Ionization_Penalty_Charging>
0

> <r_epik_Ionization_Penalty_Neutral>
0.0840625

> <r_epik_State_Penalty>
0.0741601

> <r_epik_Charging_Adjusted_Penalty>
0.0741601

> <i_epik_Tot_Q>
0

> <i_epik_Tot_abs_Q>
0

> <r_epik_Metal_State_Penalty>
0.0657339

> <b_epik_Metal_Only>
0

> <s_lp_Force_Field>
OPLS_2005

> <r_lp_Energy>
33.4382

> <b_lp_Chiralities_Consistent>
1

> <s_lp_Variant>
AV-unprocessed.smi:2047-2

> <Gold.Version>
5.8.1

> <Gold.Id.Protein>
6NUR|6NUR_protein|mol2

> <Gold.PLP.Fitness>
44.2568

> <Gold.PLP.PLP>
-34.5801

> <Gold.PLP.part.hbond>
-4.9735

> <Gold.PLP.part.metal>
0.0000

> <Gold.PLP.part.buried>
0.3877

> <Gold.PLP.part.nonpolar>
-29.7075

> <Gold.PLP.part.repulsive>
0.4418

> <Gold.PLP.ligand.clash>
0.0000

> <Gold.PLP.ligand.torsion>
0.5503

> <Gold.PLP.Chemscore.Hbond>
3.4817

> <Gold.PLP.Chemscore.CHOScore>
0.0000

> <Gold.PLP.Chemscore.Metal>
0.0000

> <Gold.Chemscore.Hbonds>
donor molecule, donor type, donor heavy atom, donor atom, acceptor molecule, acceptor atom, score
      L1  H     3    23       P1  7948  1.00
      L1  H    15    35       P1  7948  0.78
      P1  H  7997  8010       L1    20  1.00

> <Gold.PLP.Chemscore.Internal.Correction>
0.3321

> <Gold.Rescore>
     Score         DG    S(hbond)    S(metal)    S(lipo)     H(rot)  DE(clash)    DE(int)     intcor
     14.65     -18.55       2.52        0.00      66.99       1.25       1.19       2.72       ----

> <Gold.Chemscore.Fitness>
14.6451

> <Gold.Chemscore.DG>
-18.5477

> <Gold.Chemscore.ZeroCoef>
-5.4800

> <Gold.Chemscore.Hbond>
2.5223

> <Gold.Chemscore.Metal>
0.0000

> <Gold.Chemscore.Lipo>
66.9921

> <Gold.Chemscore.Internal_Hbond>
0.0000

> <Gold.Chemscore.DEClash>
1.1866

> <Gold.Chemscore.DEInternal>
2.7160

> <Gold.Chemscore.Rot>
1.2480

> <Gold.Chemscore.Internal.Correction>
   9.000000E+99

> <Gold.Chemscore.Hbonds>
donor molecule, donor type, donor heavy atom, donor atom, acceptor molecule, acceptor atom, score
      L1  H     3    23       P1  7948  0.57
      L1  H    15    35       P1  7948  0.59
      P1  H  7997  8010       L1    20  0.96

> <Gold.Chemscore.Hbond.Weighted>
-8.4245

> <Gold.Chemscore.Metal.Weighted>
-0.0000

> <Gold.Chemscore.Lipo.Weighted>
-7.8381

> <Gold.Chemscore.Internal_Hbond.Weighted>
0.0000

> <Gold.Chemscore.DEClash.Weighted>
1.1866

> <Gold.Chemscore.DEInternal.Weighted>
2.7160

> <Gold.Chemscore.Rot.Weighted>
3.1948

> <Gold.Chemscore.Internal.Correction.Weighted>
   9.000000E+99

> <Gold.Protein.RotatedTorsions>
[ 6907 6896 6895 6894 ] final -146.26 input  -60.11 | X-H torsion
[ 7974 7965 7964 7962 ] final  -88.35 input  175.53 | X-H torsion
[ 8008 7997 7996 7995 ] final   31.50 input   59.86 | X-H torsion
[ 10167 10162 10161 10158 ] final   91.79 input  -65.29 | X-H torsion
[ 10718 10713 10712 10709 ] final -153.66 input   66.30 | X-H torsion
[ 10763 10752 10751 10750 ] final   73.91 input  -60.55 | X-H torsion
[ 11005 11000 10999 10996 ] final  -72.42 input  -57.11 | X-H torsion

> <Gold.Protein.ActiveResidues>
 VAL166  LYS551  ARG553  GLY616  TRP617  ASP618  TYR619  PRO620  LYS621  CYS622 
 ASP623  PHE694  ASN695  SER759  ASP760  ASP761  ALA762  ILE779  LEU786  VAL792 
 PHE793  MET794  SER795  GLU796  ALA797  LYS798  CYS799  TRP800  GLU811  SER814 

> <Gold.Protein.RotatedAtoms>
  151.1392  133.4983  159.2597 H   0  0  0  0  0  0  0  0  0  0  0  0  # atno 6907 bound_to 6896
  151.1674  135.0301  159.8746 H   0  0  0  0  0  0  0  0  0  0  0  0  # atno 6908 bound_to 6896
  152.5462  134.1259  159.8472 H   0  0  0  0  0  0  0  0  0  0  0  0  # atno 6909 bound_to 6896
  145.4543  140.9561  143.2005 H   0  0  0  0  0  0  0  0  0  0  0  0  # atno 7974 bound_to 7965
  155.1074  140.3235  155.4530 H   0  0  0  0  0  0  0  0  0  0  0  0  # atno 8008 bound_to 7997
  156.2700  140.2050  156.6147 H   0  0  0  0  0  0  0  0  0  0  0  0  # atno 8009 bound_to 7997
  154.6782  140.0529  157.0225 H   0  0  0  0  0  0  0  0  0  0  0  0  # atno 8010 bound_to 7997
  139.8340  144.6674  150.9365 H   0  0  0  0  0  0  0  0  0  0  0  0  # atno 10167 bound_to 10162
  156.4888  130.8337  151.2561 H   0  0  0  0  0  0  0  0  0  0  0  0  # atno 10718 bound_to 10713
  153.0552  135.5045  154.7964 H   0  0  0  0  0  0  0  0  0  0  0  0  # atno 10763 bound_to 10752
  154.6795  135.2966  154.9635 H   0  0  0  0  0  0  0  0  0  0  0  0  # atno 10764 bound_to 10752
  154.0426  135.6715  153.4844 H   0  0  0  0  0  0  0  0  0  0  0  0  # atno 10765 bound_to 10752
  141.1608  133.6846  156.7057 H   0  0  0  0  0  0  0  0  0  0  0  0  # atno 11005 bound_to 11000
  144.8042  139.6083  143.7058 LP  0  0  0  0  0  0  0  0  0  0  0  0  # atno 17320 bound_to 7965
  146.2487  139.6152  142.9442 LP  0  0  0  0  0  0  0  0  0  0  0  0  # atno 17321 bound_to 7965
  140.7804  143.3975  151.1206 LP  0  0  0  0  0  0  0  0  0  0  0  0  # atno 17342 bound_to 10162
  139.7626  143.8613  152.3103 LP  0  0  0  0  0  0  0  0  0  0  0  0  # atno 17343 bound_to 10162
  157.7476  131.0020  150.2985 LP  0  0  0  0  0  0  0  0  0  0  0  0  # atno 17370 bound_to 10713
  156.3447  130.3821  149.7379 LP  0  0  0  0  0  0  0  0  0  0  0  0  # atno 17371 bound_to 10713
  140.2925  134.8229  157.4029 LP  0  0  0  0  0  0  0  0  0  0  0  0  # atno 17394 bound_to 11000
  140.1334  134.5066  155.8088 LP  0  0  0  0  0  0  0  0  0  0  0  0  # atno 17395 bound_to 11000

$$$$
