AV-unprocessed.smi:1703|AV-procd|sdf|6867|dock10
  -GOLD-   22720 8 63D 1   1.00000     0.00000
 Structure written by MMmdl.
 49 51  0  0  0  0  0  0  0  0  2 V2000
  148.4014  133.5031  158.4468 C   0  0  0  0  0  0  0  0  0  0  0  0
  147.8730  134.9367  158.2691 C   0  0  2  0  0  0  0  0  0  0  0  0
  148.9163  135.8995  157.6677 C   0  0  0  0  0  0  0  0  0  0  0  0
  149.9607  136.2669  158.6226 N   0  0  0  0  0  0  0  0  0  0  0  0
  150.9393  137.1998  158.0622 C   0  0  0  0  0  0  0  0  0  0  0  0
  150.5559  138.6920  158.1340 C   0  0  2  0  0  0  0  0  0  0  0  0
  149.3013  138.8707  157.5064 O   0  0  0  0  0  0  0  0  0  0  0  0
  151.6081  139.5765  157.4381 C   0  0  0  0  0  0  0  0  0  0  0  0
  151.2538  141.0054  157.4556 N   0  0  0  0  0  0  0  0  0  0  0  0
  150.4675  141.7195  156.5996 C   0  0  0  0  0  0  0  0  0  0  0  0
  149.7602  141.1908  155.3921 C   0  0  0  0  0  0  0  0  0  0  0  0
  149.1604  142.2010  154.6084 O   0  0  0  0  0  0  0  0  0  0  0  0
  150.4503  143.0070  157.0486 N   0  3  0  0  0  0  0  0  0  0  0  0
  151.2327  143.1190  158.1979 C   0  0  0  0  0  0  0  0  0  0  0  0
  151.5157  144.2185  159.0023 C   0  0  0  0  0  0  0  0  0  0  0  0
  152.3618  143.9926  160.1077 C   0  0  0  0  0  0  0  0  0  0  0  0
  152.8910  142.7138  160.3772 C   0  0  0  0  0  0  0  0  0  0  0  0
  152.5947  141.6063  159.5555 C   0  0  0  0  0  0  0  0  0  0  0  0
  151.7556  141.8369  158.4650 C   0  0  0  0  0  0  0  0  0  0  0  0
  149.3331  136.8244  159.8140 C   0  0  0  0  0  0  0  0  0  0  0  0
  148.3359  135.8424  160.4547 C   0  0  1  0  0  0  0  0  0  0  0  0
  147.6109  136.4595  161.6552 C   0  0  0  0  0  0  0  0  0  0  0  0
  147.3546  135.4671  159.4898 O   0  0  0  0  0  0  0  0  0  0  0  0
  148.6924  133.0760  157.4871 H   0  0  0  0  0  0  0  0  0  0  0  0
  147.6361  132.8574  158.8775 H   0  0  0  0  0  0  0  0  0  0  0  0
  149.2756  133.4657  159.0965 H   0  0  0  0  0  0  0  0  0  0  0  0
  147.0313  134.8812  157.5782 H   0  0  0  0  0  0  0  0  0  0  0  0
  149.3467  135.4354  156.7817 H   0  0  0  0  0  0  0  0  0  0  0  0
  148.4063  136.8014  157.3257 H   0  0  0  0  0  0  0  0  0  0  0  0
  151.8963  137.0517  158.5649 H   0  0  0  0  0  0  0  0  0  0  0  0
  151.1163  136.9491  157.0151 H   0  0  0  0  0  0  0  0  0  0  0  0
  150.4685  139.0199  159.1685 H   0  0  0  0  0  0  0  0  0  0  0  0
  149.2767  139.7349  157.1254 H   0  0  0  0  0  0  0  0  0  0  0  0
  152.5669  139.4787  157.9482 H   0  0  0  0  0  0  0  0  0  0  0  0
  151.7817  139.2555  156.4111 H   0  0  0  0  0  0  0  0  0  0  0  0
  150.4704  140.6413  154.7741 H   0  0  0  0  0  0  0  0  0  0  0  0
  148.9896  140.4867  155.7066 H   0  0  0  0  0  0  0  0  0  0  0  0
  149.2846  143.0315  155.0424 H   0  0  0  0  0  0  0  0  0  0  0  0
  151.1128  145.1992  158.7961 H   0  0  0  0  0  0  0  0  0  0  0  0
  152.6113  144.8167  160.7605 H   0  0  0  0  0  0  0  0  0  0  0  0
  153.5386  142.5792  161.2313 H   0  0  0  0  0  0  0  0  0  0  0  0
  153.0103  140.6338  159.7716 H   0  0  0  0  0  0  0  0  0  0  0  0
  150.0988  137.0832  160.5464 H   0  0  0  0  0  0  0  0  0  0  0  0
  148.8196  137.7532  159.5598 H   0  0  0  0  0  0  0  0  0  0  0  0
  148.8679  134.9538  160.7954 H   0  0  0  0  0  0  0  0  0  0  0  0
  148.3178  136.7556  162.4303 H   0  0  0  0  0  0  0  0  0  0  0  0
  146.9124  135.7481  162.0963 H   0  0  0  0  0  0  0  0  0  0  0  0
  147.0452  137.3444  161.3620 H   0  0  0  0  0  0  0  0  0  0  0  0
  149.9375  143.7517  156.5939 H   0  0  0  0  0  0  0  0  0  0  0  0
  1  2  1  0  0  0  0
  1 24  1  0  0  0  0
  1 25  1  0  0  0  0
  1 26  1  0  0  0  0
  2 23  1  0  0  0  0
  2  3  1  0  0  0  0
  2 27  1  0  0  0  0
  3  4  1  0  0  0  0
  3 28  1  0  0  0  0
  3 29  1  0  0  0  0
  4  5  1  0  0  0  0
  4 20  1  0  0  0  0
  5  6  1  0  0  0  0
  5 30  1  0  0  0  0
  5 31  1  0  0  0  0
  6  7  1  0  0  0  0
  6  8  1  0  0  0  0
  6 32  1  0  0  0  0
  7 33  1  0  0  0  0
  8  9  1  0  0  0  0
  8 34  1  0  0  0  0
  8 35  1  0  0  0  0
  9 19  1  0  0  0  0
  9 10  1  0  0  0  0
 10 11  1  0  0  0  0
 10 13  2  0  0  0  0
 11 12  1  0  0  0  0
 11 36  1  0  0  0  0
 11 37  1  0  0  0  0
 12 38  1  0  0  0  0
 13 14  1  0  0  0  0
 13 49  1  0  0  0  0
 14 19  2  0  0  0  0
 14 15  1  0  0  0  0
 15 16  2  0  0  0  0
 15 39  1  0  0  0  0
 16 17  1  0  0  0  0
 16 40  1  0  0  0  0
 17 18  2  0  0  0  0
 17 41  1  0  0  0  0
 18 19  1  0  0  0  0
 18 42  1  0  0  0  0
 20 21  1  0  0  0  0
 20 43  1  0  0  0  0
 20 44  1  0  0  0  0
 21 22  1  0  0  0  0
 21 23  1  0  0  0  0
 21 45  1  0  0  0  0
 22 46  1  0  0  0  0
 22 47  1  0  0  0  0
 22 48  1  0  0  0  0
M  CHG  1  13   1
M  END
> <s_m_source_file>
AV-unprocessed.smi

> <i_m_source_file_index>
1703

> <i_lp_mmshare_version>
43012

> <i_f3d_flags>
0

> <s_epik_input>
W0NIM11bQ0BASF0xW0NIMl1OKFtDSDJdW0NASF0oTzEpW0NIM10pW0NIMl1bQ0BIXShbT0hdKVtDSDJdbihjKG4yKVtDSDJdW09IXSljKGMyMylbY0hdW2NIXVtjSF1bY0hdMw==

> <s_epik_cmdline>
J2VwaWtfcHl0aG9uJywgJy1waCcsICc3LjAnLCAnLXRuJywgJzgnLCAnLW1hJywgJzIwMCcsICctbWV0YWxfYmluZGluZycsICctaW1hZScsICc8aW5maWxlLm1hZT4nLCAnLW9tYWUnLCAnPG91dGZpbGUubWFlPic=

> <r_epik_Ionization_Penalty>
1.7682

> <r_epik_Ionization_Penalty_Charging>
1.55298

> <r_epik_Ionization_Penalty_Neutral>
0.215215

> <r_epik_State_Penalty>
1.83821

> <r_epik_Charging_Adjusted_Penalty>
3.39119

> <i_epik_Tot_Q>
1

> <i_epik_Tot_abs_Q>
1

> <r_epik_Metal_State_Penalty>
5.89206

> <b_epik_Metal_Only>
0

> <s_lp_Force_Field>
OPLS_2005

> <r_lp_Energy>
34.6201

> <b_lp_Chiralities_Consistent>
1

> <s_lp_Variant>
AV-unprocessed.smi:1703-15

> <Gold.Version>
5.8.1

> <Gold.Id.Protein>
6NUR|6NUR_protein|mol2

> <Gold.PLP.Fitness>
54.2440

> <Gold.PLP.PLP>
-42.9909

> <Gold.PLP.part.hbond>
-4.1972

> <Gold.PLP.part.metal>
0.0000

> <Gold.PLP.part.buried>
-3.8763

> <Gold.PLP.part.nonpolar>
-35.5010

> <Gold.PLP.part.repulsive>
0.0293

> <Gold.PLP.ligand.clash>
0.0000

> <Gold.PLP.ligand.torsion>
0.6754

> <Gold.PLP.Chemscore.Hbond>
4.1802

> <Gold.PLP.Chemscore.CHOScore>
0.0000

> <Gold.PLP.Chemscore.Metal>
0.0000

> <Gold.Chemscore.Hbonds>
donor molecule, donor type, donor heavy atom, donor atom, acceptor molecule, acceptor atom, score
      L1  H    12    38       P1  8028  1.00
      L1  H    13    49       P1  8028  2.00
      P1  H  6896  6909       L1     4  0.70
      P1  H  8011  8017       L1    12  0.04

> <Gold.PLP.Chemscore.Internal.Correction>
0.0634

> <Gold.Rescore>
     Score         DG    S(hbond)    S(metal)    S(lipo)     H(rot)  DE(clash)    DE(int)     intcor
     16.53     -18.40       2.29        0.00     109.84       2.96       0.19       1.68       ----

> <Gold.Chemscore.Fitness>
16.5341

> <Gold.Chemscore.DG>
-18.4020

> <Gold.Chemscore.ZeroCoef>
-5.4800

> <Gold.Chemscore.Hbond>
2.2863

> <Gold.Chemscore.Metal>
0.0000

> <Gold.Chemscore.Lipo>
109.8433

> <Gold.Chemscore.Internal_Hbond>
0.0000

> <Gold.Chemscore.DEClash>
0.1864

> <Gold.Chemscore.DEInternal>
1.6815

> <Gold.Chemscore.Rot>
2.9555

> <Gold.Chemscore.Internal.Correction>
   9.000000E+99

> <Gold.Chemscore.Hbonds>
donor molecule, donor type, donor heavy atom, donor atom, acceptor molecule, acceptor atom, score
      L1  H    12    38       P1  8028  0.99
      L1  H    13    49       P1  8028  1.00
      P1  H  6896  6909       L1     4  0.05
      P1  H  8011  8017       L1    12  0.03

> <Gold.Chemscore.Hbond.Weighted>
-7.6363

> <Gold.Chemscore.Metal.Weighted>
-0.0000

> <Gold.Chemscore.Lipo.Weighted>
-12.8517

> <Gold.Chemscore.Internal_Hbond.Weighted>
0.0000

> <Gold.Chemscore.DEClash.Weighted>
0.1864

> <Gold.Chemscore.DEInternal.Weighted>
1.6815

> <Gold.Chemscore.Rot.Weighted>
7.5660

> <Gold.Chemscore.Internal.Correction.Weighted>
   9.000000E+99

> <Gold.Protein.RotatedTorsions>
[ 6907 6896 6895 6894 ] final   57.09 input  -60.11 | X-H torsion
[ 7974 7965 7964 7962 ] final   45.05 input  175.53 | X-H torsion
[ 8008 7997 7996 7995 ] final  -92.40 input   59.86 | X-H torsion
[ 10167 10162 10161 10158 ] final -103.80 input  -65.29 | X-H torsion
[ 10718 10713 10712 10709 ] final -127.39 input   66.30 | X-H torsion
[ 10763 10752 10751 10750 ] final   94.79 input  -60.55 | X-H torsion
[ 11005 11000 10999 10996 ] final  -60.98 input  -57.11 | X-H torsion

> <Gold.Protein.ActiveResidues>
 VAL166  LYS551  ARG553  GLY616  TRP617  ASP618  TYR619  PRO620  LYS621  CYS622 
 ASP623  PHE694  ASN695  SER759  ASP760  ASP761  ALA762  ILE779  LEU786  VAL792 
 PHE793  MET794  SER795  GLU796  ALA797  LYS798  CYS799  TRP800  GLU811  SER814 

> <Gold.Protein.RotatedAtoms>
  152.3699  134.6750  160.0179 H   0  0  0  0  0  0  0  0  0  0  0  0  # atno 6907 bound_to 6896
  151.7046  133.3306  159.3283 H   0  0  0  0  0  0  0  0  0  0  0  0  # atno 6908 bound_to 6896
  150.7665  134.6520  159.6338 H   0  0  0  0  0  0  0  0  0  0  0  0  # atno 6909 bound_to 6896
  146.0514  139.5007  142.9716 H   0  0  0  0  0  0  0  0  0  0  0  0  # atno 7974 bound_to 7965
  154.7226  140.0509  157.0654 H   0  0  0  0  0  0  0  0  0  0  0  0  # atno 8008 bound_to 7997
  155.0407  140.3168  155.4706 H   0  0  0  0  0  0  0  0  0  0  0  0  # atno 8009 bound_to 7997
  156.2820  140.2133  156.5530 H   0  0  0  0  0  0  0  0  0  0  0  0  # atno 8010 bound_to 7997
  140.2162  143.3710  152.1009 H   0  0  0  0  0  0  0  0  0  0  0  0  # atno 10167 bound_to 10162
  156.1853  130.6759  151.0356 H   0  0  0  0  0  0  0  0  0  0  0  0  # atno 10718 bound_to 10713
  153.2457  135.4277  155.0744 H   0  0  0  0  0  0  0  0  0  0  0  0  # atno 10763 bound_to 10752
  154.8360  135.3413  154.6585 H   0  0  0  0  0  0  0  0  0  0  0  0  # atno 10764 bound_to 10752
  153.7008  135.7028  153.5120 H   0  0  0  0  0  0  0  0  0  0  0  0  # atno 10765 bound_to 10752
  141.1308  133.6626  156.5306 H   0  0  0  0  0  0  0  0  0  0  0  0  # atno 11005 bound_to 11000
  145.6717  141.0214  143.1654 LP  0  0  0  0  0  0  0  0  0  0  0  0  # atno 17320 bound_to 7965
  144.7125  139.8319  143.7410 LP  0  0  0  0  0  0  0  0  0  0  0  0  # atno 17321 bound_to 7965
  139.5161  144.6973  151.5594 LP  0  0  0  0  0  0  0  0  0  0  0  0  # atno 17342 bound_to 10162
  140.6288  143.9116  150.6588 LP  0  0  0  0  0  0  0  0  0  0  0  0  # atno 17343 bound_to 10162
  157.6895  131.0814  150.7149 LP  0  0  0  0  0  0  0  0  0  0  0  0  # atno 17370 bound_to 10713
  156.7206  130.4679  149.5524 LP  0  0  0  0  0  0  0  0  0  0  0  0  # atno 17371 bound_to 10713
  140.4219  134.7180  157.4894 LP  0  0  0  0  0  0  0  0  0  0  0  0  # atno 17394 bound_to 11000
  140.0354  134.6345  155.9050 LP  0  0  0  0  0  0  0  0  0  0  0  0  # atno 17395 bound_to 11000

$$$$
