AV-unprocessed.smi:2601|AV-procd|sdf|10183|dock9
  -GOLD-   2272014193D 1   1.00000     0.00000
 Structure written by MMmdl.
 47 48  0  0  0  0  0  0  0  0  1 V2000
  153.0852  142.3055  159.8601 C   0  0  0  0  0  0  0  0  0  0  0  0
  152.3401  143.5491  159.8081 N   0  0  0  0  0  0  0  0  0  0  0  0
  152.1614  144.2545  160.9457 N   0  0  0  0  0  0  0  0  0  0  0  0
  151.4637  145.3139  160.5763 C   0  0  0  0  0  0  0  0  0  0  0  0
  151.1721  145.3167  159.1848 C   0  0  0  0  0  0  0  0  0  0  0  0
  151.7487  144.1674  158.7194 C   0  0  0  0  0  0  0  0  0  0  0  0
  151.7921  143.6061  157.3284 C   0  0  0  0  0  0  0  0  0  0  0  0
  151.1563  142.2090  157.1867 C   0  0  0  0  0  0  0  0  0  0  0  0
  150.1060  142.1616  156.1737 N   0  0  0  0  0  0  0  0  0  0  0  0
  150.0105  141.2530  155.1889 C   0  0  0  0  0  0  0  0  0  0  0  0
  150.8371  140.3515  155.0452 O   0  0  0  0  0  0  0  0  0  0  0  0
  148.9227  141.3964  154.3927 N   0  0  0  0  0  0  0  0  0  0  0  0
  147.8808  142.4252  154.4813 C   0  0  0  0  0  0  0  0  0  0  0  0
  146.5438  141.7691  154.8953 C   0  0  0  0  0  0  0  0  0  0  0  0
  146.5241  141.3717  156.3849 C   0  0  0  0  0  0  0  0  0  0  0  0
  145.3893  142.7524  154.6419 C   0  0  0  0  0  0  0  0  0  0  0  0
  146.2505  140.6419  154.0513 O   0  0  0  0  0  0  0  0  0  0  0  0
  147.2840  139.7113  153.6832 C   0  0  0  0  0  0  0  0  0  0  0  0
  147.5024  138.6545  154.7857 C   0  0  0  0  0  0  0  0  0  0  0  0
  146.7365  139.0001  152.4350 C   0  0  0  0  0  0  0  0  0  0  0  0
  148.5869  140.4609  153.3205 C   0  0  0  0  0  0  0  0  0  0  0  0
  153.9880  142.3951  159.2556 H   0  0  0  0  0  0  0  0  0  0  0  0
  152.4742  141.4921  159.4687 H   0  0  0  0  0  0  0  0  0  0  0  0
  153.3689  142.0678  160.8863 H   0  0  0  0  0  0  0  0  0  0  0  0
  151.1891  146.0440  161.3232 H   0  0  0  0  0  0  0  0  0  0  0  0
  150.6220  146.0503  158.6145 H   0  0  0  0  0  0  0  0  0  0  0  0
  151.2850  144.2956  156.6533 H   0  0  0  0  0  0  0  0  0  0  0  0
  152.8204  143.5605  156.9712 H   0  0  0  0  0  0  0  0  0  0  0  0
  151.9219  141.4918  156.8903 H   0  0  0  0  0  0  0  0  0  0  0  0
  150.7683  141.8670  158.1471 H   0  0  0  0  0  0  0  0  0  0  0  0
  149.3849  142.8657  156.2341 H   0  0  0  0  0  0  0  0  0  0  0  0
  148.1244  143.2430  155.1599 H   0  0  0  0  0  0  0  0  0  0  0  0
  147.7788  142.8959  153.5021 H   0  0  0  0  0  0  0  0  0  0  0  0
  146.5277  142.2562  157.0222 H   0  0  0  0  0  0  0  0  0  0  0  0
  147.3903  140.7871  156.6788 H   0  0  0  0  0  0  0  0  0  0  0  0
  145.6318  140.7947  156.6289 H   0  0  0  0  0  0  0  0  0  0  0  0
  145.5142  143.6700  155.2178 H   0  0  0  0  0  0  0  0  0  0  0  0
  144.4298  142.3146  154.9194 H   0  0  0  0  0  0  0  0  0  0  0  0
  145.3292  143.0290  153.5888 H   0  0  0  0  0  0  0  0  0  0  0  0
  148.1210  137.8349  154.4188 H   0  0  0  0  0  0  0  0  0  0  0  0
  146.5552  138.2281  155.1167 H   0  0  0  0  0  0  0  0  0  0  0  0
  148.0135  139.0487  155.6585 H   0  0  0  0  0  0  0  0  0  0  0  0
  147.4482  138.2696  152.0485 H   0  0  0  0  0  0  0  0  0  0  0  0
  146.5251  139.7107  151.6353 H   0  0  0  0  0  0  0  0  0  0  0  0
  145.8084  138.4724  152.6568 H   0  0  0  0  0  0  0  0  0  0  0  0
  148.4574  141.0218  152.3934 H   0  0  0  0  0  0  0  0  0  0  0  0
  149.3869  139.7474  153.1166 H   0  0  0  0  0  0  0  0  0  0  0  0
  1  2  1  0  0  0  0
  1 22  1  0  0  0  0
  1 23  1  0  0  0  0
  1 24  1  0  0  0  0
  2  6  1  0  0  0  0
  2  3  1  0  0  0  0
  3  4  2  0  0  0  0
  4  5  1  0  0  0  0
  4 25  1  0  0  0  0
  5  6  2  0  0  0  0
  5 26  1  0  0  0  0
  6  7  1  0  0  0  0
  7  8  1  0  0  0  0
  7 27  1  0  0  0  0
  7 28  1  0  0  0  0
  8  9  1  0  0  0  0
  8 29  1  0  0  0  0
  8 30  1  0  0  0  0
  9 10  1  0  0  0  0
  9 31  1  0  0  0  0
 10 11  2  0  0  0  0
 10 12  1  0  0  0  0
 12 21  1  0  0  0  0
 12 13  1  0  0  0  0
 13 14  1  0  0  0  0
 13 32  1  0  0  0  0
 13 33  1  0  0  0  0
 14 15  1  0  0  0  0
 14 16  1  0  0  0  0
 14 17  1  0  0  0  0
 15 34  1  0  0  0  0
 15 35  1  0  0  0  0
 15 36  1  0  0  0  0
 16 37  1  0  0  0  0
 16 38  1  0  0  0  0
 16 39  1  0  0  0  0
 17 18  1  0  0  0  0
 18 19  1  0  0  0  0
 18 20  1  0  0  0  0
 18 21  1  0  0  0  0
 19 40  1  0  0  0  0
 19 41  1  0  0  0  0
 19 42  1  0  0  0  0
 20 43  1  0  0  0  0
 20 44  1  0  0  0  0
 20 45  1  0  0  0  0
 21 46  1  0  0  0  0
 21 47  1  0  0  0  0
M  END
> <s_m_source_file>
AV-unprocessed.smi

> <i_m_source_file_index>
2601

> <i_lp_mmshare_version>
43012

> <i_f3d_flags>
0

> <s_epik_input>
W0NIM11uMW5bY0hdW2NIXWMxW0NIMl1bQ0gyXVtOSF1DKD1PKU4oW0NIMl1DMihbQ0gzXSlbQ0gzXSlbQ0gyXUMoTzIpKFtDSDNdKVtDSDNd

> <s_epik_cmdline>
J2VwaWtfcHl0aG9uJywgJy1waCcsICc3LjAnLCAnLXRuJywgJzgnLCAnLW1hJywgJzIwMCcsICctbWV0YWxfYmluZGluZycsICctaW1hZScsICc8aW5maWxlLm1hZT4nLCAnLW9tYWUnLCAnPG91dGZpbGUubWFlPic=

> <r_lp_tautomer_probability>
1

> <r_epik_Ionization_Penalty>
0.00250606

> <r_epik_Ionization_Penalty_Charging>
0

> <r_epik_Ionization_Penalty_Neutral>
0.00250606

> <r_epik_State_Penalty>
0.0017149

> <r_epik_Charging_Adjusted_Penalty>
0.0017149

> <i_epik_Tot_Q>
0

> <i_epik_Tot_abs_Q>
0

> <r_epik_Metal_State_Penalty>
-0

> <b_epik_Metal_Only>
0

> <s_lp_Force_Field>
OPLS_2005

> <r_lp_Energy>
30.5553

> <b_lp_Chiralities_Consistent>
1

> <s_lp_Variant>
AV-unprocessed.smi:2601-1

> <Gold.Version>
5.8.1

> <Gold.Id.Protein>
6NUR|6NUR_protein|mol2

> <Gold.PLP.Fitness>
47.0830

> <Gold.PLP.PLP>
-42.1865

> <Gold.PLP.part.hbond>
-2.0000

> <Gold.PLP.part.metal>
0.0000

> <Gold.PLP.part.buried>
3.6770

> <Gold.PLP.part.nonpolar>
-44.9140

> <Gold.PLP.part.repulsive>
1.1137

> <Gold.PLP.ligand.clash>
0.0000

> <Gold.PLP.ligand.torsion>
0.4221

> <Gold.PLP.Chemscore.Hbond>
1.9120

> <Gold.PLP.Chemscore.CHOScore>
0.0000

> <Gold.PLP.Chemscore.Metal>
0.0000

> <Gold.Chemscore.Hbonds>
donor molecule, donor type, donor heavy atom, donor atom, acceptor molecule, acceptor atom, score
      L1  H     9    31       P1  8028  0.88
      P1  H  7989  7998       L1    11  1.00

> <Gold.PLP.Chemscore.Internal.Correction>
0.0046

> <Gold.Rescore>
     Score         DG    S(hbond)    S(metal)    S(lipo)     H(rot)  DE(clash)    DE(int)     intcor
     14.84     -19.37       1.12        0.00     115.93       1.33       4.11       0.41       ----

> <Gold.Chemscore.Fitness>
14.8411

> <Gold.Chemscore.DG>
-19.3654

> <Gold.Chemscore.ZeroCoef>
-5.4800

> <Gold.Chemscore.Hbond>
1.1159

> <Gold.Chemscore.Metal>
0.0000

> <Gold.Chemscore.Lipo>
115.9302

> <Gold.Chemscore.Internal_Hbond>
0.0000

> <Gold.Chemscore.DEClash>
4.1108

> <Gold.Chemscore.DEInternal>
0.4136

> <Gold.Chemscore.Rot>
1.3303

> <Gold.Chemscore.Internal.Correction>
   9.000000E+99

> <Gold.Chemscore.Hbonds>
donor molecule, donor type, donor heavy atom, donor atom, acceptor molecule, acceptor atom, score
      L1  H     9    31       P1  8028  0.83
      P1  H  7989  7998       L1    11  0.25

> <Gold.Chemscore.Hbond.Weighted>
-3.7271

> <Gold.Chemscore.Metal.Weighted>
-0.0000

> <Gold.Chemscore.Lipo.Weighted>
-13.5638

> <Gold.Chemscore.Internal_Hbond.Weighted>
0.0000

> <Gold.Chemscore.DEClash.Weighted>
4.1108

> <Gold.Chemscore.DEInternal.Weighted>
0.4136

> <Gold.Chemscore.Rot.Weighted>
3.4055

> <Gold.Chemscore.Internal.Correction.Weighted>
   9.000000E+99

> <Gold.Protein.RotatedTorsions>
[ 6907 6896 6895 6894 ] final  102.20 input  -60.11 | X-H torsion
[ 7974 7965 7964 7962 ] final  -13.56 input  175.53 | X-H torsion
[ 8008 7997 7996 7995 ] final  -29.05 input   59.86 | X-H torsion
[ 10167 10162 10161 10158 ] final -116.68 input  -65.29 | X-H torsion
[ 10718 10713 10712 10709 ] final   -2.78 input   66.30 | X-H torsion
[ 10763 10752 10751 10750 ] final   95.38 input  -60.55 | X-H torsion
[ 11005 11000 10999 10996 ] final    7.93 input  -57.11 | X-H torsion

> <Gold.Protein.ActiveResidues>
 VAL166  LYS551  ARG553  GLY616  TRP617  ASP618  TYR619  PRO620  LYS621  CYS622 
 ASP623  PHE694  ASN695  SER759  ASP760  ASP761  ALA762  ILE779  LEU786  VAL792 
 PHE793  MET794  SER795  GLU796  ALA797  LYS798  CYS799  TRP800  GLU811  SER814 

> <Gold.Protein.RotatedAtoms>
  152.5330  134.0011  159.7894 H   0  0  0  0  0  0  0  0  0  0  0  0  # atno 6907 bound_to 6896
  151.0230  133.5851  159.2676 H   0  0  0  0  0  0  0  0  0  0  0  0  # atno 6908 bound_to 6896
  151.2884  135.0741  159.9248 H   0  0  0  0  0  0  0  0  0  0  0  0  # atno 6909 bound_to 6896
  146.2109  140.3220  142.8391 H   0  0  0  0  0  0  0  0  0  0  0  0  # atno 7974 bound_to 7965
  154.4306  140.1829  156.1186 H   0  0  0  0  0  0  0  0  0  0  0  0  # atno 8008 bound_to 7997
  156.0161  140.3345  155.6965 H   0  0  0  0  0  0  0  0  0  0  0  0  # atno 8009 bound_to 7997
  155.6042  140.0643  157.2715 H   0  0  0  0  0  0  0  0  0  0  0  0  # atno 8010 bound_to 7997
  140.0765  143.4827  152.1950 H   0  0  0  0  0  0  0  0  0  0  0  0  # atno 10167 bound_to 10162
  156.7858  130.5345  149.5743 H   0  0  0  0  0  0  0  0  0  0  0  0  # atno 10718 bound_to 10713
  153.2526  135.4256  155.0812 H   0  0  0  0  0  0  0  0  0  0  0  0  # atno 10763 bound_to 10752
  154.8388  135.3429  154.6492 H   0  0  0  0  0  0  0  0  0  0  0  0  # atno 10764 bound_to 10752
  153.6913  135.7033  153.5146 H   0  0  0  0  0  0  0  0  0  0  0  0  # atno 10765 bound_to 10752
  140.5427  134.0358  155.7909 H   0  0  0  0  0  0  0  0  0  0  0  0  # atno 11005 bound_to 11000
  144.8913  140.7527  143.5925 LP  0  0  0  0  0  0  0  0  0  0  0  0  # atno 17320 bound_to 7965
  145.3143  139.1808  143.4622 LP  0  0  0  0  0  0  0  0  0  0  0  0  # atno 17321 bound_to 7965
  139.5804  144.7508  151.3654 LP  0  0  0  0  0  0  0  0  0  0  0  0  # atno 17342 bound_to 10162
  140.7099  143.7417  150.7548 LP  0  0  0  0  0  0  0  0  0  0  0  0  # atno 17343 bound_to 10162
  156.1189  130.6095  151.0164 LP  0  0  0  0  0  0  0  0  0  0  0  0  # atno 17370 bound_to 10713
  157.6624  131.0878  150.7807 LP  0  0  0  0  0  0  0  0  0  0  0  0  # atno 17371 bound_to 10713
  141.1217  133.9449  157.2715 LP  0  0  0  0  0  0  0  0  0  0  0  0  # atno 17394 bound_to 11000
  139.9495  135.0178  156.8953 LP  0  0  0  0  0  0  0  0  0  0  0  0  # atno 17395 bound_to 11000

$$$$
