#       Name:                AV-unprocessed.smi:1756
#       Creating user name   scv26
#       Creation time:       Fri Mar 27 08:29:08 2020


#       File generated by GOLD software.
#

@<TRIPOS>MOLECULE
AV-unprocessed.smi:1756
    44    45     1
SMALL
NO_CHARGES


@<TRIPOS>ATOM
      1 ****         0.3716   1.0374  -0.8660 O.2            1 S1                 0.0000
      2 ****        -0.1852  -0.0454  -1.0448 C.2            1 S1                 0.0000
      3 ****         0.4778  -1.2070  -1.1362 N.am           1 S1                 0.0000
      4 ****         1.9273  -1.3652  -1.0593 C.3            1 S1                 0.0000
      5 ****         2.3897  -1.8376   0.3314 C.3            1 S1                 0.0000
      6 ****         2.1635  -0.7922   1.4451 C.3            1 S1                 0.0000
      7 ****         2.7467  -1.2813   2.7757 C.3            1 S1                 0.0000
      8 ****         4.2104  -1.6884   2.5818 C.3            1 S1                 0.0000
      9 ****         4.3327  -2.6902   1.4238 C.3            1 S1                 0.0000
     10 ****         3.7833  -2.1262   0.2370 O.3            1 S1                 0.0000
     11 ****        -1.5122  -0.2424  -1.1542 N.am           1 S1                 0.0000
     12 ****        -2.5608   0.6933  -1.1274 C.2            1 S1                 0.0000
     13 ****        -2.4107   2.0382  -1.2535 C.2            1 S1                 0.0000
     14 ****        -3.5442   2.9478  -1.2215 C.2            1 S1                 0.0000
     15 ****        -3.3697   4.4456  -1.4203 C.3            1 S1                 0.0000
     16 ****        -4.4463   4.9866  -1.9921 F              1 S1                 0.0000
     17 ****        -3.1826   5.0394  -0.2425 F              1 S1                 0.0000
     18 ****        -2.3123   4.7065  -2.1892 F              1 S1                 0.0000
     19 ****        -4.7603   2.3870  -1.0888 C.2            1 S1                 0.0000
     20 ****        -4.9235   1.0064  -0.9568 N.am           1 S1                 0.0000
     21 ****        -3.9064   0.1160  -0.9701 C.2            1 S1                 0.0000
     22 ****        -4.1343  -1.0879  -0.8550 O.2            1 S1                 0.0000
     23 ****        -5.8677   0.6641  -0.8505 H              1 S1                 0.0000
     24 ****        -0.0605  -2.0499  -1.2740 H              1 S1                 0.0000
     25 ****         2.2103  -2.1096  -1.8040 H              1 S1                 0.0000
     26 ****         2.4428  -0.4457  -1.3418 H              1 S1                 0.0000
     27 ****         1.8598  -2.7587   0.5815 H              1 S1                 0.0000
     28 ****         2.6349   0.1505   1.1645 H              1 S1                 0.0000
     29 ****         1.1009  -0.5853   1.5697 H              1 S1                 0.0000
     30 ****         2.6646  -0.5044   3.5362 H              1 S1                 0.0000
     31 ****         2.1724  -2.1358   3.1359 H              1 S1                 0.0000
     32 ****         4.8118  -0.8050   2.3640 H              1 S1                 0.0000
     33 ****         4.6082  -2.1205   3.5003 H              1 S1                 0.0000
     34 ****         5.3808  -2.9316   1.2468 H              1 S1                 0.0000
     35 ****         3.8268  -3.6266   1.6633 H              1 S1                 0.0000
     36 ****        -1.8136  -1.2025  -1.2385 H              1 S1                 0.0000
     37 ****        -1.4380   2.4793  -1.3935 H              1 S1                 0.0000
     38 ****        -5.6875   2.9407  -1.0781 H              1 S1                 0.0000
     39 ****         1.3671   1.0798  -0.7814 LP             1 S1                 0.0000
     40 ****        -0.1715   1.8749  -0.8053 LP             1 S1                 0.0000
     41 ****         4.2691  -1.2752   0.0376 LP             1 S1                 0.0000
     42 ****         3.9217  -2.7727  -0.5132 LP             1 S1                 0.0000
     43 ****        -3.3789  -1.7430  -0.8650 LP             1 S1                 0.0000
     44 ****        -5.0750  -1.4110  -0.7514 LP             1 S1                 0.0000
@<TRIPOS>BOND
    1    1    2 2     
    2    2    3 am    
    3    2   11 am    
    4    3    4 1     
    5    3   24 1     
    6    4    5 1     
    7    4   25 1     
    8    4   26 1     
    9    5   10 1     
   10    5    6 1     
   11    5   27 1     
   12    6    7 1     
   13    6   28 1     
   14    6   29 1     
   15    7    8 1     
   16    7   30 1     
   17    7   31 1     
   18    8    9 1     
   19    8   32 1     
   20    8   33 1     
   21    9   10 1     
   22    9   34 1     
   23    9   35 1     
   24   11   12 1     
   25   11   36 1     
   26   12   21 1     
   27   12   13 2     
   28   13   14 1     
   29   13   37 1     
   30   14   15 1     
   31   14   19 2     
   32   15   16 1     
   33   15   17 1     
   34   15   18 1     
   35   19   20 1     
   36   19   38 1     
   37   20   23 1     
   38   20   21 am    
   39   21   22 2     
   40    1   39 1     
   41    1   40 1     
   42   10   41 1     
   43   10   42 1     
   44   22   43 1     
   45   22   44 1     
@<TRIPOS>SUBSTRUCTURE
      1 S1             1
@<TRIPOS>SET
LONE_PAIRS      STATIC     ATOMS    <user>   **** ""
6 39 40 41 42 43 44
DONOR_HYDROGENS      STATIC     ATOMS    <user>   **** ""
3 24 36 23
ATOM$BLUE        STATIC     ATOMS    COLORGROUP SYSTEM
6 39 40 41 42 43 44
ATOM$RED        STATIC     ATOMS    COLORGROUP SYSTEM
3 24 36 23
