AV-unprocessed.smi:632|AV-procd|sdf|3129|dock8
  -GOLD-   22720 0 53D 1   1.00000     0.00000
 Structure written by MMmdl.
 41 42  0  0  0  0  0  0  0  0  2 V2000
  152.7759  129.4137  154.7595 C   0  0  0  0  0  0  0  0  0  0  0  0
  151.4871  129.8986  155.4511 C   0  0  0  0  0  0  0  0  0  0  0  0
  151.3048  129.0617  156.7366 C   0  0  0  0  0  0  0  0  0  0  0  0
  151.6212  131.3741  155.8767 C   0  0  0  0  0  0  0  0  0  0  0  0
  150.3116  129.7379  154.5151 C   0  0  0  0  0  0  0  0  0  0  0  0
  149.5650  130.7786  154.1260 N   0  0  0  0  0  0  0  0  0  0  0  0
  148.5411  130.4115  153.2658 N   0  0  0  0  0  0  0  0  0  0  0  0
  148.5262  129.0996  152.9962 C   0  0  0  0  0  0  0  0  0  0  0  0
  147.6152  128.5369  152.1851 N   0  5  0  0  0  0  0  0  0  0  0  0
  146.4225  129.1433  151.9851 C   0  0  0  0  0  0  0  0  0  0  0  0
  145.3153  128.6937  152.2901 O   0  0  0  0  0  0  0  0  0  0  0  0
  146.5204  130.3456  151.3990 N   0  0  0  0  0  0  0  0  0  0  0  0
  145.4117  131.2374  151.0671 C   0  0  2  0  0  0  0  0  0  0  0  0
  145.5834  131.8058  149.6446 C   0  0  0  0  0  0  0  0  0  0  0  0
  144.4629  132.8010  149.2944 C   0  0  0  0  0  0  0  0  0  0  0  0
  144.3317  133.9279  150.3369 C   0  0  2  0  0  0  0  0  0  0  0  0
  145.4410  134.8010  150.2529 O   0  0  0  0  0  0  0  0  0  0  0  0
  144.2089  133.3672  151.7666 C   0  0  0  0  0  0  0  0  0  0  0  0
  145.3356  132.3742  152.1020 C   0  0  0  0  0  0  0  0  0  0  0  0
  149.7932  128.1999  153.8249 S   0  0  0  0  0  0  0  0  0  0  0  0
  153.6399  129.5047  155.4184 H   0  0  0  0  0  0  0  0  0  0  0  0
  152.9904  129.9942  153.8615 H   0  0  0  0  0  0  0  0  0  0  0  0
  152.6958  128.3671  154.4624 H   0  0  0  0  0  0  0  0  0  0  0  0
  151.2233  127.9963  156.5161 H   0  0  0  0  0  0  0  0  0  0  0  0
  150.4108  129.3584  157.2865 H   0  0  0  0  0  0  0  0  0  0  0  0
  152.1521  129.1844  157.4122 H   0  0  0  0  0  0  0  0  0  0  0  0
  152.4525  131.5154  156.5680 H   0  0  0  0  0  0  0  0  0  0  0  0
  150.7159  131.7273  156.3720 H   0  0  0  0  0  0  0  0  0  0  0  0
  151.8004  132.0232  155.0188 H   0  0  0  0  0  0  0  0  0  0  0  0
  147.4475  130.6696  151.1659 H   0  0  0  0  0  0  0  0  0  0  0  0
  144.4742  130.6799  151.1135 H   0  0  0  0  0  0  0  0  0  0  0  0
  146.5515  132.3015  149.5596 H   0  0  0  0  0  0  0  0  0  0  0  0
  145.5899  130.9948  148.9155 H   0  0  0  0  0  0  0  0  0  0  0  0
  144.6306  133.2203  148.3017 H   0  0  0  0  0  0  0  0  0  0  0  0
  143.5180  132.2590  149.2383 H   0  0  0  0  0  0  0  0  0  0  0  0
  143.4449  134.5208  150.1102 H   0  0  0  0  0  0  0  0  0  0  0  0
  145.8707  134.6615  149.4229 H   0  0  0  0  0  0  0  0  0  0  0  0
  144.1969  134.1806  152.4931 H   0  0  0  0  0  0  0  0  0  0  0  0
  143.2496  132.8577  151.8663 H   0  0  0  0  0  0  0  0  0  0  0  0
  145.1726  131.9608  153.0979 H   0  0  0  0  0  0  0  0  0  0  0  0
  146.2886  132.9037  152.1422 H   0  0  0  0  0  0  0  0  0  0  0  0
  1  2  1  0  0  0  0
  1 21  1  0  0  0  0
  1 22  1  0  0  0  0
  1 23  1  0  0  0  0
  2  3  1  0  0  0  0
  2  4  1  0  0  0  0
  2  5  1  0  0  0  0
  3 24  1  0  0  0  0
  3 25  1  0  0  0  0
  3 26  1  0  0  0  0
  4 27  1  0  0  0  0
  4 28  1  0  0  0  0
  4 29  1  0  0  0  0
  5 20  1  0  0  0  0
  5  6  2  0  0  0  0
  6  7  1  0  0  0  0
  7  8  2  0  0  0  0
  8  9  1  0  0  0  0
  8 20  1  0  0  0  0
  9 10  1  0  0  0  0
 10 11  2  0  0  0  0
 10 12  1  0  0  0  0
 12 13  1  0  0  0  0
 12 30  1  0  0  0  0
 13 19  1  0  0  0  0
 13 14  1  0  0  0  0
 13 31  1  0  0  0  0
 14 15  1  0  0  0  0
 14 32  1  0  0  0  0
 14 33  1  0  0  0  0
 15 16  1  0  0  0  0
 15 34  1  0  0  0  0
 15 35  1  0  0  0  0
 16 17  1  0  0  0  0
 16 18  1  0  0  0  0
 16 36  1  0  0  0  0
 17 37  1  0  0  0  0
 18 19  1  0  0  0  0
 18 38  1  0  0  0  0
 18 39  1  0  0  0  0
 19 40  1  0  0  0  0
 19 41  1  0  0  0  0
M  CHG  1   9  -1
M  END
> <s_m_source_file>
AV-unprocessed.smi

> <i_m_source_file_index>
632

> <i_lp_mmshare_version>
43012

> <i_f3d_flags>
0

> <s_epik_input>
W0NIM11DKFtDSDNdKShbQ0gzXSljMW5uYyhzMSlbTkhdQyg9TylbTkhdW0NAQEhdMltDSDJdW0NIMl1bQ0BASF0oW09IXSlbQ0gyXVtDSDJdMg==

> <s_epik_cmdline>
J2VwaWtfcHl0aG9uJywgJy1waCcsICc3LjAnLCAnLXRuJywgJzgnLCAnLW1hJywgJzIwMCcsICctbWV0YWxfYmluZGluZycsICctaW1hZScsICc8aW5maWxlLm1hZT4nLCAnLW9tYWUnLCAnPG91dGZpbGUubWFlPic=

> <r_lp_tautomer_probability>
1

> <r_epik_Ionization_Penalty>
4.62389

> <r_epik_Ionization_Penalty_Charging>
4.45204

> <r_epik_Ionization_Penalty_Neutral>
0.171842

> <r_epik_State_Penalty>
4.45172

> <r_epik_Charging_Adjusted_Penalty>
8.90376

> <i_epik_Tot_Q>
-1

> <i_epik_Tot_abs_Q>
1

> <r_epik_Metal_State_Penalty>
0.795834

> <b_epik_Metal_Only>
1

> <s_lp_Force_Field>
OPLS_2005

> <r_lp_Energy>
3.40986

> <b_lp_Chiralities_Consistent>
1

> <s_lp_Variant>
AV-unprocessed.smi:632-4

> <Gold.Version>
5.8.1

> <Gold.Id.Protein>
6NUR|6NUR_protein|mol2

> <Gold.PLP.Fitness>
38.9044

> <Gold.PLP.PLP>
-34.7558

> <Gold.PLP.part.hbond>
-2.0000

> <Gold.PLP.part.metal>
0.0000

> <Gold.PLP.part.buried>
-4.8973

> <Gold.PLP.part.nonpolar>
-28.3713

> <Gold.PLP.part.repulsive>
1.1940

> <Gold.PLP.ligand.clash>
0.0000

> <Gold.PLP.ligand.torsion>
0.9331

> <Gold.PLP.Chemscore.Hbond>
2.0000

> <Gold.PLP.Chemscore.CHOScore>
0.0000

> <Gold.PLP.Chemscore.Metal>
0.0000

> <Gold.Chemscore.Hbonds>
donor molecule, donor type, donor heavy atom, donor atom, acceptor molecule, acceptor atom, score
      L1  H    12    30       P1 10747  1.00
      L1  H    17    37       P1  7921  1.00

> <Gold.PLP.Chemscore.Internal.Correction>
0.0148

> <Gold.Rescore>
     Score         DG    S(hbond)    S(metal)    S(lipo)     H(rot)  DE(clash)    DE(int)     intcor
     16.29     -17.41       1.99        0.00      81.79       1.67       0.19       0.93       ----

> <Gold.Chemscore.Fitness>
16.2944

> <Gold.Chemscore.DG>
-17.4121

> <Gold.Chemscore.ZeroCoef>
-5.4800

> <Gold.Chemscore.Hbond>
1.9904

> <Gold.Chemscore.Metal>
0.0000

> <Gold.Chemscore.Lipo>
81.7855

> <Gold.Chemscore.Internal_Hbond>
0.0000

> <Gold.Chemscore.DEClash>
0.1888

> <Gold.Chemscore.DEInternal>
0.9289

> <Gold.Chemscore.Rot>
1.6737

> <Gold.Chemscore.Internal.Correction>
   9.000000E+99

> <Gold.Chemscore.Hbonds>
donor molecule, donor type, donor heavy atom, donor atom, acceptor molecule, acceptor atom, score
      L1  H    12    30       P1 10747  0.99
      L1  H    17    37       P1  7921  0.78

> <Gold.Chemscore.Hbond.Weighted>
-6.6479

> <Gold.Chemscore.Metal.Weighted>
-0.0000

> <Gold.Chemscore.Lipo.Weighted>
-9.5689

> <Gold.Chemscore.Internal_Hbond.Weighted>
0.0000

> <Gold.Chemscore.DEClash.Weighted>
0.1888

> <Gold.Chemscore.DEInternal.Weighted>
0.9289

> <Gold.Chemscore.Rot.Weighted>
4.2848

> <Gold.Chemscore.Internal.Correction.Weighted>
   9.000000E+99

> <Gold.Protein.RotatedTorsions>
[ 6907 6896 6895 6894 ] final   13.04 input  -60.11 | X-H torsion
[ 7974 7965 7964 7962 ] final -123.01 input  175.53 | X-H torsion
[ 8008 7997 7996 7995 ] final -135.62 input   59.86 | X-H torsion
[ 10167 10162 10161 10158 ] final   99.31 input  -65.29 | X-H torsion
[ 10718 10713 10712 10709 ] final   42.38 input   66.30 | X-H torsion
[ 10763 10752 10751 10750 ] final  -62.98 input  -60.55 | X-H torsion
[ 11005 11000 10999 10996 ] final   -7.18 input  -57.11 | X-H torsion

> <Gold.Protein.ActiveResidues>
 VAL166  LYS551  ARG553  GLY616  TRP617  ASP618  TYR619  PRO620  LYS621  CYS622 
 ASP623  PHE694  ASN695  SER759  ASP760  ASP761  ALA762  ILE779  LEU786  VAL792 
 PHE793  MET794  SER795  GLU796  ALA797  LYS798  CYS799  TRP800  GLU811  SER814 

> <Gold.Protein.RotatedAtoms>
  151.7800  135.0764  160.0372 H   0  0  0  0  0  0  0  0  0  0  0  0  # atno 6907 bound_to 6896
  152.3229  133.5869  159.5765 H   0  0  0  0  0  0  0  0  0  0  0  0  # atno 6908 bound_to 6896
  150.7380  133.9899  159.3645 H   0  0  0  0  0  0  0  0  0  0  0  0  # atno 6909 bound_to 6896
  145.0233  140.8006  143.4368 H   0  0  0  0  0  0  0  0  0  0  0  0  # atno 7974 bound_to 7965
  155.3817  140.0494  157.3043 H   0  0  0  0  0  0  0  0  0  0  0  0  # atno 8008 bound_to 7997
  154.5079  140.2181  155.9176 H   0  0  0  0  0  0  0  0  0  0  0  0  # atno 8009 bound_to 7997
  156.1548  140.3128  155.8713 H   0  0  0  0  0  0  0  0  0  0  0  0  # atno 8010 bound_to 7997
  139.7629  144.6948  151.0266 H   0  0  0  0  0  0  0  0  0  0  0  0  # atno 10167 bound_to 10162
  157.4041  130.7877  149.7374 H   0  0  0  0  0  0  0  0  0  0  0  0  # atno 10718 bound_to 10713
  154.3082  135.6221  153.5454 H   0  0  0  0  0  0  0  0  0  0  0  0  # atno 10763 bound_to 10752
  152.9832  135.5695  154.5207 H   0  0  0  0  0  0  0  0  0  0  0  0  # atno 10764 bound_to 10752
  154.4852  135.2865  155.1516 H   0  0  0  0  0  0  0  0  0  0  0  0  # atno 10765 bound_to 10752
  140.7099  133.8917  155.8743 H   0  0  0  0  0  0  0  0  0  0  0  0  # atno 11005 bound_to 11000
  145.1867  139.2322  143.5264 LP  0  0  0  0  0  0  0  0  0  0  0  0  # atno 17320 bound_to 7965
  146.3488  140.1654  142.8590 LP  0  0  0  0  0  0  0  0  0  0  0  0  # atno 17321 bound_to 7965
  140.7808  143.4676  151.0190 LP  0  0  0  0  0  0  0  0  0  0  0  0  # atno 17342 bound_to 10162
  139.8362  143.7625  152.3180 LP  0  0  0  0  0  0  0  0  0  0  0  0  # atno 17343 bound_to 10162
  155.9831  130.4003  150.3379 LP  0  0  0  0  0  0  0  0  0  0  0  0  # atno 17370 bound_to 10713
  157.1510  131.0321  151.2885 LP  0  0  0  0  0  0  0  0  0  0  0  0  # atno 17371 bound_to 10713
  141.0093  134.1043  157.4238 LP  0  0  0  0  0  0  0  0  0  0  0  0  # atno 17394 bound_to 11000
  139.8874  135.0089  156.6559 LP  0  0  0  0  0  0  0  0  0  0  0  0  # atno 17395 bound_to 11000

$$$$
