AV-unprocessed.smi:1605|AV-procd|sdf|6453|dock8
  -GOLD-   22720 7103D 1   1.00000     0.00000
 Structure written by MMmdl.
 51 53  0  0  0  0  0  0  0  0  2 V2000
  145.6371  143.0248  161.9822 C   0  0  0  0  0  0  0  0  0  0  0  0
  146.6518  142.9059  160.9971 O   0  0  0  0  0  0  0  0  0  0  0  0
  146.4953  143.7775  159.8830 C   0  0  2  0  0  0  0  0  0  0  0  0
  147.2814  143.1846  158.7035 C   0  0  0  0  0  0  0  0  0  0  0  0
  148.7997  143.2270  158.9524 C   0  0  0  0  0  0  0  0  0  0  0  0
  149.2597  144.6094  159.2424 N   0  3  2  0  0  0  0  0  0  0  0  0
  150.7391  144.7034  159.3484 C   0  0  0  0  0  0  0  0  0  0  0  0
  151.2920  143.9178  160.5537 C   0  0  2  0  0  0  0  0  0  0  0  0
  151.2723  144.7554  161.6941 O   0  0  0  0  0  0  0  0  0  0  0  0
  152.7309  143.4231  160.3114 C   0  0  0  0  0  0  0  0  0  0  0  0
  152.7850  141.9938  160.0630 N   0  0  0  0  0  0  0  0  0  0  0  0
  152.1664  141.3107  159.0804 C   0  0  0  0  0  0  0  0  0  0  0  0
  152.3630  139.9961  159.0368 N   0  0  0  0  0  0  0  0  0  0  0  0
  153.2036  139.8027  160.1197 C   0  0  0  0  0  0  0  0  0  0  0  0
  153.7897  138.6228  160.6277 C   0  0  0  0  0  0  0  0  0  0  0  0
  154.6279  138.6614  161.7650 C   0  0  0  0  0  0  0  0  0  0  0  0
  155.2382  137.3685  162.2770 C   0  0  0  0  0  0  0  0  0  0  0  0
  154.8905  139.8953  162.4129 C   0  0  0  0  0  0  0  0  0  0  0  0
  155.7852  139.9604  163.6382 C   0  0  0  0  0  0  0  0  0  0  0  0
  154.3153  141.0839  161.9169 C   0  0  0  0  0  0  0  0  0  0  0  0
  153.4835  141.0322  160.7845 C   0  0  0  0  0  0  0  0  0  0  0  0
  148.5473  145.1865  160.4137 C   0  0  0  0  0  0  0  0  0  0  0  0
  147.0254  145.1911  160.1894 C   0  0  0  0  0  0  0  0  0  0  0  0
  145.8175  142.2997  162.7757 H   0  0  0  0  0  0  0  0  0  0  0  0
  144.6517  142.8200  161.5622 H   0  0  0  0  0  0  0  0  0  0  0  0
  145.6253  144.0148  162.4373 H   0  0  0  0  0  0  0  0  0  0  0  0
  145.4411  143.8268  159.6045 H   0  0  0  0  0  0  0  0  0  0  0  0
  146.9608  142.1585  158.5191 H   0  0  0  0  0  0  0  0  0  0  0  0
  147.0499  143.7444  157.7964 H   0  0  0  0  0  0  0  0  0  0  0  0
  149.0669  142.5710  159.7824 H   0  0  0  0  0  0  0  0  0  0  0  0
  149.3142  142.8454  158.0697 H   0  0  0  0  0  0  0  0  0  0  0  0
  151.1873  144.3475  158.4196 H   0  0  0  0  0  0  0  0  0  0  0  0
  151.0413  145.7472  159.4485 H   0  0  0  0  0  0  0  0  0  0  0  0
  150.6620  143.0536  160.7606 H   0  0  0  0  0  0  0  0  0  0  0  0
  151.7500  145.5472  161.4979 H   0  0  0  0  0  0  0  0  0  0  0  0
  153.1640  143.9309  159.4486 H   0  0  0  0  0  0  0  0  0  0  0  0
  153.3694  143.6574  161.1646 H   0  0  0  0  0  0  0  0  0  0  0  0
  151.5406  141.8066  158.3528 H   0  0  0  0  0  0  0  0  0  0  0  0
  153.5891  137.6833  160.1344 H   0  0  0  0  0  0  0  0  0  0  0  0
  156.3267  137.4266  162.2592 H   0  0  0  0  0  0  0  0  0  0  0  0
  154.9386  136.5172  161.6652 H   0  0  0  0  0  0  0  0  0  0  0  0
  154.9181  137.1730  163.3006 H   0  0  0  0  0  0  0  0  0  0  0  0
  155.8624  140.9785  164.0210 H   0  0  0  0  0  0  0  0  0  0  0  0
  156.7907  139.6162  163.3955 H   0  0  0  0  0  0  0  0  0  0  0  0
  155.3871  139.3331  164.4361 H   0  0  0  0  0  0  0  0  0  0  0  0
  154.5086  142.0302  162.3999 H   0  0  0  0  0  0  0  0  0  0  0  0
  148.7927  144.6151  161.3103 H   0  0  0  0  0  0  0  0  0  0  0  0
  148.8770  146.2086  160.5953 H   0  0  0  0  0  0  0  0  0  0  0  0
  146.7918  145.8498  159.3521 H   0  0  0  0  0  0  0  0  0  0  0  0
  146.5206  145.6205  161.0541 H   0  0  0  0  0  0  0  0  0  0  0  0
  149.0028  145.1643  158.4380 H   0  0  0  0  0  0  0  0  0  0  0  0
  1  2  1  0  0  0  0
  1 24  1  0  0  0  0
  1 25  1  0  0  0  0
  1 26  1  0  0  0  0
  2  3  1  0  0  0  0
  3 23  1  0  0  0  0
  3  4  1  0  0  0  0
  3 27  1  0  0  0  0
  4  5  1  0  0  0  0
  4 28  1  0  0  0  0
  4 29  1  0  0  0  0
  5  6  1  0  0  0  0
  5 30  1  0  0  0  0
  5 31  1  0  0  0  0
  6  7  1  0  0  0  0
  6 22  1  0  0  0  0
  6 51  1  0  0  0  0
  7  8  1  0  0  0  0
  7 32  1  0  0  0  0
  7 33  1  0  0  0  0
  8  9  1  0  0  0  0
  8 10  1  0  0  0  0
  8 34  1  0  0  0  0
  9 35  1  0  0  0  0
 10 11  1  0  0  0  0
 10 36  1  0  0  0  0
 10 37  1  0  0  0  0
 11 21  1  0  0  0  0
 11 12  1  0  0  0  0
 12 13  2  0  0  0  0
 12 38  1  0  0  0  0
 13 14  1  0  0  0  0
 14 21  2  0  0  0  0
 14 15  1  0  0  0  0
 15 16  2  0  0  0  0
 15 39  1  0  0  0  0
 16 17  1  0  0  0  0
 16 18  1  0  0  0  0
 17 40  1  0  0  0  0
 17 41  1  0  0  0  0
 17 42  1  0  0  0  0
 18 19  1  0  0  0  0
 18 20  2  0  0  0  0
 19 43  1  0  0  0  0
 19 44  1  0  0  0  0
 19 45  1  0  0  0  0
 20 21  1  0  0  0  0
 20 46  1  0  0  0  0
 22 23  1  0  0  0  0
 22 47  1  0  0  0  0
 22 48  1  0  0  0  0
 23 49  1  0  0  0  0
 23 50  1  0  0  0  0
M  CHG  1   6   1
M  END
> <s_m_source_file>
AV-unprocessed.smi

> <i_m_source_file_index>
1605

> <i_lp_mmshare_version>
43012

> <i_f3d_flags>
0

> <s_epik_input>
W0NIM11PW0NIXTFbQ0gyXVtDSDJdTihbQ0gyXVtDSDJdMSlbQ0gyXVtDQEhdKFtPSF0pW0NIMl1uKFtjSF1uMiljKGMyMylbY0hdYyhbQ0gzXSljKFtjSF0zKVtDSDNd

> <s_epik_cmdline>
J2VwaWtfcHl0aG9uJywgJy1waCcsICc3LjAnLCAnLXRuJywgJzgnLCAnLW1hJywgJzIwMCcsICctbWV0YWxfYmluZGluZycsICctaW1hZScsICc8aW5maWxlLm1hZT4nLCAnLW9tYWUnLCAnPG91dGZpbGUubWFlPic=

> <r_epik_Ionization_Penalty>
0.110943

> <r_epik_Ionization_Penalty_Charging>
0.0229283

> <r_epik_Ionization_Penalty_Neutral>
0.0880146

> <r_epik_State_Penalty>
0.0947554

> <r_epik_Charging_Adjusted_Penalty>
0.117684

> <i_epik_Tot_Q>
1

> <i_epik_Tot_abs_Q>
1

> <r_epik_Metal_State_Penalty>
0.0192456

> <b_epik_Metal_Only>
0

> <s_lp_Force_Field>
OPLS_2005

> <r_lp_Energy>
23.6879

> <b_lp_Chiralities_Consistent>
1

> <s_lp_Variant>
AV-unprocessed.smi:1605-3

> <Gold.Version>
5.8.1

> <Gold.Id.Protein>
6NUR|6NUR_protein|mol2

> <Gold.PLP.Fitness>
53.3158

> <Gold.PLP.PLP>
-44.5449

> <Gold.PLP.part.hbond>
-4.9655

> <Gold.PLP.part.metal>
0.0000

> <Gold.PLP.part.buried>
-4.9650

> <Gold.PLP.part.nonpolar>
-36.3507

> <Gold.PLP.part.repulsive>
0.2010

> <Gold.PLP.ligand.clash>
0.0000

> <Gold.PLP.ligand.torsion>
1.2224

> <Gold.PLP.Chemscore.Hbond>
3.7128

> <Gold.PLP.Chemscore.CHOScore>
0.0000

> <Gold.PLP.Chemscore.Metal>
0.0000

> <Gold.Chemscore.Hbonds>
donor molecule, donor type, donor heavy atom, donor atom, acceptor molecule, acceptor atom, score
      L1  H     6    51       P1  8029  2.00
      P1  H  6933  6944       L1     2  0.90
      P1  H  6934  6946       L1     2  0.76

> <Gold.PLP.Chemscore.Internal.Correction>
0.0774

> <Gold.Rescore>
     Score         DG    S(hbond)    S(metal)    S(lipo)     H(rot)  DE(clash)    DE(int)     intcor
     17.90     -20.39       2.32        0.00     109.79       2.22       1.28       1.22       ----

> <Gold.Chemscore.Fitness>
17.8960

> <Gold.Chemscore.DG>
-20.3902

> <Gold.Chemscore.ZeroCoef>
-5.4800

> <Gold.Chemscore.Hbond>
2.3174

> <Gold.Chemscore.Metal>
0.0000

> <Gold.Chemscore.Lipo>
109.7906

> <Gold.Chemscore.Internal_Hbond>
0.0000

> <Gold.Chemscore.DEClash>
1.2780

> <Gold.Chemscore.DEInternal>
1.2161

> <Gold.Chemscore.Rot>
2.2169

> <Gold.Chemscore.Internal.Correction>
   9.000000E+99

> <Gold.Chemscore.Hbonds>
donor molecule, donor type, donor heavy atom, donor atom, acceptor molecule, acceptor atom, score
      L1  H     6    51       P1  8029  0.90
      P1  H  6933  6944       L1     2  0.82
      P1  H  6934  6946       L1     2  0.36

> <Gold.Chemscore.Hbond.Weighted>
-7.7400

> <Gold.Chemscore.Metal.Weighted>
-0.0000

> <Gold.Chemscore.Lipo.Weighted>
-12.8455

> <Gold.Chemscore.Internal_Hbond.Weighted>
0.0000

> <Gold.Chemscore.DEClash.Weighted>
1.2780

> <Gold.Chemscore.DEInternal.Weighted>
1.2161

> <Gold.Chemscore.Rot.Weighted>
5.6753

> <Gold.Chemscore.Internal.Correction.Weighted>
   9.000000E+99

> <Gold.Protein.RotatedTorsions>
[ 6907 6896 6895 6894 ] final -121.09 input  -60.11 | X-H torsion
[ 7974 7965 7964 7962 ] final -111.95 input  175.53 | X-H torsion
[ 8008 7997 7996 7995 ] final  -95.99 input   59.86 | X-H torsion
[ 10167 10162 10161 10158 ] final -118.35 input  -65.29 | X-H torsion
[ 10718 10713 10712 10709 ] final -179.67 input   66.30 | X-H torsion
[ 10763 10752 10751 10750 ] final  -82.51 input  -60.55 | X-H torsion
[ 11005 11000 10999 10996 ] final -127.54 input  -57.11 | X-H torsion

> <Gold.Protein.ActiveResidues>
 VAL166  LYS551  ARG553  GLY616  TRP617  ASP618  TYR619  PRO620  LYS621  CYS622 
 ASP623  PHE694  ASN695  SER759  ASP760  ASP761  ALA762  ILE779  LEU786  VAL792 
 PHE793  MET794  SER795  GLU796  ALA797  LYS798  CYS799  TRP800  GLU811  SER814 

> <Gold.Protein.RotatedAtoms>
  150.8452  133.7873  159.3045 H   0  0  0  0  0  0  0  0  0  0  0  0  # atno 6907 bound_to 6896
  151.5562  135.1065  159.9971 H   0  0  0  0  0  0  0  0  0  0  0  0  # atno 6908 bound_to 6896
  152.4507  133.7582  159.6788 H   0  0  0  0  0  0  0  0  0  0  0  0  # atno 6909 bound_to 6896
  145.1499  140.8823  143.3652 H   0  0  0  0  0  0  0  0  0  0  0  0  # atno 7974 bound_to 7965
  154.7686  140.0475  157.1033 H   0  0  0  0  0  0  0  0  0  0  0  0  # atno 8008 bound_to 7997
  154.9848  140.3106  155.4911 H   0  0  0  0  0  0  0  0  0  0  0  0  # atno 8009 bound_to 7997
  156.2917  140.2229  156.4949 H   0  0  0  0  0  0  0  0  0  0  0  0  # atno 8010 bound_to 7997
  140.0584  143.4991  152.2045 H   0  0  0  0  0  0  0  0  0  0  0  0  # atno 10167 bound_to 10162
  156.8625  130.9756  151.3082 H   0  0  0  0  0  0  0  0  0  0  0  0  # atno 10718 bound_to 10713
  154.5766  135.5589  153.7145 H   0  0  0  0  0  0  0  0  0  0  0  0  # atno 10763 bound_to 10752
  153.0066  135.6310  154.2041 H   0  0  0  0  0  0  0  0  0  0  0  0  # atno 10764 bound_to 10752
  154.1981  135.2879  155.2980 H   0  0  0  0  0  0  0  0  0  0  0  0  # atno 10765 bound_to 10752
  140.9591  134.0961  157.3986 H   0  0  0  0  0  0  0  0  0  0  0  0  # atno 11005 bound_to 11000
  145.0442  139.3235  143.5961 LP  0  0  0  0  0  0  0  0  0  0  0  0  # atno 17320 bound_to 7965
  146.3496  139.9826  142.8694 LP  0  0  0  0  0  0  0  0  0  0  0  0  # atno 17321 bound_to 7965
  139.5909  144.7549  151.3404 LP  0  0  0  0  0  0  0  0  0  0  0  0  # atno 17342 bound_to 10162
  140.7183  143.7205  150.7700 LP  0  0  0  0  0  0  0  0  0  0  0  0  # atno 17343 bound_to 10162
  157.6242  130.8678  149.9160 LP  0  0  0  0  0  0  0  0  0  0  0  0  # atno 17370 bound_to 10713
  156.0769  130.3678  150.0660 LP  0  0  0  0  0  0  0  0  0  0  0  0  # atno 17371 bound_to 10713
  139.8872  135.0088  156.6545 LP  0  0  0  0  0  0  0  0  0  0  0  0  # atno 17394 bound_to 11000
  140.7493  133.8910  155.8335 LP  0  0  0  0  0  0  0  0  0  0  0  0  # atno 17395 bound_to 11000

$$$$
