AV-unprocessed.smi:535|AV-procd|sdf|2860|dock9
  -GOLD-   2262023353D 1   1.00000     0.00000
 Structure written by MMmdl.
 45 47  0  0  0  0  0  0  0  0  2 V2000
  146.8229  141.2011  154.5076 C   0  0  0  0  0  0  0  0  0  0  0  0
  148.1830  141.5816  154.3986 O   0  0  0  0  0  0  0  0  0  0  0  0
  148.9658  141.1019  155.4784 C   0  0  0  0  0  0  0  0  0  0  0  0
  150.2232  141.9689  155.6055 C   0  0  0  0  0  0  0  0  0  0  0  0
  151.2002  141.3609  156.5061 N   0  0  0  0  0  0  0  0  0  0  0  0
  151.7706  141.8997  157.6195 C   0  0  0  0  0  0  0  0  0  0  0  0
  151.4577  143.1809  158.0807 N   0  0  0  0  0  0  0  0  0  0  0  0
  152.1246  144.4276  157.7060 C   0  0  0  0  0  0  0  0  0  0  0  0
  152.5305  145.2439  158.9455 C   0  0  0  0  0  0  0  0  0  0  0  0
  151.2990  145.5552  159.8065 C   0  0  0  0  0  0  0  0  0  0  0  0
  150.5228  144.2629  160.1158 C   0  0  1  0  0  0  0  0  0  0  0  0
  149.2347  144.5534  160.8974 C   0  0  0  0  0  0  0  0  0  0  0  0
  150.2298  143.4955  158.8098 C   0  0  0  0  0  0  0  0  0  0  0  0
  152.6912  141.1278  158.2001 N   0  0  0  0  0  0  0  0  0  0  0  0
  152.6986  139.9946  157.4026 C   0  0  0  0  0  0  0  0  0  0  0  0
  151.8236  140.1151  156.3681 C   0  0  0  0  0  0  0  0  0  0  0  0
  151.6508  139.0864  155.3169 C   0  0  0  0  0  0  0  0  0  0  0  0
  150.8757  139.2576  154.3785 O   0  0  0  0  0  0  0  0  0  0  0  0
  152.4438  137.9891  155.5308 N   0  5  0  0  0  0  0  0  0  0  0  0
  153.3337  137.8222  156.5697 C   0  0  0  0  0  0  0  0  0  0  0  0
  154.0135  136.8017  156.6858 O   0  0  0  0  0  0  0  0  0  0  0  0
  153.4787  138.8108  157.5068 N   0  0  0  0  0  0  0  0  0  0  0  0
  154.4247  138.6655  158.6170 C   0  0  0  0  0  0  0  0  0  0  0  0
  146.2644  141.5893  153.6560 H   0  0  0  0  0  0  0  0  0  0  0  0
  146.3730  141.6020  155.4169 H   0  0  0  0  0  0  0  0  0  0  0  0
  146.7166  140.1156  154.5130 H   0  0  0  0  0  0  0  0  0  0  0  0
  148.3909  141.1341  156.4054 H   0  0  0  0  0  0  0  0  0  0  0  0
  149.2457  140.0625  155.2985 H   0  0  0  0  0  0  0  0  0  0  0  0
  150.6640  142.1271  154.6274 H   0  0  0  0  0  0  0  0  0  0  0  0
  149.9702  142.9688  155.9514 H   0  0  0  0  0  0  0  0  0  0  0  0
  152.9876  144.2238  157.0732 H   0  0  0  0  0  0  0  0  0  0  0  0
  151.4441  145.0146  157.0879 H   0  0  0  0  0  0  0  0  0  0  0  0
  153.2596  144.6896  159.5371 H   0  0  0  0  0  0  0  0  0  0  0  0
  153.0170  146.1707  158.6412 H   0  0  0  0  0  0  0  0  0  0  0  0
  151.6025  146.0492  160.7300 H   0  0  0  0  0  0  0  0  0  0  0  0
  150.6533  146.2551  159.2745 H   0  0  0  0  0  0  0  0  0  0  0  0
  151.1539  143.6308  160.7426 H   0  0  0  0  0  0  0  0  0  0  0  0
  148.5528  145.1779  160.3193 H   0  0  0  0  0  0  0  0  0  0  0  0
  149.4505  145.0723  161.8318 H   0  0  0  0  0  0  0  0  0  0  0  0
  148.7106  143.6304  161.1462 H   0  0  0  0  0  0  0  0  0  0  0  0
  149.5653  144.0740  158.1662 H   0  0  0  0  0  0  0  0  0  0  0  0
  149.7039  142.5690  159.0440 H   0  0  0  0  0  0  0  0  0  0  0  0
  154.1903  137.7779  159.2063 H   0  0  0  0  0  0  0  0  0  0  0  0
  154.4115  139.5174  159.2962 H   0  0  0  0  0  0  0  0  0  0  0  0
  155.4429  138.5650  158.2385 H   0  0  0  0  0  0  0  0  0  0  0  0
  1  2  1  0  0  0  0
  1 24  1  0  0  0  0
  1 25  1  0  0  0  0
  1 26  1  0  0  0  0
  2  3  1  0  0  0  0
  3  4  1  0  0  0  0
  3 27  1  0  0  0  0
  3 28  1  0  0  0  0
  4  5  1  0  0  0  0
  4 29  1  0  0  0  0
  4 30  1  0  0  0  0
  5 16  1  0  0  0  0
  5  6  1  0  0  0  0
  6  7  1  0  0  0  0
  6 14  2  0  0  0  0
  7 13  1  0  0  0  0
  7  8  1  0  0  0  0
  8  9  1  0  0  0  0
  8 31  1  0  0  0  0
  8 32  1  0  0  0  0
  9 10  1  0  0  0  0
  9 33  1  0  0  0  0
  9 34  1  0  0  0  0
 10 11  1  0  0  0  0
 10 35  1  0  0  0  0
 10 36  1  0  0  0  0
 11 12  1  0  0  0  0
 11 13  1  0  0  0  0
 11 37  1  0  0  0  0
 12 38  1  0  0  0  0
 12 39  1  0  0  0  0
 12 40  1  0  0  0  0
 13 41  1  0  0  0  0
 13 42  1  0  0  0  0
 14 15  1  0  0  0  0
 15 22  1  0  0  0  0
 15 16  2  0  0  0  0
 16 17  1  0  0  0  0
 17 18  2  0  0  0  0
 17 19  1  0  0  0  0
 19 20  1  0  0  0  0
 20 21  2  0  0  0  0
 20 22  1  0  0  0  0
 22 23  1  0  0  0  0
 23 43  1  0  0  0  0
 23 44  1  0  0  0  0
 23 45  1  0  0  0  0
M  CHG  1  19  -1
M  END
> <s_m_source_file>
AV-unprocessed.smi

> <i_m_source_file_index>
535

> <i_lp_mmshare_version>
43012

> <i_f3d_flags>
0

> <s_epik_input>
W0NIM11uMWMoPU8pW25IXWMoPU8pYyhjMTIpbihbQ0gyXVtDSDJdT1tDSDNdKWMobjIpTjNbQ0gyXVtDSDJdW0NIMl1bQ0BASF0oW0NIM10pW0NIMl0z

> <s_epik_cmdline>
J2VwaWtfcHl0aG9uJywgJy1waCcsICc3LjAnLCAnLXRuJywgJzgnLCAnLW1hJywgJzIwMCcsICctbWV0YWxfYmluZGluZycsICctaW1hZScsICc8aW5maWxlLm1hZT4nLCAnLW9tYWUnLCAnPG91dGZpbGUubWFlPic=

> <r_lp_tautomer_probability>
1

> <r_epik_Ionization_Penalty>
5.11375

> <r_epik_Ionization_Penalty_Charging>
0.0788329

> <r_epik_Ionization_Penalty_Neutral>
5.03492

> <r_epik_State_Penalty>
5.02848

> <r_epik_Charging_Adjusted_Penalty>
5.10731

> <i_epik_Tot_Q>
-1

> <i_epik_Tot_abs_Q>
1

> <r_epik_Metal_State_Penalty>
1.14014

> <b_epik_Metal_Only>
1

> <s_lp_Force_Field>
OPLS_2005

> <r_lp_Energy>
43.1913

> <b_lp_Chiralities_Consistent>
1

> <s_lp_Variant>
AV-unprocessed.smi:535-3

> <Gold.Version>
5.8.1

> <Gold.Id.Protein>
6NUR|6NUR_protein|mol2

> <Gold.PLP.Fitness>
46.7116

> <Gold.PLP.PLP>
-41.9113

> <Gold.PLP.part.hbond>
-3.0000

> <Gold.PLP.part.metal>
0.0000

> <Gold.PLP.part.buried>
-5.2351

> <Gold.PLP.part.nonpolar>
-33.8775

> <Gold.PLP.part.repulsive>
0.3669

> <Gold.PLP.ligand.clash>
0.0000

> <Gold.PLP.ligand.torsion>
1.6119

> <Gold.PLP.Chemscore.Hbond>
2.5120

> <Gold.PLP.Chemscore.CHOScore>
0.0000

> <Gold.PLP.Chemscore.Metal>
0.0000

> <Gold.Chemscore.Hbonds>
donor molecule, donor type, donor heavy atom, donor atom, acceptor molecule, acceptor atom, score
      P1  H  7989  7998       L1    18  1.00
      P1  H 10752 10765       L1    21  0.70

> <Gold.PLP.Chemscore.Internal.Correction>
0.4881

> <Gold.Rescore>
     Score         DG    S(hbond)    S(metal)    S(lipo)     H(rot)  DE(clash)    DE(int)     intcor
     16.28     -20.29       2.15        0.00      96.50       1.44       1.05       2.96       ----

> <Gold.Chemscore.Fitness>
16.2769

> <Gold.Chemscore.DG>
-20.2869

> <Gold.Chemscore.ZeroCoef>
-5.4800

> <Gold.Chemscore.Hbond>
2.1543

> <Gold.Chemscore.Metal>
0.0000

> <Gold.Chemscore.Lipo>
96.5022

> <Gold.Chemscore.Internal_Hbond>
0.0000

> <Gold.Chemscore.DEClash>
1.0545

> <Gold.Chemscore.DEInternal>
2.9555

> <Gold.Chemscore.Rot>
1.4372

> <Gold.Chemscore.Internal.Correction>
   9.000000E+99

> <Gold.Chemscore.Hbonds>
donor molecule, donor type, donor heavy atom, donor atom, acceptor molecule, acceptor atom, score
      P1  H  7989  7998       L1    18  0.34
      P1  H 10752 10765       L1    21  0.60

> <Gold.Chemscore.Hbond.Weighted>
-7.1955

> <Gold.Chemscore.Metal.Weighted>
-0.0000

> <Gold.Chemscore.Lipo.Weighted>
-11.2908

> <Gold.Chemscore.Internal_Hbond.Weighted>
0.0000

> <Gold.Chemscore.DEClash.Weighted>
1.0545

> <Gold.Chemscore.DEInternal.Weighted>
2.9555

> <Gold.Chemscore.Rot.Weighted>
3.6793

> <Gold.Chemscore.Internal.Correction.Weighted>
   9.000000E+99

> <Gold.Protein.RotatedTorsions>
[ 6907 6896 6895 6894 ] final  -41.17 input  -60.11 | X-H torsion
[ 7974 7965 7964 7962 ] final  -84.72 input  175.53 | X-H torsion
[ 8008 7997 7996 7995 ] final -138.91 input   59.86 | X-H torsion
[ 10167 10162 10161 10158 ] final  -23.33 input  -65.29 | X-H torsion
[ 10718 10713 10712 10709 ] final   14.08 input   66.30 | X-H torsion
[ 10763 10752 10751 10750 ] final -120.45 input  -60.55 | X-H torsion
[ 11005 11000 10999 10996 ] final -138.61 input  -57.11 | X-H torsion

> <Gold.Protein.ActiveResidues>
 VAL166  LYS551  ARG553  GLY616  TRP617  ASP618  TYR619  PRO620  LYS621  CYS622 
 ASP623  PHE694  ASN695  SER759  ASP760  ASP761  ALA762  ILE779  LEU786  VAL792 
 PHE793  MET794  SER795  GLU796  ALA797  LYS798  CYS799  TRP800  GLU811  SER814 

> <Gold.Protein.RotatedAtoms>
  150.9699  134.9073  159.7781 H   0  0  0  0  0  0  0  0  0  0  0  0  # atno 6907 bound_to 6896
  152.5186  134.3556  159.9276 H   0  0  0  0  0  0  0  0  0  0  0  0  # atno 6908 bound_to 6896
  151.3565  133.3865  159.2720 H   0  0  0  0  0  0  0  0  0  0  0  0  # atno 6909 bound_to 6896
  145.5029  140.9546  143.1750 H   0  0  0  0  0  0  0  0  0  0  0  0  # atno 7974 bound_to 7965
  155.4361  140.0528  157.3014 H   0  0  0  0  0  0  0  0  0  0  0  0  # atno 8008 bound_to 7997
  154.4838  140.2092  155.9658 H   0  0  0  0  0  0  0  0  0  0  0  0  # atno 8009 bound_to 7997
  156.1246  140.3182  155.8262 H   0  0  0  0  0  0  0  0  0  0  0  0  # atno 8010 bound_to 7997
  140.7288  143.4453  151.0596 H   0  0  0  0  0  0  0  0  0  0  0  0  # atno 10167 bound_to 10162
  157.0340  130.6204  149.5740 H   0  0  0  0  0  0  0  0  0  0  0  0  # atno 10718 bound_to 10713
  154.8644  135.4202  154.2462 H   0  0  0  0  0  0  0  0  0  0  0  0  # atno 10763 bound_to 10752
  153.3417  135.6994  153.6867 H   0  0  0  0  0  0  0  0  0  0  0  0  # atno 10764 bound_to 10752
  153.5842  135.3567  155.2859 H   0  0  0  0  0  0  0  0  0  0  0  0  # atno 10765 bound_to 10752
  140.8599  134.2181  157.4713 H   0  0  0  0  0  0  0  0  0  0  0  0  # atno 11005 bound_to 11000
  144.7770  139.6608  143.7170 LP  0  0  0  0  0  0  0  0  0  0  0  0  # atno 17320 bound_to 7965
  146.2215  139.5644  142.9615 LP  0  0  0  0  0  0  0  0  0  0  0  0  # atno 17321 bound_to 7965
  139.8124  143.7932  152.3172 LP  0  0  0  0  0  0  0  0  0  0  0  0  # atno 17342 bound_to 10162
  139.7986  144.7383  150.9855 LP  0  0  0  0  0  0  0  0  0  0  0  0  # atno 17343 bound_to 10162
  156.0060  130.5146  150.7830 LP  0  0  0  0  0  0  0  0  0  0  0  0  # atno 17370 bound_to 10713
  157.5156  131.0928  151.0144 LP  0  0  0  0  0  0  0  0  0  0  0  0  # atno 17371 bound_to 10713
  139.8706  134.9724  156.4774 LP  0  0  0  0  0  0  0  0  0  0  0  0  # atno 17394 bound_to 11000
  140.8694  133.7999  155.9348 LP  0  0  0  0  0  0  0  0  0  0  0  0  # atno 17395 bound_to 11000

$$$$
