#       Name:                AV-unprocessed.smi:1464
#       Creating user name   scv26
#       Creation time:       Fri Mar 27 06:02:27 2020


#       File generated by GOLD software.
#

@<TRIPOS>MOLECULE
AV-unprocessed.smi:1464
    47    48     1
SMALL
NO_CHARGES


@<TRIPOS>ATOM
      1 ****        -1.4405  -2.6554   1.4024 C.3            1 S1                 0.0000
      2 ****        -1.2965  -1.3410   0.6147 C.3            1 S1                 0.0000
      3 ****        -2.3066  -1.3178  -0.5516 C.3            1 S1                 0.0000
      4 ****        -2.2028  -0.0325  -1.3839 C.3            1 S1                 0.0000
      5 ****        -2.3768   1.2094  -0.4977 C.3            1 S1                 0.0000
      6 ****        -1.3680   1.2240   0.6678 C.3            1 S1                 0.0000
      7 ****        -0.0086   1.4147   0.1712 N.am           1 S1                 0.0000
      8 ****         0.5721   2.5754  -0.1716 C.2            1 S1                 0.0000
      9 ****        -0.0007   3.6619  -0.0928 O.2            1 S1                 0.0000
     10 ****         2.0179   2.5135  -0.6959 C.3            1 S1                 0.0000
     11 ****         2.5048   1.1498  -0.9678 N.am           1 S1                 0.0000
     12 ****         3.2325   0.5485   0.1467 N.pl3          1 S1                -1.0000
     13 ****         3.6372  -0.7458   0.0522 C.2            1 S1                 0.0000
     14 ****         4.2181  -1.3305   0.9634 O.2            1 S1                 0.0000
     15 ****         3.3694  -1.4574  -1.1867 C.2            1 S1                 0.0000
     16 ****         2.7204  -0.8684  -2.2103 C.2            1 S1                 0.0000
     17 ****         2.2367   0.5050  -2.1394 C.2            1 S1                 0.0000
     18 ****         1.6146   1.0379  -3.0581 O.2            1 S1                 0.0000
     19 ****        -1.4573  -0.0772   1.5074 C.3            1 S1                 0.0000
     20 ****        -0.4650  -0.0458   2.6883 C.3            1 S1                 0.0000
     21 ****        -2.3970  -2.7040   1.9234 H              1 S1                 0.0000
     22 ****        -0.6480  -2.7722   2.1410 H              1 S1                 0.0000
     23 ****        -1.3809  -3.5177   0.7377 H              1 S1                 0.0000
     24 ****        -0.2937  -1.3322   0.1843 H              1 S1                 0.0000
     25 ****        -2.1460  -2.1795  -1.2003 H              1 S1                 0.0000
     26 ****        -3.3207  -1.4130  -0.1608 H              1 S1                 0.0000
     27 ****        -1.2368   0.0022  -1.8896 H              1 S1                 0.0000
     28 ****        -2.9596  -0.0362  -2.1684 H              1 S1                 0.0000
     29 ****        -2.2788   2.1138  -1.0994 H              1 S1                 0.0000
     30 ****        -3.3904   1.2234  -0.0954 H              1 S1                 0.0000
     31 ****        -1.6119   2.0654   1.3189 H              1 S1                 0.0000
     32 ****         0.5558   0.5815   0.0807 H              1 S1                 0.0000
     33 ****         2.0928   3.1273  -1.5951 H              1 S1                 0.0000
     34 ****         2.6630   2.9977   0.0393 H              1 S1                 0.0000
     35 ****         3.7022  -2.4798  -1.2901 H              1 S1                 0.0000
     36 ****         2.5456  -1.4345  -3.1131 H              1 S1                 0.0000
     37 ****        -2.4588  -0.1066   1.9391 H              1 S1                 0.0000
     38 ****         0.5674  -0.1483   2.3510 H              1 S1                 0.0000
     39 ****        -0.6622  -0.8462   3.4007 H              1 S1                 0.0000
     40 ****        -0.5418   0.8925   3.2383 H              1 S1                 0.0000
     41 ****        -0.9429   3.7075   0.2392 LP             1 S1                 0.0000
     42 ****         0.4760   4.4990  -0.3608 LP             1 S1                 0.0000
     43 ****         3.4305   1.0821   0.9689 LP             1 S1                 0.0000
     44 ****         4.4119  -0.8531   1.8204 LP             1 S1                 0.0000
     45 ****         4.4971  -2.2839   0.8480 LP             1 S1                 0.0000
     46 ****         1.2857   1.9772  -2.9605 LP             1 S1                 0.0000
     47 ****         1.4380   0.5315  -3.9022 LP             1 S1                 0.0000
@<TRIPOS>BOND
    1    1    2 1     
    2    1   21 1     
    3    1   22 1     
    4    1   23 1     
    5    2   19 1     
    6    2    3 1     
    7    2   24 1     
    8    3    4 1     
    9    3   25 1     
   10    3   26 1     
   11    4    5 1     
   12    4   27 1     
   13    4   28 1     
   14    5    6 1     
   15    5   29 1     
   16    5   30 1     
   17    6    7 1     
   18    6   19 1     
   19    6   31 1     
   20    7    8 am    
   21    7   32 1     
   22    8    9 2     
   23    8   10 1     
   24   10   33 1     
   25   10   34 1     
   26   10   11 1     
   27   11   12 1     
   28   11   17 am    
   29   12   13 1     
   30   13   14 2     
   31   13   15 1     
   32   15   35 1     
   33   15   16 2     
   34   16   36 1     
   35   16   17 1     
   36   17   18 2     
   37   19   20 1     
   38   19   37 1     
   39   20   38 1     
   40   20   39 1     
   41   20   40 1     
   42    9   41 1     
   43    9   42 1     
   44   12   43 1     
   45   14   44 1     
   46   14   45 1     
   47   18   46 1     
   48   18   47 1     
@<TRIPOS>SUBSTRUCTURE
      1 S1             1
@<TRIPOS>SET
LONE_PAIRS      STATIC     ATOMS    <user>   **** ""
7 41 42 43 44 45 46 47
DONOR_HYDROGENS      STATIC     ATOMS    <user>   **** ""
1 32
ATOM$BLUE        STATIC     ATOMS    COLORGROUP SYSTEM
7 41 42 43 44 45 46 47
ATOM$RED        STATIC     ATOMS    COLORGROUP SYSTEM
1 32
