#       Name:                AV-unprocessed.smi:2549
#       Creating user name   scv26
#       Creation time:       Fri Mar 27 14:05:40 2020


#       File generated by GOLD software.
#

@<TRIPOS>MOLECULE
AV-unprocessed.smi:2549
    20    21     1
SMALL
NO_CHARGES


@<TRIPOS>ATOM
      1 ****        -2.9703  -1.1612  -0.0000 C.2            1 S1                 0.0000
      2 ****        -1.6693  -1.5768  -0.0000 C.2            1 S1                 0.0000
      3 ****        -0.9570  -0.3952  -0.0000 N.pl3          1 S1                 0.0000
      4 ****         0.4684  -0.2273  -0.0000 C.3            1 S1                 0.0000
      5 ****         1.1603   0.6626   1.0322 C.3            1 S1                 0.0000
      6 ****         2.1338   0.9986   0.0001 N.4            1 S1                 1.0000
      7 ****         1.1603   0.6627  -1.0321 C.3            1 S1                 0.0000
      8 ****        -1.7792   0.6814  -0.0000 N.2            1 S1                 0.0000
      9 ****        -2.9947   0.2327  -0.0000 N.2            1 S1                 0.0000
     10 ****        -3.8814  -1.7418  -0.0000 H              1 S1                 0.0000
     11 ****        -1.2161  -2.5573  -0.0000 H              1 S1                 0.0000
     12 ****         0.9074  -1.2279  -0.0000 H              1 S1                 0.0000
     13 ****         0.5727   1.5307   1.3371 H              1 S1                 0.0000
     14 ****         1.5838   0.1332   1.8862 H              1 S1                 0.0000
     15 ****         2.4150   1.9688   0.0001 H              1 S1                 0.0000
     16 ****         1.5838   0.1333  -1.8861 H              1 S1                 0.0000
     17 ****         0.5727   1.5308  -1.3370 H              1 S1                 0.0000
     18 ****         2.9102   0.3525  -0.0000 H              1 S1                 0.0000
     19 ****        -1.5005   1.6418  -0.0000 LP             1 S1                 0.0000
     20 ****        -3.8202   0.7972  -0.0000 LP             1 S1                 0.0000
@<TRIPOS>BOND
    1    1    9 1     
    2    1    2 2     
    3    1   10 1     
    4    2    3 1     
    5    2   11 1     
    6    3    4 1     
    7    3    8 1     
    8    4    7 1     
    9    4    5 1     
   10    4   12 1     
   11    5    6 1     
   12    5   13 1     
   13    5   14 1     
   14    6    7 1     
   15    6   15 1     
   16    6   18 1     
   17    7   16 1     
   18    7   17 1     
   19    8    9 2     
   20    8   19 1     
   21    9   20 1     
@<TRIPOS>SUBSTRUCTURE
      1 S1             1
@<TRIPOS>SET
LONE_PAIRS      STATIC     ATOMS    <user>   **** ""
2 19 20
DONOR_HYDROGENS      STATIC     ATOMS    <user>   **** ""
2 15 18
ATOM$BLUE        STATIC     ATOMS    COLORGROUP SYSTEM
2 19 20
ATOM$RED        STATIC     ATOMS    COLORGROUP SYSTEM
2 15 18
