AV-unprocessed.smi:203|AV-procd|sdf|1583|dock5
  -GOLD-   2262019473D 1   1.00000     0.00000
 Structure written by MMmdl.
 57 61  0  0  0  0  0  0  0  0  1 V2000
  147.4620  142.2843  155.0850 O   0  0  0  0  0  0  0  0  0  0  0  0
  148.4669  141.7144  155.5033 C   0  0  0  0  0  0  0  0  0  0  0  0
  148.5688  141.1055  156.8912 C   0  0  0  0  0  0  0  0  0  0  0  0
  150.0599  140.7360  157.0185 C   0  0  2  0  0  0  0  0  0  0  0  0
  150.8382  141.5949  158.0653 C   0  0  2  0  0  0  0  0  0  0  0  0
  151.0857  143.0495  157.5842 C   0  0  0  0  0  0  0  0  0  0  0  0
  151.8495  143.8727  158.6300 C   0  0  0  0  0  0  0  0  0  0  0  0
  153.1609  143.1682  158.9922 C   0  0  0  0  0  0  0  0  0  0  0  0
  152.8828  141.7374  159.4710 C   0  0  0  0  0  0  0  0  0  0  0  0
  152.1139  140.9838  158.4809 N   0  0  0  0  0  0  0  0  0  0  0  0
  152.0734  139.6762  158.8204 C   0  0  0  0  0  0  0  0  0  0  0  0
  150.8601  139.1524  159.1219 N   0  0  0  0  0  0  0  0  0  0  0  0
  150.7570  137.8654  159.4670 C   0  0  0  0  0  0  0  0  0  0  0  0
  151.7207  136.9467  159.5643 N   0  0  0  0  0  0  0  0  0  0  0  0
  152.9405  137.4710  159.2516 C   0  0  0  0  0  0  0  0  0  0  0  0
  153.2066  138.8168  158.8746 C   0  0  0  0  0  0  0  0  0  0  0  0
  154.5653  138.9842  158.6370 N   0  0  0  0  0  0  0  0  0  0  0  0
  155.0737  137.8032  158.8587 C   0  0  0  0  0  0  0  0  0  0  0  0
  154.1662  136.8302  159.2132 N   0  0  0  0  0  0  0  0  0  0  0  0
  154.4538  135.4358  159.5009 C   0  0  0  0  0  0  0  0  0  0  0  0
  154.8477  134.6151  158.2506 C   0  0  2  0  0  0  0  0  0  0  0  0
  154.4009  135.3057  157.1020 O   0  0  0  0  0  0  0  0  0  0  0  0
  154.3441  133.1537  158.1797 C   0  0  2  0  0  0  0  0  0  0  0  0
  154.7917  132.3283  156.9711 C   0  0  0  0  0  0  0  0  0  0  0  0
  153.7433  131.2386  156.9533 C   0  0  0  0  0  0  0  0  0  0  0  0
  152.4838  131.9993  157.3622 C   0  0  0  0  0  0  0  0  0  0  0  0
  152.9211  133.0762  158.1875 O   0  0  0  0  0  0  0  0  0  0  0  0
  150.6202  140.8373  155.5817 C   0  0  0  0  0  0  0  0  0  0  0  0
  149.5995  141.5371  154.8264 N   0  0  0  0  0  0  0  0  0  0  0  0
  148.2248  141.7956  157.6616 H   0  0  0  0  0  0  0  0  0  0  0  0
  147.9393  140.2160  156.9334 H   0  0  0  0  0  0  0  0  0  0  0  0
  150.0923  139.6901  157.3247 H   0  0  0  0  0  0  0  0  0  0  0  0
  150.2141  141.6605  158.9570 H   0  0  0  0  0  0  0  0  0  0  0  0
  151.6556  143.0500  156.6549 H   0  0  0  0  0  0  0  0  0  0  0  0
  150.1445  143.5517  157.3637 H   0  0  0  0  0  0  0  0  0  0  0  0
  152.0526  144.8731  158.2470 H   0  0  0  0  0  0  0  0  0  0  0  0
  151.2358  143.9965  159.5230 H   0  0  0  0  0  0  0  0  0  0  0  0
  153.8194  143.1436  158.1229 H   0  0  0  0  0  0  0  0  0  0  0  0
  153.6866  143.7266  159.7672 H   0  0  0  0  0  0  0  0  0  0  0  0
  153.8289  141.2323  159.6724 H   0  0  0  0  0  0  0  0  0  0  0  0
  152.3320  141.7657  160.4124 H   0  0  0  0  0  0  0  0  0  0  0  0
  149.7591  137.5216  159.6960 H   0  0  0  0  0  0  0  0  0  0  0  0
  156.1308  137.6066  158.7544 H   0  0  0  0  0  0  0  0  0  0  0  0
  155.2467  135.3951  160.2486 H   0  0  0  0  0  0  0  0  0  0  0  0
  153.5709  134.9995  159.9695 H   0  0  0  0  0  0  0  0  0  0  0  0
  155.9359  134.5912  158.1843 H   0  0  0  0  0  0  0  0  0  0  0  0
  154.2826  136.2158  157.3264 H   0  0  0  0  0  0  0  0  0  0  0  0
  154.6659  132.6317  159.0829 H   0  0  0  0  0  0  0  0  0  0  0  0
  154.7360  132.9017  156.0468 H   0  0  0  0  0  0  0  0  0  0  0  0
  155.8064  131.9425  157.0725 H   0  0  0  0  0  0  0  0  0  0  0  0
  153.6491  130.7481  155.9842 H   0  0  0  0  0  0  0  0  0  0  0  0
  153.9817  130.4792  157.6991 H   0  0  0  0  0  0  0  0  0  0  0  0
  151.9875  132.4155  156.4849 H   0  0  0  0  0  0  0  0  0  0  0  0
  151.7674  131.3647  157.8841 H   0  0  0  0  0  0  0  0  0  0  0  0
  151.5752  141.3601  155.5261 H   0  0  0  0  0  0  0  0  0  0  0  0
  150.7628  139.8457  155.1506 H   0  0  0  0  0  0  0  0  0  0  0  0
  149.7497  141.8619  153.8821 H   0  0  0  0  0  0  0  0  0  0  0  0
  1  2  2  0  0  0  0
  2 29  1  0  0  0  0
  2  3  1  0  0  0  0
  3  4  1  0  0  0  0
  3 30  1  0  0  0  0
  3 31  1  0  0  0  0
  4  5  1  0  0  0  0
  4 28  1  0  0  0  0
  4 32  1  0  0  0  0
  5 10  1  0  0  0  0
  5  6  1  0  0  0  0
  5 33  1  0  0  0  0
  6  7  1  0  0  0  0
  6 34  1  0  0  0  0
  6 35  1  0  0  0  0
  7  8  1  0  0  0  0
  7 36  1  0  0  0  0
  7 37  1  0  0  0  0
  8  9  1  0  0  0  0
  8 38  1  0  0  0  0
  8 39  1  0  0  0  0
  9 10  1  0  0  0  0
  9 40  1  0  0  0  0
  9 41  1  0  0  0  0
 10 11  1  0  0  0  0
 11 16  1  0  0  0  0
 11 12  2  0  0  0  0
 12 13  1  0  0  0  0
 13 14  2  0  0  0  0
 13 42  1  0  0  0  0
 14 15  1  0  0  0  0
 15 19  1  0  0  0  0
 15 16  2  0  0  0  0
 16 17  1  0  0  0  0
 17 18  2  0  0  0  0
 18 19  1  0  0  0  0
 18 43  1  0  0  0  0
 19 20  1  0  0  0  0
 20 21  1  0  0  0  0
 20 44  1  0  0  0  0
 20 45  1  0  0  0  0
 21 22  1  0  0  0  0
 21 23  1  0  0  0  0
 21 46  1  0  0  0  0
 22 47  1  0  0  0  0
 23 27  1  0  0  0  0
 23 24  1  0  0  0  0
 23 48  1  0  0  0  0
 24 25  1  0  0  0  0
 24 49  1  0  0  0  0
 24 50  1  0  0  0  0
 25 26  1  0  0  0  0
 25 51  1  0  0  0  0
 25 52  1  0  0  0  0
 26 27  1  0  0  0  0
 26 53  1  0  0  0  0
 26 54  1  0  0  0  0
 28 29  1  0  0  0  0
 28 55  1  0  0  0  0
 28 56  1  0  0  0  0
 29 57  1  0  0  0  0
M  END
> <s_m_source_file>
AV-unprocessed.smi

> <i_m_source_file_index>
203

> <i_lp_mmshare_version>
43012

> <i_f3d_flags>
0

> <s_epik_input>
Tz1DMVtDSDJdW0NASF0oW0NIMl1bTkhdMSlbQ0BASF0yW0NIMl1bQ0gyXVtDSDJdW0NIMl1OMmMobltjSF1uMyljKGMzNCluW2NIXW40W0NIMl1bQ0BIXShbT0hdKVtDQEBIXTVbQ0gyXVtDSDJdW0NIMl1PNQ==

> <s_epik_cmdline>
J2VwaWtfcHl0aG9uJywgJy1waCcsICc3LjAnLCAnLXRuJywgJzgnLCAnLW1hJywgJzIwMCcsICctbWV0YWxfYmluZGluZycsICctaW1hZScsICc8aW5maWxlLm1hZT4nLCAnLW9tYWUnLCAnPG91dGZpbGUubWFlPic=

> <r_lp_tautomer_probability>
1

> <r_epik_Ionization_Penalty>
0.00175146

> <r_epik_Ionization_Penalty_Charging>
0

> <r_epik_Ionization_Penalty_Neutral>
0.00175146

> <r_epik_State_Penalty>
0.00109045

> <r_epik_Charging_Adjusted_Penalty>
0.00109045

> <i_epik_Tot_Q>
0

> <i_epik_Tot_abs_Q>
0

> <r_epik_Metal_State_Penalty>
-0

> <b_epik_Metal_Only>
0

> <s_lp_Force_Field>
OPLS_2005

> <r_lp_Energy>
56.3505

> <b_lp_Chiralities_Consistent>
1

> <s_lp_Variant>
AV-unprocessed.smi:203-2

> <Gold.Version>
5.8.1

> <Gold.Id.Protein>
6NUR|6NUR_protein|mol2

> <Gold.PLP.Fitness>
49.1921

> <Gold.PLP.PLP>
-39.1904

> <Gold.PLP.part.hbond>
-4.1955

> <Gold.PLP.part.metal>
0.0000

> <Gold.PLP.part.buried>
-6.1883

> <Gold.PLP.part.nonpolar>
-29.7272

> <Gold.PLP.part.repulsive>
0.4172

> <Gold.PLP.ligand.clash>
0.0000

> <Gold.PLP.ligand.torsion>
1.1427

> <Gold.PLP.Chemscore.Hbond>
4.0000

> <Gold.PLP.Chemscore.CHOScore>
0.0000

> <Gold.PLP.Chemscore.Metal>
0.0000

> <Gold.Chemscore.Hbonds>
donor molecule, donor type, donor heavy atom, donor atom, acceptor molecule, acceptor atom, score
      P1  H  6896  6908       L1    14  1.00
      P1  H  6896  6909       L1    27  0.75
      P1  H  7997  8010       L1    17  1.00
      P1  H 10752 10764       L1    22  1.00

> <Gold.PLP.Chemscore.Internal.Correction>
0.2871

> <Gold.Rescore>
     Score         DG    S(hbond)    S(metal)    S(lipo)     H(rot)  DE(clash)    DE(int)     intcor
     17.53     -20.07       3.52        0.00      83.67       2.72       0.02       2.51       ----

> <Gold.Chemscore.Fitness>
17.5325

> <Gold.Chemscore.DG>
-20.0671

> <Gold.Chemscore.ZeroCoef>
-5.4800

> <Gold.Chemscore.Hbond>
3.5190

> <Gold.Chemscore.Metal>
0.0000

> <Gold.Chemscore.Lipo>
83.6702

> <Gold.Chemscore.Internal_Hbond>
0.0000

> <Gold.Chemscore.DEClash>
0.0232

> <Gold.Chemscore.DEInternal>
2.5114

> <Gold.Chemscore.Rot>
2.7171

> <Gold.Chemscore.Internal.Correction>
   9.000000E+99

> <Gold.Chemscore.Hbonds>
donor molecule, donor type, donor heavy atom, donor atom, acceptor molecule, acceptor atom, score
      P1  H  6896  6908       L1    14  0.92
      P1  H  6896  6909       L1    27  0.51
      P1  H  7997  8010       L1    17  0.78
      P1  H 10752 10764       L1    22  0.48

> <Gold.Chemscore.Hbond.Weighted>
-11.7534

> <Gold.Chemscore.Metal.Weighted>
-0.0000

> <Gold.Chemscore.Lipo.Weighted>
-9.7894

> <Gold.Chemscore.Internal_Hbond.Weighted>
0.0000

> <Gold.Chemscore.DEClash.Weighted>
0.0232

> <Gold.Chemscore.DEInternal.Weighted>
2.5114

> <Gold.Chemscore.Rot.Weighted>
6.9557

> <Gold.Chemscore.Internal.Correction.Weighted>
   9.000000E+99

> <Gold.Protein.RotatedTorsions>
[ 6907 6896 6895 6894 ] final -111.34 input  -60.11 | X-H torsion
[ 7974 7965 7964 7962 ] final  -45.82 input  175.53 | X-H torsion
[ 8008 7997 7996 7995 ] final   18.79 input   59.86 | X-H torsion
[ 10167 10162 10161 10158 ] final -118.98 input  -65.29 | X-H torsion
[ 10718 10713 10712 10709 ] final -177.18 input   66.30 | X-H torsion
[ 10763 10752 10751 10750 ] final   49.67 input  -60.55 | X-H torsion
[ 11005 11000 10999 10996 ] final  144.99 input  -57.11 | X-H torsion

> <Gold.Protein.ActiveResidues>
 VAL166  LYS551  ARG553  GLY616  TRP617  ASP618  TYR619  PRO620  LYS621  CYS622 
 ASP623  PHE694  ASN695  SER759  ASP760  ASP761  ALA762  ILE779  LEU786  VAL792 
 PHE793  MET794  SER795  GLU796  ALA797  LYS798  CYS799  TRP800  GLU811  SER814 

> <Gold.Protein.RotatedAtoms>
  150.7684  133.9250  159.3409 H   0  0  0  0  0  0  0  0  0  0  0  0  # atno 6907 bound_to 6896
  151.7142  135.0905  160.0282 H   0  0  0  0  0  0  0  0  0  0  0  0  # atno 6908 bound_to 6896
  152.3690  133.6356  159.6108 H   0  0  0  0  0  0  0  0  0  0  0  0  # atno 6909 bound_to 6896
  145.9782  140.7311  142.9376 H   0  0  0  0  0  0  0  0  0  0  0  0  # atno 7974 bound_to 7965
  154.9112  140.3014  155.5265 H   0  0  0  0  0  0  0  0  0  0  0  0  # atno 8008 bound_to 7997
  156.3014  140.2389  156.4087 H   0  0  0  0  0  0  0  0  0  0  0  0  # atno 8009 bound_to 7997
  154.8424  140.0413  157.1539 H   0  0  0  0  0  0  0  0  0  0  0  0  # atno 8010 bound_to 7997
  140.0516  143.5054  152.2079 H   0  0  0  0  0  0  0  0  0  0  0  0  # atno 10167 bound_to 10162
  156.8256  130.9635  151.3109 H   0  0  0  0  0  0  0  0  0  0  0  0  # atno 10718 bound_to 10713
  152.9786  135.5904  154.4128 H   0  0  0  0  0  0  0  0  0  0  0  0  # atno 10763 bound_to 10752
  154.3761  135.2767  155.2240 H   0  0  0  0  0  0  0  0  0  0  0  0  # atno 10764 bound_to 10752
  154.4174  135.6067  153.6044 H   0  0  0  0  0  0  0  0  0  0  0  0  # atno 10765 bound_to 10752
  140.0677  134.9169  157.1292 H   0  0  0  0  0  0  0  0  0  0  0  0  # atno 11005 bound_to 11000
  144.6854  140.2864  143.7284 LP  0  0  0  0  0  0  0  0  0  0  0  0  # atno 17320 bound_to 7965
  145.7807  139.1890  143.2159 LP  0  0  0  0  0  0  0  0  0  0  0  0  # atno 17321 bound_to 7965
  139.5949  144.7563  151.3310 LP  0  0  0  0  0  0  0  0  0  0  0  0  # atno 17342 bound_to 10162
  140.7214  143.7125  150.7758 LP  0  0  0  0  0  0  0  0  0  0  0  0  # atno 17343 bound_to 10162
  157.6434  130.8824  149.9491 LP  0  0  0  0  0  0  0  0  0  0  0  0  # atno 17370 bound_to 10713
  156.0963  130.3659  150.0300 LP  0  0  0  0  0  0  0  0  0  0  0  0  # atno 17371 bound_to 10713
  140.3675  134.2427  155.7181 LP  0  0  0  0  0  0  0  0  0  0  0  0  # atno 17394 bound_to 11000
  141.1999  133.8000  157.0514 LP  0  0  0  0  0  0  0  0  0  0  0  0  # atno 17395 bound_to 11000

$$$$
