AV-unprocessed.smi:37|AV-procd|sdf|314|dock2
  -GOLD-   2262016133D 1   1.00000     0.00000
 Structure written by MMmdl.
 44 45  0  0  0  0  0  0  0  0  1 V2000
  147.6682  135.1724  162.2547 C   0  0  0  0  0  0  0  0  0  0  0  0
  148.1481  135.4922  160.8315 C   0  0  0  0  0  0  0  0  0  0  0  0
  147.4324  136.6867  160.1973 C   0  0  0  0  0  0  0  0  0  0  0  0
  146.5475  137.3151  160.7809 O   0  0  0  0  0  0  0  0  0  0  0  0
  147.8904  136.9436  158.9637 O   0  0  0  0  0  0  0  0  0  0  0  0
  147.1286  137.7492  158.0797 C   0  0  0  0  0  0  0  0  0  0  0  0
  148.0574  138.7374  157.3640 C   0  0  1  0  0  0  0  0  0  0  0  0
  149.1101  139.1325  158.2413 O   0  0  0  0  0  0  0  0  0  0  0  0
  150.2949  139.3045  157.5226 C   0  0  2  0  0  0  0  0  0  0  0  0
  150.7899  140.7130  157.7563 N   0  0  0  0  0  0  0  0  0  0  0  0
  151.9045  140.9437  158.5510 C   0  0  0  0  0  0  0  0  0  0  0  0
  152.4121  142.1793  158.7708 C   0  0  0  0  0  0  0  0  0  0  0  0
  153.4937  142.3219  159.5551 F   0  0  0  0  0  0  0  0  0  0  0  0
  151.7968  143.3548  158.1621 C   0  0  0  0  0  0  0  0  0  0  0  0
  152.1809  144.5139  158.3031 O   0  0  0  0  0  0  0  0  0  0  0  0
  150.6834  143.0748  157.3643 N   0  0  0  0  0  0  0  0  0  0  0  0
  150.1506  141.8059  157.1284 C   0  0  0  0  0  0  0  0  0  0  0  0
  149.1609  141.6841  156.4084 O   0  0  0  0  0  0  0  0  0  0  0  0
  149.9854  139.0592  156.0454 C   0  0  1  0  0  0  0  0  0  0  0  0
  151.4962  138.1595  155.1128 Br  0  0  0  0  0  0  0  0  0  0  0  0
  148.7664  138.1662  156.1306 C   0  0  2  0  0  0  0  0  0  0  0  0
  147.9944  138.2999  154.9435 O   0  0  0  0  0  0  0  0  0  0  0  0
  146.8707  137.5807  154.7741 C   0  0  0  0  0  0  0  0  0  0  0  0
  146.4130  136.7614  155.5725 O   0  0  0  0  0  0  0  0  0  0  0  0
  146.1835  137.9002  153.4451 C   0  0  0  0  0  0  0  0  0  0  0  0
  146.8970  138.9905  152.6315 C   0  0  0  0  0  0  0  0  0  0  0  0
  150.2251  143.8579  156.9213 H   0  0  0  0  0  0  0  0  0  0  0  0
  148.2131  134.3201  162.6604 H   0  0  0  0  0  0  0  0  0  0  0  0
  146.6067  134.9225  162.2708 H   0  0  0  0  0  0  0  0  0  0  0  0
  147.8282  136.0160  162.9270 H   0  0  0  0  0  0  0  0  0  0  0  0
  149.2184  135.6989  160.8442 H   0  0  0  0  0  0  0  0  0  0  0  0
  148.0026  134.6224  160.1905 H   0  0  0  0  0  0  0  0  0  0  0  0
  146.6440  137.0989  157.3505 H   0  0  0  0  0  0  0  0  0  0  0  0
  146.3428  138.2871  158.6124 H   0  0  0  0  0  0  0  0  0  0  0  0
  147.5096  139.6425  157.0962 H   0  0  0  0  0  0  0  0  0  0  0  0
  151.0210  138.5986  157.9266 H   0  0  0  0  0  0  0  0  0  0  0  0
  152.3959  140.1044  159.0203 H   0  0  0  0  0  0  0  0  0  0  0  0
  149.7599  139.9960  155.5344 H   0  0  0  0  0  0  0  0  0  0  0  0
  149.0869  137.1407  156.3214 H   0  0  0  0  0  0  0  0  0  0  0  0
  146.1264  136.9840  152.8568 H   0  0  0  0  0  0  0  0  0  0  0  0
  145.1580  138.2071  153.6514 H   0  0  0  0  0  0  0  0  0  0  0  0
  146.3748  139.1710  151.6920 H   0  0  0  0  0  0  0  0  0  0  0  0
  147.9200  138.7008  152.3891 H   0  0  0  0  0  0  0  0  0  0  0  0
  146.9318  139.9354  153.1751 H   0  0  0  0  0  0  0  0  0  0  0  0
  1  2  1  0  0  0  0
  1 28  1  0  0  0  0
  1 29  1  0  0  0  0
  1 30  1  0  0  0  0
  2  3  1  0  0  0  0
  2 31  1  0  0  0  0
  2 32  1  0  0  0  0
  3  4  2  0  0  0  0
  3  5  1  0  0  0  0
  5  6  1  0  0  0  0
  6  7  1  0  0  0  0
  6 33  1  0  0  0  0
  6 34  1  0  0  0  0
  7 21  1  0  0  0  0
  7  8  1  0  0  0  0
  7 35  1  0  0  0  0
  8  9  1  0  0  0  0
  9 10  1  0  0  0  0
  9 19  1  0  0  0  0
  9 36  1  0  0  0  0
 10 17  1  0  0  0  0
 10 11  1  0  0  0  0
 11 12  2  0  0  0  0
 11 37  1  0  0  0  0
 12 13  1  0  0  0  0
 12 14  1  0  0  0  0
 14 15  2  0  0  0  0
 14 16  1  0  0  0  0
 16 27  1  0  0  0  0
 16 17  1  0  0  0  0
 17 18  2  0  0  0  0
 19 20  1  0  0  0  0
 19 21  1  0  0  0  0
 19 38  1  0  0  0  0
 21 22  1  0  0  0  0
 21 39  1  0  0  0  0
 22 23  1  0  0  0  0
 23 24  2  0  0  0  0
 23 25  1  0  0  0  0
 25 26  1  0  0  0  0
 25 40  1  0  0  0  0
 25 41  1  0  0  0  0
 26 42  1  0  0  0  0
 26 43  1  0  0  0  0
 26 44  1  0  0  0  0
M  END
> <s_m_source_file>
AV-unprocessed.smi

> <i_m_source_file_index>
37

> <i_lp_mmshare_version>
43012

> <i_f3d_flags>
0

> <s_epik_input>
W0NIM11bQ0gyXUMoPU8pT1tDSDJdW0NAQEhdMU9bQ0BASF0objJbY0hdYyhGKWMoPU8pW25IXWMyPU8pW0NAQEhdKEJyKVtDQEhdMU9DKD1PKVtDSDJdW0NIM10=

> <s_epik_cmdline>
J2VwaWtfcHl0aG9uJywgJy1waCcsICc3LjAnLCAnLXRuJywgJzgnLCAnLW1hJywgJzIwMCcsICctbWV0YWxfYmluZGluZycsICctaW1hZScsICc8aW5maWxlLm1hZT4nLCAnLW9tYWUnLCAnPG91dGZpbGUubWFlPic=

> <r_lp_tautomer_probability>
0.999537

> <r_epik_Ionization_Penalty>
0.104106

> <r_epik_Ionization_Penalty_Charging>
0.104106

> <r_epik_Ionization_Penalty_Neutral>
3.94675e-16

> <r_epik_State_Penalty>
0.0940182

> <r_epik_Charging_Adjusted_Penalty>
0.198124

> <i_epik_Tot_Q>
0

> <i_epik_Tot_abs_Q>
0

> <r_epik_Metal_State_Penalty>
3.05314

> <b_epik_Metal_Only>
0

> <s_epik_Chemistry_Notes>
This compound has an ester and may undergo hydrolysis at high or low pH. This compound contains an acetal/aminal-like group ( X-CH(R)-Y where X, Y are N, S, or O) that may be acid/base labile, releasing an aldehyde.

> <s_lp_Force_Field>
OPLS_2005

> <r_lp_Energy>
22.7414

> <b_lp_Chiralities_Consistent>
1

> <s_lp_Variant>
AV-unprocessed.smi:37-12

> <Gold.Version>
5.8.1

> <Gold.Id.Protein>
6NUR|6NUR_protein|mol2

> <Gold.PLP.Fitness>
38.8984

> <Gold.PLP.PLP>
-35.0607

> <Gold.PLP.part.hbond>
-2.4805

> <Gold.PLP.part.metal>
0.0000

> <Gold.PLP.part.buried>
-6.5295

> <Gold.PLP.part.nonpolar>
-27.2123

> <Gold.PLP.part.repulsive>
0.8383

> <Gold.PLP.ligand.clash>
0.0000

> <Gold.PLP.ligand.torsion>
1.1918

> <Gold.PLP.Chemscore.Hbond>
2.0000

> <Gold.PLP.Chemscore.CHOScore>
0.0000

> <Gold.PLP.Chemscore.Metal>
0.0000

> <Gold.Chemscore.Hbonds>
donor molecule, donor type, donor heavy atom, donor atom, acceptor molecule, acceptor atom, score
      L1  H    16    27       P1  8028  1.00
      P1  H  6934  6947       L1     4  1.00

> <Gold.PLP.Chemscore.Internal.Correction>
0.2212

> <Gold.Rescore>
     Score         DG    S(hbond)    S(metal)    S(lipo)     H(rot)  DE(clash)    DE(int)     intcor
      6.93     -10.83       2.19        0.00      56.12       3.33       0.01       3.88       ----

> <Gold.Chemscore.Fitness>
6.9316

> <Gold.Chemscore.DG>
-10.8292

> <Gold.Chemscore.ZeroCoef>
-5.4800

> <Gold.Chemscore.Hbond>
2.1882

> <Gold.Chemscore.Metal>
0.0000

> <Gold.Chemscore.Lipo>
56.1209

> <Gold.Chemscore.Internal_Hbond>
0.0000

> <Gold.Chemscore.DEClash>
0.0135

> <Gold.Chemscore.DEInternal>
3.8841

> <Gold.Chemscore.Rot>
3.3303

> <Gold.Chemscore.Internal.Correction>
   9.000000E+99

> <Gold.Chemscore.Hbonds>
donor molecule, donor type, donor heavy atom, donor atom, acceptor molecule, acceptor atom, score
      L1  H    16    27       P1  8028  0.92
      P1  H  6934  6947       L1     4  0.55

> <Gold.Chemscore.Hbond.Weighted>
-7.3086

> <Gold.Chemscore.Metal.Weighted>
-0.0000

> <Gold.Chemscore.Lipo.Weighted>
-6.5661

> <Gold.Chemscore.Internal_Hbond.Weighted>
0.0000

> <Gold.Chemscore.DEClash.Weighted>
0.0135

> <Gold.Chemscore.DEInternal.Weighted>
3.8841

> <Gold.Chemscore.Rot.Weighted>
8.5256

> <Gold.Chemscore.Internal.Correction.Weighted>
   9.000000E+99

> <Gold.Protein.RotatedTorsions>
[ 6907 6896 6895 6894 ] final  -18.01 input  -60.11 | X-H torsion
[ 7974 7965 7964 7962 ] final  126.14 input  175.53 | X-H torsion
[ 8008 7997 7996 7995 ] final    0.68 input   59.86 | X-H torsion
[ 10167 10162 10161 10158 ] final  156.12 input  -65.29 | X-H torsion
[ 10718 10713 10712 10709 ] final   17.49 input   66.30 | X-H torsion
[ 10763 10752 10751 10750 ] final   87.76 input  -60.55 | X-H torsion
[ 11005 11000 10999 10996 ] final -111.22 input  -57.11 | X-H torsion

> <Gold.Protein.ActiveResidues>
 VAL166  LYS551  ARG553  GLY616  TRP617  ASP618  TYR619  PRO620  LYS621  CYS622 
 ASP623  PHE694  ASN695  SER759  ASP760  ASP761  ALA762  ILE779  LEU786  VAL792 
 PHE793  MET794  SER795  GLU796  ALA797  LYS798  CYS799  TRP800  GLU811  SER814 

> <Gold.Protein.RotatedAtoms>
  151.2847  135.0724  159.9182 H   0  0  0  0  0  0  0  0  0  0  0  0  # atno 6907 bound_to 6896
  152.5327  133.9994  159.7898 H   0  0  0  0  0  0  0  0  0  0  0  0  # atno 6908 bound_to 6896
  151.0254  133.5788  159.2697 H   0  0  0  0  0  0  0  0  0  0  0  0  # atno 6909 bound_to 6896
  145.0650  139.3774  143.4986 H   0  0  0  0  0  0  0  0  0  0  0  0  # atno 7974 bound_to 7965
  154.6709  140.2611  155.7008 H   0  0  0  0  0  0  0  0  0  0  0  0  # atno 8008 bound_to 7997
  156.2658  140.2829  156.1139 H   0  0  0  0  0  0  0  0  0  0  0  0  # atno 8009 bound_to 7997
  155.1170  140.0376  157.2730 H   0  0  0  0  0  0  0  0  0  0  0  0  # atno 8010 bound_to 7997
  139.4821  144.5038  151.8129 H   0  0  0  0  0  0  0  0  0  0  0  0  # atno 10167 bound_to 10162
  157.0828  130.6395  149.5830 H   0  0  0  0  0  0  0  0  0  0  0  0  # atno 10718 bound_to 10713
  153.1700  135.4532  154.9890 H   0  0  0  0  0  0  0  0  0  0  0  0  # atno 10763 bound_to 10752
  154.7959  135.3237  154.7670 H   0  0  0  0  0  0  0  0  0  0  0  0  # atno 10764 bound_to 10752
  153.8147  135.6952  153.4890 H   0  0  0  0  0  0  0  0  0  0  0  0  # atno 10765 bound_to 10752
  141.0747  133.9321  157.2414 H   0  0  0  0  0  0  0  0  0  0  0  0  # atno 11005 bound_to 11000
  146.3526  140.0368  142.8646 LP  0  0  0  0  0  0  0  0  0  0  0  0  # atno 17320 bound_to 7965
  145.1361  140.9545  143.4516 LP  0  0  0  0  0  0  0  0  0  0  0  0  # atno 17321 bound_to 7965
  140.4534  144.1824  150.5899 LP  0  0  0  0  0  0  0  0  0  0  0  0  # atno 17342 bound_to 10162
  140.4561  143.2467  151.9282 LP  0  0  0  0  0  0  0  0  0  0  0  0  # atno 17343 bound_to 10162
  155.9919  130.4975  150.7317 LP  0  0  0  0  0  0  0  0  0  0  0  0  # atno 17370 bound_to 10713
  157.4786  131.0900  151.0562 LP  0  0  0  0  0  0  0  0  0  0  0  0  # atno 17371 bound_to 10713
  139.9559  135.0165  156.9127 LP  0  0  0  0  0  0  0  0  0  0  0  0  # atno 17394 bound_to 11000
  140.5599  134.0545  155.7395 LP  0  0  0  0  0  0  0  0  0  0  0  0  # atno 17395 bound_to 11000

$$$$
