#       Name:                AV-unprocessed.smi:1033
#       Creating user name   scv26
#       Creation time:       Fri Mar 27 02:49:07 2020


#       File generated by GOLD software.
#

@<TRIPOS>MOLECULE
AV-unprocessed.smi:1033
    62    64     1
SMALL
NO_CHARGES


@<TRIPOS>ATOM
      1 ****        -6.3867   2.4594   3.8650 C.3            1 S1                 0.0000
      2 ****        -5.2879   2.3497   2.8215 C.ar           1 S1                 0.0000
      3 ****        -5.6577   2.1863   1.4675 C.ar           1 S1                 0.0000
      4 ****        -4.6306   2.0888   0.5365 C.ar           1 S1                 0.0000
      5 ****        -4.6671   1.9234  -0.8494 N.pl3          1 S1                 1.0000
      6 ****        -3.3962   1.8812  -1.3359 C.2            1 S1                 0.0000
      7 ****        -2.5468   2.0152  -0.2808 N.pl3          1 S1                 0.0000
      8 ****        -1.0765   2.0414  -0.2595 C.3            1 S1                 0.0000
      9 ****        -0.4518   0.6326  -0.2287 C.3            1 S1                 0.0000
     10 ****        -0.8768  -0.0462   0.9372 O.3            1 S1                 0.0000
     11 ****         1.0892   0.6937  -0.2314 C.3            1 S1                 0.0000
     12 ****         1.7208  -0.6495  -0.2916 N.4            1 S1                 1.0000
     13 ****         3.1128  -0.6438   0.2280 C.3            1 S1                 0.0000
     14 ****         3.6981  -2.0708   0.2172 C.3            1 S1                 0.0000
     15 ****         3.6737  -2.6955  -1.1049 N.3            1 S1                 0.0000
     16 ****         4.6570  -2.1136  -2.0262 C.3            1 S1                 0.0000
     17 ****         4.8763  -2.8904  -3.3395 C.3            1 S1                 0.0000
     18 ****         5.4642  -4.2910  -3.1147 C.3            1 S1                 0.0000
     19 ****         5.7833  -2.1553  -4.1332 O.3            1 S1                 0.0000
     20 ****         2.2935  -2.6871  -1.5967 C.3            1 S1                 0.0000
     21 ****         1.6666  -1.2784  -1.6386 C.3            1 S1                 0.0000
     22 ****        -3.2734   2.1498   0.9095 C.ar           1 S1                 0.0000
     23 ****        -2.8924   2.3105   2.2403 C.ar           1 S1                 0.0000
     24 ****        -3.9226   2.4108   3.2027 C.ar           1 S1                 0.0000
     25 ****        -3.5369   2.5844   4.6619 C.3            1 S1                 0.0000
     26 ****        -7.3753   2.3601   3.4159 H              1 S1                 0.0000
     27 ****        -6.3433   3.4273   4.3649 H              1 S1                 0.0000
     28 ****        -6.2832   1.6762   4.6164 H              1 S1                 0.0000
     29 ****        -6.6952   2.1389   1.1699 H              1 S1                 0.0000
     30 ****        -3.1145   1.7642  -2.3725 H              1 S1                 0.0000
     31 ****        -0.7554   2.5681  -1.1590 H              1 S1                 0.0000
     32 ****        -0.7374   2.6460   0.5821 H              1 S1                 0.0000
     33 ****        -0.8127   0.0793  -1.0952 H              1 S1                 0.0000
     34 ****        -1.8216  -0.0832   0.9358 H              1 S1                 0.0000
     35 ****         1.4478   1.2958  -1.0676 H              1 S1                 0.0000
     36 ****         1.4147   1.2084   0.6743 H              1 S1                 0.0000
     37 ****         3.7288   0.0358  -0.3625 H              1 S1                 0.0000
     38 ****         3.1183  -0.2641   1.2503 H              1 S1                 0.0000
     39 ****         4.7187  -2.0558   0.6016 H              1 S1                 0.0000
     40 ****         3.1297  -2.6900   0.9127 H              1 S1                 0.0000
     41 ****         4.3835  -1.0859  -2.2641 H              1 S1                 0.0000
     42 ****         5.6192  -2.0468  -1.5161 H              1 S1                 0.0000
     43 ****         3.9482  -2.9668  -3.9049 H              1 S1                 0.0000
     44 ****         4.7827  -4.9149  -2.5358 H              1 S1                 0.0000
     45 ****         6.4105  -4.2439  -2.5744 H              1 S1                 0.0000
     46 ****         5.6464  -4.7986  -4.0625 H              1 S1                 0.0000
     47 ****         5.9088  -2.6139  -4.9502 H              1 S1                 0.0000
     48 ****         2.2335  -3.1515  -2.5799 H              1 S1                 0.0000
     49 ****         1.6863  -3.3176  -0.9456 H              1 S1                 0.0000
     50 ****         0.6333  -1.3668  -1.9711 H              1 S1                 0.0000
     51 ****         2.1752  -0.6476  -2.3686 H              1 S1                 0.0000
     52 ****        -1.8545   2.3536   2.5350 H              1 S1                 0.0000
     53 ****        -2.4551   2.6442   4.7851 H              1 S1                 0.0000
     54 ****        -3.8936   1.7414   5.2542 H              1 S1                 0.0000
     55 ****        -3.9685   3.5002   5.0668 H              1 S1                 0.0000
     56 ****         1.1923  -1.2423   0.3330 H              1 S1                 0.0000
     57 ****        -5.4972   1.8474  -1.4235 H              1 S1                 0.0000
     58 ****        -0.5598   0.4455   1.7482 LP             1 S1                 0.0000
     59 ****        -0.5031  -0.9738   0.9425 LP             1 S1                 0.0000
     60 ****         3.9672  -3.6490  -1.0367 LP             1 S1                 0.0000
     61 ****         6.6580  -2.0719  -3.6558 LP             1 S1                 0.0000
     62 ****         5.4127  -1.2439  -4.3118 LP             1 S1                 0.0000
@<TRIPOS>BOND
    1    1    2 1     
    2    1   26 1     
    3    1   27 1     
    4    1   28 1     
    5    2   24 ar    
    6    2    3 ar    
    7    3    4 ar    
    8    3   29 1     
    9    4   22 ar    
   10    4    5 1     
   11    5    6 2     
   12    5   57 1     
   13    6    7 1     
   14    6   30 1     
   15    7    8 1     
   16    7   22 1     
   17    8    9 1     
   18    8   31 1     
   19    8   32 1     
   20    9   10 1     
   21    9   11 1     
   22    9   33 1     
   23   10   34 1     
   24   11   12 1     
   25   11   35 1     
   26   11   36 1     
   27   12   21 1     
   28   12   13 1     
   29   12   56 1     
   30   13   14 1     
   31   13   37 1     
   32   13   38 1     
   33   14   15 1     
   34   14   39 1     
   35   14   40 1     
   36   15   16 1     
   37   15   20 1     
   38   16   17 1     
   39   16   41 1     
   40   16   42 1     
   41   17   18 1     
   42   17   19 1     
   43   17   43 1     
   44   18   44 1     
   45   18   45 1     
   46   18   46 1     
   47   19   47 1     
   48   20   21 1     
   49   20   48 1     
   50   20   49 1     
   51   21   50 1     
   52   21   51 1     
   53   22   23 ar    
   54   23   24 ar    
   55   23   52 1     
   56   24   25 1     
   57   25   53 1     
   58   25   54 1     
   59   25   55 1     
   60   10   58 1     
   61   10   59 1     
   62   15   60 1     
   63   19   61 1     
   64   19   62 1     
@<TRIPOS>SUBSTRUCTURE
      1 S1             1
@<TRIPOS>SET
LONE_PAIRS      STATIC     ATOMS    <user>   **** ""
5 58 59 60 61 62
DONOR_HYDROGENS      STATIC     ATOMS    <user>   **** ""
4 57 34 56 47
ATOM$BLUE        STATIC     ATOMS    COLORGROUP SYSTEM
5 58 59 60 61 62
ATOM$RED        STATIC     ATOMS    COLORGROUP SYSTEM
4 57 34 56 47
