#       Name:                AV-unprocessed.smi:3234
#       Creating user name   scv26
#       Creation time:       Fri Mar 27 18:21:10 2020


#       File generated by GOLD software.
#

@<TRIPOS>MOLECULE
AV-unprocessed.smi:3234
    40    42     1
SMALL
NO_CHARGES


@<TRIPOS>ATOM
      1 ****        -0.3256   2.2212  -0.6597 O.2            1 S1                 0.0000
      2 ****        -1.0844   1.3276  -0.2866 C.2            1 S1                 0.0000
      3 ****        -2.4217   1.4220  -0.1794 N.am           1 S1                 0.0000
      4 ****        -3.2813   2.5236  -0.4509 C.ar           1 S1                 0.0000
      5 ****        -4.6690   2.3028  -0.3269 C.ar           1 S1                 0.0000
      6 ****        -5.5551   3.3682  -0.5830 C.ar           1 S1                 0.0000
      7 ****        -5.1458   4.6024  -0.9428 N.ar           1 S1                 0.0000
      8 ****        -3.8181   4.8148  -1.0582 C.ar           1 S1                 0.0000
      9 ****        -2.8478   3.8195  -0.8247 C.ar           1 S1                 0.0000
     10 ****        -0.6573   0.1067   0.0660 N.am           1 S1                 0.0000
     11 ****         0.7390  -0.3164   0.0614 C.3            1 S1                 0.0000
     12 ****         1.3235  -0.5727  -1.3245 C.3            1 S1                 0.0000
     13 ****         2.5330  -1.4618  -1.0146 C.3            1 S1                 0.0000
     14 ****         2.2125  -2.1992   0.2332 N.4            1 S1                 1.0000
     15 ****         3.3035  -2.1743   1.2316 C.3            1 S1                 0.0000
     16 ****         4.3567  -3.2319   1.0028 C.3            1 S1                 0.0000
     17 ****         3.3424  -3.3995   2.1134 C.3            1 S1                 0.0000
     18 ****         0.9292  -1.6695   0.7453 C.3            1 S1                 0.0000
     19 ****        -2.8940   0.5847   0.1282 H              1 S1                 0.0000
     20 ****        -5.0545   1.3349  -0.0414 H              1 S1                 0.0000
     21 ****        -6.6219   3.2242  -0.4958 H              1 S1                 0.0000
     22 ****        -3.5173   5.8117  -1.3447 H              1 S1                 0.0000
     23 ****        -1.8077   4.0799  -0.9353 H              1 S1                 0.0000
     24 ****        -1.3437  -0.5728   0.3605 H              1 S1                 0.0000
     25 ****         1.3477   0.4283   0.5790 H              1 S1                 0.0000
     26 ****         0.6088  -1.1168  -1.9440 H              1 S1                 0.0000
     27 ****         1.5973   0.3435  -1.8489 H              1 S1                 0.0000
     28 ****         2.7554  -2.1499  -1.8305 H              1 S1                 0.0000
     29 ****         3.4135  -0.8344  -0.8653 H              1 S1                 0.0000
     30 ****         3.5767  -1.1978   1.6283 H              1 S1                 0.0000
     31 ****         4.2590  -3.8751   0.1300 H              1 S1                 0.0000
     32 ****         5.3783  -2.9954   1.2936 H              1 S1                 0.0000
     33 ****         3.6958  -3.2715   3.1346 H              1 S1                 0.0000
     34 ****         2.5709  -4.1557   1.9799 H              1 S1                 0.0000
     35 ****         0.9050  -1.5938   1.8337 H              1 S1                 0.0000
     36 ****         0.1400  -2.3612   0.4465 H              1 S1                 0.0000
     37 ****         2.0554  -3.1665  -0.0112 H              1 S1                 0.0000
     38 ****        -0.6936   3.1149  -0.9163 LP             1 S1                 0.0000
     39 ****         0.6592   2.0538  -0.7064 LP             1 S1                 0.0000
     40 ****        -5.8037   5.3348  -1.1180 LP             1 S1                 0.0000
@<TRIPOS>BOND
    1    1    2 2     
    2    2    3 am    
    3    2   10 am    
    4    3    4 1     
    5    3   19 1     
    6    4    9 ar    
    7    4    5 ar    
    8    5    6 ar    
    9    5   20 1     
   10    6    7 ar    
   11    6   21 1     
   12    7    8 ar    
   13    8    9 ar    
   14    8   22 1     
   15    9   23 1     
   16   10   11 1     
   17   10   24 1     
   18   11   18 1     
   19   11   12 1     
   20   11   25 1     
   21   12   13 1     
   22   12   26 1     
   23   12   27 1     
   24   13   14 1     
   25   13   28 1     
   26   13   29 1     
   27   14   15 1     
   28   14   18 1     
   29   14   37 1     
   30   15   17 1     
   31   15   16 1     
   32   15   30 1     
   33   16   17 1     
   34   16   31 1     
   35   16   32 1     
   36   17   33 1     
   37   17   34 1     
   38   18   35 1     
   39   18   36 1     
   40    1   38 1     
   41    1   39 1     
   42    7   40 1     
@<TRIPOS>SUBSTRUCTURE
      1 S1             1
@<TRIPOS>SET
LONE_PAIRS      STATIC     ATOMS    <user>   **** ""
3 38 39 40
DONOR_HYDROGENS      STATIC     ATOMS    <user>   **** ""
3 19 24 37
ATOM$BLUE        STATIC     ATOMS    COLORGROUP SYSTEM
3 38 39 40
ATOM$RED        STATIC     ATOMS    COLORGROUP SYSTEM
3 19 24 37
