AV-unprocessed.smi:2450|AV-procd|sdf|9666|dock2
  -GOLD-   2272013303D 1   1.00000     0.00000
 Structure written by MMmdl.
 41 42  0  0  0  0  0  0  0  0  1 V2000
  152.2676  142.7218  160.4266 C   0  0  0  0  0  0  0  0  0  0  0  0
  151.2324  143.8177  160.1350 C   0  0  0  0  0  0  0  0  0  0  0  0
  151.4600  144.5593  158.8025 C   0  0  1  0  0  0  0  0  0  0  0  0
  152.9546  144.6788  158.4733 C   0  0  0  0  0  0  0  0  0  0  0  0
  150.7843  143.8748  157.7011 N   0  0  0  0  0  0  0  0  0  0  0  0
  150.9920  142.6073  157.3152 C   0  0  0  0  0  0  0  0  0  0  0  0
  151.8143  141.8571  157.8411 O   0  0  0  0  0  0  0  0  0  0  0  0
  150.2045  142.2855  156.2756 N   0  0  0  0  0  0  0  0  0  0  0  0
  150.1510  141.0580  155.5564 C   0  0  0  0  0  0  0  0  0  0  0  0
  151.2148  140.1239  155.6037 C   0  0  0  0  0  0  0  0  0  0  0  0
  151.0850  138.8949  154.9345 C   0  0  0  0  0  0  0  0  0  0  0  0
  149.8858  138.6341  154.2515 C   0  0  0  0  0  0  0  0  0  0  0  0
  148.8586  139.5058  154.2080 N   0  0  0  0  0  0  0  0  0  0  0  0
  148.9740  140.7016  154.8371 C   0  0  0  0  0  0  0  0  0  0  0  0
  147.8692  141.5794  154.7457 N   0  0  0  0  0  0  0  0  0  0  0  0
  147.2235  142.0838  155.9528 C   0  0  0  0  0  0  0  0  0  0  0  0
  145.8948  142.6627  155.4763 C   0  0  0  0  0  0  0  0  0  0  0  0
  145.5067  141.7047  154.3539 C   0  0  0  0  0  0  0  0  0  0  0  0
  146.8505  141.3012  153.7370 C   0  0  0  0  0  0  0  0  0  0  0  0
  152.0194  142.1910  161.3457 H   0  0  0  0  0  0  0  0  0  0  0  0
  153.2684  143.1360  160.5480 H   0  0  0  0  0  0  0  0  0  0  0  0
  152.3026  141.9897  159.6192 H   0  0  0  0  0  0  0  0  0  0  0  0
  150.2427  143.3597  160.1213 H   0  0  0  0  0  0  0  0  0  0  0  0
  151.2221  144.5319  160.9593 H   0  0  0  0  0  0  0  0  0  0  0  0
  151.0711  145.5738  158.9055 H   0  0  0  0  0  0  0  0  0  0  0  0
  153.4876  145.2139  159.2599 H   0  0  0  0  0  0  0  0  0  0  0  0
  153.1095  145.2250  157.5422 H   0  0  0  0  0  0  0  0  0  0  0  0
  153.4186  143.6975  158.3657 H   0  0  0  0  0  0  0  0  0  0  0  0
  150.0932  144.4109  157.1970 H   0  0  0  0  0  0  0  0  0  0  0  0
  149.6492  143.0351  155.8895 H   0  0  0  0  0  0  0  0  0  0  0  0
  152.1179  140.3182  156.1620 H   0  0  0  0  0  0  0  0  0  0  0  0
  151.8807  138.1651  154.9562 H   0  0  0  0  0  0  0  0  0  0  0  0
  149.7436  137.6981  153.7318 H   0  0  0  0  0  0  0  0  0  0  0  0
  147.0332  141.2732  156.6576 H   0  0  0  0  0  0  0  0  0  0  0  0
  147.8389  142.8345  156.4496 H   0  0  0  0  0  0  0  0  0  0  0  0
  145.1476  142.7211  156.2682 H   0  0  0  0  0  0  0  0  0  0  0  0
  146.0463  143.6658  155.0749 H   0  0  0  0  0  0  0  0  0  0  0  0
  145.0192  140.8252  154.7771 H   0  0  0  0  0  0  0  0  0  0  0  0
  144.8246  142.1506  153.6297 H   0  0  0  0  0  0  0  0  0  0  0  0
  147.0510  141.9108  152.8554 H   0  0  0  0  0  0  0  0  0  0  0  0
  146.8495  140.2540  153.4307 H   0  0  0  0  0  0  0  0  0  0  0  0
  1  2  1  0  0  0  0
  1 20  1  0  0  0  0
  1 21  1  0  0  0  0
  1 22  1  0  0  0  0
  2  3  1  0  0  0  0
  2 23  1  0  0  0  0
  2 24  1  0  0  0  0
  3  4  1  0  0  0  0
  3  5  1  0  0  0  0
  3 25  1  0  0  0  0
  4 26  1  0  0  0  0
  4 27  1  0  0  0  0
  4 28  1  0  0  0  0
  5  6  1  0  0  0  0
  5 29  1  0  0  0  0
  6  7  2  0  0  0  0
  6  8  1  0  0  0  0
  8  9  1  0  0  0  0
  8 30  1  0  0  0  0
  9 14  1  0  0  0  0
  9 10  2  0  0  0  0
 10 11  1  0  0  0  0
 10 31  1  0  0  0  0
 11 12  2  0  0  0  0
 11 32  1  0  0  0  0
 12 13  1  0  0  0  0
 12 33  1  0  0  0  0
 13 14  2  0  0  0  0
 14 15  1  0  0  0  0
 15 19  1  0  0  0  0
 15 16  1  0  0  0  0
 16 17  1  0  0  0  0
 16 34  1  0  0  0  0
 16 35  1  0  0  0  0
 17 18  1  0  0  0  0
 17 36  1  0  0  0  0
 17 37  1  0  0  0  0
 18 19  1  0  0  0  0
 18 38  1  0  0  0  0
 18 39  1  0  0  0  0
 19 40  1  0  0  0  0
 19 41  1  0  0  0  0
M  END
> <s_m_source_file>
AV-unprocessed.smi

> <i_m_source_file_index>
2450

> <i_lp_mmshare_version>
43012

> <i_f3d_flags>
0

> <s_epik_input>
W0NIM11bQ0gyXVtDQEhdKFtDSDNdKVtOSF1DKD1PKVtOSF1jMVtjSF1bY0hdW2NIXW5jMU4yW0NIMl1bQ0gyXVtDSDJdW0NIMl0y

> <s_epik_cmdline>
J2VwaWtfcHl0aG9uJywgJy1waCcsICc3LjAnLCAnLXRuJywgJzgnLCAnLW1hJywgJzIwMCcsICctbWV0YWxfYmluZGluZycsICctaW1hZScsICc8aW5maWxlLm1hZT4nLCAnLW9tYWUnLCAnPG91dGZpbGUubWFlPic=

> <r_lp_tautomer_probability>
1

> <r_epik_Ionization_Penalty>
0.103391

> <r_epik_Ionization_Penalty_Charging>
0

> <r_epik_Ionization_Penalty_Neutral>
0.103391

> <r_epik_State_Penalty>
0.0927616

> <r_epik_Charging_Adjusted_Penalty>
0.0927616

> <i_epik_Tot_Q>
0

> <i_epik_Tot_abs_Q>
0

> <r_epik_Metal_State_Penalty>
0.0789158

> <b_epik_Metal_Only>
0

> <s_lp_Force_Field>
OPLS_2005

> <r_lp_Energy>
32.3159

> <b_lp_Chiralities_Consistent>
1

> <s_lp_Variant>
AV-unprocessed.smi:2450-2

> <Gold.Version>
5.8.1

> <Gold.Id.Protein>
6NUR|6NUR_protein|mol2

> <Gold.PLP.Fitness>
44.6801

> <Gold.PLP.PLP>
-36.5983

> <Gold.PLP.part.hbond>
-2.0000

> <Gold.PLP.part.metal>
0.0000

> <Gold.PLP.part.buried>
-0.2849

> <Gold.PLP.part.nonpolar>
-34.4100

> <Gold.PLP.part.repulsive>
0.4410

> <Gold.PLP.ligand.clash>
0.0000

> <Gold.PLP.ligand.torsion>
0.6333

> <Gold.PLP.Chemscore.Hbond>
2.0000

> <Gold.PLP.Chemscore.CHOScore>
1.0000

> <Gold.PLP.Chemscore.Metal>
0.0000

> <Gold.Chemscore.Hbonds>
donor molecule, donor type, donor heavy atom, donor atom, acceptor molecule, acceptor atom, score
      L1  H     5    29       P1  8028  1.00
      L1  H     8    30       P1  8028  1.00
      L1  C    12    33       P1  7948  1.00

> <Gold.PLP.Chemscore.Internal.Correction>
0.3483

> <Gold.Rescore>
     Score         DG    S(hbond)    S(metal)    S(lipo)     H(rot)  DE(clash)    DE(int)     intcor
     13.79     -19.41       1.87        0.00      94.39       1.32       0.54       5.09       ----

> <Gold.Chemscore.Fitness>
13.7859

> <Gold.Chemscore.DG>
-19.4111

> <Gold.Chemscore.ZeroCoef>
-5.4800

> <Gold.Chemscore.Hbond>
1.8734

> <Gold.Chemscore.Metal>
0.0000

> <Gold.Chemscore.Lipo>
94.3903

> <Gold.Chemscore.Internal_Hbond>
0.0000

> <Gold.Chemscore.DEClash>
0.5383

> <Gold.Chemscore.DEInternal>
5.0869

> <Gold.Chemscore.Rot>
1.3163

> <Gold.Chemscore.Internal.Correction>
   9.000000E+99

> <Gold.Chemscore.Hbonds>
donor molecule, donor type, donor heavy atom, donor atom, acceptor molecule, acceptor atom, score
      L1  H     5    29       P1  8028  0.53
      L1  H     8    30       P1  8028  1.00

> <Gold.Chemscore.Hbond.Weighted>
-6.2571

> <Gold.Chemscore.Metal.Weighted>
-0.0000

> <Gold.Chemscore.Lipo.Weighted>
-11.0437

> <Gold.Chemscore.Internal_Hbond.Weighted>
0.0000

> <Gold.Chemscore.DEClash.Weighted>
0.5383

> <Gold.Chemscore.DEInternal.Weighted>
5.0869

> <Gold.Chemscore.Rot.Weighted>
3.3696

> <Gold.Chemscore.Internal.Correction.Weighted>
   9.000000E+99

> <Gold.Protein.RotatedTorsions>
[ 6907 6896 6895 6894 ] final  168.95 input  -60.11 | X-H torsion
[ 7974 7965 7964 7962 ] final  167.31 input  175.53 | X-H torsion
[ 8008 7997 7996 7995 ] final   27.10 input   59.86 | X-H torsion
[ 10167 10162 10161 10158 ] final  -35.78 input  -65.29 | X-H torsion
[ 10718 10713 10712 10709 ] final -167.65 input   66.30 | X-H torsion
[ 10763 10752 10751 10750 ] final -105.40 input  -60.55 | X-H torsion
[ 11005 11000 10999 10996 ] final   70.11 input  -57.11 | X-H torsion

> <Gold.Protein.ActiveResidues>
 VAL166  LYS551  ARG553  GLY616  TRP617  ASP618  TYR619  PRO620  LYS621  CYS622 
 ASP623  PHE694  ASN695  SER759  ASP760  ASP761  ALA762  ILE779  LEU786  VAL792 
 PHE793  MET794  SER795  GLU796  ALA797  LYS798  CYS799  TRP800  GLU811  SER814 

> <Gold.Protein.RotatedAtoms>
  151.8396  133.3421  159.3638 H   0  0  0  0  0  0  0  0  0  0  0  0  # atno 6907 bound_to 6896
  150.7239  134.5404  159.5754 H   0  0  0  0  0  0  0  0  0  0  0  0  # atno 6908 bound_to 6896
  152.2875  134.7760  160.0435 H   0  0  0  0  0  0  0  0  0  0  0  0  # atno 6909 bound_to 6896
  144.7429  139.8742  143.6391 H   0  0  0  0  0  0  0  0  0  0  0  0  # atno 7974 bound_to 7965
  155.0376  140.3165  155.4736 H   0  0  0  0  0  0  0  0  0  0  0  0  # atno 8008 bound_to 7997
  156.2861  140.2169  156.5442 H   0  0  0  0  0  0  0  0  0  0  0  0  # atno 8009 bound_to 7997
  154.7317  140.0481  157.0720 H   0  0  0  0  0  0  0  0  0  0  0  0  # atno 8010 bound_to 7997
  140.7157  143.3454  151.2268 H   0  0  0  0  0  0  0  0  0  0  0  0  # atno 10167 bound_to 10162
  156.6855  130.9138  151.3062 H   0  0  0  0  0  0  0  0  0  0  0  0  # atno 10718 bound_to 10713
  154.7944  135.4750  154.0126 H   0  0  0  0  0  0  0  0  0  0  0  0  # atno 10763 bound_to 10752
  153.1680  135.6820  153.8655 H   0  0  0  0  0  0  0  0  0  0  0  0  # atno 10764 bound_to 10752
  153.8247  135.3199  155.3391 H   0  0  0  0  0  0  0  0  0  0  0  0  # atno 10765 bound_to 10752
  139.9616  134.7052  156.0635 H   0  0  0  0  0  0  0  0  0  0  0  0  # atno 11005 bound_to 11000
  146.1258  139.4284  143.0200 LP  0  0  0  0  0  0  0  0  0  0  0  0  # atno 17320 bound_to 7965
  145.7237  141.0066  143.1389 LP  0  0  0  0  0  0  0  0  0  0  0  0  # atno 17321 bound_to 7965
  139.6971  143.9594  152.2888 LP  0  0  0  0  0  0  0  0  0  0  0  0  # atno 17342 bound_to 10162
  139.9275  144.6762  150.8397 LP  0  0  0  0  0  0  0  0  0  0  0  0  # atno 17343 bound_to 10162
  157.7028  130.9352  150.0838 LP  0  0  0  0  0  0  0  0  0  0  0  0  # atno 17370 bound_to 10713
  156.1836  130.3651  149.9002 LP  0  0  0  0  0  0  0  0  0  0  0  0  # atno 17371 bound_to 10713
  141.1293  133.6591  156.3421 LP  0  0  0  0  0  0  0  0  0  0  0  0  # atno 17394 bound_to 11000
  140.5489  134.6047  157.5402 LP  0  0  0  0  0  0  0  0  0  0  0  0  # atno 17395 bound_to 11000

$$$$
