AV-unprocessed.smi:36|AV-procd|sdf|283|dock4
  -GOLD-   2262016 63D 1   1.00000     0.00000
 Structure written by MMmdl.
 64 67  0  0  0  0  0  0  0  0  1 V2000
  150.2938  131.0140  163.6385 C   0  0  0  0  0  0  0  0  0  0  0  0
  151.4085  129.9874  163.3778 C   0  0  0  0  0  0  0  0  0  0  0  0
  150.8416  128.5619  163.4836 C   0  0  0  0  0  0  0  0  0  0  0  0
  152.0038  130.2055  161.9767 C   0  0  0  0  0  0  0  0  0  0  0  0
  152.7906  130.2069  164.6781 Si  0  0  0  0  0  0  0  0  0  0  0  0
  152.1089  129.9825  166.4379 C   0  0  0  0  0  0  0  0  0  0  0  0
  154.2188  128.9899  164.3822 C   0  0  0  0  0  0  0  0  0  0  0  0
  153.3956  131.7806  164.5318 O   0  0  0  0  0  0  0  0  0  0  0  0
  153.9874  132.2899  163.3543 C   0  0  0  0  0  0  0  0  0  0  0  0
  154.3929  133.7535  163.5860 C   0  0  2  0  0  0  0  0  0  0  0  0
  155.0633  134.2965  162.4549 O   0  0  0  0  0  0  0  0  0  0  0  0
  155.8681  135.3699  162.8480 C   0  0  1  0  0  0  0  0  0  0  0  0
  155.2592  136.6325  162.3327 N   0  0  0  0  0  0  0  0  0  0  0  0
  154.1696  136.8008  161.5047 C   0  0  0  0  0  0  0  0  0  0  0  0
  153.8694  138.0407  161.2235 N   0  0  0  0  0  0  0  0  0  0  0  0
  154.8214  138.7824  161.9117 C   0  0  0  0  0  0  0  0  0  0  0  0
  155.0808  140.1714  162.0435 C   0  0  0  0  0  0  0  0  0  0  0  0
  154.3016  141.0720  161.4000 N   0  0  0  0  0  0  0  0  0  0  0  0
  153.8449  141.0416  160.0217 C   0  0  0  0  0  0  0  0  0  0  0  0
  154.2196  140.1797  159.2259 O   0  0  0  0  0  0  0  0  0  0  0  0
  152.9526  142.1722  159.5978 C   0  0  0  0  0  0  0  0  0  0  0  0
  152.8758  143.3448  160.3828 C   0  0  0  0  0  0  0  0  0  0  0  0
  152.0570  144.4189  159.9822 C   0  0  0  0  0  0  0  0  0  0  0  0
  151.3136  144.3325  158.7902 C   0  0  0  0  0  0  0  0  0  0  0  0
  151.3923  143.1727  157.9966 C   0  0  0  0  0  0  0  0  0  0  0  0
  152.2110  142.0981  158.3956 C   0  0  0  0  0  0  0  0  0  0  0  0
  156.1292  140.5399  162.8266 N   0  0  0  0  0  0  0  0  0  0  0  0
  156.8727  139.6122  163.4371 C   0  0  0  0  0  0  0  0  0  0  0  0
  156.7462  138.2838  163.3991 N   0  0  0  0  0  0  0  0  0  0  0  0
  155.6959  137.9080  162.6138 C   0  0  0  0  0  0  0  0  0  0  0  0
  155.9003  135.3936  164.3827 C   0  0  0  0  0  0  0  0  0  0  0  0
  155.3522  134.0280  164.7495 C   0  0  2  0  0  0  0  0  0  0  0  0
  156.3948  133.0742  164.8214 O   0  0  0  0  0  0  0  0  0  0  0  0
  149.4856  130.9139  162.9133 H   0  0  0  0  0  0  0  0  0  0  0  0
  150.6699  132.0350  163.5708 H   0  0  0  0  0  0  0  0  0  0  0  0
  149.8616  130.8876  164.6314 H   0  0  0  0  0  0  0  0  0  0  0  0
  150.4020  128.3801  164.4646 H   0  0  0  0  0  0  0  0  0  0  0  0
  151.6196  127.8138  163.3281 H   0  0  0  0  0  0  0  0  0  0  0  0
  150.0638  128.3880  162.7392 H   0  0  0  0  0  0  0  0  0  0  0  0
  151.2504  130.0698  161.2002 H   0  0  0  0  0  0  0  0  0  0  0  0
  152.8131  129.5023  161.7766 H   0  0  0  0  0  0  0  0  0  0  0  0
  152.4092  131.2118  161.8683 H   0  0  0  0  0  0  0  0  0  0  0  0
  151.6819  128.9898  166.5774 H   0  0  0  0  0  0  0  0  0  0  0  0
  151.3256  130.7066  166.6602 H   0  0  0  0  0  0  0  0  0  0  0  0
  152.8883  130.1051  167.1892 H   0  0  0  0  0  0  0  0  0  0  0  0
  153.8843  127.9551  164.4506 H   0  0  0  0  0  0  0  0  0  0  0  0
  155.0136  129.1228  165.1156 H   0  0  0  0  0  0  0  0  0  0  0  0
  154.6631  129.1239  163.3963 H   0  0  0  0  0  0  0  0  0  0  0  0
  154.8388  131.6826  163.0457 H   0  0  0  0  0  0  0  0  0  0  0  0
  153.2523  132.2314  162.5515 H   0  0  0  0  0  0  0  0  0  0  0  0
  153.4895  134.3468  163.7368 H   0  0  0  0  0  0  0  0  0  0  0  0
  156.8508  135.3064  162.3795 H   0  0  0  0  0  0  0  0  0  0  0  0
  153.5999  135.9731  161.1085 H   0  0  0  0  0  0  0  0  0  0  0  0
  153.9714  141.8469  161.9566 H   0  0  0  0  0  0  0  0  0  0  0  0
  153.4417  143.4279  161.2996 H   0  0  0  0  0  0  0  0  0  0  0  0
  152.0012  145.3101  160.5900 H   0  0  0  0  0  0  0  0  0  0  0  0
  150.6869  145.1567  158.4827 H   0  0  0  0  0  0  0  0  0  0  0  0
  150.8271  143.1079  157.0784 H   0  0  0  0  0  0  0  0  0  0  0  0
  152.2643  141.2222  157.7652 H   0  0  0  0  0  0  0  0  0  0  0  0
  157.6854  139.9880  164.0410 H   0  0  0  0  0  0  0  0  0  0  0  0
  156.9069  135.5872  164.7549 H   0  0  0  0  0  0  0  0  0  0  0  0
  155.2351  136.1743  164.7558 H   0  0  0  0  0  0  0  0  0  0  0  0
  154.8313  134.0421  165.7074 H   0  0  0  0  0  0  0  0  0  0  0  0
  156.6319  132.9574  165.7288 H   0  0  0  0  0  0  0  0  0  0  0  0
  1  2  1  0  0  0  0
  1 34  1  0  0  0  0
  1 35  1  0  0  0  0
  1 36  1  0  0  0  0
  2  3  1  0  0  0  0
  2  4  1  0  0  0  0
  2  5  1  0  0  0  0
  3 37  1  0  0  0  0
  3 38  1  0  0  0  0
  3 39  1  0  0  0  0
  4 40  1  0  0  0  0
  4 41  1  0  0  0  0
  4 42  1  0  0  0  0
  5  6  1  0  0  0  0
  5  7  1  0  0  0  0
  5  8  1  0  0  0  0
  6 43  1  0  0  0  0
  6 44  1  0  0  0  0
  6 45  1  0  0  0  0
  7 46  1  0  0  0  0
  7 47  1  0  0  0  0
  7 48  1  0  0  0  0
  8  9  1  0  0  0  0
  9 10  1  0  0  0  0
  9 49  1  0  0  0  0
  9 50  1  0  0  0  0
 10 32  1  0  0  0  0
 10 11  1  0  0  0  0
 10 51  1  0  0  0  0
 11 12  1  0  0  0  0
 12 13  1  0  0  0  0
 12 31  1  0  0  0  0
 12 52  1  0  0  0  0
 13 30  1  0  0  0  0
 13 14  1  0  0  0  0
 14 15  2  0  0  0  0
 14 53  1  0  0  0  0
 15 16  1  0  0  0  0
 16 30  2  0  0  0  0
 16 17  1  0  0  0  0
 17 18  1  0  0  0  0
 17 27  2  0  0  0  0
 18 19  1  0  0  0  0
 18 54  1  0  0  0  0
 19 20  2  0  0  0  0
 19 21  1  0  0  0  0
 21 26  1  0  0  0  0
 21 22  2  0  0  0  0
 22 23  1  0  0  0  0
 22 55  1  0  0  0  0
 23 24  2  0  0  0  0
 23 56  1  0  0  0  0
 24 25  1  0  0  0  0
 24 57  1  0  0  0  0
 25 26  2  0  0  0  0
 25 58  1  0  0  0  0
 26 59  1  0  0  0  0
 27 28  1  0  0  0  0
 28 29  2  0  0  0  0
 28 60  1  0  0  0  0
 29 30  1  0  0  0  0
 31 32  1  0  0  0  0
 31 61  1  0  0  0  0
 31 62  1  0  0  0  0
 32 33  1  0  0  0  0
 32 63  1  0  0  0  0
 33 64  1  0  0  0  0
M  END
> <s_m_source_file>
AV-unprocessed.smi

> <i_m_source_file_index>
36

> <i_lp_mmshare_version>
43012

> <i_f3d_flags>
0

> <s_epik_input>
W0NIM11DKFtDSDNdKShbQ0gzXSlbU2ldKFtDSDNdKShbQ0gzXSlPW0NIMl1bQ0BASF0xT1tDQEhdKFtDSDJdW0NASF0xW09IXSluKFtjSF1uMiljKGMyMyluW2NIXW5jM1tOSF1DKD1PKWM0W2NIXVtjSF1bY0hdW2NIXVtjSF00

> <s_epik_cmdline>
J2VwaWtfcHl0aG9uJywgJy1waCcsICc3LjAnLCAnLXRuJywgJzgnLCAnLW1hJywgJzIwMCcsICctbWV0YWxfYmluZGluZycsICctaW1hZScsICc8aW5maWxlLm1hZT4nLCAnLW9tYWUnLCAnPG91dGZpbGUubWFlPic=

> <r_lp_tautomer_probability>
1

> <r_epik_Ionization_Penalty>
0.00150433

> <r_epik_Ionization_Penalty_Charging>
0

> <r_epik_Ionization_Penalty_Neutral>
0.00150433

> <r_epik_State_Penalty>
0.00724046

> <r_epik_Charging_Adjusted_Penalty>
0.00724046

> <i_epik_Tot_Q>
0

> <i_epik_Tot_abs_Q>
0

> <r_epik_Metal_State_Penalty>
0.323355

> <b_epik_Metal_Only>
0

> <s_epik_Chemistry_Notes>
This compound contains an acetal/aminal-like group ( X-CH(R)-Y where X, Y are N, S, or O) that may be acid/base labile, releasing an aldehyde.

> <s_lp_Force_Field>
OPLS_2005

> <r_lp_Energy>
37.4738

> <b_lp_Chiralities_Consistent>
1

> <s_lp_Variant>
AV-unprocessed.smi:36-5

> <Gold.Version>
5.8.1

> <Gold.Id.Protein>
6NUR|6NUR_protein|mol2

> <Gold.PLP.Fitness>
50.7756

> <Gold.PLP.PLP>
-49.1139

> <Gold.PLP.part.hbond>
-2.0000

> <Gold.PLP.part.metal>
0.0000

> <Gold.PLP.part.buried>
-5.8268

> <Gold.PLP.part.nonpolar>
-40.0754

> <Gold.PLP.part.repulsive>
0.0298

> <Gold.PLP.ligand.clash>
0.0000

> <Gold.PLP.ligand.torsion>
0.5687

> <Gold.PLP.Chemscore.Hbond>
0.9048

> <Gold.PLP.Chemscore.CHOScore>
0.0000

> <Gold.PLP.Chemscore.Metal>
0.0000

> <Gold.Chemscore.Hbonds>
donor molecule, donor type, donor heavy atom, donor atom, acceptor molecule, acceptor atom, score
      P1  H  7997  8009       L1    20  0.84

> <Gold.PLP.Chemscore.Internal.Correction>
0.0847

> <Gold.Rescore>
     Score         DG    S(hbond)    S(metal)    S(lipo)     H(rot)  DE(clash)    DE(int)     intcor
     14.37     -16.48       0.98        0.00     125.31       2.70       0.52       1.59       ----

> <Gold.Chemscore.Fitness>
14.3673

> <Gold.Chemscore.DG>
-16.4770

> <Gold.Chemscore.ZeroCoef>
-5.4800

> <Gold.Chemscore.Hbond>
0.9755

> <Gold.Chemscore.Metal>
0.0000

> <Gold.Chemscore.Lipo>
125.3114

> <Gold.Chemscore.Internal_Hbond>
0.0000

> <Gold.Chemscore.DEClash>
0.5157

> <Gold.Chemscore.DEInternal>
1.5941

> <Gold.Chemscore.Rot>
2.7041

> <Gold.Chemscore.Internal.Correction>
   9.000000E+99

> <Gold.Chemscore.Hbonds>
donor molecule, donor type, donor heavy atom, donor atom, acceptor molecule, acceptor atom, score
      P1  H  7997  8009       L1    20  0.79

> <Gold.Chemscore.Hbond.Weighted>
-3.2581

> <Gold.Chemscore.Metal.Weighted>
-0.0000

> <Gold.Chemscore.Lipo.Weighted>
-14.6614

> <Gold.Chemscore.Internal_Hbond.Weighted>
0.0000

> <Gold.Chemscore.DEClash.Weighted>
0.5157

> <Gold.Chemscore.DEInternal.Weighted>
1.5941

> <Gold.Chemscore.Rot.Weighted>
6.9225

> <Gold.Chemscore.Internal.Correction.Weighted>
   9.000000E+99

> <Gold.Protein.RotatedTorsions>
[ 6907 6896 6895 6894 ] final  -41.83 input  -60.11 | X-H torsion
[ 7974 7965 7964 7962 ] final  -40.10 input  175.53 | X-H torsion
[ 8008 7997 7996 7995 ] final  128.45 input   59.86 | X-H torsion
[ 10167 10162 10161 10158 ] final   -2.12 input  -65.29 | X-H torsion
[ 10718 10713 10712 10709 ] final  117.98 input   66.30 | X-H torsion
[ 10763 10752 10751 10750 ] final   81.01 input  -60.55 | X-H torsion
[ 11005 11000 10999 10996 ] final   89.41 input  -57.11 | X-H torsion

> <Gold.Protein.ActiveResidues>
 VAL166  LYS551  ARG553  GLY616  TRP617  ASP618  TYR619  PRO620  LYS621  CYS622 
 ASP623  PHE694  ASN695  SER759  ASP760  ASP761  ALA762  ILE779  LEU786  VAL792 
 PHE793  MET794  SER795  GLU796  ALA797  LYS798  CYS799  TRP800  GLU811  SER814 

> <Gold.Protein.RotatedAtoms>
  150.9623  134.9009  159.7737 H   0  0  0  0  0  0  0  0  0  0  0  0  # atno 6907 bound_to 6896
  152.5160  134.3656  159.9310 H   0  0  0  0  0  0  0  0  0  0  0  0  # atno 6908 bound_to 6896
  151.3668  133.3829  159.2730 H   0  0  0  0  0  0  0  0  0  0  0  0  # atno 6909 bound_to 6896
  146.0336  140.6700  142.9121 H   0  0  0  0  0  0  0  0  0  0  0  0  # atno 7974 bound_to 7965
  156.2915  140.2644  156.2437 H   0  0  0  0  0  0  0  0  0  0  0  0  # atno 8008 bound_to 7997
  154.9951  140.0388  157.2355 H   0  0  0  0  0  0  0  0  0  0  0  0  # atno 8009 bound_to 7997
  154.7651  140.2768  155.6188 H   0  0  0  0  0  0  0  0  0  0  0  0  # atno 8010 bound_to 7997
  140.6838  143.6695  150.8198 H   0  0  0  0  0  0  0  0  0  0  0  0  # atno 10167 bound_to 10162
  157.6061  131.1043  150.7692 H   0  0  0  0  0  0  0  0  0  0  0  0  # atno 10718 bound_to 10713
  153.1081  135.4781  154.8987 H   0  0  0  0  0  0  0  0  0  0  0  0  # atno 10763 bound_to 10752
  154.7451  135.3092  154.8661 H   0  0  0  0  0  0  0  0  0  0  0  0  # atno 10764 bound_to 10752
  153.9257  135.6850  153.4800 H   0  0  0  0  0  0  0  0  0  0  0  0  # atno 10765 bound_to 10752
  139.8876  134.8550  156.3139 H   0  0  0  0  0  0  0  0  0  0  0  0  # atno 11005 bound_to 11000
  144.7041  140.3780  143.7132 LP  0  0  0  0  0  0  0  0  0  0  0  0  # atno 17320 bound_to 7965
  145.7001  139.1659  143.2598 LP  0  0  0  0  0  0  0  0  0  0  0  0  # atno 17321 bound_to 7965
  140.0399  143.5357  152.2722 LP  0  0  0  0  0  0  0  0  0  0  0  0  # atno 17342 bound_to 10162
  139.6180  144.7623  151.2802 LP  0  0  0  0  0  0  0  0  0  0  0  0  # atno 17343 bound_to 10162
  156.8079  130.4943  149.5360 LP  0  0  0  0  0  0  0  0  0  0  0  0  # atno 17370 bound_to 10713
  156.1147  130.6066  151.0102 LP  0  0  0  0  0  0  0  0  0  0  0  0  # atno 17371 bound_to 10713
  140.9832  133.7254  156.0703 LP  0  0  0  0  0  0  0  0  0  0  0  0  # atno 17394 bound_to 11000
  140.7722  134.3820  157.5505 LP  0  0  0  0  0  0  0  0  0  0  0  0  # atno 17395 bound_to 11000

$$$$
