AV-unprocessed.smi:283|AV-procd|sdf|2125|dock1
  -GOLD-   2262021433D 1   1.00000     0.00000
 Structure written by MMmdl.
 48 51  0  0  0  0  0  0  0  0  1 V2000
  151.4861  141.0013  156.3020 C   0  0  0  0  0  0  0  0  0  0  0  0
  151.3128  140.8206  157.8212 C   0  0  2  0  0  0  0  0  0  0  0  0
  150.0240  140.2053  158.1371 N   0  0  0  0  0  0  0  0  0  0  0  0
  149.8690  138.8632  158.1851 C   0  0  0  0  0  0  0  0  0  0  0  0
  149.1913  138.2653  159.1994 N   0  0  0  0  0  0  0  0  0  0  0  0
  149.0551  136.9363  159.2206 C   0  0  0  0  0  0  0  0  0  0  0  0
  149.5090  136.0374  158.3446 N   0  0  0  0  0  0  0  0  0  0  0  0
  150.1858  136.6322  157.3198 C   0  0  0  0  0  0  0  0  0  0  0  0
  150.4044  138.0303  157.1688 C   0  0  0  0  0  0  0  0  0  0  0  0
  151.1283  138.2710  156.0085 N   0  0  0  0  0  0  0  0  0  0  0  0
  151.3252  137.0813  155.5067 C   0  0  0  0  0  0  0  0  0  0  0  0
  150.7977  136.0377  156.2345 N   0  0  0  0  0  0  0  0  0  0  0  0
  150.8709  134.5792  155.9171 C   0  0  2  0  0  0  0  0  0  0  0  0
  150.1957  134.3593  154.7167 O   0  0  0  0  0  0  0  0  0  0  0  0
  149.4231  133.1682  154.8150 C   0  0  2  0  0  0  0  0  0  0  0  0
  148.2696  133.2105  153.8010 C   0  0  0  0  0  0  0  0  0  0  0  0
  148.0177  134.5426  153.4077 O   0  0  0  0  0  0  0  0  0  0  0  0
  148.9582  133.2023  156.2717 C   0  0  1  0  0  0  0  0  0  0  0  0
  148.5258  131.9405  156.7479 O   0  0  0  0  0  0  0  0  0  0  0  0
  150.1808  133.7446  157.0087 C   0  0  1  0  0  0  0  0  0  0  0  0
  151.0357  132.7107  157.4628 O   0  0  0  0  0  0  0  0  0  0  0  0
  151.5134  142.1602  158.5287 C   0  0  0  0  0  0  0  0  0  0  0  0
  150.7299  143.2789  158.1584 C   0  0  0  0  0  0  0  0  0  0  0  0
  150.9097  144.5234  158.7909 C   0  0  0  0  0  0  0  0  0  0  0  0
  151.8806  144.6662  159.7978 C   0  0  0  0  0  0  0  0  0  0  0  0
  152.6739  143.5645  160.1667 C   0  0  0  0  0  0  0  0  0  0  0  0
  152.4991  142.3158  159.5366 C   0  0  0  0  0  0  0  0  0  0  0  0
  153.5180  141.0041  160.0182 Cl  0  0  0  0  0  0  0  0  0  0  0  0
  151.9361  134.3685  155.8086 H   0  0  0  0  0  0  0  0  0  0  0  0
  150.0674  132.3016  154.6532 H   0  0  0  0  0  0  0  0  0  0  0  0
  148.1337  133.9080  156.3738 H   0  0  0  0  0  0  0  0  0  0  0  0
  149.8947  134.3632  157.8606 H   0  0  0  0  0  0  0  0  0  0  0  0
  152.4664  141.4175  156.0681 H   0  0  0  0  0  0  0  0  0  0  0  0
  150.7343  141.6791  155.8966 H   0  0  0  0  0  0  0  0  0  0  0  0
  151.4011  140.0565  155.7660 H   0  0  0  0  0  0  0  0  0  0  0  0
  152.0829  140.1403  158.1827 H   0  0  0  0  0  0  0  0  0  0  0  0
  149.2474  140.8451  158.2209 H   0  0  0  0  0  0  0  0  0  0  0  0
  148.5054  136.5358  160.0594 H   0  0  0  0  0  0  0  0  0  0  0  0
  151.8708  136.9307  154.5864 H   0  0  0  0  0  0  0  0  0  0  0  0
  148.5367  132.6510  152.9041 H   0  0  0  0  0  0  0  0  0  0  0  0
  147.3661  132.7558  154.2086 H   0  0  0  0  0  0  0  0  0  0  0  0
  148.7118  134.8215  152.8302 H   0  0  0  0  0  0  0  0  0  0  0  0
  148.4427  131.3544  156.0112 H   0  0  0  0  0  0  0  0  0  0  0  0
  151.2309  132.1424  156.7334 H   0  0  0  0  0  0  0  0  0  0  0  0
  149.9862  143.1942  157.3800 H   0  0  0  0  0  0  0  0  0  0  0  0
  150.3044  145.3694  158.5007 H   0  0  0  0  0  0  0  0  0  0  0  0
  152.0208  145.6208  160.2831 H   0  0  0  0  0  0  0  0  0  0  0  0
  153.4239  143.6798  160.9353 H   0  0  0  0  0  0  0  0  0  0  0  0
  1  2  1  0  0  0  0
  1 33  1  0  0  0  0
  1 34  1  0  0  0  0
  1 35  1  0  0  0  0
  2  3  1  0  0  0  0
  2 22  1  0  0  0  0
  2 36  1  0  0  0  0
  3  4  1  0  0  0  0
  3 37  1  0  0  0  0
  4  9  1  0  0  0  0
  4  5  2  0  0  0  0
  5  6  1  0  0  0  0
  6  7  2  0  0  0  0
  6 38  1  0  0  0  0
  7  8  1  0  0  0  0
  8 12  1  0  0  0  0
  8  9  2  0  0  0  0
  9 10  1  0  0  0  0
 10 11  2  0  0  0  0
 11 12  1  0  0  0  0
 11 39  1  0  0  0  0
 12 13  1  0  0  0  0
 13 29  1  0  0  0  0
 13 20  1  0  0  0  0
 13 14  1  0  0  0  0
 14 15  1  0  0  0  0
 15 30  1  0  0  0  0
 15 16  1  0  0  0  0
 15 18  1  0  0  0  0
 16 17  1  0  0  0  0
 16 40  1  0  0  0  0
 16 41  1  0  0  0  0
 17 42  1  0  0  0  0
 18 31  1  0  0  0  0
 18 19  1  0  0  0  0
 18 20  1  0  0  0  0
 19 43  1  0  0  0  0
 20 32  1  0  0  0  0
 20 21  1  0  0  0  0
 21 44  1  0  0  0  0
 22 27  1  0  0  0  0
 22 23  2  0  0  0  0
 23 24  1  0  0  0  0
 23 45  1  0  0  0  0
 24 25  2  0  0  0  0
 24 46  1  0  0  0  0
 25 26  1  0  0  0  0
 25 47  1  0  0  0  0
 26 27  2  0  0  0  0
 26 48  1  0  0  0  0
 27 28  1  0  0  0  0
M  END
> <s_m_source_file>
AV-unprocessed.smi

> <i_m_source_file_index>
283

> <i_lp_mmshare_version>
43012

> <i_f3d_flags>
0

> <s_epik_input>
Q2xjMVtjSF1bY0hdW2NIXVtjSF1jMVtDQEhdKFtDSDNdKVtOSF1jKG5bY0hdbjIpYyhjMjMpbltjSF1uM1tDQEBIXTRPW0NASF0oW0NIMl1bT0hdKVtDQEBIXShbT0hdKVtDQEhdNFtPSF0=

> <s_epik_cmdline>
J2VwaWtfcHl0aG9uJywgJy1waCcsICc3LjAnLCAnLXRuJywgJzgnLCAnLW1hJywgJzIwMCcsICctbWV0YWxfYmluZGluZycsICctaW1hZScsICc8aW5maWxlLm1hZT4nLCAnLW9tYWUnLCAnPG91dGZpbGUubWFlPic=

> <r_lp_tautomer_probability>
1

> <r_epik_Ionization_Penalty>
0.000266407

> <r_epik_Ionization_Penalty_Charging>
0

> <r_epik_Ionization_Penalty_Neutral>
0.000266407

> <r_epik_State_Penalty>
-0

> <r_epik_Charging_Adjusted_Penalty>
0

> <i_epik_Tot_Q>
0

> <i_epik_Tot_abs_Q>
0

> <r_epik_Metal_State_Penalty>
-0

> <b_epik_Metal_Only>
0

> <s_epik_Chemistry_Notes>
This compound contains an acetal/aminal-like group ( X-CH(R)-Y where X, Y are N, S, or O) that may be acid/base labile, releasing an aldehyde.

> <s_lp_Force_Field>
OPLS_2005

> <r_lp_Energy>
47.4388

> <b_lp_Chiralities_Consistent>
1

> <s_lp_Variant>
AV-unprocessed.smi:283-1

> <Gold.Version>
5.8.1

> <Gold.Id.Protein>
6NUR|6NUR_protein|mol2

> <Gold.PLP.Fitness>
47.2855

> <Gold.PLP.PLP>
-43.5596

> <Gold.PLP.part.hbond>
-4.5419

> <Gold.PLP.part.metal>
0.0000

> <Gold.PLP.part.buried>
-5.4443

> <Gold.PLP.part.nonpolar>
-34.9962

> <Gold.PLP.part.repulsive>
0.3359

> <Gold.PLP.ligand.clash>
0.4602

> <Gold.PLP.ligand.torsion>
1.3381

> <Gold.PLP.Chemscore.Hbond>
2.2401

> <Gold.PLP.Chemscore.CHOScore>
0.0000

> <Gold.PLP.Chemscore.Metal>
0.0000

> <Gold.Chemscore.Hbonds>
donor molecule, donor type, donor heavy atom, donor atom, acceptor molecule, acceptor atom, score
      L1  H    17    42       P1  7948  0.63
      P1  H  6896  6907       L1     7  0.49
      P1  H  6896  6909       L1    21  0.38

> <Gold.PLP.Chemscore.Internal.Correction>
0.1419

> <Gold.Rescore>
     Score         DG    S(hbond)    S(metal)    S(lipo)     H(rot)  DE(clash)    DE(int)     intcor
      7.52     -11.98       1.24        0.00     109.83       4.10       0.10       4.37       ----

> <Gold.Chemscore.Fitness>
7.5172

> <Gold.Chemscore.DG>
-11.9810

> <Gold.Chemscore.ZeroCoef>
-5.4800

> <Gold.Chemscore.Hbond>
1.2393

> <Gold.Chemscore.Metal>
0.0000

> <Gold.Chemscore.Lipo>
109.8279

> <Gold.Chemscore.Internal_Hbond>
0.0000

> <Gold.Chemscore.DEClash>
0.0959

> <Gold.Chemscore.DEInternal>
4.3679

> <Gold.Chemscore.Rot>
4.0968

> <Gold.Chemscore.Internal.Correction>
   9.000000E+99

> <Gold.Chemscore.Hbonds>
donor molecule, donor type, donor heavy atom, donor atom, acceptor molecule, acceptor atom, score
      L1  H    17    42       P1  7948  0.13
      P1  H  6896  6907       L1     7  0.27
      P1  H  6896  6909       L1    21  0.25

> <Gold.Chemscore.Hbond.Weighted>
-4.1391

> <Gold.Chemscore.Metal.Weighted>
-0.0000

> <Gold.Chemscore.Lipo.Weighted>
-12.8499

> <Gold.Chemscore.Internal_Hbond.Weighted>
0.0000

> <Gold.Chemscore.DEClash.Weighted>
0.0959

> <Gold.Chemscore.DEInternal.Weighted>
4.3679

> <Gold.Chemscore.Rot.Weighted>
10.4879

> <Gold.Chemscore.Internal.Correction.Weighted>
   9.000000E+99

> <Gold.Protein.RotatedTorsions>
[ 6907 6896 6895 6894 ] final  -74.60 input  -60.11 | X-H torsion
[ 7974 7965 7964 7962 ] final   16.48 input  175.53 | X-H torsion
[ 8008 7997 7996 7995 ] final -174.11 input   59.86 | X-H torsion
[ 10167 10162 10161 10158 ] final  166.10 input  -65.29 | X-H torsion
[ 10718 10713 10712 10709 ] final  -37.79 input   66.30 | X-H torsion
[ 10763 10752 10751 10750 ] final  -46.56 input  -60.55 | X-H torsion
[ 11005 11000 10999 10996 ] final   80.87 input  -57.11 | X-H torsion

> <Gold.Protein.ActiveResidues>
 VAL166  LYS551  ARG553  GLY616  TRP617  ASP618  TYR619  PRO620  LYS621  CYS622 
 ASP623  PHE694  ASN695  SER759  ASP760  ASP761  ALA762  ILE779  LEU786  VAL792 
 PHE793  MET794  SER795  GLU796  ALA797  LYS798  CYS799  TRP800  GLU811  SER814 

> <Gold.Protein.RotatedAtoms>
  150.7087  134.4845  159.5485 H   0  0  0  0  0  0  0  0  0  0  0  0  # atno 6907 bound_to 6896
  152.2475  134.8163  160.0460 H   0  0  0  0  0  0  0  0  0  0  0  0  # atno 6908 bound_to 6896
  151.8922  133.3483  159.3839 H   0  0  0  0  0  0  0  0  0  0  0  0  # atno 6909 bound_to 6896
  146.2248  139.8742  142.8582 H   0  0  0  0  0  0  0  0  0  0  0  0  # atno 7974 bound_to 7965
  155.9659  140.1153  157.0855 H   0  0  0  0  0  0  0  0  0  0  0  0  # atno 8008 bound_to 7997
  154.4144  140.1173  156.5309 H   0  0  0  0  0  0  0  0  0  0  0  0  # atno 8009 bound_to 7997
  155.6660  140.3473  155.4802 H   0  0  0  0  0  0  0  0  0  0  0  0  # atno 8010 bound_to 7997
  139.4918  144.4062  151.9352 H   0  0  0  0  0  0  0  0  0  0  0  0  # atno 10167 bound_to 10162
  156.3112  130.4253  149.8049 H   0  0  0  0  0  0  0  0  0  0  0  0  # atno 10718 bound_to 10713
  154.0470  135.6636  153.4796 H   0  0  0  0  0  0  0  0  0  0  0  0  # atno 10763 bound_to 10752
  153.0478  135.5103  154.7787 H   0  0  0  0  0  0  0  0  0  0  0  0  # atno 10764 bound_to 10752
  154.6781  135.3040  154.9616 H   0  0  0  0  0  0  0  0  0  0  0  0  # atno 10765 bound_to 10752
  139.9118  134.7953  156.1966 H   0  0  0  0  0  0  0  0  0  0  0  0  # atno 11005 bound_to 11000
  145.2577  141.0066  143.3844 LP  0  0  0  0  0  0  0  0  0  0  0  0  # atno 17320 bound_to 7965
  144.9323  139.4284  143.6489 LP  0  0  0  0  0  0  0  0  0  0  0  0  # atno 17321 bound_to 7965
  140.3503  144.3097  150.5950 LP  0  0  0  0  0  0  0  0  0  0  0  0  # atno 17342 bound_to 10162
  140.5491  143.2209  151.7957 LP  0  0  0  0  0  0  0  0  0  0  0  0  # atno 17343 bound_to 10162
  156.5391  130.8292  151.3263 LP  0  0  0  0  0  0  0  0  0  0  0  0  # atno 17370 bound_to 10713
  157.7391  130.9826  150.2294 LP  0  0  0  0  0  0  0  0  0  0  0  0  # atno 17371 bound_to 10713
  141.0551  133.6869  156.1844 LP  0  0  0  0  0  0  0  0  0  0  0  0  # atno 17394 bound_to 11000
  140.6750  134.4827  157.5588 LP  0  0  0  0  0  0  0  0  0  0  0  0  # atno 17395 bound_to 11000

$$$$
