AV-unprocessed.smi:1239|AV-procd|sdf|5191|dock8
  -GOLD-   22720 4273D 1   1.00000     0.00000
 Structure written by MMmdl.
 48 49  0  0  0  0  0  0  0  0  2 V2000
  146.6391  138.5669  152.3019 C   0  0  0  0  0  0  0  0  0  0  0  0
  146.2615  137.3775  153.2178 C   0  0  2  0  0  0  0  0  0  0  0  0
  147.2575  137.2604  154.4064 C   0  0  0  0  0  0  0  0  0  0  0  0
  147.7848  138.5481  154.8539 N   0  0  0  0  0  0  0  0  0  0  0  0
  148.7908  138.7160  155.7251 C   0  0  0  0  0  0  0  0  0  0  0  0
  149.4182  137.7815  156.2222 O   0  0  0  0  0  0  0  0  0  0  0  0
  149.0203  140.0208  155.9518 N   0  0  0  0  0  0  0  0  0  0  0  0
  149.9751  140.6269  156.8137 C   0  0  0  0  0  0  0  0  0  0  0  0
  150.5432  139.8291  157.8251 C   0  0  0  0  0  0  0  0  0  0  0  0
  151.5046  140.3861  158.6889 C   0  0  0  0  0  0  0  0  0  0  0  0
  151.8860  141.7397  158.5181 C   0  0  0  0  0  0  0  0  0  0  0  0
  152.8476  142.3471  159.3578 N   0  0  0  0  0  0  0  0  0  0  0  0
  153.0723  143.7871  159.2816 C   0  0  0  0  0  0  0  0  0  0  0  0
  153.5812  141.5480  160.3316 C   0  0  0  0  0  0  0  0  0  0  0  0
  151.3445  142.5029  157.5374 N   0  0  0  0  0  0  0  0  0  0  0  0
  150.4224  141.9654  156.7112 C   0  0  0  0  0  0  0  0  0  0  0  0
  146.1521  136.1035  152.4288 N   0  3  0  0  0  0  0  0  0  0  0  0
  146.0273  134.8694  153.2555 C   0  0  0  0  0  0  0  0  0  0  0  0
  145.9245  133.6085  152.3801 C   0  0  0  0  0  0  0  0  0  0  0  0
  144.8308  133.7292  151.4846 O   0  0  0  0  0  0  0  0  0  0  0  0
  145.0091  134.8267  150.6041 C   0  0  0  0  0  0  0  0  0  0  0  0
  145.0614  136.1328  151.4135 C   0  0  0  0  0  0  0  0  0  0  0  0
  146.7221  139.4993  152.8589 H   0  0  0  0  0  0  0  0  0  0  0  0
  145.8919  138.7658  151.5365 H   0  0  0  0  0  0  0  0  0  0  0  0
  147.5943  138.3953  151.8048 H   0  0  0  0  0  0  0  0  0  0  0  0
  145.2776  137.5828  153.6431 H   0  0  0  0  0  0  0  0  0  0  0  0
  146.7603  136.8497  155.2843 H   0  0  0  0  0  0  0  0  0  0  0  0
  148.0655  136.5703  154.1565 H   0  0  0  0  0  0  0  0  0  0  0  0
  147.3333  139.3741  154.4887 H   0  0  0  0  0  0  0  0  0  0  0  0
  148.4581  140.6662  155.4165 H   0  0  0  0  0  0  0  0  0  0  0  0
  150.2461  138.7973  157.9429 H   0  0  0  0  0  0  0  0  0  0  0  0
  151.9296  139.7638  159.4617 H   0  0  0  0  0  0  0  0  0  0  0  0
  152.1585  144.3300  159.5252 H   0  0  0  0  0  0  0  0  0  0  0  0
  153.3888  144.0727  158.2779 H   0  0  0  0  0  0  0  0  0  0  0  0
  153.8467  144.1069  159.9787 H   0  0  0  0  0  0  0  0  0  0  0  0
  154.1571  140.7681  159.8326 H   0  0  0  0  0  0  0  0  0  0  0  0
  152.8946  141.0796  161.0375 H   0  0  0  0  0  0  0  0  0  0  0  0
  154.2784  142.1604  160.9033 H   0  0  0  0  0  0  0  0  0  0  0  0
  150.0631  142.6381  155.9494 H   0  0  0  0  0  0  0  0  0  0  0  0
  146.8978  134.7377  153.8964 H   0  0  0  0  0  0  0  0  0  0  0  0
  145.1517  134.9497  153.9017 H   0  0  0  0  0  0  0  0  0  0  0  0
  146.8499  133.4422  151.8259 H   0  0  0  0  0  0  0  0  0  0  0  0
  145.7694  132.7303  153.0072 H   0  0  0  0  0  0  0  0  0  0  0  0
  145.9165  134.6960  150.0122 H   0  0  0  0  0  0  0  0  0  0  0  0
  144.1747  134.8544  149.9029 H   0  0  0  0  0  0  0  0  0  0  0  0
  144.1041  136.2991  151.9097 H   0  0  0  0  0  0  0  0  0  0  0  0
  145.2004  136.9463  150.7051 H   0  0  0  0  0  0  0  0  0  0  0  0
  147.0196  136.0103  151.9194 H   0  0  0  0  0  0  0  0  0  0  0  0
  1  2  1  0  0  0  0
  1 23  1  0  0  0  0
  1 24  1  0  0  0  0
  1 25  1  0  0  0  0
  2  3  1  0  0  0  0
  2 17  1  0  0  0  0
  2 26  1  0  0  0  0
  3  4  1  0  0  0  0
  3 27  1  0  0  0  0
  3 28  1  0  0  0  0
  4  5  1  0  0  0  0
  4 29  1  0  0  0  0
  5  6  2  0  0  0  0
  5  7  1  0  0  0  0
  7  8  1  0  0  0  0
  7 30  1  0  0  0  0
  8 16  1  0  0  0  0
  8  9  2  0  0  0  0
  9 10  1  0  0  0  0
  9 31  1  0  0  0  0
 10 11  2  0  0  0  0
 10 32  1  0  0  0  0
 11 12  1  0  0  0  0
 11 15  1  0  0  0  0
 12 13  1  0  0  0  0
 12 14  1  0  0  0  0
 13 33  1  0  0  0  0
 13 34  1  0  0  0  0
 13 35  1  0  0  0  0
 14 36  1  0  0  0  0
 14 37  1  0  0  0  0
 14 38  1  0  0  0  0
 15 16  2  0  0  0  0
 16 39  1  0  0  0  0
 17 22  1  0  0  0  0
 17 18  1  0  0  0  0
 17 48  1  0  0  0  0
 18 19  1  0  0  0  0
 18 40  1  0  0  0  0
 18 41  1  0  0  0  0
 19 20  1  0  0  0  0
 19 42  1  0  0  0  0
 19 43  1  0  0  0  0
 20 21  1  0  0  0  0
 21 22  1  0  0  0  0
 21 44  1  0  0  0  0
 21 45  1  0  0  0  0
 22 46  1  0  0  0  0
 22 47  1  0  0  0  0
M  CHG  1  17   1
M  END
> <s_m_source_file>
AV-unprocessed.smi

> <i_m_source_file_index>
1239

> <i_lp_mmshare_version>
43012

> <i_f3d_flags>
0

> <s_epik_input>
W0NIMl0xW0NIMl1PW0NIMl1bQ0gyXU4xW0NASF0oW0NIM10pW0NIMl1bTkhdQyg9TylbTkhdYzJbY0hdW2NIXWMoTihbQ0gzXSlbQ0gzXSluW2NIXTI=

> <s_epik_cmdline>
J2VwaWtfcHl0aG9uJywgJy1waCcsICc3LjAnLCAnLXRuJywgJzgnLCAnLW1hJywgJzIwMCcsICctbWV0YWxfYmluZGluZycsICctaW1hZScsICc8aW5maWxlLm1hZT4nLCAnLW9tYWUnLCAnPG91dGZpbGUubWFlPic=

> <r_epik_Ionization_Penalty>
1.1428

> <r_epik_Ionization_Penalty_Charging>
0.602531

> <r_epik_Ionization_Penalty_Neutral>
0.540271

> <r_epik_State_Penalty>
1.1888

> <r_epik_Charging_Adjusted_Penalty>
1.79133

> <i_epik_Tot_Q>
1

> <i_epik_Tot_abs_Q>
1

> <r_epik_Metal_State_Penalty>
0.936295

> <b_epik_Metal_Only>
0

> <s_lp_Force_Field>
OPLS_2005

> <r_lp_Energy>
25.054

> <b_lp_Chiralities_Consistent>
1

> <s_lp_Variant>
AV-unprocessed.smi:1239-7

> <Gold.Version>
5.8.1

> <Gold.Id.Protein>
6NUR|6NUR_protein|mol2

> <Gold.PLP.Fitness>
40.6638

> <Gold.PLP.PLP>
-32.6882

> <Gold.PLP.part.hbond>
-1.0000

> <Gold.PLP.part.metal>
0.0000

> <Gold.PLP.part.buried>
-2.8531

> <Gold.PLP.part.nonpolar>
-29.2612

> <Gold.PLP.part.repulsive>
0.2344

> <Gold.PLP.ligand.clash>
0.0000

> <Gold.PLP.ligand.torsion>
0.5390

> <Gold.PLP.Chemscore.Hbond>
2.0000

> <Gold.PLP.Chemscore.CHOScore>
1.0000

> <Gold.PLP.Chemscore.Metal>
0.0000

> <Gold.Chemscore.Hbonds>
donor molecule, donor type, donor heavy atom, donor atom, acceptor molecule, acceptor atom, score
      L1  H    17    48       P1  7948  2.00
      L1  C    16    39       P1  8028  1.00

> <Gold.PLP.Chemscore.Internal.Correction>
0.0536

> <Gold.Rescore>
     Score         DG    S(hbond)    S(metal)    S(lipo)     H(rot)  DE(clash)    DE(int)     intcor
     12.30     -14.40       0.97        0.00      81.02       1.48       0.32       1.78       ----

> <Gold.Chemscore.Fitness>
12.2983

> <Gold.Chemscore.DG>
-14.3993

> <Gold.Chemscore.ZeroCoef>
-5.4800

> <Gold.Chemscore.Hbond>
0.9691

> <Gold.Chemscore.Metal>
0.0000

> <Gold.Chemscore.Lipo>
81.0161

> <Gold.Chemscore.Internal_Hbond>
0.0000

> <Gold.Chemscore.DEClash>
0.3201

> <Gold.Chemscore.DEInternal>
1.7810

> <Gold.Chemscore.Rot>
1.4830

> <Gold.Chemscore.Internal.Correction>
   9.000000E+99

> <Gold.Chemscore.Hbonds>
donor molecule, donor type, donor heavy atom, donor atom, acceptor molecule, acceptor atom, score
      L1  H    17    48       P1  7948  0.95

> <Gold.Chemscore.Hbond.Weighted>
-3.2369

> <Gold.Chemscore.Metal.Weighted>
-0.0000

> <Gold.Chemscore.Lipo.Weighted>
-9.4789

> <Gold.Chemscore.Internal_Hbond.Weighted>
0.0000

> <Gold.Chemscore.DEClash.Weighted>
0.3201

> <Gold.Chemscore.DEInternal.Weighted>
1.7810

> <Gold.Chemscore.Rot.Weighted>
3.7964

> <Gold.Chemscore.Internal.Correction.Weighted>
   9.000000E+99

> <Gold.Protein.RotatedTorsions>
[ 6907 6896 6895 6894 ] final -147.40 input  -60.11 | X-H torsion
[ 7974 7965 7964 7962 ] final   17.47 input  175.53 | X-H torsion
[ 8008 7997 7996 7995 ] final  103.68 input   59.86 | X-H torsion
[ 10167 10162 10161 10158 ] final   -1.48 input  -65.29 | X-H torsion
[ 10718 10713 10712 10709 ] final   68.57 input   66.30 | X-H torsion
[ 10763 10752 10751 10750 ] final  -89.75 input  -60.55 | X-H torsion
[ 11005 11000 10999 10996 ] final  -63.79 input  -57.11 | X-H torsion

> <Gold.Protein.ActiveResidues>
 VAL166  LYS551  ARG553  GLY616  TRP617  ASP618  TYR619  PRO620  LYS621  CYS622 
 ASP623  PHE694  ASN695  SER759  ASP760  ASP761  ALA762  ILE779  LEU786  VAL792 
 PHE793  MET794  SER795  GLU796  ALA797  LYS798  CYS799  TRP800  GLU811  SER814 

> <Gold.Protein.RotatedAtoms>
  151.1551  133.4882  159.2594 H   0  0  0  0  0  0  0  0  0  0  0  0  # atno 6907 bound_to 6896
  151.1513  135.0228  159.8679 H   0  0  0  0  0  0  0  0  0  0  0  0  # atno 6908 bound_to 6896
  152.5463  134.1435  159.8542 H   0  0  0  0  0  0  0  0  0  0  0  0  # atno 6909 bound_to 6896
  146.2217  139.8598  142.8607 H   0  0  0  0  0  0  0  0  0  0  0  0  # atno 7974 bound_to 7965
  156.1506  140.3160  155.8642 H   0  0  0  0  0  0  0  0  0  0  0  0  # atno 8008 bound_to 7997
  155.3979  140.0498  157.3055 H   0  0  0  0  0  0  0  0  0  0  0  0  # atno 8009 bound_to 7997
  154.5055  140.2145  155.9272 H   0  0  0  0  0  0  0  0  0  0  0  0  # atno 8010 bound_to 7997
  140.6812  143.6770  150.8137 H   0  0  0  0  0  0  0  0  0  0  0  0  # atno 10167 bound_to 10162
  157.6297  130.9380  150.0395 H   0  0  0  0  0  0  0  0  0  0  0  0  # atno 10718 bound_to 10713
  154.6585  135.5329  153.7989 H   0  0  0  0  0  0  0  0  0  0  0  0  # atno 10763 bound_to 10752
  153.0428  135.6500  154.0907 H   0  0  0  0  0  0  0  0  0  0  0  0  # atno 10764 bound_to 10752
  154.0818  135.2946  155.3269 H   0  0  0  0  0  0  0  0  0  0  0  0  # atno 10765 bound_to 10752
  141.1404  133.6656  156.5734 H   0  0  0  0  0  0  0  0  0  0  0  0  # atno 11005 bound_to 11000
  145.2716  141.0110  143.3768 LP  0  0  0  0  0  0  0  0  0  0  0  0  # atno 17320 bound_to 7965
  144.9219  139.4401  143.6537 LP  0  0  0  0  0  0  0  0  0  0  0  0  # atno 17321 bound_to 7965
  140.0471  143.5287  152.2691 LP  0  0  0  0  0  0  0  0  0  0  0  0  # atno 17342 bound_to 10162
  139.6136  144.7614  151.2897 LP  0  0  0  0  0  0  0  0  0  0  0  0  # atno 17343 bound_to 10162
  156.1491  130.3642  149.9465 LP  0  0  0  0  0  0  0  0  0  0  0  0  # atno 17370 bound_to 10713
  156.7488  130.9107  151.3636 LP  0  0  0  0  0  0  0  0  0  0  0  0  # atno 17371 bound_to 10713
  140.3895  134.7453  157.4712 LP  0  0  0  0  0  0  0  0  0  0  0  0  # atno 17394 bound_to 11000
  140.0577  134.6040  155.8786 LP  0  0  0  0  0  0  0  0  0  0  0  0  # atno 17395 bound_to 11000

$$$$
