AV-unprocessed.smi:99|AV-procd|sdf|883|dock3
  -GOLD-   2262017363D 1   1.00000     0.00000
 Structure written by MMmdl.
 52 55  0  0  0  0  0  0  0  0  2 V2000
  154.5693  140.1873  162.0656 O   0  0  0  0  0  0  0  0  0  0  0  0
  154.5759  140.8509  161.0266 C   0  0  0  0  0  0  0  0  0  0  0  0
  155.4052  140.6111  159.9872 O   0  0  0  0  0  0  0  0  0  0  0  0
  156.3297  139.5284  160.0086 C   0  0  0  0  0  0  0  0  0  0  0  0
  155.6105  138.1758  160.1516 C   0  0  2  0  0  0  0  0  0  0  0  0
  156.5072  137.1849  160.6483 O   0  0  0  0  0  0  0  0  0  0  0  0
  156.3181  135.9610  159.9942 C   0  0  2  0  0  0  0  0  0  0  0  0
  157.5820  135.6669  159.1955 N   0  0  0  0  0  0  0  0  0  0  0  0
  157.6690  135.8547  157.8221 C   0  0  0  0  0  0  0  0  0  0  0  0
  158.8232  135.6618  157.1518 C   0  0  0  0  0  0  0  0  0  0  0  0
  160.0196  135.2624  157.8832 C   0  0  0  0  0  0  0  0  0  0  0  0
  161.0652  135.0813  157.2623 O   0  0  0  0  0  0  0  0  0  0  0  0
  159.9231  135.1136  159.2345 N   0  5  0  0  0  0  0  0  0  0  0  0
  158.7583  135.3153  159.9171 C   0  0  0  0  0  0  0  0  0  0  0  0
  158.6766  135.2061  161.1409 O   0  0  0  0  0  0  0  0  0  0  0  0
  155.0373  136.0898  159.1497 C   0  0  1  0  0  0  0  0  0  0  0  0
  153.9156  135.6808  159.9105 O   0  0  0  0  0  0  0  0  0  0  0  0
  155.0279  137.5871  158.8690 C   0  0  1  0  0  0  0  0  0  0  0  0
  153.7493  138.1021  158.5188 O   0  0  0  0  0  0  0  0  0  0  0  0
  153.1515  137.7270  157.3677 C   0  0  0  0  0  0  0  0  0  0  0  0
  153.3193  136.6272  156.8362 O   0  0  0  0  0  0  0  0  0  0  0  0
  152.2682  138.7863  156.8009 C   0  0  0  0  0  0  0  0  0  0  0  0
  151.6892  138.5958  155.5243 C   0  0  0  0  0  0  0  0  0  0  0  0
  150.8562  139.5814  154.9600 C   0  0  0  0  0  0  0  0  0  0  0  0
  150.5916  140.7695  155.6657 C   0  0  0  0  0  0  0  0  0  0  0  0
  151.1604  140.9706  156.9368 C   0  0  0  0  0  0  0  0  0  0  0  0
  151.9940  139.9861  157.5027 C   0  0  0  0  0  0  0  0  0  0  0  0
  153.6437  141.9858  160.7715 C   0  0  0  0  0  0  0  0  0  0  0  0
  153.3580  142.3606  159.4383 C   0  0  0  0  0  0  0  0  0  0  0  0
  152.4958  143.4406  159.1662 C   0  0  0  0  0  0  0  0  0  0  0  0
  151.9084  144.1583  160.2244 C   0  0  0  0  0  0  0  0  0  0  0  0
  152.1821  143.7928  161.5550 C   0  0  0  0  0  0  0  0  0  0  0  0
  153.0438  142.7130  161.8292 C   0  0  0  0  0  0  0  0  0  0  0  0
  156.8791  139.5422  159.0672 H   0  0  0  0  0  0  0  0  0  0  0  0
  157.0745  139.6482  160.7965 H   0  0  0  0  0  0  0  0  0  0  0  0
  154.8110  138.2729  160.8875 H   0  0  0  0  0  0  0  0  0  0  0  0
  156.2448  135.1364  160.7058 H   0  0  0  0  0  0  0  0  0  0  0  0
  156.8161  136.1631  157.2416 H   0  0  0  0  0  0  0  0  0  0  0  0
  158.8666  135.8166  156.0838 H   0  0  0  0  0  0  0  0  0  0  0  0
  155.0663  135.4694  158.2547 H   0  0  0  0  0  0  0  0  0  0  0  0
  153.8308  136.2601  160.6523 H   0  0  0  0  0  0  0  0  0  0  0  0
  155.7263  137.7881  158.0609 H   0  0  0  0  0  0  0  0  0  0  0  0
  151.8790  137.6925  154.9625 H   0  0  0  0  0  0  0  0  0  0  0  0
  150.4208  139.4255  153.9840 H   0  0  0  0  0  0  0  0  0  0  0  0
  149.9535  141.5254  155.2323 H   0  0  0  0  0  0  0  0  0  0  0  0
  150.9582  141.8824  157.4794 H   0  0  0  0  0  0  0  0  0  0  0  0
  152.4155  140.1729  158.4797 H   0  0  0  0  0  0  0  0  0  0  0  0
  153.8028  141.8288  158.6096 H   0  0  0  0  0  0  0  0  0  0  0  0
  152.2880  143.7200  158.1439 H   0  0  0  0  0  0  0  0  0  0  0  0
  151.2508  144.9895  160.0163 H   0  0  0  0  0  0  0  0  0  0  0  0
  151.7374  144.3463  162.3688 H   0  0  0  0  0  0  0  0  0  0  0  0
  153.2405  142.4668  162.8623 H   0  0  0  0  0  0  0  0  0  0  0  0
  1  2  2  0  0  0  0
  2  3  1  0  0  0  0
  2 28  1  0  0  0  0
  3  4  1  0  0  0  0
  4  5  1  0  0  0  0
  4 34  1  0  0  0  0
  4 35  1  0  0  0  0
  5 18  1  0  0  0  0
  5  6  1  0  0  0  0
  5 36  1  0  0  0  0
  6  7  1  0  0  0  0
  7  8  1  0  0  0  0
  7 16  1  0  0  0  0
  7 37  1  0  0  0  0
  8 14  1  0  0  0  0
  8  9  1  0  0  0  0
  9 10  2  0  0  0  0
  9 38  1  0  0  0  0
 10 11  1  0  0  0  0
 10 39  1  0  0  0  0
 11 12  2  0  0  0  0
 11 13  1  0  0  0  0
 13 14  1  0  0  0  0
 14 15  2  0  0  0  0
 16 17  1  0  0  0  0
 16 18  1  0  0  0  0
 16 40  1  0  0  0  0
 17 41  1  0  0  0  0
 18 19  1  0  0  0  0
 18 42  1  0  0  0  0
 19 20  1  0  0  0  0
 20 21  2  0  0  0  0
 20 22  1  0  0  0  0
 22 27  1  0  0  0  0
 22 23  2  0  0  0  0
 23 24  1  0  0  0  0
 23 43  1  0  0  0  0
 24 25  2  0  0  0  0
 24 44  1  0  0  0  0
 25 26  1  0  0  0  0
 25 45  1  0  0  0  0
 26 27  2  0  0  0  0
 26 46  1  0  0  0  0
 27 47  1  0  0  0  0
 28 33  1  0  0  0  0
 28 29  2  0  0  0  0
 29 30  1  0  0  0  0
 29 48  1  0  0  0  0
 30 31  2  0  0  0  0
 30 49  1  0  0  0  0
 31 32  1  0  0  0  0
 31 50  1  0  0  0  0
 32 33  2  0  0  0  0
 32 51  1  0  0  0  0
 33 52  1  0  0  0  0
M  CHG  1  13  -1
M  END
> <s_m_source_file>
AV-unprocessed.smi

> <i_m_source_file_index>
99

> <i_lp_mmshare_version>
43012

> <i_f3d_flags>
0

> <s_epik_input>
W2NIXTFbY0hdW2NIXVtjSF1bY0hdYzFDKD1PKU9bQ0gyXVtDQEBIXTJPW0NAQEhdKG4zW2NIXVtjSF1jKD1PKVtuSF1jMz1PKVtDQEBIXShbT0hdKVtDQEhdMk9DKD1PKWM0W2NIXVtjSF1bY0hdW2NIXVtjSF00

> <s_epik_cmdline>
J2VwaWtfcHl0aG9uJywgJy1waCcsICc3LjAnLCAnLXRuJywgJzgnLCAnLW1hJywgJzIwMCcsICctbWV0YWxfYmluZGluZycsICctaW1hZScsICc8aW5maWxlLm1hZT4nLCAnLW9tYWUnLCAnPG91dGZpbGUubWFlPic=

> <r_lp_tautomer_probability>
1

> <r_epik_Ionization_Penalty>
2.89159

> <r_epik_Ionization_Penalty_Charging>
2.1077e-08

> <r_epik_Ionization_Penalty_Neutral>
2.89159

> <r_epik_State_Penalty>
2.88671

> <r_epik_Charging_Adjusted_Penalty>
2.88671

> <i_epik_Tot_Q>
-1

> <i_epik_Tot_abs_Q>
1

> <r_epik_Metal_State_Penalty>
0.0727308

> <b_epik_Metal_Only>
1

> <s_epik_Chemistry_Notes>
This compound has an ester and may undergo hydrolysis at high or low pH. This compound contains an acetal/aminal-like group ( X-CH(R)-Y where X, Y are N, S, or O) that may be acid/base labile, releasing an aldehyde.

> <s_lp_Force_Field>
OPLS_2005

> <r_lp_Energy>
45.2738

> <b_lp_Chiralities_Consistent>
1

> <s_lp_Variant>
AV-unprocessed.smi:99-19

> <Gold.Version>
5.8.1

> <Gold.Id.Protein>
6NUR|6NUR_protein|mol2

> <Gold.PLP.Fitness>
52.0630

> <Gold.PLP.PLP>
-48.2814

> <Gold.PLP.part.hbond>
-2.0000

> <Gold.PLP.part.metal>
0.0000

> <Gold.PLP.part.buried>
-3.7875

> <Gold.PLP.part.nonpolar>
-41.5181

> <Gold.PLP.part.repulsive>
0.2076

> <Gold.PLP.ligand.clash>
0.0000

> <Gold.PLP.ligand.torsion>
1.1915

> <Gold.PLP.Chemscore.Hbond>
1.9760

> <Gold.PLP.Chemscore.CHOScore>
0.0000

> <Gold.PLP.Chemscore.Metal>
0.0000

> <Gold.Chemscore.Hbonds>
donor molecule, donor type, donor heavy atom, donor atom, acceptor molecule, acceptor atom, score
      P1  H  6896  6909       L1    17  1.00
      P1  H 10752 10763       L1    21  1.00

> <Gold.PLP.Chemscore.Internal.Correction>
0.2366

> <Gold.Rescore>
     Score         DG    S(hbond)    S(metal)    S(lipo)     H(rot)  DE(clash)    DE(int)     intcor
     14.40     -18.41       1.85        0.00     126.34       3.13       0.18       3.84       ----

> <Gold.Chemscore.Fitness>
14.3977

> <Gold.Chemscore.DG>
-18.4083

> <Gold.Chemscore.ZeroCoef>
-5.4800

> <Gold.Chemscore.Hbond>
1.8475

> <Gold.Chemscore.Metal>
0.0000

> <Gold.Chemscore.Lipo>
126.3445

> <Gold.Chemscore.Internal_Hbond>
0.0000

> <Gold.Chemscore.DEClash>
0.1754

> <Gold.Chemscore.DEInternal>
3.8352

> <Gold.Chemscore.Rot>
3.1346

> <Gold.Chemscore.Internal.Correction>
   9.000000E+99

> <Gold.Chemscore.Hbonds>
donor molecule, donor type, donor heavy atom, donor atom, acceptor molecule, acceptor atom, score
      P1  H  6896  6909       L1    17  0.40
      P1  H 10752 10763       L1    21  0.93

> <Gold.Chemscore.Hbond.Weighted>
-6.1706

> <Gold.Chemscore.Metal.Weighted>
-0.0000

> <Gold.Chemscore.Lipo.Weighted>
-14.7823

> <Gold.Chemscore.Internal_Hbond.Weighted>
0.0000

> <Gold.Chemscore.DEClash.Weighted>
0.1754

> <Gold.Chemscore.DEInternal.Weighted>
3.8352

> <Gold.Chemscore.Rot.Weighted>
8.0246

> <Gold.Chemscore.Internal.Correction.Weighted>
   9.000000E+99

> <Gold.Protein.RotatedTorsions>
[ 6907 6896 6895 6894 ] final  178.86 input  -60.11 | X-H torsion
[ 7974 7965 7964 7962 ] final   64.87 input  175.53 | X-H torsion
[ 8008 7997 7996 7995 ] final   87.85 input   59.86 | X-H torsion
[ 10167 10162 10161 10158 ] final  -64.74 input  -65.29 | X-H torsion
[ 10718 10713 10712 10709 ] final  -22.88 input   66.30 | X-H torsion
[ 10763 10752 10751 10750 ] final  124.17 input  -60.55 | X-H torsion
[ 11005 11000 10999 10996 ] final   33.28 input  -57.11 | X-H torsion

> <Gold.Protein.ActiveResidues>
 VAL166  LYS551  ARG553  GLY616  TRP617  ASP618  TYR619  PRO620  LYS621  CYS622 
 ASP623  PHE694  ASN695  SER759  ASP760  ASP761  ALA762  ILE779  LEU786  VAL792 
 PHE793  MET794  SER795  GLU796  ALA797  LYS798  CYS799  TRP800  GLU811  SER814 

> <Gold.Protein.RotatedAtoms>
  151.6809  133.3312  159.3219 H   0  0  0  0  0  0  0  0  0  0  0  0  # atno 6907 bound_to 6896
  150.7823  134.6781  159.6438 H   0  0  0  0  0  0  0  0  0  0  0  0  # atno 6908 bound_to 6896
  152.3884  134.6484  160.0169 H   0  0  0  0  0  0  0  0  0  0  0  0  # atno 6909 bound_to 6896
  145.8451  139.3219  143.0908 H   0  0  0  0  0  0  0  0  0  0  0  0  # atno 7974 bound_to 7965
  155.9805  140.3378  155.6658 H   0  0  0  0  0  0  0  0  0  0  0  0  # atno 8008 bound_to 7997
  155.6555  140.0710  157.2590 H   0  0  0  0  0  0  0  0  0  0  0  0  # atno 8009 bound_to 7997
  154.4190  140.1718  156.1708 H   0  0  0  0  0  0  0  0  0  0  0  0  # atno 8010 bound_to 7997
  140.5779  143.2324  151.6403 H   0  0  0  0  0  0  0  0  0  0  0  0  # atno 10167 bound_to 10162
  156.4986  130.4583  149.6714 H   0  0  0  0  0  0  0  0  0  0  0  0  # atno 10718 bound_to 10713
  153.6571  135.3353  155.3116 H   0  0  0  0  0  0  0  0  0  0  0  0  # atno 10763 bound_to 10752
  154.8524  135.4355  154.1843 H   0  0  0  0  0  0  0  0  0  0  0  0  # atno 10764 bound_to 10752
  153.2801  135.7008  153.7469 H   0  0  0  0  0  0  0  0  0  0  0  0  # atno 10765 bound_to 10752
  140.2647  134.3151  155.7846 H   0  0  0  0  0  0  0  0  0  0  0  0  # atno 11005 bound_to 11000
  145.9421  140.8972  143.0302 LP  0  0  0  0  0  0  0  0  0  0  0  0  # atno 17320 bound_to 7965
  144.6731  140.1563  143.7426 LP  0  0  0  0  0  0  0  0  0  0  0  0  # atno 17321 bound_to 7965
  139.5153  144.3383  152.0764 LP  0  0  0  0  0  0  0  0  0  0  0  0  # atno 17342 bound_to 10162
  140.2529  144.4150  150.6215 LP  0  0  0  0  0  0  0  0  0  0  0  0  # atno 17343 bound_to 10162
  156.3355  130.7354  151.2291 LP  0  0  0  0  0  0  0  0  0  0  0  0  # atno 17370 bound_to 10713
  157.7465  131.0418  150.4664 LP  0  0  0  0  0  0  0  0  0  0  0  0  # atno 17371 bound_to 10713
  141.2185  133.7431  156.9242 LP  0  0  0  0  0  0  0  0  0  0  0  0  # atno 17394 bound_to 11000
  140.1430  134.9281  157.2492 LP  0  0  0  0  0  0  0  0  0  0  0  0  # atno 17395 bound_to 11000

$$$$
