#       Name:                AV-unprocessed.smi:1177
#       Creating user name   scv26
#       Creation time:       Fri Mar 27 03:54:32 2020


#       File generated by GOLD software.
#

@<TRIPOS>MOLECULE
AV-unprocessed.smi:1177
    33    34     1
SMALL
NO_CHARGES


@<TRIPOS>ATOM
      1 ****        -1.1111   1.8238   0.2080 O.2            1 S1                 0.0000
      2 ****        -1.5663   0.7061   0.4517 C.2            1 S1                 0.0000
      3 ****        -0.8120  -0.3675   0.7257 N.am           1 S1                 0.0000
      4 ****         0.6457  -0.3751   0.7740 C.3            1 S1                 0.0000
      5 ****         1.2607  -0.4575  -0.6332 C.3            1 S1                 0.0000
      6 ****         2.7759  -0.5221  -0.5946 C.ar           1 S1                 0.0000
      7 ****         3.4484  -1.7544  -0.7404 C.ar           1 S1                 0.0000
      8 ****         4.8559  -1.7605  -0.6912 C.ar           1 S1                 0.0000
      9 ****         5.5332  -0.5412  -0.4971 C.ar           1 S1                 0.0000
     10 ****         4.7693   0.6350  -0.3597 C.ar           1 S1                 0.0000
     11 ****         3.4197   0.6519  -0.4059 N.ar           1 S1                 0.0000
     12 ****        -2.8733   0.4124   0.4736 N.am           1 S1                 0.0000
     13 ****        -3.9322   1.3349   0.2199 C.3            1 S1                 0.0000
     14 ****        -5.2250   1.1483   0.9843 C.3            1 S1                 0.0000
     15 ****        -5.1679   0.8114  -0.4801 C.3            1 S1                 0.0000
     16 ****        -1.2787  -1.2421   0.9164 H              1 S1                 0.0000
     17 ****         1.0071   0.5103   1.3001 H              1 S1                 0.0000
     18 ****         0.9582  -1.2364   1.3648 H              1 S1                 0.0000
     19 ****         0.8781  -1.3350  -1.1562 H              1 S1                 0.0000
     20 ****         0.9621   0.4070  -1.2282 H              1 S1                 0.0000
     21 ****         2.9007  -2.6741  -0.8850 H              1 S1                 0.0000
     22 ****         5.4059  -2.6839  -0.7989 H              1 S1                 0.0000
     23 ****         6.6117  -0.5078  -0.4536 H              1 S1                 0.0000
     24 ****         5.2552   1.5875  -0.2083 H              1 S1                 0.0000
     25 ****        -3.1415  -0.5380   0.6835 H              1 S1                 0.0000
     26 ****        -3.6552   2.3637  -0.0066 H              1 S1                 0.0000
     27 ****        -5.2875   0.3194   1.6870 H              1 S1                 0.0000
     28 ****        -5.7705   2.0446   1.2726 H              1 S1                 0.0000
     29 ****        -5.6763   1.4823  -1.1696 H              1 S1                 0.0000
     30 ****        -5.1913  -0.2417  -0.7537 H              1 S1                 0.0000
     31 ****        -0.1220   1.9715   0.2069 LP             1 S1                 0.0000
     32 ****        -1.7304   2.5838   0.0112 LP             1 S1                 0.0000
     33 ****         2.9117   1.5071  -0.3036 LP             1 S1                 0.0000
@<TRIPOS>BOND
    1    1    2 2     
    2    2    3 am    
    3    2   12 am    
    4    3    4 1     
    5    3   16 1     
    6    4    5 1     
    7    4   17 1     
    8    4   18 1     
    9    5    6 1     
   10    5   19 1     
   11    5   20 1     
   12    6   11 ar    
   13    6    7 ar    
   14    7    8 ar    
   15    7   21 1     
   16    8    9 ar    
   17    8   22 1     
   18    9   10 ar    
   19    9   23 1     
   20   10   11 ar    
   21   10   24 1     
   22   12   13 1     
   23   12   25 1     
   24   13   15 1     
   25   13   14 1     
   26   13   26 1     
   27   14   15 1     
   28   14   27 1     
   29   14   28 1     
   30   15   29 1     
   31   15   30 1     
   32    1   31 1     
   33    1   32 1     
   34   11   33 1     
@<TRIPOS>SUBSTRUCTURE
      1 S1             1
@<TRIPOS>SET
LONE_PAIRS      STATIC     ATOMS    <user>   **** ""
3 31 32 33
DONOR_HYDROGENS      STATIC     ATOMS    <user>   **** ""
2 16 25
ATOM$BLUE        STATIC     ATOMS    COLORGROUP SYSTEM
3 31 32 33
ATOM$RED        STATIC     ATOMS    COLORGROUP SYSTEM
2 16 25
