AV-unprocessed.smi:1748|AV-procd|sdf|7043|dock2
  -GOLD-   22720 8263D 1   1.00000     0.00000
 Structure written by MMmdl.
 39 40  0  0  0  0  0  0  0  0  3 V2000
  146.8639  139.0157  151.9107 C   0  0  0  0  0  0  0  0  0  0  0  0
  147.0957  137.9486  152.9079 N   0  3  2  0  0  0  0  0  0  0  0  0
  145.8562  137.1977  153.2290 C   0  0  0  0  0  0  0  0  0  0  0  0
  146.1543  136.0174  154.1685 C   0  0  0  0  0  0  0  0  0  0  0  0
  146.8604  136.4930  155.4459 C   0  0  0  0  0  0  0  0  0  0  0  0
  148.1230  137.2935  155.0869 C   0  0  2  0  0  0  0  0  0  0  0  0
  148.7562  137.7974  156.3020 N   0  0  0  0  0  0  0  0  0  0  0  0
  149.7237  138.7252  156.3401 C   0  0  0  0  0  0  0  0  0  0  0  0
  150.1797  139.2610  155.3299 O   0  0  0  0  0  0  0  0  0  0  0  0
  150.0885  138.9884  157.6078 N   0  0  0  0  0  0  0  0  0  0  0  0
  151.0782  139.8652  158.0836 C   0  0  0  0  0  0  0  0  0  0  0  0
  150.8904  141.1943  158.3146 C   0  0  0  0  0  0  0  0  0  0  0  0
  151.9620  142.0604  158.7912 C   0  0  0  0  0  0  0  0  0  0  0  0
  151.8056  143.5446  159.0675 C   0  0  0  0  0  0  0  0  0  0  0  0
  152.1278  143.8139  160.3322 F   0  0  0  0  0  0  0  0  0  0  0  0
  152.6158  144.2485  158.2775 F   0  0  0  0  0  0  0  0  0  0  0  0
  150.5538  143.9509  158.8560 F   0  0  0  0  0  0  0  0  0  0  0  0
  153.1523  141.3813  158.9575 C   0  0  0  0  0  0  0  0  0  0  0  0
  153.4240  140.0752  158.7437 N   0  5  0  0  0  0  0  0  0  0  0  0
  152.4142  139.2727  158.3027 C   0  0  0  0  0  0  0  0  0  0  0  0
  152.5918  138.0732  158.0861 O   0  0  0  0  0  0  0  0  0  0  0  0
  147.7730  138.4522  154.1287 C   0  0  0  0  0  0  0  0  0  0  0  0
  146.1836  139.7741  152.3003 H   0  0  0  0  0  0  0  0  0  0  0  0
  146.4310  138.6034  150.9988 H   0  0  0  0  0  0  0  0  0  0  0  0
  147.8021  139.5021  151.6420 H   0  0  0  0  0  0  0  0  0  0  0  0
  145.1301  137.8701  153.6888 H   0  0  0  0  0  0  0  0  0  0  0  0
  145.4050  136.8247  152.3087 H   0  0  0  0  0  0  0  0  0  0  0  0
  145.2281  135.5022  154.4249 H   0  0  0  0  0  0  0  0  0  0  0  0
  146.7810  135.2884  153.6528 H   0  0  0  0  0  0  0  0  0  0  0  0
  146.1784  137.1115  156.0312 H   0  0  0  0  0  0  0  0  0  0  0  0
  147.1185  135.6358  156.0692 H   0  0  0  0  0  0  0  0  0  0  0  0
  148.8192  136.6183  154.5850 H   0  0  0  0  0  0  0  0  0  0  0  0
  148.4382  137.4098  157.1785 H   0  0  0  0  0  0  0  0  0  0  0  0
  149.5624  138.5259  158.3348 H   0  0  0  0  0  0  0  0  0  0  0  0
  149.9345  141.6550  158.1278 H   0  0  0  0  0  0  0  0  0  0  0  0
  154.0164  141.9810  159.3159 H   0  0  0  0  0  0  0  0  0  0  0  0
  148.6821  138.9808  153.8384 H   0  0  0  0  0  0  0  0  0  0  0  0
  147.1301  139.1792  154.6283 H   0  0  0  0  0  0  0  0  0  0  0  0
  147.7307  137.2898  152.4796 H   0  0  0  0  0  0  0  0  0  0  0  0
  1  2  1  0  0  0  0
  1 23  1  0  0  0  0
  1 24  1  0  0  0  0
  1 25  1  0  0  0  0
  2 22  1  0  0  0  0
  2  3  1  0  0  0  0
  2 39  1  0  0  0  0
  3  4  1  0  0  0  0
  3 26  1  0  0  0  0
  3 27  1  0  0  0  0
  4  5  1  0  0  0  0
  4 28  1  0  0  0  0
  4 29  1  0  0  0  0
  5  6  1  0  0  0  0
  5 30  1  0  0  0  0
  5 31  1  0  0  0  0
  6  7  1  0  0  0  0
  6 22  1  0  0  0  0
  6 32  1  0  0  0  0
  7  8  1  0  0  0  0
  7 33  1  0  0  0  0
  8  9  2  0  0  0  0
  8 10  1  0  0  0  0
 10 11  1  0  0  0  0
 10 34  1  0  0  0  0
 11 20  1  0  0  0  0
 11 12  2  0  0  0  0
 12 13  1  0  0  0  0
 12 35  1  0  0  0  0
 13 14  1  0  0  0  0
 13 18  2  0  0  0  0
 14 15  1  0  0  0  0
 14 16  1  0  0  0  0
 14 17  1  0  0  0  0
 18 19  1  0  0  0  0
 18 36  1  0  0  0  0
 19 20  1  0  0  0  0
 20 21  2  0  0  0  0
 22 37  1  0  0  0  0
 22 38  1  0  0  0  0
M  CHG  1   2   1
M  CHG  1  19  -1
M  END
> <s_m_source_file>
AV-unprocessed.smi

> <i_m_source_file_index>
1748

> <i_lp_mmshare_version>
43012

> <i_f3d_flags>
0

> <s_epik_input>
W0NIM11OMVtDSDJdW0NIMl1bQ0gyXVtDQEhdKFtDSDJdMSlbTkhdQyg9TylbTkhdYzJbY0hdYyhDKEYpKEYpRilbY0hdW25IXWMyPU8=

> <s_epik_cmdline>
J2VwaWtfcHl0aG9uJywgJy1waCcsICc3LjAnLCAnLXRuJywgJzgnLCAnLW1hJywgJzIwMCcsICctbWV0YWxfYmluZGluZycsICctaW1hZScsICc8aW5maWxlLm1hZT4nLCAnLW9tYWUnLCAnPG91dGZpbGUubWFlPic=

> <r_lp_tautomer_probability>
1

> <r_epik_Ionization_Penalty>
3.00907

> <r_epik_Ionization_Penalty_Charging>
0.148702

> <r_epik_Ionization_Penalty_Neutral>
2.86036

> <r_epik_State_Penalty>
2.85557

> <r_epik_Charging_Adjusted_Penalty>
3.00428

> <i_epik_Tot_Q>
0

> <i_epik_Tot_abs_Q>
2

> <r_epik_Metal_State_Penalty>
0.443779

> <b_epik_Metal_Only>
1

> <s_lp_Force_Field>
OPLS_2005

> <r_lp_Energy>
26.5131

> <b_lp_Chiralities_Consistent>
1

> <s_lp_Variant>
AV-unprocessed.smi:1748-8

> <Gold.Version>
5.8.1

> <Gold.Id.Protein>
6NUR|6NUR_protein|mol2

> <Gold.PLP.Fitness>
40.8268

> <Gold.PLP.PLP>
-30.7176

> <Gold.PLP.part.hbond>
-2.0000

> <Gold.PLP.part.metal>
0.0000

> <Gold.PLP.part.buried>
-3.3457

> <Gold.PLP.part.nonpolar>
-25.2331

> <Gold.PLP.part.repulsive>
0.1461

> <Gold.PLP.ligand.clash>
0.0000

> <Gold.PLP.ligand.torsion>
0.9238

> <Gold.PLP.Chemscore.Hbond>
3.9840

> <Gold.PLP.Chemscore.CHOScore>
0.0000

> <Gold.PLP.Chemscore.Metal>
0.0000

> <Gold.Chemscore.Hbonds>
donor molecule, donor type, donor heavy atom, donor atom, acceptor molecule, acceptor atom, score
      L1  H     2    39       P1  7948  2.00
      P1  H  7997  8008       L1    19  1.89

> <Gold.PLP.Chemscore.Internal.Correction>
0.0048

> <Gold.Rescore>
     Score         DG    S(hbond)    S(metal)    S(lipo)     H(rot)  DE(clash)    DE(int)     intcor
     12.89     -15.25       1.71        0.00      56.63       1.00       0.15       2.21       ----

> <Gold.Chemscore.Fitness>
12.8897

> <Gold.Chemscore.DG>
-15.2494

> <Gold.Chemscore.ZeroCoef>
-5.4800

> <Gold.Chemscore.Hbond>
1.7076

> <Gold.Chemscore.Metal>
0.0000

> <Gold.Chemscore.Lipo>
56.6340

> <Gold.Chemscore.Internal_Hbond>
0.0000

> <Gold.Chemscore.DEClash>
0.1456

> <Gold.Chemscore.DEInternal>
2.2141

> <Gold.Chemscore.Rot>
1.0000

> <Gold.Chemscore.Internal.Correction>
   9.000000E+99

> <Gold.Chemscore.Hbonds>
donor molecule, donor type, donor heavy atom, donor atom, acceptor molecule, acceptor atom, score
      L1  H     2    39       P1  7948  1.00
      P1  H  7997  8008       L1    19  0.15

> <Gold.Chemscore.Hbond.Weighted>
-5.7032

> <Gold.Chemscore.Metal.Weighted>
-0.0000

> <Gold.Chemscore.Lipo.Weighted>
-6.6262

> <Gold.Chemscore.Internal_Hbond.Weighted>
0.0000

> <Gold.Chemscore.DEClash.Weighted>
0.1456

> <Gold.Chemscore.DEInternal.Weighted>
2.2141

> <Gold.Chemscore.Rot.Weighted>
2.5600

> <Gold.Chemscore.Internal.Correction.Weighted>
   9.000000E+99

> <Gold.Protein.RotatedTorsions>
[ 6907 6896 6895 6894 ] final -135.87 input  -60.11 | X-H torsion
[ 7974 7965 7964 7962 ] final  133.70 input  175.53 | X-H torsion
[ 8008 7997 7996 7995 ] final  -94.60 input   59.86 | X-H torsion
[ 10167 10162 10161 10158 ] final  -43.18 input  -65.29 | X-H torsion
[ 10718 10713 10712 10709 ] final  -12.05 input   66.30 | X-H torsion
[ 10763 10752 10751 10750 ] final  -77.06 input  -60.55 | X-H torsion
[ 11005 11000 10999 10996 ] final  107.65 input  -57.11 | X-H torsion

> <Gold.Protein.ActiveResidues>
 VAL166  LYS551  ARG553  GLY616  TRP617  ASP618  TYR619  PRO620  LYS621  CYS622 
 ASP623  PHE694  ASN695  SER759  ASP760  ASP761  ALA762  ILE779  LEU786  VAL792 
 PHE793  MET794  SER795  GLU796  ALA797  LYS798  CYS799  TRP800  GLU811  SER814 

> <Gold.Protein.RotatedAtoms>
  151.0031  133.6036  159.2692 H   0  0  0  0  0  0  0  0  0  0  0  0  # atno 6907 bound_to 6896
  151.3215  135.0819  159.9317 H   0  0  0  0  0  0  0  0  0  0  0  0  # atno 6908 bound_to 6896
  152.5279  133.9678  159.7802 H   0  0  0  0  0  0  0  0  0  0  0  0  # atno 6909 bound_to 6896
  144.9839  139.4476  143.5373 H   0  0  0  0  0  0  0  0  0  0  0  0  # atno 7974 bound_to 7965
  154.7505  140.0488  157.0889 H   0  0  0  0  0  0  0  0  0  0  0  0  # atno 8008 bound_to 7997
  155.0063  140.3130  155.4828 H   0  0  0  0  0  0  0  0  0  0  0  0  # atno 8009 bound_to 7997
  156.2884  140.2192  156.5175 H   0  0  0  0  0  0  0  0  0  0  0  0  # atno 8010 bound_to 7997
  140.6943  143.2997  151.3315 H   0  0  0  0  0  0  0  0  0  0  0  0  # atno 10167 bound_to 10162
  156.6502  130.4952  149.6065 H   0  0  0  0  0  0  0  0  0  0  0  0  # atno 10718 bound_to 10713
  154.5080  135.5777  153.6582 H   0  0  0  0  0  0  0  0  0  0  0  0  # atno 10763 bound_to 10752
  152.9891  135.6152  154.2916 H   0  0  0  0  0  0  0  0  0  0  0  0  # atno 10764 bound_to 10752
  154.2828  135.2850  155.2669 H   0  0  0  0  0  0  0  0  0  0  0  0  # atno 10765 bound_to 10752
  139.8831  134.9407  156.5852 H   0  0  0  0  0  0  0  0  0  0  0  0  # atno 11005 bound_to 11000
  146.3415  139.9129  142.8778 LP  0  0  0  0  0  0  0  0  0  0  0  0  # atno 17320 bound_to 7965
  145.2382  140.9999  143.3951 LP  0  0  0  0  0  0  0  0  0  0  0  0  # atno 17321 bound_to 7965
  139.6380  144.0593  152.2531 LP  0  0  0  0  0  0  0  0  0  0  0  0  # atno 17342 bound_to 10162
  140.0089  144.6238  150.7664 LP  0  0  0  0  0  0  0  0  0  0  0  0  # atno 17343 bound_to 10162
  156.2090  130.6667  151.1249 LP  0  0  0  0  0  0  0  0  0  0  0  0  # atno 17370 bound_to 10713
  157.7143  131.0718  150.6385 LP  0  0  0  0  0  0  0  0  0  0  0  0  # atno 17371 bound_to 10713
  140.7997  133.8515  155.8716 LP  0  0  0  0  0  0  0  0  0  0  0  0  # atno 17394 bound_to 11000
  140.9604  134.1663  157.4659 LP  0  0  0  0  0  0  0  0  0  0  0  0  # atno 17395 bound_to 11000

$$$$
