AV-unprocessed.smi:1367|AV-procd|sdf|5574|dock1
  -GOLD-   22720 5163D 1   1.00000     0.00000
 Structure written by MMmdl.
 29 29  0  0  0  0  0  0  0  0  2 V2000
  146.2060  137.9962  152.8240 C   0  0  0  0  0  0  0  0  0  0  0  0
  147.0697  139.1050  153.3863 C   0  0  0  0  0  0  0  0  0  0  0  0
  146.5472  140.2486  153.6190 N   0  0  0  0  0  0  0  0  0  0  0  0
  147.3456  141.2809  154.1401 C   0  0  0  0  0  0  0  0  0  0  0  0
  146.6447  142.6066  154.3794 C   0  0  0  0  0  0  0  0  0  0  0  0
  148.6690  141.0843  154.4048 C   0  0  0  0  0  0  0  0  0  0  0  0
  149.5820  142.1771  154.9628 C   0  0  0  0  0  0  0  0  0  0  0  0
  150.2927  141.8443  156.2766 C   0  0  0  0  0  0  0  0  0  0  0  0
  150.3614  140.6765  156.6590 O   0  0  0  0  0  0  0  0  0  0  0  0
  150.8196  142.8753  156.9547 N   0  0  0  0  0  0  0  0  0  0  0  0
  151.4914  142.7816  158.2455 C   0  0  0  0  0  0  0  0  0  0  0  0
  151.9992  144.1504  158.7309 C   0  0  0  0  0  0  0  0  0  0  0  0
  150.9741  144.9999  158.7886 F   0  0  0  0  0  0  0  0  0  0  0  0
  152.5310  144.0409  159.9485 F   0  0  0  0  0  0  0  0  0  0  0  0
  152.9132  144.6453  157.8961 F   0  0  0  0  0  0  0  0  0  0  0  0
  149.2330  139.7527  154.1195 C   0  0  0  0  0  0  0  0  0  0  0  0
  150.4254  139.5273  154.3229 O   0  0  0  0  0  0  0  0  0  0  0  0
  148.3931  138.8036  153.6174 N   0  5  0  0  0  0  0  0  0  0  0  0
  145.2213  138.3701  152.5399 H   0  0  0  0  0  0  0  0  0  0  0  0
  146.0735  137.2088  153.5663 H   0  0  0  0  0  0  0  0  0  0  0  0
  146.6727  137.5624  151.9391 H   0  0  0  0  0  0  0  0  0  0  0  0
  146.6553  142.8581  155.4398 H   0  0  0  0  0  0  0  0  0  0  0  0
  145.6042  142.5676  154.0550 H   0  0  0  0  0  0  0  0  0  0  0  0
  147.1363  143.4069  153.8261 H   0  0  0  0  0  0  0  0  0  0  0  0
  150.3400  142.4077  154.2137 H   0  0  0  0  0  0  0  0  0  0  0  0
  149.0352  143.1111  155.0949 H   0  0  0  0  0  0  0  0  0  0  0  0
  150.7162  143.7999  156.5606 H   0  0  0  0  0  0  0  0  0  0  0  0
  150.8309  142.3339  158.9897 H   0  0  0  0  0  0  0  0  0  0  0  0
  152.3332  142.0982  158.1322 H   0  0  0  0  0  0  0  0  0  0  0  0
  1  2  1  0  0  0  0
  1 19  1  0  0  0  0
  1 20  1  0  0  0  0
  1 21  1  0  0  0  0
  2 18  1  0  0  0  0
  2  3  2  0  0  0  0
  3  4  1  0  0  0  0
  4  5  1  0  0  0  0
  4  6  2  0  0  0  0
  5 22  1  0  0  0  0
  5 23  1  0  0  0  0
  5 24  1  0  0  0  0
  6  7  1  0  0  0  0
  6 16  1  0  0  0  0
  7  8  1  0  0  0  0
  7 25  1  0  0  0  0
  7 26  1  0  0  0  0
  8  9  2  0  0  0  0
  8 10  1  0  0  0  0
 10 11  1  0  0  0  0
 10 27  1  0  0  0  0
 11 12  1  0  0  0  0
 11 28  1  0  0  0  0
 11 29  1  0  0  0  0
 12 13  1  0  0  0  0
 12 14  1  0  0  0  0
 12 15  1  0  0  0  0
 16 17  2  0  0  0  0
 16 18  1  0  0  0  0
M  CHG  1  18  -1
M  END
> <s_m_source_file>
AV-unprocessed.smi

> <i_m_source_file_index>
1367

> <i_lp_mmshare_version>
43012

> <i_f3d_flags>
0

> <s_epik_input>
W0NIM11jMW5jKFtDSDNdKWMoYyg9TylbbkhdMSlbQ0gyXUMoPU8pW05IXVtDSDJdQyhGKShGKUY=

> <s_epik_cmdline>
J2VwaWtfcHl0aG9uJywgJy1waCcsICc3LjAnLCAnLXRuJywgJzgnLCAnLW1hJywgJzIwMCcsICctbWV0YWxfYmluZGluZycsICctaW1hZScsICc8aW5maWxlLm1hZT4nLCAnLW9tYWUnLCAnPG91dGZpbGUubWFlPic=

> <r_lp_tautomer_probability>
0.839158

> <r_epik_Ionization_Penalty>
6.39142

> <r_epik_Ionization_Penalty_Charging>
4.71143e-08

> <r_epik_Ionization_Penalty_Neutral>
6.39142

> <r_epik_State_Penalty>
4.29634

> <r_epik_Charging_Adjusted_Penalty>
4.29634

> <i_epik_Tot_Q>
-1

> <i_epik_Tot_abs_Q>
1

> <r_epik_Metal_State_Penalty>
0.740852

> <b_epik_Metal_Only>
1

> <s_lp_Force_Field>
OPLS_2005

> <r_lp_Energy>
6.28206

> <b_lp_Chiralities_Consistent>
1

> <s_lp_Variant>
AV-unprocessed.smi:1367-3

> <Gold.Version>
5.8.1

> <Gold.Id.Protein>
6NUR|6NUR_protein|mol2

> <Gold.PLP.Fitness>
40.2742

> <Gold.PLP.PLP>
-36.4570

> <Gold.PLP.part.hbond>
-2.0000

> <Gold.PLP.part.metal>
0.0000

> <Gold.PLP.part.buried>
-1.0531

> <Gold.PLP.part.nonpolar>
-35.5990

> <Gold.PLP.part.repulsive>
1.5644

> <Gold.PLP.ligand.clash>
0.0000

> <Gold.PLP.ligand.torsion>
0.2283

> <Gold.PLP.Chemscore.Hbond>
1.4150

> <Gold.PLP.Chemscore.CHOScore>
0.0000

> <Gold.PLP.Chemscore.Metal>
0.0000

> <Gold.Chemscore.Hbonds>
donor molecule, donor type, donor heavy atom, donor atom, acceptor molecule, acceptor atom, score
      L1  H    10    27       P1  8028  0.31
      P1  H  7989  7998       L1    17  1.00

> <Gold.PLP.Chemscore.Internal.Correction>
0.0288

> <Gold.Rescore>
     Score         DG    S(hbond)    S(metal)    S(lipo)     H(rot)  DE(clash)    DE(int)     intcor
      6.67     -12.73       1.74        0.00      52.87       1.86       1.90       4.15       ----

> <Gold.Chemscore.Fitness>
6.6713

> <Gold.Chemscore.DG>
-12.7259

> <Gold.Chemscore.ZeroCoef>
-5.4800

> <Gold.Chemscore.Hbond>
1.7442

> <Gold.Chemscore.Metal>
0.0000

> <Gold.Chemscore.Lipo>
52.8735

> <Gold.Chemscore.Internal_Hbond>
0.0000

> <Gold.Chemscore.DEClash>
1.9023

> <Gold.Chemscore.DEInternal>
4.1523

> <Gold.Chemscore.Rot>
1.8617

> <Gold.Chemscore.Internal.Correction>
   9.000000E+99

> <Gold.Chemscore.Hbonds>
donor molecule, donor type, donor heavy atom, donor atom, acceptor molecule, acceptor atom, score
      L1  H    10    27       P1  8028  0.30
      P1  H  7989  7998       L1    17  0.83

> <Gold.Chemscore.Hbond.Weighted>
-5.8257

> <Gold.Chemscore.Metal.Weighted>
-0.0000

> <Gold.Chemscore.Lipo.Weighted>
-6.1862

> <Gold.Chemscore.Internal_Hbond.Weighted>
0.0000

> <Gold.Chemscore.DEClash.Weighted>
1.9023

> <Gold.Chemscore.DEInternal.Weighted>
4.1523

> <Gold.Chemscore.Rot.Weighted>
4.7660

> <Gold.Chemscore.Internal.Correction.Weighted>
   9.000000E+99

> <Gold.Protein.RotatedTorsions>
[ 6907 6896 6895 6894 ] final   77.45 input  -60.11 | X-H torsion
[ 7974 7965 7964 7962 ] final    6.19 input  175.53 | X-H torsion
[ 8008 7997 7996 7995 ] final  168.07 input   59.86 | X-H torsion
[ 10167 10162 10161 10158 ] final   93.15 input  -65.29 | X-H torsion
[ 10718 10713 10712 10709 ] final  -39.59 input   66.30 | X-H torsion
[ 10763 10752 10751 10750 ] final  -89.17 input  -60.55 | X-H torsion
[ 11005 11000 10999 10996 ] final   53.76 input  -57.11 | X-H torsion

> <Gold.Protein.ActiveResidues>
 VAL166  LYS551  ARG553  GLY616  TRP617  ASP618  TYR619  PRO620  LYS621  CYS622 
 ASP623  PHE694  ASN695  SER759  ASP760  ASP761  ALA762  ILE779  LEU786  VAL792 
 PHE793  MET794  SER795  GLU796  ALA797  LYS798  CYS799  TRP800  GLU811  SER814 

> <Gold.Protein.RotatedAtoms>
  152.5118  134.3815  159.9352 H   0  0  0  0  0  0  0  0  0  0  0  0  # atno 6907 bound_to 6896
  151.3772  133.3828  159.2714 H   0  0  0  0  0  0  0  0  0  0  0  0  # atno 6908 bound_to 6896
  150.9532  134.8950  159.7743 H   0  0  0  0  0  0  0  0  0  0  0  0  # atno 6909 bound_to 6896
  146.2436  140.0270  142.8393 H   0  0  0  0  0  0  0  0  0  0  0  0  # atno 7974 bound_to 7965
  156.1579  140.1600  156.8662 H   0  0  0  0  0  0  0  0  0  0  0  0  # atno 8008 bound_to 7997
  154.5132  140.0796  156.8066 H   0  0  0  0  0  0  0  0  0  0  0  0  # atno 8009 bound_to 7997
  155.3767  140.3403  155.4247 H   0  0  0  0  0  0  0  0  0  0  0  0  # atno 8010 bound_to 7997
  139.8207  144.6732  150.9522 H   0  0  0  0  0  0  0  0  0  0  0  0  # atno 10167 bound_to 10162
  156.2908  130.4228  149.8241 H   0  0  0  0  0  0  0  0  0  0  0  0  # atno 10718 bound_to 10713
  154.6524  135.5350  153.7917 H   0  0  0  0  0  0  0  0  0  0  0  0  # atno 10763 bound_to 10752
  153.0394  135.6485  154.0997 H   0  0  0  0  0  0  0  0  0  0  0  0  # atno 10764 bound_to 10752
  154.0913  135.2940  155.3251 H   0  0  0  0  0  0  0  0  0  0  0  0  # atno 10765 bound_to 10752
  140.0741  134.5429  155.9015 H   0  0  0  0  0  0  0  0  0  0  0  0  # atno 11005 bound_to 11000
  145.1189  140.9450  143.4612 LP  0  0  0  0  0  0  0  0  0  0  0  0  # atno 17320 bound_to 7965
  145.0501  139.3189  143.5933 LP  0  0  0  0  0  0  0  0  0  0  0  0  # atno 17321 bound_to 7965
  140.7813  143.4094  151.1017 LP  0  0  0  0  0  0  0  0  0  0  0  0  # atno 17342 bound_to 10162
  139.7755  143.8432  152.3128 LP  0  0  0  0  0  0  0  0  0  0  0  0  # atno 17343 bound_to 10162
  156.5655  130.8402  151.3341 LP  0  0  0  0  0  0  0  0  0  0  0  0  # atno 17370 bound_to 10713
  157.7341  130.9742  150.2015 LP  0  0  0  0  0  0  0  0  0  0  0  0  # atno 17371 bound_to 10713
  141.2023  133.6624  156.5997 LP  0  0  0  0  0  0  0  0  0  0  0  0  # atno 17394 bound_to 11000
  140.3584  134.7709  157.4516 LP  0  0  0  0  0  0  0  0  0  0  0  0  # atno 17395 bound_to 11000

$$$$
