AV-unprocessed.smi:916|AV-procd|sdf|4160|dock1
  -GOLD-   22720 2 63D 1   1.00000     0.00000
 Structure written by MMmdl.
 43 44  0  0  0  0  0  0  0  0  1 V2000
  145.9054  131.9628  149.3210 C   0  0  0  0  0  0  0  0  0  0  0  0
  144.5696  132.0531  150.0675 C   0  0  0  0  0  0  0  0  0  0  0  0
  144.4859  133.2692  150.9393 C   0  0  0  0  0  0  0  0  0  0  0  0
  143.3584  133.7833  151.5322 C   0  0  0  0  0  0  0  0  0  0  0  0
  143.7063  135.2108  152.4709 S   0  0  0  0  0  0  0  0  0  0  0  0
  145.3958  135.0494  152.0182 C   0  0  0  0  0  0  0  0  0  0  0  0
  146.3874  135.9546  152.4786 N   0  0  0  0  0  0  0  0  0  0  0  0
  146.2393  136.9837  153.3312 C   0  0  0  0  0  0  0  0  0  0  0  0
  145.1954  137.2847  153.9111 O   0  0  0  0  0  0  0  0  0  0  0  0
  147.3867  137.6618  153.4774 N   0  0  0  0  0  0  0  0  0  0  0  0
  147.5567  138.8488  154.3095 C   0  0  0  0  0  0  0  0  0  0  0  0
  148.8791  139.5982  154.0058 C   0  0  2  0  0  0  0  0  0  0  0  0
  150.1079  138.7255  154.2219 C   0  0  0  0  0  0  0  0  0  0  0  0
  150.4387  138.9302  155.7025 C   0  0  0  0  0  0  0  0  0  0  0  0
  149.6938  140.0709  156.1200 O   0  0  0  0  0  0  0  0  0  0  0  0
  149.1984  140.7499  154.9740 C   0  0  2  0  0  0  0  0  0  0  0  0
  148.0481  141.7169  155.3354 C   0  0  0  0  0  0  0  0  0  0  0  0
  147.0660  141.0837  156.3361 C   0  0  0  0  0  0  0  0  0  0  0  0
  147.2932  142.1710  154.0757 C   0  0  0  0  0  0  0  0  0  0  0  0
  145.6420  134.0027  151.2224 N   0  0  0  0  0  0  0  0  0  0  0  0
  145.9408  131.0715  148.6945 H   0  0  0  0  0  0  0  0  0  0  0  0
  146.7425  131.9145  150.0179 H   0  0  0  0  0  0  0  0  0  0  0  0
  146.0558  132.8290  148.6757 H   0  0  0  0  0  0  0  0  0  0  0  0
  143.7528  132.0556  149.3449 H   0  0  0  0  0  0  0  0  0  0  0  0
  144.4342  131.1530  150.6681 H   0  0  0  0  0  0  0  0  0  0  0  0
  142.3474  133.4082  151.4752 H   0  0  0  0  0  0  0  0  0  0  0  0
  147.3100  135.8199  152.0923 H   0  0  0  0  0  0  0  0  0  0  0  0
  148.1979  137.3442  152.9675 H   0  0  0  0  0  0  0  0  0  0  0  0
  146.6947  139.4996  154.1625 H   0  0  0  0  0  0  0  0  0  0  0  0
  147.5282  138.5367  155.3538 H   0  0  0  0  0  0  0  0  0  0  0  0
  148.8530  139.9691  152.9806 H   0  0  0  0  0  0  0  0  0  0  0  0
  149.9631  137.6765  153.9627 H   0  0  0  0  0  0  0  0  0  0  0  0
  150.9302  139.1001  153.6108 H   0  0  0  0  0  0  0  0  0  0  0  0
  150.1383  138.0705  156.3016 H   0  0  0  0  0  0  0  0  0  0  0  0
  151.5068  139.0912  155.8511 H   0  0  0  0  0  0  0  0  0  0  0  0
  150.0249  141.3312  154.5591 H   0  0  0  0  0  0  0  0  0  0  0  0
  148.4699  142.6120  155.7930 H   0  0  0  0  0  0  0  0  0  0  0  0
  146.6112  140.1817  155.9254 H   0  0  0  0  0  0  0  0  0  0  0  0
  146.2616  141.7755  156.5876 H   0  0  0  0  0  0  0  0  0  0  0  0
  147.5588  140.8096  157.2687 H   0  0  0  0  0  0  0  0  0  0  0  0
  146.8465  141.3242  153.5534 H   0  0  0  0  0  0  0  0  0  0  0  0
  147.9574  142.6799  153.3766 H   0  0  0  0  0  0  0  0  0  0  0  0
  146.4919  142.8667  154.3268 H   0  0  0  0  0  0  0  0  0  0  0  0
  1  2  1  0  0  0  0
  1 21  1  0  0  0  0
  1 22  1  0  0  0  0
  1 23  1  0  0  0  0
  2  3  1  0  0  0  0
  2 24  1  0  0  0  0
  2 25  1  0  0  0  0
  3 20  1  0  0  0  0
  3  4  2  0  0  0  0
  4  5  1  0  0  0  0
  4 26  1  0  0  0  0
  5  6  1  0  0  0  0
  6  7  1  0  0  0  0
  6 20  2  0  0  0  0
  7  8  1  0  0  0  0
  7 27  1  0  0  0  0
  8  9  2  0  0  0  0
  8 10  1  0  0  0  0
 10 11  1  0  0  0  0
 10 28  1  0  0  0  0
 11 12  1  0  0  0  0
 11 29  1  0  0  0  0
 11 30  1  0  0  0  0
 12 16  1  0  0  0  0
 12 13  1  0  0  0  0
 12 31  1  0  0  0  0
 13 14  1  0  0  0  0
 13 32  1  0  0  0  0
 13 33  1  0  0  0  0
 14 15  1  0  0  0  0
 14 34  1  0  0  0  0
 14 35  1  0  0  0  0
 15 16  1  0  0  0  0
 16 17  1  0  0  0  0
 16 36  1  0  0  0  0
 17 18  1  0  0  0  0
 17 19  1  0  0  0  0
 17 37  1  0  0  0  0
 18 38  1  0  0  0  0
 18 39  1  0  0  0  0
 18 40  1  0  0  0  0
 19 41  1  0  0  0  0
 19 42  1  0  0  0  0
 19 43  1  0  0  0  0
M  END
> <s_m_source_file>
AV-unprocessed.smi

> <i_m_source_file_index>
916

> <i_lp_mmshare_version>
43012

> <i_f3d_flags>
0

> <s_epik_input>
W0NIM11bQ0gyXWMxW2NIXXNjKG4xKVtOSF1DKD1PKVtOSF1bQ0gyXVtDQEBIXTJbQ0gyXVtDSDJdT1tDQEhdMltDSF0oW0NIM10pW0NIM10=

> <s_epik_cmdline>
J2VwaWtfcHl0aG9uJywgJy1waCcsICc3LjAnLCAnLXRuJywgJzgnLCAnLW1hJywgJzIwMCcsICctbWV0YWxfYmluZGluZycsICctaW1hZScsICc8aW5maWxlLm1hZT4nLCAnLW9tYWUnLCAnPG91dGZpbGUubWFlPic=

> <r_lp_tautomer_probability>
0.999

> <r_epik_Ionization_Penalty>
0.000518907

> <r_epik_Ionization_Penalty_Charging>
0

> <r_epik_Ionization_Penalty_Neutral>
0.000518907

> <r_epik_State_Penalty>
0.000177984

> <r_epik_Charging_Adjusted_Penalty>
0.000177984

> <i_epik_Tot_Q>
0

> <i_epik_Tot_abs_Q>
0

> <r_epik_Metal_State_Penalty>
-0

> <b_epik_Metal_Only>
0

> <s_lp_Force_Field>
OPLS_2005

> <r_lp_Energy>
18.5448

> <b_lp_Chiralities_Consistent>
1

> <s_lp_Variant>
AV-unprocessed.smi:916-3

> <Gold.Version>
5.8.1

> <Gold.Id.Protein>
6NUR|6NUR_protein|mol2

> <Gold.PLP.Fitness>
38.3840

> <Gold.PLP.PLP>
-31.2487

> <Gold.PLP.part.hbond>
-2.0000

> <Gold.PLP.part.metal>
0.0000

> <Gold.PLP.part.buried>
-1.4398

> <Gold.PLP.part.nonpolar>
-27.7305

> <Gold.PLP.part.repulsive>
0.2980

> <Gold.PLP.ligand.clash>
0.0000

> <Gold.PLP.ligand.torsion>
0.4807

> <Gold.PLP.Chemscore.Hbond>
2.0000

> <Gold.PLP.Chemscore.CHOScore>
0.6765

> <Gold.PLP.Chemscore.Metal>
0.0000

> <Gold.Chemscore.Hbonds>
donor molecule, donor type, donor heavy atom, donor atom, acceptor molecule, acceptor atom, score
      L1  H     7    27       P1  7948  1.00
      L1  H    10    28       P1  7948  1.00
      L1  C     4    26       P1 10186  0.66

> <Gold.PLP.Chemscore.Internal.Correction>
0.0670

> <Gold.Rescore>
     Score         DG    S(hbond)    S(metal)    S(lipo)     H(rot)  DE(clash)    DE(int)     intcor
     15.84     -18.02       1.96        0.00      84.53       1.52       0.41       1.77       ----

> <Gold.Chemscore.Fitness>
15.8364

> <Gold.Chemscore.DG>
-18.0164

> <Gold.Chemscore.ZeroCoef>
-5.4800

> <Gold.Chemscore.Hbond>
1.9603

> <Gold.Chemscore.Metal>
0.0000

> <Gold.Chemscore.Lipo>
84.5298

> <Gold.Chemscore.Internal_Hbond>
0.0000

> <Gold.Chemscore.DEClash>
0.4051

> <Gold.Chemscore.DEInternal>
1.7749

> <Gold.Chemscore.Rot>
1.5238

> <Gold.Chemscore.Internal.Correction>
   9.000000E+99

> <Gold.Chemscore.Hbonds>
donor molecule, donor type, donor heavy atom, donor atom, acceptor molecule, acceptor atom, score
      L1  H     7    27       P1  7948  0.98
      L1  H    10    28       P1  7948  0.95

> <Gold.Chemscore.Hbond.Weighted>
-6.5473

> <Gold.Chemscore.Metal.Weighted>
-0.0000

> <Gold.Chemscore.Lipo.Weighted>
-9.8900

> <Gold.Chemscore.Internal_Hbond.Weighted>
0.0000

> <Gold.Chemscore.DEClash.Weighted>
0.4051

> <Gold.Chemscore.DEInternal.Weighted>
1.7749

> <Gold.Chemscore.Rot.Weighted>
3.9008

> <Gold.Chemscore.Internal.Correction.Weighted>
   9.000000E+99

> <Gold.Protein.RotatedTorsions>
[ 6907 6896 6895 6894 ] final -165.38 input  -60.11 | X-H torsion
[ 7974 7965 7964 7962 ] final  -65.77 input  175.53 | X-H torsion
[ 8008 7997 7996 7995 ] final  151.96 input   59.86 | X-H torsion
[ 10167 10162 10161 10158 ] final  -74.93 input  -65.29 | X-H torsion
[ 10718 10713 10712 10709 ] final  -10.92 input   66.30 | X-H torsion
[ 10763 10752 10751 10750 ] final  -97.13 input  -60.55 | X-H torsion
[ 11005 11000 10999 10996 ] final  -42.00 input  -57.11 | X-H torsion

> <Gold.Protein.ActiveResidues>
 VAL166  LYS551  ARG553  GLY616  TRP617  ASP618  TYR619  PRO620  LYS621  CYS622 
 ASP623  PHE694  ASN695  SER759  ASP760  ASP761  ALA762  ILE779  LEU786  VAL792 
 PHE793  MET794  SER795  GLU796  ALA797  LYS798  CYS799  TRP800  GLU811  SER814 

> <Gold.Protein.RotatedAtoms>
  151.4268  133.3682  159.2763 H   0  0  0  0  0  0  0  0  0  0  0  0  # atno 6907 bound_to 6896
  150.9254  134.8672  159.7527 H   0  0  0  0  0  0  0  0  0  0  0  0  # atno 6908 bound_to 6896
  152.5002  134.4209  159.9532 H   0  0  0  0  0  0  0  0  0  0  0  0  # atno 6909 bound_to 6896
  145.7502  140.8912  143.0484 H   0  0  0  0  0  0  0  0  0  0  0  0  # atno 7974 bound_to 7965
  156.2650  140.2033  156.6259 H   0  0  0  0  0  0  0  0  0  0  0  0  # atno 8008 bound_to 7997
  154.6721  140.0549  157.0201 H   0  0  0  0  0  0  0  0  0  0  0  0  # atno 8009 bound_to 7997
  155.1122  140.3216  155.4521 H   0  0  0  0  0  0  0  0  0  0  0  0  # atno 8010 bound_to 7997
  140.4985  143.2366  151.7791 H   0  0  0  0  0  0  0  0  0  0  0  0  # atno 10167 bound_to 10162
  156.6665  130.4997  149.6014 H   0  0  0  0  0  0  0  0  0  0  0  0  # atno 10718 bound_to 10713
  154.7301  135.5058  153.8950 H   0  0  0  0  0  0  0  0  0  0  0  0  # atno 10763 bound_to 10752
  153.0941  135.6667  153.9804 H   0  0  0  0  0  0  0  0  0  0  0  0  # atno 10764 bound_to 10752
  153.9608  135.3048  155.3413 H   0  0  0  0  0  0  0  0  0  0  0  0  # atno 10765 bound_to 10752
  141.0285  133.6830  156.2534 H   0  0  0  0  0  0  0  0  0  0  0  0  # atno 11005 bound_to 11000
  144.6851  139.9580  143.7479 LP  0  0  0  0  0  0  0  0  0  0  0  0  # atno 17320 bound_to 7965
  146.0364  139.3381  143.0724 LP  0  0  0  0  0  0  0  0  0  0  0  0  # atno 17321 bound_to 7965
  139.4867  144.4554  151.9605 LP  0  0  0  0  0  0  0  0  0  0  0  0  # atno 17342 bound_to 10162
  140.3642  144.2935  150.5929 LP  0  0  0  0  0  0  0  0  0  0  0  0  # atno 17343 bound_to 10162
  156.1971  130.6596  151.1126 LP  0  0  0  0  0  0  0  0  0  0  0  0  # atno 17370 bound_to 10713
  157.7092  131.0742  150.6561 LP  0  0  0  0  0  0  0  0  0  0  0  0  # atno 17371 bound_to 10713
  140.6449  134.5127  157.5573 LP  0  0  0  0  0  0  0  0  0  0  0  0  # atno 17394 bound_to 11000
  139.9192  134.8184  156.1267 LP  0  0  0  0  0  0  0  0  0  0  0  0  # atno 17395 bound_to 11000

$$$$
