AV-unprocessed.smi:2825|AV-procd|sdf|10889|dock4
  -GOLD-   2272015333D 1   1.00000     0.00000
 Structure written by MMmdl.
 48 49  0  0  0  0  0  0  0  0  1 V2000
  146.2547  133.5347  162.1083 C   0  0  0  0  0  0  0  0  0  0  0  0
  146.3244  135.0105  161.7029 C   0  0  0  0  0  0  0  0  0  0  0  0
  147.0713  135.2200  160.3781 C   0  0  0  0  0  0  0  0  0  0  0  0
  146.8941  136.9504  159.7586 S   0  0  0  0  0  0  0  0  0  0  0  0
  145.5798  137.0926  159.1140 O   0  0  0  0  0  0  0  0  0  0  0  0
  147.2916  137.8721  160.8344 O   0  0  0  0  0  0  0  0  0  0  0  0
  148.0962  137.0315  158.5094 N   0  0  0  0  0  0  0  0  0  0  0  0
  147.8371  136.3551  157.2344 C   0  0  0  0  0  0  0  0  0  0  0  0
  148.9782  138.2063  158.4295 C   0  0  0  0  0  0  0  0  0  0  0  0
  150.2413  138.0139  159.2917 C   0  0  1  0  0  0  0  0  0  0  0  0
  150.4166  136.6303  159.5302 O   0  0  0  0  0  0  0  0  0  0  0  0
  151.4977  138.5646  158.5918 C   0  0  0  0  0  0  0  0  0  0  0  0
  151.2761  139.8736  158.0043 N   0  0  0  0  0  0  0  0  0  0  0  0
  150.7996  140.1361  156.7724 C   0  0  0  0  0  0  0  0  0  0  0  0
  150.6723  141.4142  156.4284 N   0  0  0  0  0  0  0  0  0  0  0  0
  151.1170  142.0559  157.5716 C   0  0  0  0  0  0  0  0  0  0  0  0
  151.2357  143.4327  157.8623 C   0  0  0  0  0  0  0  0  0  0  0  0
  151.7197  143.8699  159.1161 C   0  0  0  0  0  0  0  0  0  0  0  0
  151.8326  145.3600  159.3856 C   0  0  0  0  0  0  0  0  0  0  0  0
  152.0919  142.9226  160.1035 C   0  0  0  0  0  0  0  0  0  0  0  0
  152.6108  143.3684  161.4594 C   0  0  0  0  0  0  0  0  0  0  0  0
  151.9819  141.5434  159.8288 C   0  0  0  0  0  0  0  0  0  0  0  0
  151.5009  141.1208  158.5769 C   0  0  0  0  0  0  0  0  0  0  0  0
  145.7272  133.4177  163.0552 H   0  0  0  0  0  0  0  0  0  0  0  0
  147.2528  133.1126  162.2293 H   0  0  0  0  0  0  0  0  0  0  0  0
  145.7278  132.9441  161.3583 H   0  0  0  0  0  0  0  0  0  0  0  0
  145.3129  135.4100  161.6268 H   0  0  0  0  0  0  0  0  0  0  0  0
  146.8214  135.5724  162.4938 H   0  0  0  0  0  0  0  0  0  0  0  0
  148.1311  134.9886  160.4772 H   0  0  0  0  0  0  0  0  0  0  0  0
  146.6648  134.5567  159.6143 H   0  0  0  0  0  0  0  0  0  0  0  0
  148.7730  136.1518  156.7129 H   0  0  0  0  0  0  0  0  0  0  0  0
  147.2074  136.9786  156.5994 H   0  0  0  0  0  0  0  0  0  0  0  0
  147.3290  135.4057  157.3986 H   0  0  0  0  0  0  0  0  0  0  0  0
  149.2484  138.4249  157.3949 H   0  0  0  0  0  0  0  0  0  0  0  0
  148.4118  139.0712  158.7772 H   0  0  0  0  0  0  0  0  0  0  0  0
  150.1331  138.5162  160.2524 H   0  0  0  0  0  0  0  0  0  0  0  0
  151.0555  136.2983  158.9186 H   0  0  0  0  0  0  0  0  0  0  0  0
  152.3323  138.6285  159.2912 H   0  0  0  0  0  0  0  0  0  0  0  0
  151.8106  137.8871  157.7961 H   0  0  0  0  0  0  0  0  0  0  0  0
  150.5300  139.3428  156.0903 H   0  0  0  0  0  0  0  0  0  0  0  0
  150.9496  144.1531  157.1101 H   0  0  0  0  0  0  0  0  0  0  0  0
  151.1806  145.6490  160.2105 H   0  0  0  0  0  0  0  0  0  0  0  0
  151.5467  145.9460  158.5116 H   0  0  0  0  0  0  0  0  0  0  0  0
  152.8579  145.6255  159.6446 H   0  0  0  0  0  0  0  0  0  0  0  0
  152.8038  142.5159  162.1116 H   0  0  0  0  0  0  0  0  0  0  0  0
  151.8832  144.0106  161.9563 H   0  0  0  0  0  0  0  0  0  0  0  0
  153.5431  143.9222  161.3468 H   0  0  0  0  0  0  0  0  0  0  0  0
  152.2616  140.8116  160.5719 H   0  0  0  0  0  0  0  0  0  0  0  0
  1  2  1  0  0  0  0
  1 24  1  0  0  0  0
  1 25  1  0  0  0  0
  1 26  1  0  0  0  0
  2  3  1  0  0  0  0
  2 27  1  0  0  0  0
  2 28  1  0  0  0  0
  3  4  1  0  0  0  0
  3 29  1  0  0  0  0
  3 30  1  0  0  0  0
  4  5  2  0  0  0  0
  4  6  2  0  0  0  0
  4  7  1  0  0  0  0
  7  8  1  0  0  0  0
  7  9  1  0  0  0  0
  8 31  1  0  0  0  0
  8 32  1  0  0  0  0
  8 33  1  0  0  0  0
  9 10  1  0  0  0  0
  9 34  1  0  0  0  0
  9 35  1  0  0  0  0
 10 11  1  0  0  0  0
 10 12  1  0  0  0  0
 10 36  1  0  0  0  0
 11 37  1  0  0  0  0
 12 13  1  0  0  0  0
 12 38  1  0  0  0  0
 12 39  1  0  0  0  0
 13 23  1  0  0  0  0
 13 14  1  0  0  0  0
 14 15  2  0  0  0  0
 14 40  1  0  0  0  0
 15 16  1  0  0  0  0
 16 23  2  0  0  0  0
 16 17  1  0  0  0  0
 17 18  2  0  0  0  0
 17 41  1  0  0  0  0
 18 19  1  0  0  0  0
 18 20  1  0  0  0  0
 19 42  1  0  0  0  0
 19 43  1  0  0  0  0
 19 44  1  0  0  0  0
 20 21  1  0  0  0  0
 20 22  2  0  0  0  0
 21 45  1  0  0  0  0
 21 46  1  0  0  0  0
 21 47  1  0  0  0  0
 22 23  1  0  0  0  0
 22 48  1  0  0  0  0
M  END
> <s_m_source_file>
AV-unprocessed.smi

> <i_m_source_file_index>
2825

> <i_lp_mmshare_version>
43012

> <i_f3d_flags>
0

> <s_epik_input>
W0NIM11bQ0gyXVtDSDJdUyg9TykoPU8pTihbQ0gzXSlbQ0gyXVtDQEhdKFtPSF0pW0NIMl1uKFtjSF1uMSljKGMxMilbY0hdYyhbQ0gzXSljKFtjSF0yKVtDSDNd

> <s_epik_cmdline>
J2VwaWtfcHl0aG9uJywgJy1waCcsICc3LjAnLCAnLXRuJywgJzgnLCAnLW1hJywgJzIwMCcsICctbWV0YWxfYmluZGluZycsICctaW1hZScsICc8aW5maWxlLm1hZT4nLCAnLW9tYWUnLCAnPG91dGZpbGUubWFlPic=

> <r_epik_Ionization_Penalty>
0.104931

> <r_epik_Ionization_Penalty_Charging>
0

> <r_epik_Ionization_Penalty_Neutral>
0.104931

> <r_epik_State_Penalty>
0.0948201

> <r_epik_Charging_Adjusted_Penalty>
0.0948201

> <i_epik_Tot_Q>
0

> <i_epik_Tot_abs_Q>
0

> <r_epik_Metal_State_Penalty>
0.00010282

> <b_epik_Metal_Only>
0

> <s_lp_Force_Field>
OPLS_2005

> <r_lp_Energy>
7.6372

> <b_lp_Chiralities_Consistent>
1

> <s_lp_Variant>
AV-unprocessed.smi:2825-2

> <Gold.Version>
5.8.1

> <Gold.Id.Protein>
6NUR|6NUR_protein|mol2

> <Gold.PLP.Fitness>
48.9672

> <Gold.PLP.PLP>
-43.6324

> <Gold.PLP.part.hbond>
-2.7623

> <Gold.PLP.part.metal>
0.0000

> <Gold.PLP.part.buried>
-6.4613

> <Gold.PLP.part.nonpolar>
-34.9584

> <Gold.PLP.part.repulsive>
0.0660

> <Gold.PLP.ligand.clash>
0.0000

> <Gold.PLP.ligand.torsion>
2.5568

> <Gold.PLP.Chemscore.Hbond>
2.6240

> <Gold.PLP.Chemscore.CHOScore>
0.0000

> <Gold.PLP.Chemscore.Metal>
0.0000

> <Gold.Chemscore.Hbonds>
donor molecule, donor type, donor heavy atom, donor atom, acceptor molecule, acceptor atom, score
      P1  H  6931  6943       L1     6  0.42
      P1  H  6934  6947       L1     6  0.06

> <Gold.PLP.Chemscore.Internal.Correction>
2.5763

> <Gold.Rescore>
     Score         DG    S(hbond)    S(metal)    S(lipo)     H(rot)  DE(clash)    DE(int)     intcor
     15.52     -18.88       2.19        0.00     105.20       2.43       0.04       3.33       ----

> <Gold.Chemscore.Fitness>
15.5209

> <Gold.Chemscore.DG>
-18.8841

> <Gold.Chemscore.ZeroCoef>
-5.4800

> <Gold.Chemscore.Hbond>
2.1930

> <Gold.Chemscore.Metal>
0.0000

> <Gold.Chemscore.Lipo>
105.2008

> <Gold.Chemscore.Internal_Hbond>
0.0000

> <Gold.Chemscore.DEClash>
0.0354

> <Gold.Chemscore.DEInternal>
3.3278

> <Gold.Chemscore.Rot>
2.4332

> <Gold.Chemscore.Internal.Correction>
   9.000000E+99

> <Gold.Chemscore.Hbonds>
donor molecule, donor type, donor heavy atom, donor atom, acceptor molecule, acceptor atom, score
      P1  H  6931  6943       L1     6  0.40
      P1  H  6934  6947       L1     6  0.11

> <Gold.Chemscore.Hbond.Weighted>
-7.3246

> <Gold.Chemscore.Metal.Weighted>
-0.0000

> <Gold.Chemscore.Lipo.Weighted>
-12.3085

> <Gold.Chemscore.Internal_Hbond.Weighted>
0.0000

> <Gold.Chemscore.DEClash.Weighted>
0.0354

> <Gold.Chemscore.DEInternal.Weighted>
3.3278

> <Gold.Chemscore.Rot.Weighted>
6.2289

> <Gold.Chemscore.Internal.Correction.Weighted>
   9.000000E+99

> <Gold.Protein.RotatedTorsions>
[ 6907 6896 6895 6894 ] final -148.46 input  -60.11 | X-H torsion
[ 7974 7965 7964 7962 ] final  -99.85 input  175.53 | X-H torsion
[ 8008 7997 7996 7995 ] final  -97.70 input   59.86 | X-H torsion
[ 10167 10162 10161 10158 ] final -178.07 input  -65.29 | X-H torsion
[ 10718 10713 10712 10709 ] final    0.24 input   66.30 | X-H torsion
[ 10763 10752 10751 10750 ] final -129.64 input  -60.55 | X-H torsion
[ 11005 11000 10999 10996 ] final  -16.27 input  -57.11 | X-H torsion

> <Gold.Protein.ActiveResidues>
 VAL166  LYS551  ARG553  GLY616  TRP617  ASP618  TYR619  PRO620  LYS621  CYS622 
 ASP623  PHE694  ASN695  SER759  ASP760  ASP761  ALA762  ILE779  LEU786  VAL792 
 PHE793  MET794  SER795  GLU796  ALA797  LYS798  CYS799  TRP800  GLU811  SER814 

> <Gold.Protein.RotatedAtoms>
  151.1702  133.4789  159.2593 H   0  0  0  0  0  0  0  0  0  0  0  0  # atno 6907 bound_to 6896
  151.1364  135.0157  159.8616 H   0  0  0  0  0  0  0  0  0  0  0  0  # atno 6908 bound_to 6896
  152.5461  134.1600  159.8607 H   0  0  0  0  0  0  0  0  0  0  0  0  # atno 6909 bound_to 6896
  145.3021  140.9380  143.2817 H   0  0  0  0  0  0  0  0  0  0  0  0  # atno 7974 bound_to 7965
  154.7913  140.0461  157.1203 H   0  0  0  0  0  0  0  0  0  0  0  0  # atno 8008 bound_to 7997
  154.9588  140.3074  155.5021 H   0  0  0  0  0  0  0  0  0  0  0  0  # atno 8009 bound_to 7997
  156.2950  140.2274  156.4671 H   0  0  0  0  0  0  0  0  0  0  0  0  # atno 8010 bound_to 7997
  139.5449  144.2261  152.0969 H   0  0  0  0  0  0  0  0  0  0  0  0  # atno 10167 bound_to 10162
  156.8305  130.5487  149.5687 H   0  0  0  0  0  0  0  0  0  0  0  0  # atno 10718 bound_to 10713
  154.8757  135.3889  154.3953 H   0  0  0  0  0  0  0  0  0  0  0  0  # atno 10763 bound_to 10752
  153.4684  135.7029  153.6013 H   0  0  0  0  0  0  0  0  0  0  0  0  # atno 10764 bound_to 10752
  153.4481  135.3840  155.2236 H   0  0  0  0  0  0  0  0  0  0  0  0  # atno 10765 bound_to 10752
  140.8051  133.8184  155.9508 H   0  0  0  0  0  0  0  0  0  0  0  0  # atno 11005 bound_to 11000
  144.9085  139.4559  143.6598 LP  0  0  0  0  0  0  0  0  0  0  0  0  # atno 17320 bound_to 7965
  146.3148  139.7879  142.8992 LP  0  0  0  0  0  0  0  0  0  0  0  0  # atno 17321 bound_to 7965
  140.1746  144.4903  150.6561 LP  0  0  0  0  0  0  0  0  0  0  0  0  # atno 17342 bound_to 10162
  140.6694  143.2280  151.5662 LP  0  0  0  0  0  0  0  0  0  0  0  0  # atno 17343 bound_to 10162
  156.0937  130.5916  150.9777 LP  0  0  0  0  0  0  0  0  0  0  0  0  # atno 17370 bound_to 10713
  157.6409  131.0910  150.8252 LP  0  0  0  0  0  0  0  0  0  0  0  0  # atno 17371 bound_to 10713
  140.9255  134.2088  157.4898 LP  0  0  0  0  0  0  0  0  0  0  0  0  # atno 17394 bound_to 11000
  139.8718  134.9810  156.5101 LP  0  0  0  0  0  0  0  0  0  0  0  0  # atno 17395 bound_to 11000

$$$$
