AV-unprocessed.smi:356|AV-procd|sdf|2413|dock10
  -GOLD-   2262022343D 1   1.00000     0.00000
 Structure written by MMmdl.
 42 44  0  0  0  0  0  0  0  0  2 V2000
  146.5580  142.5366  153.7830 C   0  0  0  0  0  0  0  0  0  0  0  0
  147.7399  141.7297  154.2043 C   0  0  0  0  0  0  0  0  0  0  0  0
  148.7623  142.1590  154.9971 N   0  3  0  0  0  0  0  0  0  0  0  0
  149.6873  141.1287  155.1741 C   0  0  0  0  0  0  0  0  0  0  0  0
  150.8793  141.0859  155.8910 C   0  0  0  0  0  0  0  0  0  0  0  0
  151.5897  139.8676  155.8651 C   0  0  0  0  0  0  0  0  0  0  0  0
  151.1104  138.7527  155.1466 C   0  0  0  0  0  0  0  0  0  0  0  0
  149.9008  138.8083  154.4232 C   0  0  0  0  0  0  0  0  0  0  0  0
  149.2050  140.0163  154.4546 C   0  0  0  0  0  0  0  0  0  0  0  0
  148.0021  140.4324  153.8748 N   0  0  0  0  0  0  0  0  0  0  0  0
  147.2356  139.4850  153.0509 C   0  0  0  0  0  0  0  0  0  0  0  0
  146.2581  138.6251  153.8762 C   0  0  1  0  0  0  0  0  0  0  0  0
  145.3374  139.4718  154.5351 O   0  0  0  0  0  0  0  0  0  0  0  0
  145.4712  137.6498  152.9789 C   0  0  0  0  0  0  0  0  0  0  0  0
  144.1691  137.2244  153.4965 N   0  0  0  0  0  0  0  0  0  0  0  0
  144.2541  136.6226  154.8266 C   0  0  0  0  0  0  0  0  0  0  0  0
  142.8791  136.1533  155.3342 C   0  0  0  0  0  0  0  0  0  0  0  0
  142.3078  135.2429  154.4007 O   0  0  0  0  0  0  0  0  0  0  0  0
  142.1632  135.8086  153.1024 C   0  0  0  0  0  0  0  0  0  0  0  0
  143.5369  136.2724  152.5886 C   0  0  0  0  0  0  0  0  0  0  0  0
  146.6008  143.5357  154.2173 H   0  0  0  0  0  0  0  0  0  0  0  0
  145.6365  142.0556  154.1109 H   0  0  0  0  0  0  0  0  0  0  0  0
  146.5345  142.6309  152.6972 H   0  0  0  0  0  0  0  0  0  0  0  0
  151.2483  141.9384  156.4420 H   0  0  0  0  0  0  0  0  0  0  0  0
  152.5208  139.7864  156.4071 H   0  0  0  0  0  0  0  0  0  0  0  0
  151.6824  137.8361  155.1503 H   0  0  0  0  0  0  0  0  0  0  0  0
  149.5413  137.9493  153.8761 H   0  0  0  0  0  0  0  0  0  0  0  0
  146.6926  140.0615  152.3009 H   0  0  0  0  0  0  0  0  0  0  0  0
  147.9397  138.8576  152.5028 H   0  0  0  0  0  0  0  0  0  0  0  0
  146.8255  138.0826  154.6308 H   0  0  0  0  0  0  0  0  0  0  0  0
  144.9147  140.0124  153.8847 H   0  0  0  0  0  0  0  0  0  0  0  0
  145.3326  138.1264  152.0071 H   0  0  0  0  0  0  0  0  0  0  0  0
  146.0835  136.7669  152.7887 H   0  0  0  0  0  0  0  0  0  0  0  0
  144.9390  135.7736  154.8059 H   0  0  0  0  0  0  0  0  0  0  0  0
  144.6595  137.3351  155.5433 H   0  0  0  0  0  0  0  0  0  0  0  0
  142.9804  135.6572  156.2995 H   0  0  0  0  0  0  0  0  0  0  0  0
  142.2102  137.0031  155.4795 H   0  0  0  0  0  0  0  0  0  0  0  0
  141.7402  135.0601  152.4323 H   0  0  0  0  0  0  0  0  0  0  0  0
  141.4610  136.6431  153.1364 H   0  0  0  0  0  0  0  0  0  0  0  0
  143.4160  136.7244  151.6035 H   0  0  0  0  0  0  0  0  0  0  0  0
  144.1829  135.4031  152.4552 H   0  0  0  0  0  0  0  0  0  0  0  0
  148.8198  143.0904  155.3884 H   0  0  0  0  0  0  0  0  0  0  0  0
  1  2  1  0  0  0  0
  1 21  1  0  0  0  0
  1 22  1  0  0  0  0
  1 23  1  0  0  0  0
  2 10  1  0  0  0  0
  2  3  2  0  0  0  0
  3  4  1  0  0  0  0
  3 42  1  0  0  0  0
  4  9  2  0  0  0  0
  4  5  1  0  0  0  0
  5  6  2  0  0  0  0
  5 24  1  0  0  0  0
  6  7  1  0  0  0  0
  6 25  1  0  0  0  0
  7  8  2  0  0  0  0
  7 26  1  0  0  0  0
  8  9  1  0  0  0  0
  8 27  1  0  0  0  0
  9 10  1  0  0  0  0
 10 11  1  0  0  0  0
 11 12  1  0  0  0  0
 11 28  1  0  0  0  0
 11 29  1  0  0  0  0
 12 13  1  0  0  0  0
 12 14  1  0  0  0  0
 12 30  1  0  0  0  0
 13 31  1  0  0  0  0
 14 15  1  0  0  0  0
 14 32  1  0  0  0  0
 14 33  1  0  0  0  0
 15 20  1  0  0  0  0
 15 16  1  0  0  0  0
 16 17  1  0  0  0  0
 16 34  1  0  0  0  0
 16 35  1  0  0  0  0
 17 18  1  0  0  0  0
 17 36  1  0  0  0  0
 17 37  1  0  0  0  0
 18 19  1  0  0  0  0
 19 20  1  0  0  0  0
 19 38  1  0  0  0  0
 19 39  1  0  0  0  0
 20 40  1  0  0  0  0
 20 41  1  0  0  0  0
M  CHG  1   3   1
M  END
> <s_m_source_file>
AV-unprocessed.smi

> <i_m_source_file_index>
356

> <i_lp_mmshare_version>
43012

> <i_f3d_flags>
0

> <s_epik_input>
W2NIXTFbY0hdW2NIXVtjSF1jKGMxMiluKGMobjIpW0NIM10pW0NIMl1bQ0BIXShbT0hdKVtDSDJdTjNbQ0gyXVtDSDJdT1tDSDJdW0NIMl0z

> <s_epik_cmdline>
J2VwaWtfcHl0aG9uJywgJy1waCcsICc3LjAnLCAnLXRuJywgJzgnLCAnLW1hJywgJzIwMCcsICctbWV0YWxfYmluZGluZycsICctaW1hZScsICc8aW5maWxlLm1hZT4nLCAnLW9tYWUnLCAnPG91dGZpbGUubWFlPic=

> <r_epik_Ionization_Penalty>
1.35865

> <r_epik_Ionization_Penalty_Charging>
1.14429

> <r_epik_Ionization_Penalty_Neutral>
0.214359

> <r_epik_State_Penalty>
1.39809

> <r_epik_Charging_Adjusted_Penalty>
2.54238

> <i_epik_Tot_Q>
1

> <i_epik_Tot_abs_Q>
1

> <r_epik_Metal_State_Penalty>
5.40564

> <b_epik_Metal_Only>
0

> <s_lp_Force_Field>
OPLS_2005

> <r_lp_Energy>
32.3817

> <b_lp_Chiralities_Consistent>
1

> <s_lp_Variant>
AV-unprocessed.smi:356-6

> <Gold.Version>
5.8.1

> <Gold.Id.Protein>
6NUR|6NUR_protein|mol2

> <Gold.PLP.Fitness>
45.1672

> <Gold.PLP.PLP>
-37.4909

> <Gold.PLP.part.hbond>
-2.4593

> <Gold.PLP.part.metal>
0.0000

> <Gold.PLP.part.buried>
-3.7708

> <Gold.PLP.part.nonpolar>
-31.4381

> <Gold.PLP.part.repulsive>
0.4135

> <Gold.PLP.ligand.clash>
0.0000

> <Gold.PLP.ligand.torsion>
0.6643

> <Gold.PLP.Chemscore.Hbond>
3.0000

> <Gold.PLP.Chemscore.CHOScore>
0.0000

> <Gold.PLP.Chemscore.Metal>
0.0000

> <Gold.Chemscore.Hbonds>
donor molecule, donor type, donor heavy atom, donor atom, acceptor molecule, acceptor atom, score
      L1  H     3    42       P1  8028  2.00
      L1  H    13    31       P1 10175  1.00

> <Gold.PLP.Chemscore.Internal.Correction>
0.0049

> <Gold.Rescore>
     Score         DG    S(hbond)    S(metal)    S(lipo)     H(rot)  DE(clash)    DE(int)     intcor
     15.21     -16.30       2.00        0.00      80.35       2.05       0.42       0.67       ----

> <Gold.Chemscore.Fitness>
15.2067

> <Gold.Chemscore.DG>
-16.2996

> <Gold.Chemscore.ZeroCoef>
-5.4800

> <Gold.Chemscore.Hbond>
1.9990

> <Gold.Chemscore.Metal>
0.0000

> <Gold.Chemscore.Lipo>
80.3495

> <Gold.Chemscore.Internal_Hbond>
0.0000

> <Gold.Chemscore.DEClash>
0.4205

> <Gold.Chemscore.DEInternal>
0.6724

> <Gold.Chemscore.Rot>
2.0539

> <Gold.Chemscore.Internal.Correction>
   9.000000E+99

> <Gold.Chemscore.Hbonds>
donor molecule, donor type, donor heavy atom, donor atom, acceptor molecule, acceptor atom, score
      L1  H     3    42       P1  8028  1.00
      L1  H    13    31       P1 10175  0.99

> <Gold.Chemscore.Hbond.Weighted>
-6.6765

> <Gold.Chemscore.Metal.Weighted>
-0.0000

> <Gold.Chemscore.Lipo.Weighted>
-9.4009

> <Gold.Chemscore.Internal_Hbond.Weighted>
0.0000

> <Gold.Chemscore.DEClash.Weighted>
0.4205

> <Gold.Chemscore.DEInternal.Weighted>
0.6724

> <Gold.Chemscore.Rot.Weighted>
5.2579

> <Gold.Chemscore.Internal.Correction.Weighted>
   9.000000E+99

> <Gold.Protein.RotatedTorsions>
[ 6907 6896 6895 6894 ] final   64.80 input  -60.11 | X-H torsion
[ 7974 7965 7964 7962 ] final  149.61 input  175.53 | X-H torsion
[ 8008 7997 7996 7995 ] final -176.55 input   59.86 | X-H torsion
[ 10167 10162 10161 10158 ] final  -82.17 input  -65.29 | X-H torsion
[ 10718 10713 10712 10709 ] final -167.97 input   66.30 | X-H torsion
[ 10763 10752 10751 10750 ] final  163.54 input  -60.55 | X-H torsion
[ 11005 11000 10999 10996 ] final -171.13 input  -57.11 | X-H torsion

> <Gold.Protein.ActiveResidues>
 VAL166  LYS551  ARG553  GLY616  TRP617  ASP618  TYR619  PRO620  LYS621  CYS622 
 ASP623  PHE694  ASN695  SER759  ASP760  ASP761  ALA762  ILE779  LEU786  VAL792 
 PHE793  MET794  SER795  GLU796  ALA797  LYS798  CYS799  TRP800  GLU811  SER814 

> <Gold.Protein.RotatedAtoms>
  152.4359  134.5687  159.9914 H   0  0  0  0  0  0  0  0  0  0  0  0  # atno 6907 bound_to 6896
  151.5798  133.3373  159.3014 H   0  0  0  0  0  0  0  0  0  0  0  0  # atno 6908 bound_to 6896
  150.8257  134.7522  159.6875 H   0  0  0  0  0  0  0  0  0  0  0  0  # atno 6909 bound_to 6896
  144.8425  139.6303  143.6010 H   0  0  0  0  0  0  0  0  0  0  0  0  # atno 7974 bound_to 7965
  155.9962  140.1211  157.0591 H   0  0  0  0  0  0  0  0  0  0  0  0  # atno 8008 bound_to 7997
  154.4227  140.1116  156.5702 H   0  0  0  0  0  0  0  0  0  0  0  0  # atno 8009 bound_to 7997
  155.6275  140.3472  155.4674 H   0  0  0  0  0  0  0  0  0  0  0  0  # atno 8010 bound_to 7997
  140.4344  143.2537  151.8713 H   0  0  0  0  0  0  0  0  0  0  0  0  # atno 10167 bound_to 10162
  156.6901  130.9156  151.3068 H   0  0  0  0  0  0  0  0  0  0  0  0  # atno 10718 bound_to 10713
  154.2952  135.2760  155.2636 H   0  0  0  0  0  0  0  0  0  0  0  0  # atno 10763 bound_to 10752
  154.5097  135.5786  153.6599 H   0  0  0  0  0  0  0  0  0  0  0  0  # atno 10764 bound_to 10752
  152.9908  135.6178  154.3119 H   0  0  0  0  0  0  0  0  0  0  0  0  # atno 10765 bound_to 10752
  140.5117  134.5795  157.5021 H   0  0  0  0  0  0  0  0  0  0  0  0  # atno 11005 bound_to 11000
  146.2715  139.6647  142.9293 LP  0  0  0  0  0  0  0  0  0  0  0  0  # atno 17320 bound_to 7965
  145.4665  141.0435  143.2722 LP  0  0  0  0  0  0  0  0  0  0  0  0  # atno 17321 bound_to 7965
  139.4786  144.5298  151.8682 LP  0  0  0  0  0  0  0  0  0  0  0  0  # atno 17342 bound_to 10162
  140.4390  144.2012  150.5890 LP  0  0  0  0  0  0  0  0  0  0  0  0  # atno 17343 bound_to 10162
  157.7012  130.9335  150.0791 LP  0  0  0  0  0  0  0  0  0  0  0  0  # atno 17370 bound_to 10713
  156.1804  130.3650  149.9043 LP  0  0  0  0  0  0  0  0  0  0  0  0  # atno 17371 bound_to 10713
  139.9655  134.7380  156.0147 LP  0  0  0  0  0  0  0  0  0  0  0  0  # atno 17394 bound_to 11000
  141.1382  133.6570  156.3654 LP  0  0  0  0  0  0  0  0  0  0  0  0  # atno 17395 bound_to 11000

$$$$
