#       Name:                AV-unprocessed.smi:2067
#       Creating user name   scv26
#       Creation time:       Fri Mar 27 11:12:08 2020


#       File generated by GOLD software.
#

@<TRIPOS>MOLECULE
AV-unprocessed.smi:2067
    54    55     1
SMALL
NO_CHARGES


@<TRIPOS>ATOM
      1 ****         2.7026  -2.9011  -4.1735 C.3            1 S1                 0.0000
      2 ****         2.1933  -2.3551  -5.5163 C.3            1 S1                 0.0000
      3 ****         2.7720  -3.1723  -6.6884 C.3            1 S1                 0.0000
      4 ****         2.2941  -2.6356  -8.0455 C.3            1 S1                 0.0000
      5 ****         0.7614  -2.6037  -8.1149 C.3            1 S1                 0.0000
      6 ****         0.1713  -1.7887  -6.9543 C.3            1 S1                 0.0000
      7 ****         0.6482  -2.3211  -5.5838 C.3            1 S1                 0.0000
      8 ****         0.1877  -1.4915  -4.5225 O.3            1 S1                 0.0000
      9 ****        -1.2184  -1.4910  -4.3181 C.3            1 S1                 0.0000
     10 ****        -1.5023  -0.9274  -2.9219 C.3            1 S1                 0.0000
     11 ****        -1.2508  -1.9252  -1.8930 N.pl3          1 S1                 0.0000
     12 ****        -0.0083  -2.2180  -1.3416 C.2            1 S1                 0.0000
     13 ****         0.1373  -3.1772  -0.3854 C.2            1 S1                 0.0000
     14 ****        -0.9441  -3.9841   0.0853 C.1            1 S1                 0.0000
     15 ****        -1.8066  -4.6590   0.4624 N.1            1 S1                 0.0000
     16 ****         1.4350  -3.4901   0.2113 C.2            1 S1                 0.0000
     17 ****         1.5912  -4.3479   1.0829 O.2            1 S1                 0.0000
     18 ****         2.5114  -2.7272  -0.2923 N.am           1 S1                 0.0000
     19 ****         3.8438  -2.9460   0.2342 C.3            1 S1                 0.0000
     20 ****         2.3889  -1.7428  -1.2914 C.2            1 S1                 0.0000
     21 ****         3.3741  -1.1134  -1.6904 O.2            1 S1                 0.0000
     22 ****         1.0947  -1.4984  -1.8095 N.am           1 S1                 0.0000
     23 ****         1.0353  -0.4496  -2.8066 C.3            1 S1                 0.0000
     24 ****         2.3405  -3.9134  -3.9924 H              1 S1                 0.0000
     25 ****         2.3757  -2.2742  -3.3443 H              1 S1                 0.0000
     26 ****         3.7921  -2.9273  -4.1467 H              1 S1                 0.0000
     27 ****         2.5578  -1.3311  -5.6122 H              1 S1                 0.0000
     28 ****         3.8620  -3.1533  -6.6550 H              1 S1                 0.0000
     29 ****         2.4790  -4.2184  -6.5885 H              1 S1                 0.0000
     30 ****         2.6899  -1.6315  -8.2030 H              1 S1                 0.0000
     31 ****         2.6904  -3.2546  -8.8509 H              1 S1                 0.0000
     32 ****         0.4410  -2.1804  -9.0674 H              1 S1                 0.0000
     33 ****         0.3719  -3.6219  -8.0820 H              1 S1                 0.0000
     34 ****         0.4602  -0.7421  -7.0606 H              1 S1                 0.0000
     35 ****        -0.9159  -1.8189  -7.0233 H              1 S1                 0.0000
     36 ****         0.2698  -3.3343  -5.4346 H              1 S1                 0.0000
     37 ****        -1.6890  -0.8566  -5.0694 H              1 S1                 0.0000
     38 ****        -1.6440  -2.4913  -4.4179 H              1 S1                 0.0000
     39 ****        -0.9297  -0.0157  -2.7641 H              1 S1                 0.0000
     40 ****        -2.5542  -0.6503  -2.8521 H              1 S1                 0.0000
     41 ****        -1.8442  -2.7342  -2.0075 H              1 S1                 0.0000
     42 ****         4.1962  -1.9926   0.6321 H              1 S1                 0.0000
     43 ****         4.4661  -3.2855  -0.5957 H              1 S1                 0.0000
     44 ****         3.8444  -3.6925   1.0274 H              1 S1                 0.0000
     45 ****         1.3724   0.4731  -2.3305 H              1 S1                 0.0000
     46 ****         0.0192  -0.3228  -3.1727 H              1 S1                 0.0000
     47 ****         1.6877  -0.7420  -3.6313 H              1 S1                 0.0000
     48 ****         0.4717  -0.5529  -4.7186 LP             1 S1                 0.0000
     49 ****         0.6226  -1.8016  -3.6770 LP             1 S1                 0.0000
     50 ****        -2.5512  -5.2417   0.7880 LP             1 S1                 0.0000
     51 ****         0.8066  -4.8706   1.4164 LP             1 S1                 0.0000
     52 ****         2.5025  -4.5210   1.4565 LP             1 S1                 0.0000
     53 ****         4.2770  -1.2997  -1.3029 LP             1 S1                 0.0000
     54 ****         3.2688  -0.4176  -2.4008 LP             1 S1                 0.0000
@<TRIPOS>BOND
    1    1    2 1     
    2    1   24 1     
    3    1   25 1     
    4    1   26 1     
    5    2    7 1     
    6    2    3 1     
    7    2   27 1     
    8    3    4 1     
    9    3   28 1     
   10    3   29 1     
   11    4    5 1     
   12    4   30 1     
   13    4   31 1     
   14    5    6 1     
   15    5   32 1     
   16    5   33 1     
   17    6    7 1     
   18    6   34 1     
   19    6   35 1     
   20    7    8 1     
   21    7   36 1     
   22    8    9 1     
   23    9   10 1     
   24    9   37 1     
   25    9   38 1     
   26   10   11 1     
   27   10   39 1     
   28   10   40 1     
   29   11   12 1     
   30   11   41 1     
   31   12   22 1     
   32   12   13 2     
   33   13   14 1     
   34   13   16 1     
   35   14   15 3     
   36   16   17 2     
   37   16   18 am    
   38   18   19 1     
   39   18   20 am    
   40   19   42 1     
   41   19   43 1     
   42   19   44 1     
   43   20   21 2     
   44   20   22 am    
   45   22   23 1     
   46   23   45 1     
   47   23   46 1     
   48   23   47 1     
   49    8   48 1     
   50    8   49 1     
   51   15   50 1     
   52   17   51 1     
   53   17   52 1     
   54   21   53 1     
   55   21   54 1     
@<TRIPOS>SUBSTRUCTURE
      1 S1             1
@<TRIPOS>SET
LONE_PAIRS      STATIC     ATOMS    <user>   **** ""
7 48 49 50 51 52 53 54
DONOR_HYDROGENS      STATIC     ATOMS    <user>   **** ""
1 41
ATOM$BLUE        STATIC     ATOMS    COLORGROUP SYSTEM
7 48 49 50 51 52 53 54
ATOM$RED        STATIC     ATOMS    COLORGROUP SYSTEM
1 41
