AV-unprocessed.smi:3047|AV-procd|sdf|11622|dock1
  -GOLD-   2272017 03D 1   1.00000     0.00000
 Structure written by MMmdl.
 38 39  0  0  0  0  0  0  0  0  2 V2000
  154.3503  139.5713  161.6381 C   0  0  0  0  0  0  0  0  0  0  0  0
  153.7204  139.6089  159.9091 S   0  0  0  0  0  0  0  0  0  0  0  0
  154.8687  139.4443  159.0051 O   0  0  0  0  0  0  0  0  0  0  0  0
  152.5672  138.7012  159.8065 O   0  0  0  0  0  0  0  0  0  0  0  0
  153.1468  141.2367  159.7270 N   0  0  0  0  0  0  0  0  0  0  0  0
  152.9288  142.1179  160.8714 C   0  0  0  0  0  0  0  0  0  0  0  0
  152.6513  143.4815  160.2459 C   0  0  0  0  0  0  0  0  0  0  0  0
  151.9708  143.1471  158.9211 C   0  0  0  0  0  0  0  0  0  0  0  0
  152.5883  141.8012  158.4849 C   0  0  2  0  0  0  0  0  0  0  0  0
  151.5756  140.9058  157.7535 C   0  0  0  0  0  0  0  0  0  0  0  0
  151.8097  139.7109  157.5689 O   0  0  0  0  0  0  0  0  0  0  0  0
  150.4601  141.5059  157.3147 N   0  0  0  0  0  0  0  0  0  0  0  0
  149.4185  140.8427  156.5449 C   0  0  0  0  0  0  0  0  0  0  0  0
  149.4283  141.3336  155.0914 C   0  0  0  0  0  0  0  0  0  0  0  0
  148.0737  141.5840  154.5971 N   0  0  0  0  0  0  0  0  0  0  0  0
  147.2062  142.5636  155.0065 C   0  0  0  0  0  0  0  0  0  0  0  0
  146.0612  142.4043  154.2688 C   0  0  0  0  0  0  0  0  0  0  0  0
  146.2782  141.3347  153.4416 N   0  3  0  0  0  0  0  0  0  0  0  0
  147.5026  140.8366  153.6436 C   0  0  0  0  0  0  0  0  0  0  0  0
  154.8195  138.6064  161.8276 H   0  0  0  0  0  0  0  0  0  0  0  0
  153.5305  139.7109  162.3404 H   0  0  0  0  0  0  0  0  0  0  0  0
  155.0869  140.3623  161.7759 H   0  0  0  0  0  0  0  0  0  0  0  0
  152.0682  141.7616  161.4387 H   0  0  0  0  0  0  0  0  0  0  0  0
  153.7988  142.1353  161.5282 H   0  0  0  0  0  0  0  0  0  0  0  0
  152.0438  144.1234  160.8842 H   0  0  0  0  0  0  0  0  0  0  0  0
  153.5944  143.9948  160.0542 H   0  0  0  0  0  0  0  0  0  0  0  0
  150.8950  143.0730  159.0863 H   0  0  0  0  0  0  0  0  0  0  0  0
  152.1301  143.9302  158.1791 H   0  0  0  0  0  0  0  0  0  0  0  0
  153.4295  142.0032  157.8197 H   0  0  0  0  0  0  0  0  0  0  0  0
  150.3468  142.4931  157.4956 H   0  0  0  0  0  0  0  0  0  0  0  0
  149.5789  139.7636  156.5753 H   0  0  0  0  0  0  0  0  0  0  0  0
  148.4484  141.0394  157.0041 H   0  0  0  0  0  0  0  0  0  0  0  0
  149.9953  142.2611  154.9996 H   0  0  0  0  0  0  0  0  0  0  0  0
  149.9013  140.6001  154.4361 H   0  0  0  0  0  0  0  0  0  0  0  0
  147.4609  143.2818  155.7725 H   0  0  0  0  0  0  0  0  0  0  0  0
  145.1328  142.9569  154.2708 H   0  0  0  0  0  0  0  0  0  0  0  0
  147.9423  139.9958  153.1370 H   0  0  0  0  0  0  0  0  0  0  0  0
  145.6104  140.9715  152.7730 H   0  0  0  0  0  0  0  0  0  0  0  0
  1  2  1  0  0  0  0
  1 20  1  0  0  0  0
  1 21  1  0  0  0  0
  1 22  1  0  0  0  0
  2  3  2  0  0  0  0
  2  4  2  0  0  0  0
  2  5  1  0  0  0  0
  5  9  1  0  0  0  0
  5  6  1  0  0  0  0
  6  7  1  0  0  0  0
  6 23  1  0  0  0  0
  6 24  1  0  0  0  0
  7  8  1  0  0  0  0
  7 25  1  0  0  0  0
  7 26  1  0  0  0  0
  8  9  1  0  0  0  0
  8 27  1  0  0  0  0
  8 28  1  0  0  0  0
  9 10  1  0  0  0  0
  9 29  1  0  0  0  0
 10 11  2  0  0  0  0
 10 12  1  0  0  0  0
 12 13  1  0  0  0  0
 12 30  1  0  0  0  0
 13 14  1  0  0  0  0
 13 31  1  0  0  0  0
 13 32  1  0  0  0  0
 14 15  1  0  0  0  0
 14 33  1  0  0  0  0
 14 34  1  0  0  0  0
 15 19  1  0  0  0  0
 15 16  1  0  0  0  0
 16 17  2  0  0  0  0
 16 35  1  0  0  0  0
 17 18  1  0  0  0  0
 17 36  1  0  0  0  0
 18 19  2  0  0  0  0
 18 38  1  0  0  0  0
 19 37  1  0  0  0  0
M  CHG  1  18   1
M  END
> <s_m_source_file>
AV-unprocessed.smi

> <i_m_source_file_index>
3047

> <i_lp_mmshare_version>
43012

> <i_f3d_flags>
0

> <s_epik_input>
W0NIM11TKD1PKSg9TylOMVtDSDJdW0NIMl1bQ0gyXVtDQEhdMUMoPU8pW05IXVtDSDJdW0NIMl1uMltjSF1bY0hdbltjSF0y

> <s_epik_cmdline>
J2VwaWtfcHl0aG9uJywgJy1waCcsICc3LjAnLCAnLXRuJywgJzgnLCAnLW1hJywgJzIwMCcsICctbWV0YWxfYmluZGluZycsICctaW1hZScsICc8aW5maWxlLm1hZT4nLCAnLW9tYWUnLCAnPG91dGZpbGUubWFlPic=

> <r_lp_tautomer_probability>
1

> <r_epik_Ionization_Penalty>
0.281738

> <r_epik_Ionization_Penalty_Charging>
0

> <r_epik_Ionization_Penalty_Neutral>
0.281738

> <r_epik_State_Penalty>
0.274352

> <r_epik_Charging_Adjusted_Penalty>
0.274352

> <i_epik_Tot_Q>
1

> <i_epik_Tot_abs_Q>
1

> <r_epik_Metal_State_Penalty>
0.555562

> <b_epik_Metal_Only>
0

> <s_lp_Force_Field>
OPLS_2005

> <r_lp_Energy>
11.563

> <b_lp_Chiralities_Consistent>
1

> <s_lp_Variant>
AV-unprocessed.smi:3047-2

> <Gold.Version>
5.8.1

> <Gold.Id.Protein>
6NUR|6NUR_protein|mol2

> <Gold.PLP.Fitness>
45.9800

> <Gold.PLP.PLP>
-34.7373

> <Gold.PLP.part.hbond>
-2.0000

> <Gold.PLP.part.metal>
0.0000

> <Gold.PLP.part.buried>
-2.9845

> <Gold.PLP.part.nonpolar>
-30.4395

> <Gold.PLP.part.repulsive>
0.0647

> <Gold.PLP.ligand.clash>
0.0410

> <Gold.PLP.ligand.torsion>
2.0202

> <Gold.PLP.Chemscore.Hbond>
2.8240

> <Gold.PLP.Chemscore.CHOScore>
1.5826

> <Gold.PLP.Chemscore.Metal>
0.0000

> <Gold.Chemscore.Hbonds>
donor molecule, donor type, donor heavy atom, donor atom, acceptor molecule, acceptor atom, score
      L1  H    18    38       P1 10175  1.61
      P1  H  7997  8009       L1     3  1.00
      L1  C    16    35       P1  8028  0.55
      L1  C    19    37       P1  7957  0.84

> <Gold.PLP.Chemscore.Internal.Correction>
2.1043

> <Gold.Rescore>
     Score         DG    S(hbond)    S(metal)    S(lipo)     H(rot)  DE(clash)    DE(int)     intcor
     11.61     -14.68       1.98        0.00      67.89       2.10       0.10       2.98       ----

> <Gold.Chemscore.Fitness>
11.6090

> <Gold.Chemscore.DG>
-14.6848

> <Gold.Chemscore.ZeroCoef>
-5.4800

> <Gold.Chemscore.Hbond>
1.9839

> <Gold.Chemscore.Metal>
0.0000

> <Gold.Chemscore.Lipo>
67.8877

> <Gold.Chemscore.Internal_Hbond>
0.0000

> <Gold.Chemscore.DEClash>
0.0958

> <Gold.Chemscore.DEInternal>
2.9799

> <Gold.Chemscore.Rot>
2.0954

> <Gold.Chemscore.Internal.Correction>
   9.000000E+99

> <Gold.Chemscore.Hbonds>
donor molecule, donor type, donor heavy atom, donor atom, acceptor molecule, acceptor atom, score
      L1  H    18    38       P1 10175  0.15
      P1  H  7997  8009       L1     3  1.00

> <Gold.Chemscore.Hbond.Weighted>
-6.6262

> <Gold.Chemscore.Metal.Weighted>
-0.0000

> <Gold.Chemscore.Lipo.Weighted>
-7.9429

> <Gold.Chemscore.Internal_Hbond.Weighted>
0.0000

> <Gold.Chemscore.DEClash.Weighted>
0.0958

> <Gold.Chemscore.DEInternal.Weighted>
2.9799

> <Gold.Chemscore.Rot.Weighted>
5.3643

> <Gold.Chemscore.Internal.Correction.Weighted>
   9.000000E+99

> <Gold.Protein.RotatedTorsions>
[ 6907 6896 6895 6894 ] final -105.53 input  -60.11 | X-H torsion
[ 7974 7965 7964 7962 ] final  -64.54 input  175.53 | X-H torsion
[ 8008 7997 7996 7995 ] final  116.74 input   59.86 | X-H torsion
[ 10167 10162 10161 10158 ] final  -51.22 input  -65.29 | X-H torsion
[ 10718 10713 10712 10709 ] final   59.54 input   66.30 | X-H torsion
[ 10763 10752 10751 10750 ] final  -68.91 input  -60.55 | X-H torsion
[ 11005 11000 10999 10996 ] final  -78.52 input  -57.11 | X-H torsion

> <Gold.Protein.ActiveResidues>
 VAL166  LYS551  ARG553  GLY616  TRP617  ASP618  TYR619  PRO620  LYS621  CYS622 
 ASP623  PHE694  ASN695  SER759  ASP760  ASP761  ALA762  ILE779  LEU786  VAL792 
 PHE793  MET794  SER795  GLU796  ALA797  LYS798  CYS799  TRP800  GLU811  SER814 

> <Gold.Protein.RotatedAtoms>
  150.7342  134.0112  159.3670 H   0  0  0  0  0  0  0  0  0  0  0  0  # atno 6907 bound_to 6896
  151.8072  135.0689  160.0417 H   0  0  0  0  0  0  0  0  0  0  0  0  # atno 6908 bound_to 6896
  152.3098  133.5705  159.5710 H   0  0  0  0  0  0  0  0  0  0  0  0  # atno 6909 bound_to 6896
  145.7654  140.8840  143.0408 H   0  0  0  0  0  0  0  0  0  0  0  0  # atno 7974 bound_to 7965
  156.2456  140.2911  156.0569 H   0  0  0  0  0  0  0  0  0  0  0  0  # atno 8008 bound_to 7997
  155.1818  140.0404  157.2901 H   0  0  0  0  0  0  0  0  0  0  0  0  # atno 8009 bound_to 7997
  154.6254  140.2486  155.7505 H   0  0  0  0  0  0  0  0  0  0  0  0  # atno 8010 bound_to 7997
  140.6599  143.2628  151.4472 H   0  0  0  0  0  0  0  0  0  0  0  0  # atno 10167 bound_to 10162
  157.5683  130.8888  149.9224 H   0  0  0  0  0  0  0  0  0  0  0  0  # atno 10718 bound_to 10713
  154.3959  135.6042  153.5869 H   0  0  0  0  0  0  0  0  0  0  0  0  # atno 10763 bound_to 10752
  152.9787  135.5895  154.4242 H   0  0  0  0  0  0  0  0  0  0  0  0  # atno 10764 bound_to 10752
  154.4034  135.2843  155.2061 H   0  0  0  0  0  0  0  0  0  0  0  0  # atno 10765 bound_to 10752
  141.1665  133.7067  156.7984 H   0  0  0  0  0  0  0  0  0  0  0  0  # atno 11005 bound_to 11000
  144.6822  139.9781  143.7483 LP  0  0  0  0  0  0  0  0  0  0  0  0  # atno 17320 bound_to 7965
  146.0222  139.3261  143.0806 LP  0  0  0  0  0  0  0  0  0  0  0  0  # atno 17321 bound_to 7965
  139.5830  144.1666  152.1993 LP  0  0  0  0  0  0  0  0  0  0  0  0  # atno 17342 bound_to 10162
  140.0997  144.5550  150.6997 LP  0  0  0  0  0  0  0  0  0  0  0  0  # atno 17343 bound_to 10162
  156.0730  130.3682  150.0736 LP  0  0  0  0  0  0  0  0  0  0  0  0  # atno 17370 bound_to 10713
  156.8892  130.9583  151.3590 LP  0  0  0  0  0  0  0  0  0  0  0  0  # atno 17371 bound_to 10713
  140.2274  134.8711  157.3441 LP  0  0  0  0  0  0  0  0  0  0  0  0  # atno 17394 bound_to 11000
  140.1926  134.4353  155.7707 LP  0  0  0  0  0  0  0  0  0  0  0  0  # atno 17395 bound_to 11000

$$$$
