#       Name:                AV-unprocessed.smi:17
#       Creating user name   scv26
#       Creation time:       Thu Mar 26 15:26:03 2020


#       File generated by GOLD software.
#

@<TRIPOS>MOLECULE
AV-unprocessed.smi:17
    64    66     1
SMALL
NO_CHARGES


@<TRIPOS>ATOM
      1 ****        -3.0454  -1.1289  -2.2570 C.3            1 S1                 0.0000
      2 ****        -3.5528  -0.3398  -1.0386 C.3            1 S1                 0.0000
      3 ****        -2.9544   0.9938  -0.9217 N.pl3          1 S1                 0.0000
      4 ****        -1.5986   1.0708  -0.8195 C.ar           1 S1                 0.0000
      5 ****        -0.9228   1.9448  -1.6129 N.ar           1 S1                 0.0000
      6 ****         0.4089   2.0289  -1.5544 C.ar           1 S1                 0.0000
      7 ****         1.2543   1.3413  -0.7860 N.ar           1 S1                 0.0000
      8 ****         0.5870   0.4655   0.0174 C.ar           1 S1                 0.0000
      9 ****        -0.8229   0.2661   0.0663 C.ar           1 S1                 0.0000
     10 ****        -1.1226  -0.7034   1.0174 N.2            1 S1                 0.0000
     11 ****         0.0379  -1.0602   1.4946 C.2            1 S1                 0.0000
     12 ****         1.1191  -0.4123   0.9440 N.pl3          1 S1                 0.0000
     13 ****         2.5179  -0.6118   1.2785 C.3            1 S1                 0.0000
     14 ****         3.2820  -1.4282   0.2034 C.3            1 S1                 0.0000
     15 ****         2.5940  -2.7672  -0.1531 C.3            1 S1                 0.0000
     16 ****         2.4521  -3.6048   0.9758 O.3            1 S1                 0.0000
     17 ****         4.8007  -1.6052   0.4744 C.3            1 S1                 0.0000
     18 ****         5.6197  -0.3281   0.5200 C.3            1 S1                 0.0000
     19 ****         6.9257  -0.8280   1.1274 C.3            1 S1                 0.0000
     20 ****         6.5531  -1.8574   2.0385 O.3            1 S1                 0.0000
     21 ****         5.2123  -2.2742   1.7911 C.3            1 S1                 0.0000
     22 ****        -3.7119   2.1923  -1.3113 C.3            1 S1                 0.0000
     23 ****        -4.0956   2.1655  -2.8010 C.3            1 S1                 0.0000
     24 ****        -4.9440   2.4357  -0.4124 C.3            1 S1                 0.0000
     25 ****        -4.4999   2.8833   1.3293 S.o2           1 S1                 0.0000
     26 ****        -4.3212   1.2415   2.1420 C.3            1 S1                 0.0000
     27 ****        -3.1860   3.5448   1.3419 O.2            1 S1                 0.0000
     28 ****        -5.6616   3.5526   1.9340 O.2            1 S1                 0.0000
     29 ****        -3.5531  -2.0906  -2.3285 H              1 S1                 0.0000
     30 ****        -1.9757  -1.3289  -2.1904 H              1 S1                 0.0000
     31 ****        -3.2269  -0.5902  -3.1868 H              1 S1                 0.0000
     32 ****        -4.6342  -0.2424  -1.1230 H              1 S1                 0.0000
     33 ****        -3.3884  -0.9099  -0.1259 H              1 S1                 0.0000
     34 ****         0.8614   2.7484  -2.2206 H              1 S1                 0.0000
     35 ****         0.1390  -1.8149   2.2610 H              1 S1                 0.0000
     36 ****         2.9647   0.3723   1.4138 H              1 S1                 0.0000
     37 ****         2.5622  -1.1078   2.2477 H              1 S1                 0.0000
     38 ****         3.2300  -0.8365  -0.7116 H              1 S1                 0.0000
     39 ****         1.6058  -2.5928  -0.5795 H              1 S1                 0.0000
     40 ****         3.1643  -3.2990  -0.9151 H              1 S1                 0.0000
     41 ****         2.0380  -4.4094   0.7029 H              1 S1                 0.0000
     42 ****         5.2130  -2.2069  -0.3376 H              1 S1                 0.0000
     43 ****         5.7576   0.1283  -0.4605 H              1 S1                 0.0000
     44 ****         5.1725   0.4125   1.1824 H              1 S1                 0.0000
     45 ****         7.5622  -1.2613   0.3548 H              1 S1                 0.0000
     46 ****         7.4871  -0.0369   1.6249 H              1 S1                 0.0000
     47 ****         4.6016  -1.9381   2.6278 H              1 S1                 0.0000
     48 ****         5.1458  -3.3612   1.7422 H              1 S1                 0.0000
     49 ****        -3.0782   3.0690  -1.1777 H              1 S1                 0.0000
     50 ****        -4.5642   3.1034  -3.0995 H              1 S1                 0.0000
     51 ****        -4.7984   1.3620  -3.0220 H              1 S1                 0.0000
     52 ****        -3.2178   2.0257  -3.4323 H              1 S1                 0.0000
     53 ****        -5.5043   3.2836  -0.8072 H              1 S1                 0.0000
     54 ****        -5.6332   1.5926  -0.3975 H              1 S1                 0.0000
     55 ****        -4.1805   1.3855   3.2130 H              1 S1                 0.0000
     56 ****        -3.4554   0.7186   1.7424 H              1 S1                 0.0000
     57 ****        -5.2192   0.6476   1.9741 H              1 S1                 0.0000
     58 ****        -1.4282   2.5305  -2.2466 LP             1 S1                 0.0000
     59 ****         2.2479   1.4535  -0.7976 LP             1 S1                 0.0000
     60 ****        -2.0244  -1.0490   1.2769 LP             1 S1                 0.0000
     61 ****         1.8858  -3.1506   1.6636 LP             1 S1                 0.0000
     62 ****         3.3522  -3.8035   1.3635 LP             1 S1                 0.0000
     63 ****         6.6239  -1.5116   2.9742 LP             1 S1                 0.0000
     64 ****         7.1678  -2.6378   1.9241 LP             1 S1                 0.0000
@<TRIPOS>BOND
    1    1    2 1     
    2    1   29 1     
    3    1   30 1     
    4    1   31 1     
    5    2    3 1     
    6    2   32 1     
    7    2   33 1     
    8    3    4 1     
    9    3   22 1     
   10    4    9 ar    
   11    4    5 ar    
   12    5    6 ar    
   13    6    7 ar    
   14    6   34 1     
   15    7    8 ar    
   16    8   12 1     
   17    8    9 ar    
   18    9   10 1     
   19   10   11 2     
   20   11   12 1     
   21   11   35 1     
   22   12   13 1     
   23   13   14 1     
   24   13   36 1     
   25   13   37 1     
   26   14   15 1     
   27   14   17 1     
   28   14   38 1     
   29   15   16 1     
   30   15   39 1     
   31   15   40 1     
   32   16   41 1     
   33   17   21 1     
   34   17   18 1     
   35   17   42 1     
   36   18   19 1     
   37   18   43 1     
   38   18   44 1     
   39   19   20 1     
   40   19   45 1     
   41   19   46 1     
   42   20   21 1     
   43   21   47 1     
   44   21   48 1     
   45   22   23 1     
   46   22   24 1     
   47   22   49 1     
   48   23   50 1     
   49   23   51 1     
   50   23   52 1     
   51   24   25 1     
   52   24   53 1     
   53   24   54 1     
   54   25   26 1     
   55   25   27 2     
   56   25   28 2     
   57   26   55 1     
   58   26   56 1     
   59   26   57 1     
   60    5   58 1     
   61    7   59 1     
   62   10   60 1     
   63   16   61 1     
   64   16   62 1     
   65   20   63 1     
   66   20   64 1     
@<TRIPOS>SUBSTRUCTURE
      1 S1             1
@<TRIPOS>SET
LONE_PAIRS      STATIC     ATOMS    <user>   **** ""
9 58 59 60 61 62 63 64 27 28
DONOR_HYDROGENS      STATIC     ATOMS    <user>   **** ""
1 41
ATOM$BLUE        STATIC     ATOMS    COLORGROUP SYSTEM
9 58 59 60 61 62 63 64 27 28
ATOM$RED        STATIC     ATOMS    COLORGROUP SYSTEM
1 41
