AV-unprocessed.smi:1656|AV-procd|sdf|6646|dock10
  -GOLD-   22720 7353D 1   1.00000     0.00000
 Structure written by MMmdl.
 49 52  0  0  0  0  0  0  0  0  1 V2000
  146.9326  138.9279  154.9940 C   0  0  0  0  0  0  0  0  0  0  0  0
  148.2779  138.3095  155.2638 C   0  0  0  0  0  0  0  0  0  0  0  0
  148.2860  137.2070  155.9382 N   0  0  0  0  0  0  0  0  0  0  0  0
  149.4667  136.5534  156.2342 N   0  0  0  0  0  0  0  0  0  0  0  0
  149.2885  135.2948  156.9732 C   0  0  0  0  0  0  0  0  0  0  0  0
  148.9359  135.5132  158.4516 C   0  0  0  0  0  0  0  0  0  0  0  0
  149.7130  136.1142  159.1941 O   0  0  0  0  0  0  0  0  0  0  0  0
  147.7610  134.9995  158.8553 N   0  0  0  0  0  0  0  0  0  0  0  0
  147.1506  135.0670  160.1873 C   0  0  0  0  0  0  0  0  0  0  0  0
  145.6345  134.7315  160.1406 C   0  0  0  0  0  0  0  0  0  0  0  0
  145.0222  134.8745  161.5511 C   0  0  1  0  0  0  0  0  0  0  0  0
  145.7334  133.9083  162.5235 C   0  0  0  0  0  0  0  0  0  0  0  0
  147.2359  134.2591  162.5893 C   0  0  2  0  0  0  0  0  0  0  0  0
  147.4078  135.7099  163.0850 C   0  0  0  0  0  0  0  0  0  0  0  0
  146.6961  136.6676  162.1070 C   0  0  2  0  0  0  0  0  0  0  0  0
  145.1931  136.3258  162.0462 C   0  0  0  0  0  0  0  0  0  0  0  0
  147.3144  136.5206  160.7005 C   0  0  0  0  0  0  0  0  0  0  0  0
  147.8617  134.1121  161.1855 C   0  0  0  0  0  0  0  0  0  0  0  0
  150.7083  136.9930  155.8778 C   0  0  0  0  0  0  0  0  0  0  0  0
  151.7371  136.3835  156.1742 O   0  0  0  0  0  0  0  0  0  0  0  0
  150.6914  138.2423  155.1137 C   0  0  0  0  0  0  0  0  0  0  0  0
  151.9701  138.7308  154.7094 C   0  0  0  0  0  0  0  0  0  0  0  0
  152.9985  139.1440  154.3745 N   0  0  0  0  0  0  0  0  0  0  0  0
  149.5380  138.8878  154.8080 C   0  0  0  0  0  0  0  0  0  0  0  0
  149.4665  140.1852  154.0145 C   0  0  0  0  0  0  0  0  0  0  0  0
  146.8529  139.9038  155.4733 H   0  0  0  0  0  0  0  0  0  0  0  0
  146.1170  138.3082  155.3698 H   0  0  0  0  0  0  0  0  0  0  0  0
  146.7752  139.0617  153.9237 H   0  0  0  0  0  0  0  0  0  0  0  0
  148.5176  134.6888  156.4929 H   0  0  0  0  0  0  0  0  0  0  0  0
  150.2002  134.6965  156.9295 H   0  0  0  0  0  0  0  0  0  0  0  0
  147.2140  134.5225  158.1534 H   0  0  0  0  0  0  0  0  0  0  0  0
  145.1203  135.3923  159.4414 H   0  0  0  0  0  0  0  0  0  0  0  0
  145.4664  133.7163  159.7809 H   0  0  0  0  0  0  0  0  0  0  0  0
  143.9606  134.6295  161.5100 H   0  0  0  0  0  0  0  0  0  0  0  0
  145.2867  133.9747  163.5163 H   0  0  0  0  0  0  0  0  0  0  0  0
  145.6010  132.8768  162.1946 H   0  0  0  0  0  0  0  0  0  0  0  0
  147.7366  133.5799  163.2800 H   0  0  0  0  0  0  0  0  0  0  0  0
  146.9948  135.8185  164.0887 H   0  0  0  0  0  0  0  0  0  0  0  0
  148.4665  135.9618  163.1582 H   0  0  0  0  0  0  0  0  0  0  0  0
  146.8202  137.6946  162.4518 H   0  0  0  0  0  0  0  0  0  0  0  0
  144.6748  137.0165  161.3800 H   0  0  0  0  0  0  0  0  0  0  0  0
  144.7379  136.4460  163.0301 H   0  0  0  0  0  0  0  0  0  0  0  0
  148.3700  136.7949  160.7318 H   0  0  0  0  0  0  0  0  0  0  0  0
  146.8373  137.2213  160.0134 H   0  0  0  0  0  0  0  0  0  0  0  0
  147.7778  133.0738  160.8643 H   0  0  0  0  0  0  0  0  0  0  0  0
  148.9293  134.3330  161.2272 H   0  0  0  0  0  0  0  0  0  0  0  0
  150.4540  140.5722  153.7655 H   0  0  0  0  0  0  0  0  0  0  0  0
  148.9485  140.9574  154.5840 H   0  0  0  0  0  0  0  0  0  0  0  0
  148.9290  140.0291  153.0786 H   0  0  0  0  0  0  0  0  0  0  0  0
  1  2  1  0  0  0  0
  1 26  1  0  0  0  0
  1 27  1  0  0  0  0
  1 28  1  0  0  0  0
  2 24  1  0  0  0  0
  2  3  2  0  0  0  0
  3  4  1  0  0  0  0
  4  5  1  0  0  0  0
  4 19  1  0  0  0  0
  5  6  1  0  0  0  0
  5 29  1  0  0  0  0
  5 30  1  0  0  0  0
  6  7  2  0  0  0  0
  6  8  1  0  0  0  0
  8  9  1  0  0  0  0
  8 31  1  0  0  0  0
  9 17  1  0  0  0  0
  9 18  1  0  0  0  0
  9 10  1  0  0  0  0
 10 11  1  0  0  0  0
 10 32  1  0  0  0  0
 10 33  1  0  0  0  0
 11 16  1  0  0  0  0
 11 12  1  0  0  0  0
 11 34  1  0  0  0  0
 12 13  1  0  0  0  0
 12 35  1  0  0  0  0
 12 36  1  0  0  0  0
 13 14  1  0  0  0  0
 13 18  1  0  0  0  0
 13 37  1  0  0  0  0
 14 15  1  0  0  0  0
 14 38  1  0  0  0  0
 14 39  1  0  0  0  0
 15 16  1  0  0  0  0
 15 17  1  0  0  0  0
 15 40  1  0  0  0  0
 16 41  1  0  0  0  0
 16 42  1  0  0  0  0
 17 43  1  0  0  0  0
 17 44  1  0  0  0  0
 18 45  1  0  0  0  0
 18 46  1  0  0  0  0
 19 20  2  0  0  0  0
 19 21  1  0  0  0  0
 21 22  1  0  0  0  0
 21 24  2  0  0  0  0
 22 23  3  0  0  0  0
 24 25  1  0  0  0  0
 25 47  1  0  0  0  0
 25 48  1  0  0  0  0
 25 49  1  0  0  0  0
M  END
> <s_m_source_file>
AV-unprocessed.smi

> <i_m_source_file_index>
1656

> <i_lp_mmshare_version>
43012

> <i_f3d_flags>
0

> <s_epik_input>
TiNDYyhjMVtDSDNdKWMoPU8pbihuYzFbQ0gzXSlbQ0gyXUMoPU8pW05IXUMyM1tDSDJdW0NASF00W0NIMl1bQ0BASF0oW0NIMl0zKVtDSDJdW0NASF0oW0NIMl00KVtDSDJdMg==

> <s_epik_cmdline>
J2VwaWtfcHl0aG9uJywgJy1waCcsICc3LjAnLCAnLXRuJywgJzgnLCAnLW1hJywgJzIwMCcsICctbWV0YWxfYmluZGluZycsICctaW1hZScsICc8aW5maWxlLm1hZT4nLCAnLW9tYWUnLCAnPG91dGZpbGUubWFlPic=

> <r_lp_tautomer_probability>
1

> <r_epik_Ionization_Penalty>
2.33831e-08

> <r_epik_Ionization_Penalty_Charging>
2.51001e-11

> <r_epik_Ionization_Penalty_Neutral>
2.3358e-08

> <r_epik_State_Penalty>
-0

> <r_epik_Charging_Adjusted_Penalty>
2.51001e-11

> <i_epik_Tot_Q>
0

> <i_epik_Tot_abs_Q>
0

> <r_epik_Metal_State_Penalty>
-0

> <b_epik_Metal_Only>
0

> <s_lp_Force_Field>
OPLS_2005

> <r_lp_Energy>
45.1543

> <b_lp_Chiralities_Consistent>
1

> <s_lp_Variant>
AV-unprocessed.smi:1656-1

> <Gold.Version>
5.8.1

> <Gold.Id.Protein>
6NUR|6NUR_protein|mol2

> <Gold.PLP.Fitness>
45.0158

> <Gold.PLP.PLP>
-37.0008

> <Gold.PLP.part.hbond>
-3.8175

> <Gold.PLP.part.metal>
0.0000

> <Gold.PLP.part.buried>
-3.5314

> <Gold.PLP.part.nonpolar>
-31.1481

> <Gold.PLP.part.repulsive>
0.1046

> <Gold.PLP.ligand.clash>
0.0000

> <Gold.PLP.ligand.torsion>
0.4816

> <Gold.PLP.Chemscore.Hbond>
2.9913

> <Gold.PLP.Chemscore.CHOScore>
0.0000

> <Gold.PLP.Chemscore.Metal>
0.0000

> <Gold.Chemscore.Hbonds>
donor molecule, donor type, donor heavy atom, donor atom, acceptor molecule, acceptor atom, score
      P1  H  6896  6909       L1     7  0.70
      P1  H  7989  7998       L1    23  0.02
      P1  H  7997  8010       L1    23  0.24
      P1  H 10752 10765       L1    20  1.00

> <Gold.PLP.Chemscore.Internal.Correction>
0.0045

> <Gold.Rescore>
     Score         DG    S(hbond)    S(metal)    S(lipo)     H(rot)  DE(clash)    DE(int)     intcor
     19.63     -22.03       2.95        0.00      88.92       1.44       1.32       1.08       ----

> <Gold.Chemscore.Fitness>
19.6296

> <Gold.Chemscore.DG>
-22.0312

> <Gold.Chemscore.ZeroCoef>
-5.4800

> <Gold.Chemscore.Hbond>
2.9476

> <Gold.Chemscore.Metal>
0.0000

> <Gold.Chemscore.Lipo>
88.9181

> <Gold.Chemscore.Internal_Hbond>
0.0000

> <Gold.Chemscore.DEClash>
1.3249

> <Gold.Chemscore.DEInternal>
1.0767

> <Gold.Chemscore.Rot>
1.4442

> <Gold.Chemscore.Internal.Correction>
   9.000000E+99

> <Gold.Chemscore.Hbonds>
donor molecule, donor type, donor heavy atom, donor atom, acceptor molecule, acceptor atom, score
      P1  H  6896  6909       L1     7  0.07
      P1  H  7997  8010       L1    23  0.25
      P1  H 10752 10765       L1    20  0.95

> <Gold.Chemscore.Hbond.Weighted>
-9.8449

> <Gold.Chemscore.Metal.Weighted>
-0.0000

> <Gold.Chemscore.Lipo.Weighted>
-10.4034

> <Gold.Chemscore.Internal_Hbond.Weighted>
0.0000

> <Gold.Chemscore.DEClash.Weighted>
1.3249

> <Gold.Chemscore.DEInternal.Weighted>
1.0767

> <Gold.Chemscore.Rot.Weighted>
3.6971

> <Gold.Chemscore.Internal.Correction.Weighted>
   9.000000E+99

> <Gold.Protein.RotatedTorsions>
[ 6907 6896 6895 6894 ] final   52.13 input  -60.11 | X-H torsion
[ 7974 7965 7964 7962 ] final  122.87 input  175.53 | X-H torsion
[ 8008 7997 7996 7995 ] final  109.68 input   59.86 | X-H torsion
[ 10167 10162 10161 10158 ] final   39.71 input  -65.29 | X-H torsion
[ 10718 10713 10712 10709 ] final  151.82 input   66.30 | X-H torsion
[ 10763 10752 10751 10750 ] final -153.24 input  -60.55 | X-H torsion
[ 11005 11000 10999 10996 ] final -148.41 input  -57.11 | X-H torsion

> <Gold.Protein.ActiveResidues>
 VAL166  LYS551  ARG553  GLY616  TRP617  ASP618  TYR619  PRO620  LYS621  CYS622 
 ASP623  PHE694  ASN695  SER759  ASP760  ASP761  ALA762  ILE779  LEU786  VAL792 
 PHE793  MET794  SER795  GLU796  ALA797  LYS798  CYS799  TRP800  GLU811  SER814 

> <Gold.Protein.RotatedAtoms>
  152.3200  134.7392  160.0315 H   0  0  0  0  0  0  0  0  0  0  0  0  # atno 6907 bound_to 6896
  151.7844  133.3347  159.3489 H   0  0  0  0  0  0  0  0  0  0  0  0  # atno 6908 bound_to 6896
  150.7365  134.5832  159.5994 H   0  0  0  0  0  0  0  0  0  0  0  0  # atno 6909 bound_to 6896
  145.1025  139.3508  143.4804 H   0  0  0  0  0  0  0  0  0  0  0  0  # atno 7974 bound_to 7965
  156.1997  140.3053  155.9501 H   0  0  0  0  0  0  0  0  0  0  0  0  # atno 8008 bound_to 7997
  155.2983  140.0445  157.3045 H   0  0  0  0  0  0  0  0  0  0  0  0  # atno 8009 bound_to 7997
  154.5555  140.2304  155.8426 H   0  0  0  0  0  0  0  0  0  0  0  0  # atno 8010 bound_to 7997
  140.3813  144.1976  150.6130 H   0  0  0  0  0  0  0  0  0  0  0  0  # atno 10167 bound_to 10162
  157.2658  131.0807  151.1634 H   0  0  0  0  0  0  0  0  0  0  0  0  # atno 10718 bound_to 10713
  154.7941  135.3217  154.7708 H   0  0  0  0  0  0  0  0  0  0  0  0  # atno 10763 bound_to 10752
  153.8390  135.6872  153.4809 H   0  0  0  0  0  0  0  0  0  0  0  0  # atno 10764 bound_to 10752
  153.1624  135.4655  154.9732 H   0  0  0  0  0  0  0  0  0  0  0  0  # atno 10765 bound_to 10752
  140.7615  134.3292  157.5100 H   0  0  0  0  0  0  0  0  0  0  0  0  # atno 11005 bound_to 11000
  146.3529  140.0909  142.8612 LP  0  0  0  0  0  0  0  0  0  0  0  0  # atno 17320 bound_to 7965
  145.0939  140.9302  143.4753 LP  0  0  0  0  0  0  0  0  0  0  0  0  # atno 17321 bound_to 7965
  140.4935  143.2340  151.8784 LP  0  0  0  0  0  0  0  0  0  0  0  0  # atno 17342 bound_to 10162
  139.4795  144.5140  151.8894 LP  0  0  0  0  0  0  0  0  0  0  0  0  # atno 17343 bound_to 10162
  157.3126  130.6897  149.6224 LP  0  0  0  0  0  0  0  0  0  0  0  0  # atno 17370 bound_to 10713
  155.9663  130.4359  150.5111 LP  0  0  0  0  0  0  0  0  0  0  0  0  # atno 17371 bound_to 10713
  139.8770  134.9205  156.3252 LP  0  0  0  0  0  0  0  0  0  0  0  0  # atno 17394 bound_to 11000
  140.9658  133.7359  156.0465 LP  0  0  0  0  0  0  0  0  0  0  0  0  # atno 17395 bound_to 11000

$$$$
