AV-unprocessed.smi:3189|AV-procd|sdf|12194|dock3
  -GOLD-   2272018 33D 1   1.00000     0.00000
 Structure written by MMmdl.
 31 32  0  0  0  0  0  0  0  0  2 V2000
  146.8297  139.1979  153.0511 C   0  0  0  0  0  0  0  0  0  0  0  0
  148.1629  139.4441  153.7309 C   0  0  0  0  0  0  0  0  0  0  0  0
  149.0914  138.4641  153.6679 N   0  3  0  0  0  0  0  0  0  0  0  0
  150.3085  138.5661  154.2412 C   0  0  0  0  0  0  0  0  0  0  0  0
  150.6605  139.7377  154.9390 C   0  0  0  0  0  0  0  0  0  0  0  0
  149.7305  140.8048  155.0213 C   0  0  0  0  0  0  0  0  0  0  0  0
  149.9957  142.0158  155.7182 N   0  0  0  0  0  0  0  0  0  0  0  0
  150.9049  142.2554  156.6833 C   0  0  0  0  0  0  0  0  0  0  0  0
  151.6791  141.4156  157.1376 O   0  0  0  0  0  0  0  0  0  0  0  0
  150.9516  143.5372  157.0863 N   0  0  0  0  0  0  0  0  0  0  0  0
  151.8040  144.1047  158.0866 C   0  0  1  0  0  0  0  0  0  0  0  0
  151.1311  144.9248  159.1647 C   0  0  0  0  0  0  0  0  0  0  0  0
  151.7091  143.5749  159.5016 C   0  0  2  0  0  0  0  0  0  0  0  0
  152.9423  143.4727  160.3728 C   0  0  0  0  0  0  0  0  0  0  0  0
  148.4584  140.6449  154.4183 C   0  0  0  0  0  0  0  0  0  0  0  0
  147.2754  141.9066  154.5133 Cl  0  0  0  0  0  0  0  0  0  0  0  0
  146.6570  139.9428  152.2738 H   0  0  0  0  0  0  0  0  0  0  0  0
  146.0177  139.2603  153.7763 H   0  0  0  0  0  0  0  0  0  0  0  0
  146.7942  138.2110  152.5883 H   0  0  0  0  0  0  0  0  0  0  0  0
  150.9586  137.7103  154.1303 H   0  0  0  0  0  0  0  0  0  0  0  0
  151.6316  139.7901  155.4073 H   0  0  0  0  0  0  0  0  0  0  0  0
  149.4956  142.8254  155.3801 H   0  0  0  0  0  0  0  0  0  0  0  0
  150.3763  144.1927  156.5767 H   0  0  0  0  0  0  0  0  0  0  0  0
  152.7716  144.4856  157.7619 H   0  0  0  0  0  0  0  0  0  0  0  0
  151.6575  145.8068  159.5242 H   0  0  0  0  0  0  0  0  0  0  0  0
  150.0464  145.0116  159.1399 H   0  0  0  0  0  0  0  0  0  0  0  0
  150.9895  142.7751  159.6683 H   0  0  0  0  0  0  0  0  0  0  0  0
  153.6229  144.3031  160.1814 H   0  0  0  0  0  0  0  0  0  0  0  0
  153.4676  142.5395  160.1685 H   0  0  0  0  0  0  0  0  0  0  0  0
  152.6599  143.4907  161.4256 H   0  0  0  0  0  0  0  0  0  0  0  0
  148.8594  137.6051  153.1684 H   0  0  0  0  0  0  0  0  0  0  0  0
  1  2  1  0  0  0  0
  1 17  1  0  0  0  0
  1 18  1  0  0  0  0
  1 19  1  0  0  0  0
  2 15  1  0  0  0  0
  2  3  2  0  0  0  0
  3  4  1  0  0  0  0
  3 31  1  0  0  0  0
  4  5  2  0  0  0  0
  4 20  1  0  0  0  0
  5  6  1  0  0  0  0
  5 21  1  0  0  0  0
  6  7  1  0  0  0  0
  6 15  2  0  0  0  0
  7  8  1  0  0  0  0
  7 22  1  0  0  0  0
  8  9  2  0  0  0  0
  8 10  1  0  0  0  0
 10 11  1  0  0  0  0
 10 23  1  0  0  0  0
 11 13  1  0  0  0  0
 11 12  1  0  0  0  0
 11 24  1  0  0  0  0
 12 13  1  0  0  0  0
 12 25  1  0  0  0  0
 12 26  1  0  0  0  0
 13 14  1  0  0  0  0
 13 27  1  0  0  0  0
 14 28  1  0  0  0  0
 14 29  1  0  0  0  0
 14 30  1  0  0  0  0
 15 16  1  0  0  0  0
M  CHG  1   3   1
M  END
> <s_m_source_file>
AV-unprocessed.smi

> <i_m_source_file_index>
3189

> <i_lp_mmshare_version>
43012

> <i_f3d_flags>
0

> <s_epik_input>
W0NIM11jMW5bY0hdW2NIXWMoYzFDbClbTkhdQyg9TylbTkhdW0NAQEhdMltDSDJdW0NASF0yW0NIM10=

> <s_epik_cmdline>
J2VwaWtfcHl0aG9uJywgJy1waCcsICc3LjAnLCAnLXRuJywgJzgnLCAnLW1hJywgJzIwMCcsICctbWV0YWxfYmluZGluZycsICctaW1hZScsICc8aW5maWxlLm1hZT4nLCAnLW9tYWUnLCAnPG91dGZpbGUubWFlPic=

> <r_epik_Ionization_Penalty>
2.42914

> <r_epik_Ionization_Penalty_Charging>
2.42912

> <r_epik_Ionization_Penalty_Neutral>
2.15137e-05

> <r_epik_State_Penalty>
2.58904

> <r_epik_Charging_Adjusted_Penalty>
5.01816

> <i_epik_Tot_Q>
1

> <i_epik_Tot_abs_Q>
1

> <r_epik_Metal_State_Penalty>
2.59882

> <b_epik_Metal_Only>
0

> <s_lp_Force_Field>
OPLS_2005

> <r_lp_Energy>
37.5643

> <b_lp_Chiralities_Consistent>
1

> <s_lp_Variant>
AV-unprocessed.smi:3189-8

> <Gold.Version>
5.8.1

> <Gold.Id.Protein>
6NUR|6NUR_protein|mol2

> <Gold.PLP.Fitness>
51.7364

> <Gold.PLP.PLP>
-40.2115

> <Gold.PLP.part.hbond>
-4.0000

> <Gold.PLP.part.metal>
0.0000

> <Gold.PLP.part.buried>
-0.3286

> <Gold.PLP.part.nonpolar>
-35.5880

> <Gold.PLP.part.repulsive>
0.2439

> <Gold.PLP.ligand.clash>
0.0000

> <Gold.PLP.ligand.torsion>
0.1353

> <Gold.PLP.Chemscore.Hbond>
3.9200

> <Gold.PLP.Chemscore.CHOScore>
0.0000

> <Gold.PLP.Chemscore.Metal>
0.0000

> <Gold.Chemscore.Hbonds>
donor molecule, donor type, donor heavy atom, donor atom, acceptor molecule, acceptor atom, score
      L1  H     3    31       P1  7948  2.00
      L1  H     7    22       P1  8028  0.99
      L1  H    10    23       P1  8028  1.00

> <Gold.PLP.Chemscore.Internal.Correction>
0.0354

> <Gold.Rescore>
     Score         DG    S(hbond)    S(metal)    S(lipo)     H(rot)  DE(clash)    DE(int)     intcor
     22.03     -23.60       2.78        0.00      97.30       1.00       0.27       1.29       ----

> <Gold.Chemscore.Fitness>
22.0345

> <Gold.Chemscore.DG>
-23.5980

> <Gold.Chemscore.ZeroCoef>
-5.4800

> <Gold.Chemscore.Hbond>
2.7825

> <Gold.Chemscore.Metal>
0.0000

> <Gold.Chemscore.Lipo>
97.3023

> <Gold.Chemscore.Internal_Hbond>
0.0000

> <Gold.Chemscore.DEClash>
0.2741

> <Gold.Chemscore.DEInternal>
1.2894

> <Gold.Chemscore.Rot>
1.0000

> <Gold.Chemscore.Internal.Correction>
   9.000000E+99

> <Gold.Chemscore.Hbonds>
donor molecule, donor type, donor heavy atom, donor atom, acceptor molecule, acceptor atom, score
      L1  H     3    31       P1  7948  0.99
      L1  H     7    22       P1  8028  0.91
      L1  H    10    23       P1  8028  0.98

> <Gold.Chemscore.Hbond.Weighted>
-9.2936

> <Gold.Chemscore.Metal.Weighted>
-0.0000

> <Gold.Chemscore.Lipo.Weighted>
-11.3844

> <Gold.Chemscore.Internal_Hbond.Weighted>
0.0000

> <Gold.Chemscore.DEClash.Weighted>
0.2741

> <Gold.Chemscore.DEInternal.Weighted>
1.2894

> <Gold.Chemscore.Rot.Weighted>
2.5600

> <Gold.Chemscore.Internal.Correction.Weighted>
   9.000000E+99

> <Gold.Protein.RotatedTorsions>
[ 6907 6896 6895 6894 ] final  178.52 input  -60.11 | X-H torsion
[ 7974 7965 7964 7962 ] final  -61.38 input  175.53 | X-H torsion
[ 8008 7997 7996 7995 ] final  -43.88 input   59.86 | X-H torsion
[ 10167 10162 10161 10158 ] final   42.64 input  -65.29 | X-H torsion
[ 10718 10713 10712 10709 ] final  -81.37 input   66.30 | X-H torsion
[ 10763 10752 10751 10750 ] final   35.24 input  -60.55 | X-H torsion
[ 11005 11000 10999 10996 ] final  138.22 input  -57.11 | X-H torsion

> <Gold.Protein.ActiveResidues>
 VAL166  LYS551  ARG553  GLY616  TRP617  ASP618  TYR619  PRO620  LYS621  CYS622 
 ASP623  PHE694  ASN695  SER759  ASP760  ASP761  ALA762  ILE779  LEU786  VAL792 
 PHE793  MET794  SER795  GLU796  ALA797  LYS798  CYS799  TRP800  GLU811  SER814 

> <Gold.Protein.RotatedAtoms>
  151.6865  133.3311  159.3232 H   0  0  0  0  0  0  0  0  0  0  0  0  # atno 6907 bound_to 6896
  150.7798  134.6735  159.6414 H   0  0  0  0  0  0  0  0  0  0  0  0  # atno 6908 bound_to 6896
  152.3852  134.6531  160.0180 H   0  0  0  0  0  0  0  0  0  0  0  0  # atno 6909 bound_to 6896
  145.8042  140.8637  143.0215 H   0  0  0  0  0  0  0  0  0  0  0  0  # atno 7974 bound_to 7965
  154.3997  140.1436  156.3591 H   0  0  0  0  0  0  0  0  0  0  0  0  # atno 8008 bound_to 7997
  155.8198  140.3470  155.5486 H   0  0  0  0  0  0  0  0  0  0  0  0  # atno 8009 bound_to 7997
  155.8300  140.0911  157.1789 H   0  0  0  0  0  0  0  0  0  0  0  0  # atno 8010 bound_to 7997
  140.3524  144.2333  150.6144 H   0  0  0  0  0  0  0  0  0  0  0  0  # atno 10167 bound_to 10162
  156.0052  130.4602  150.3942 H   0  0  0  0  0  0  0  0  0  0  0  0  # atno 10718 bound_to 10713
  153.0128  135.6339  154.1795 H   0  0  0  0  0  0  0  0  0  0  0  0  # atno 10763 bound_to 10752
  154.1536  135.2827  155.3130 H   0  0  0  0  0  0  0  0  0  0  0  0  # atno 10764 bound_to 10752
  154.6035  135.5579  153.7459 H   0  0  0  0  0  0  0  0  0  0  0  0  # atno 10765 bound_to 10752
  140.0168  134.9414  157.0393 H   0  0  0  0  0  0  0  0  0  0  0  0  # atno 11005 bound_to 11000
  144.6765  140.0302  143.7482 LP  0  0  0  0  0  0  0  0  0  0  0  0  # atno 17320 bound_to 7965
  145.9846  139.2967  143.1021 LP  0  0  0  0  0  0  0  0  0  0  0  0  # atno 17321 bound_to 7965
  140.5206  143.2266  151.8394 LP  0  0  0  0  0  0  0  0  0  0  0  0  # atno 17342 bound_to 10162
  139.4824  144.4841  151.9269 LP  0  0  0  0  0  0  0  0  0  0  0  0  # atno 17343 bound_to 10162
  157.2015  131.0439  151.2648 LP  0  0  0  0  0  0  0  0  0  0  0  0  # atno 17370 bound_to 10713
  157.3971  130.7313  149.6740 LP  0  0  0  0  0  0  0  0  0  0  0  0  # atno 17371 bound_to 10713
  140.4456  134.1635  155.7177 LP  0  0  0  0  0  0  0  0  0  0  0  0  # atno 17394 bound_to 11000
  141.1748  133.8536  157.1456 LP  0  0  0  0  0  0  0  0  0  0  0  0  # atno 17395 bound_to 11000

$$$$
