AV-unprocessed.smi:3101|AV-procd|sdf|11810|dock6
  -GOLD-   2272017183D 1   1.00000     0.00000
 Structure written by MMmdl.
 28 29  0  0  0  0  0  0  0  0  1 V2000
  152.8991  144.6995  157.6642 C   0  0  0  0  0  0  0  0  0  0  0  0
  151.9200  144.7471  158.8514 C   0  0  2  0  0  0  0  0  0  0  0  0
  152.5059  144.2849  160.1699 C   0  0  0  0  0  0  0  0  0  0  0  0
  151.2428  144.0910  161.0007 C   0  0  0  0  0  0  0  0  0  0  0  0
  150.2511  143.6271  160.0881 O   0  0  0  0  0  0  0  0  0  0  0  0
  150.6275  143.9088  158.7387 C   0  0  2  0  0  0  0  0  0  0  0  0
  150.7697  142.5632  158.0073 C   0  0  0  0  0  0  0  0  0  0  0  0
  151.4933  141.6825  158.4740 O   0  0  0  0  0  0  0  0  0  0  0  0
  150.0511  142.4368  156.8766 N   0  0  0  0  0  0  0  0  0  0  0  0
  149.9914  141.3257  155.9949 C   0  0  0  0  0  0  0  0  0  0  0  0
  149.0698  141.4376  154.9273 C   0  0  0  0  0  0  0  0  0  0  0  0
  148.8996  140.4645  154.0051 N   0  0  0  0  0  0  0  0  0  0  0  0
  149.6607  139.3585  154.1472 C   0  0  0  0  0  0  0  0  0  0  0  0
  150.5842  139.2293  155.2037 C   0  0  0  0  0  0  0  0  0  0  0  0
  150.7493  140.2063  156.1217 N   0  0  0  0  0  0  0  0  0  0  0  0
  153.3268  143.7064  157.5241 H   0  0  0  0  0  0  0  0  0  0  0  0
  153.7285  145.3893  157.8216 H   0  0  0  0  0  0  0  0  0  0  0  0
  152.4029  144.9863  156.7368 H   0  0  0  0  0  0  0  0  0  0  0  0
  151.6148  145.7879  158.9737 H   0  0  0  0  0  0  0  0  0  0  0  0
  153.0333  143.3375  160.0524 H   0  0  0  0  0  0  0  0  0  0  0  0
  153.1946  145.0067  160.6097 H   0  0  0  0  0  0  0  0  0  0  0  0
  151.3856  143.3914  161.8246 H   0  0  0  0  0  0  0  0  0  0  0  0
  150.9138  145.0436  161.4177 H   0  0  0  0  0  0  0  0  0  0  0  0
  149.8416  144.5000  158.2657 H   0  0  0  0  0  0  0  0  0  0  0  0
  149.4855  143.2313  156.6159 H   0  0  0  0  0  0  0  0  0  0  0  0
  148.4584  142.3206  154.8088 H   0  0  0  0  0  0  0  0  0  0  0  0
  149.5333  138.5743  153.4158 H   0  0  0  0  0  0  0  0  0  0  0  0
  151.1905  138.3423  155.3123 H   0  0  0  0  0  0  0  0  0  0  0  0
  1  2  1  0  0  0  0
  1 16  1  0  0  0  0
  1 17  1  0  0  0  0
  1 18  1  0  0  0  0
  2  6  1  0  0  0  0
  2  3  1  0  0  0  0
  2 19  1  0  0  0  0
  3  4  1  0  0  0  0
  3 20  1  0  0  0  0
  3 21  1  0  0  0  0
  4  5  1  0  0  0  0
  4 22  1  0  0  0  0
  4 23  1  0  0  0  0
  5  6  1  0  0  0  0
  6  7  1  0  0  0  0
  6 24  1  0  0  0  0
  7  8  2  0  0  0  0
  7  9  1  0  0  0  0
  9 10  1  0  0  0  0
  9 25  1  0  0  0  0
 10 15  1  0  0  0  0
 10 11  2  0  0  0  0
 11 12  1  0  0  0  0
 11 26  1  0  0  0  0
 12 13  2  0  0  0  0
 13 14  1  0  0  0  0
 13 27  1  0  0  0  0
 14 15  2  0  0  0  0
 14 28  1  0  0  0  0
M  END
> <s_m_source_file>
AV-unprocessed.smi

> <i_m_source_file_index>
3101

> <i_lp_mmshare_version>
43012

> <i_f3d_flags>
0

> <s_epik_input>
W0NIM11bQ0BASF0xW0NIMl1bQ0gyXU9bQ0BIXTFDKD1PKVtOSF1jMltjSF1uW2NIXVtjSF1uMg==

> <s_epik_cmdline>
J2VwaWtfcHl0aG9uJywgJy1waCcsICc3LjAnLCAnLXRuJywgJzgnLCAnLW1hJywgJzIwMCcsICctbWV0YWxfYmluZGluZycsICctaW1hZScsICc8aW5maWxlLm1hZT4nLCAnLW9tYWUnLCAnPG91dGZpbGUubWFlPic=

> <r_lp_tautomer_probability>
1

> <r_epik_Ionization_Penalty>
2.83174e-06

> <r_epik_Ionization_Penalty_Charging>
0

> <r_epik_Ionization_Penalty_Neutral>
2.83174e-06

> <r_epik_State_Penalty>
-0

> <r_epik_Charging_Adjusted_Penalty>
0

> <i_epik_Tot_Q>
0

> <i_epik_Tot_abs_Q>
0

> <r_epik_Metal_State_Penalty>
-0

> <b_epik_Metal_Only>
0

> <s_lp_Force_Field>
OPLS_2005

> <r_lp_Energy>
27.4183

> <b_lp_Chiralities_Consistent>
1

> <s_lp_Variant>
AV-unprocessed.smi:3101-3

> <Gold.Version>
5.8.1

> <Gold.Id.Protein>
6NUR|6NUR_protein|mol2

> <Gold.PLP.Fitness>
37.3171

> <Gold.PLP.PLP>
-29.7861

> <Gold.PLP.part.hbond>
-2.0000

> <Gold.PLP.part.metal>
0.0000

> <Gold.PLP.part.buried>
-4.5726

> <Gold.PLP.part.nonpolar>
-25.6912

> <Gold.PLP.part.repulsive>
1.8850

> <Gold.PLP.ligand.clash>
0.0000

> <Gold.PLP.ligand.torsion>
0.0546

> <Gold.PLP.Chemscore.Hbond>
1.0000

> <Gold.PLP.Chemscore.CHOScore>
1.5431

> <Gold.PLP.Chemscore.Metal>
0.0000

> <Gold.Chemscore.Hbonds>
donor molecule, donor type, donor heavy atom, donor atom, acceptor molecule, acceptor atom, score
      L1  H     9    25       P1  8028  1.00
      L1  C    11    26       P1  8028  0.92
      L1  C    13    27       P1  7948  0.24
      L1  C    13    27       P1  7957  0.26

> <Gold.PLP.Chemscore.Internal.Correction>
0.0109

> <Gold.Rescore>
     Score         DG    S(hbond)    S(metal)    S(lipo)     H(rot)  DE(clash)    DE(int)     intcor
     14.53     -16.16       0.99        0.00      85.00       1.00       0.33       1.30       ----

> <Gold.Chemscore.Fitness>
14.5277

> <Gold.Chemscore.DG>
-16.1601

> <Gold.Chemscore.ZeroCoef>
-5.4800

> <Gold.Chemscore.Hbond>
0.9866

> <Gold.Chemscore.Metal>
0.0000

> <Gold.Chemscore.Lipo>
84.9988

> <Gold.Chemscore.Internal_Hbond>
0.0000

> <Gold.Chemscore.DEClash>
0.3312

> <Gold.Chemscore.DEInternal>
1.3012

> <Gold.Chemscore.Rot>
1.0000

> <Gold.Chemscore.Internal.Correction>
   9.000000E+99

> <Gold.Chemscore.Hbonds>
donor molecule, donor type, donor heavy atom, donor atom, acceptor molecule, acceptor atom, score
      L1  H     9    25       P1  8028  0.99

> <Gold.Chemscore.Hbond.Weighted>
-3.2952

> <Gold.Chemscore.Metal.Weighted>
-0.0000

> <Gold.Chemscore.Lipo.Weighted>
-9.9449

> <Gold.Chemscore.Internal_Hbond.Weighted>
0.0000

> <Gold.Chemscore.DEClash.Weighted>
0.3312

> <Gold.Chemscore.DEInternal.Weighted>
1.3012

> <Gold.Chemscore.Rot.Weighted>
2.5600

> <Gold.Chemscore.Internal.Correction.Weighted>
   9.000000E+99

> <Gold.Protein.RotatedTorsions>
[ 6907 6896 6895 6894 ] final   79.31 input  -60.11 | X-H torsion
[ 7974 7965 7964 7962 ] final  -97.10 input  175.53 | X-H torsion
[ 8008 7997 7996 7995 ] final    9.29 input   59.86 | X-H torsion
[ 10167 10162 10161 10158 ] final   35.49 input  -65.29 | X-H torsion
[ 10718 10713 10712 10709 ] final -109.83 input   66.30 | X-H torsion
[ 10763 10752 10751 10750 ] final   62.18 input  -60.55 | X-H torsion
[ 11005 11000 10999 10996 ] final -152.37 input  -57.11 | X-H torsion

> <Gold.Protein.ActiveResidues>
 VAL166  LYS551  ARG553  GLY616  TRP617  ASP618  TYR619  PRO620  LYS621  CYS622 
 ASP623  PHE694  ASN695  SER759  ASP760  ASP761  ALA762  ILE779  LEU786  VAL792 
 PHE793  MET794  SER795  GLU796  ALA797  LYS798  CYS799  TRP800  GLU811  SER814 

> <Gold.Protein.RotatedAtoms>
  152.5193  134.3531  159.9257 H   0  0  0  0  0  0  0  0  0  0  0  0  # atno 6907 bound_to 6896
  151.3482  133.3929  159.2685 H   0  0  0  0  0  0  0  0  0  0  0  0  # atno 6908 bound_to 6896
  150.9748  134.9133  159.7867 H   0  0  0  0  0  0  0  0  0  0  0  0  # atno 6909 bound_to 6896
  145.3382  140.9455  143.2623 H   0  0  0  0  0  0  0  0  0  0  0  0  # atno 7974 bound_to 7965
  154.7781  140.2814  155.6085 H   0  0  0  0  0  0  0  0  0  0  0  0  # atno 8008 bound_to 7997
  156.2945  140.2628  156.2528 H   0  0  0  0  0  0  0  0  0  0  0  0  # atno 8009 bound_to 7997
  154.9817  140.0374  157.2270 H   0  0  0  0  0  0  0  0  0  0  0  0  # atno 8010 bound_to 7997
  140.4217  144.1450  150.6148 H   0  0  0  0  0  0  0  0  0  0  0  0  # atno 10167 bound_to 10162
  156.0558  130.5784  150.8153 H   0  0  0  0  0  0  0  0  0  0  0  0  # atno 10718 bound_to 10713
  152.9974  135.5474  154.6153 H   0  0  0  0  0  0  0  0  0  0  0  0  # atno 10763 bound_to 10752
  154.5464  135.2823  155.1051 H   0  0  0  0  0  0  0  0  0  0  0  0  # atno 10764 bound_to 10752
  154.2308  135.6434  153.5227 H   0  0  0  0  0  0  0  0  0  0  0  0  # atno 10765 bound_to 10752
  140.7196  134.3742  157.5185 H   0  0  0  0  0  0  0  0  0  0  0  0  # atno 11005 bound_to 11000
  144.8811  139.4903  143.6722 LP  0  0  0  0  0  0  0  0  0  0  0  0  # atno 17320 bound_to 7965
  146.3018  139.7452  142.9085 LP  0  0  0  0  0  0  0  0  0  0  0  0  # atno 17321 bound_to 7965
  140.4526  143.2480  151.9327 LP  0  0  0  0  0  0  0  0  0  0  0  0  # atno 17342 bound_to 10162
  139.4783  144.5547  151.8332 LP  0  0  0  0  0  0  0  0  0  0  0  0  # atno 17343 bound_to 10162
  157.5525  131.0944  150.9674 LP  0  0  0  0  0  0  0  0  0  0  0  0  # atno 17370 bound_to 10713
  156.9931  130.5571  149.5305 LP  0  0  0  0  0  0  0  0  0  0  0  0  # atno 17371 bound_to 10713
  139.8851  134.8945  156.2661 LP  0  0  0  0  0  0  0  0  0  0  0  0  # atno 17394 bound_to 11000
  141.0015  133.7149  156.0968 LP  0  0  0  0  0  0  0  0  0  0  0  0  # atno 17395 bound_to 11000

$$$$
