#       Name:                AV-unprocessed.smi:1644
#       Creating user name   scv26
#       Creation time:       Fri Mar 27 07:27:29 2020


#       File generated by GOLD software.
#

@<TRIPOS>MOLECULE
AV-unprocessed.smi:1644
    56    58     1
SMALL
NO_CHARGES


@<TRIPOS>ATOM
      1 ****        -3.0293   6.1739  -0.1085 C.3            1 S1                 0.0000
      2 ****        -3.7094   4.9615   0.5368 C.3            1 S1                 0.0000
      3 ****        -3.2160   3.6290  -0.0495 C.3            1 S1                 0.0000
      4 ****        -3.9134   2.3985   0.5635 C.3            1 S1                 0.0000
      5 ****        -3.6150   2.2291   1.9719 N.am           1 S1                 0.0000
      6 ****        -3.0150   1.0612   2.2343 C.2            1 S1                 0.0000
      7 ****        -2.6553   0.6838   3.3485 O.2            1 S1                 0.0000
      8 ****        -2.8717   0.3887   1.0780 N.am           1 S1                 0.0000
      9 ****        -2.2278  -0.9235   0.9589 C.3            1 S1                 0.0000
     10 ****        -0.6895  -0.8115   0.9375 C.3            1 S1                 0.0000
     11 ****        -0.2830  -0.3981  -0.3528 O.3            1 S1                 0.0000
     12 ****        -0.0178  -2.1612   1.2558 C.3            1 S1                 0.0000
     13 ****         1.4318  -2.0738   1.2595 N.pl3          1 S1                 0.0000
     14 ****         2.2185  -1.7160   2.2924 C.2            1 S1                 0.0000
     15 ****         3.5313  -1.6975   2.0802 N.2            1 S1                 0.0000
     16 ****         3.6052  -2.0898   0.7546 C.ar           1 S1                 0.0000
     17 ****         4.7243  -2.2685  -0.0877 C.ar           1 S1                 0.0000
     18 ****         4.5628  -2.6769  -1.4309 C.ar           1 S1                 0.0000
     19 ****         5.7935  -2.8538  -2.3025 C.3            1 S1                 0.0000
     20 ****         3.2648  -2.9150  -1.9498 C.ar           1 S1                 0.0000
     21 ****         3.0665  -3.3536  -3.3900 C.3            1 S1                 0.0000
     22 ****         2.1361  -2.7422  -1.1217 C.ar           1 S1                 0.0000
     23 ****         2.3096  -2.3344   0.2126 C.ar           1 S1                 0.0000
     24 ****        -3.3547   1.0876   0.0425 C.2            1 S1                 0.0000
     25 ****        -3.3603   0.7599  -1.1441 O.2            1 S1                 0.0000
     26 ****        -3.3911   7.1031   0.3324 H              1 S1                 0.0000
     27 ****        -3.2287   6.2144  -1.1796 H              1 S1                 0.0000
     28 ****        -1.9484   6.1391   0.0304 H              1 S1                 0.0000
     29 ****        -3.5293   4.9842   1.6121 H              1 S1                 0.0000
     30 ****        -4.7887   5.0415   0.4029 H              1 S1                 0.0000
     31 ****        -3.3847   3.6341  -1.1275 H              1 S1                 0.0000
     32 ****        -2.1359   3.5511   0.0878 H              1 S1                 0.0000
     33 ****        -4.9926   2.4315   0.4089 H              1 S1                 0.0000
     34 ****        -3.8381   2.9258   2.6678 H              1 S1                 0.0000
     35 ****        -2.5372  -1.5276   1.8135 H              1 S1                 0.0000
     36 ****        -2.5880  -1.4641   0.0814 H              1 S1                 0.0000
     37 ****        -0.3533  -0.0711   1.6650 H              1 S1                 0.0000
     38 ****         0.6599  -0.3319  -0.3635 H              1 S1                 0.0000
     39 ****        -0.3381  -2.5176   2.2358 H              1 S1                 0.0000
     40 ****        -0.3215  -2.9215   0.5348 H              1 S1                 0.0000
     41 ****         1.8033  -1.4527   3.2543 H              1 S1                 0.0000
     42 ****         5.7126  -2.0868   0.3081 H              1 S1                 0.0000
     43 ****         5.8727  -3.8855  -2.6461 H              1 S1                 0.0000
     44 ****         6.7061  -2.6116  -1.7569 H              1 S1                 0.0000
     45 ****         5.7423  -2.2006  -3.1739 H              1 S1                 0.0000
     46 ****         2.0114  -3.5095  -3.6168 H              1 S1                 0.0000
     47 ****         3.5913  -4.2902  -3.5804 H              1 S1                 0.0000
     48 ****         3.4482  -2.5963  -4.0752 H              1 S1                 0.0000
     49 ****         1.1412  -2.9165  -1.5045 H              1 S1                 0.0000
     50 ****        -2.8054   1.2673   4.1466 LP             1 S1                 0.0000
     51 ****        -2.2128  -0.2065   3.4561 LP             1 S1                 0.0000
     52 ****        -0.6860   0.4923  -0.5643 LP             1 S1                 0.0000
     53 ****        -0.5817  -1.0689  -1.0316 LP             1 S1                 0.0000
     54 ****         4.2702  -1.4622   2.7116 LP             1 S1                 0.0000
     55 ****        -3.7499   1.3739  -1.8306 LP             1 S1                 0.0000
     56 ****        -2.9752  -0.1203  -1.4216 LP             1 S1                 0.0000
@<TRIPOS>BOND
    1    1    2 1     
    2    1   26 1     
    3    1   27 1     
    4    1   28 1     
    5    2    3 1     
    6    2   29 1     
    7    2   30 1     
    8    3    4 1     
    9    3   31 1     
   10    3   32 1     
   11    4   24 1     
   12    4    5 1     
   13    4   33 1     
   14    5    6 am    
   15    5   34 1     
   16    6    7 2     
   17    6    8 am    
   18    8    9 1     
   19    8   24 am    
   20    9   10 1     
   21    9   35 1     
   22    9   36 1     
   23   10   11 1     
   24   10   12 1     
   25   10   37 1     
   26   11   38 1     
   27   12   13 1     
   28   12   39 1     
   29   12   40 1     
   30   13   23 1     
   31   13   14 1     
   32   14   15 2     
   33   14   41 1     
   34   15   16 1     
   35   16   23 ar    
   36   16   17 ar    
   37   17   18 ar    
   38   17   42 1     
   39   18   19 1     
   40   18   20 ar    
   41   19   43 1     
   42   19   44 1     
   43   19   45 1     
   44   20   21 1     
   45   20   22 ar    
   46   21   46 1     
   47   21   47 1     
   48   21   48 1     
   49   22   23 ar    
   50   22   49 1     
   51   24   25 2     
   52    7   50 1     
   53    7   51 1     
   54   11   52 1     
   55   11   53 1     
   56   15   54 1     
   57   25   55 1     
   58   25   56 1     
@<TRIPOS>SUBSTRUCTURE
      1 S1             1
@<TRIPOS>SET
LONE_PAIRS      STATIC     ATOMS    <user>   **** ""
7 50 51 52 53 54 55 56
DONOR_HYDROGENS      STATIC     ATOMS    <user>   **** ""
2 34 38
ATOM$BLUE        STATIC     ATOMS    COLORGROUP SYSTEM
7 50 51 52 53 54 55 56
ATOM$RED        STATIC     ATOMS    COLORGROUP SYSTEM
2 34 38
