AV-unprocessed.smi:462|AV-procd|sdf|2632|dock10
  -GOLD-   2262023 43D 1   1.00000     0.00000
 Structure written by MMmdl.
 46 48  0  0  0  0  0  0  0  0  1 V2000
  151.7955  146.0282  159.1783 C   0  0  0  0  0  0  0  0  0  0  0  0
  151.7452  144.7361  158.5928 O   0  0  0  0  0  0  0  0  0  0  0  0
  152.4017  143.7017  159.2279 C   0  0  0  0  0  0  0  0  0  0  0  0
  153.0346  143.8285  160.4902 C   0  0  0  0  0  0  0  0  0  0  0  0
  153.6837  142.7267  161.0768 C   0  0  0  0  0  0  0  0  0  0  0  0
  153.7092  141.4893  160.4109 C   0  0  0  0  0  0  0  0  0  0  0  0
  153.0848  141.3522  159.1579 C   0  0  0  0  0  0  0  0  0  0  0  0
  152.4267  142.4560  158.5599 C   0  0  0  0  0  0  0  0  0  0  0  0
  151.7924  142.3980  157.3382 O   0  0  0  0  0  0  0  0  0  0  0  0
  151.2946  141.1496  156.8790 C   0  0  0  0  0  0  0  0  0  0  0  0
  149.7628  141.2346  156.7818 C   0  0  0  0  0  0  0  0  0  0  0  0
  149.1668  139.9828  156.3262 N   0  0  0  0  0  0  0  0  0  0  0  0
  148.5240  139.6927  155.1557 C   0  0  0  0  0  0  0  0  0  0  0  0
  148.2359  140.7006  154.0557 C   0  0  0  0  0  0  0  0  0  0  0  0
  147.2930  140.1192  152.9808 C   0  0  0  0  0  0  0  0  0  0  0  0
  147.6414  141.9888  154.6490 C   0  0  0  0  0  0  0  0  0  0  0  0
  149.3829  141.0664  153.3135 O   0  0  0  0  0  0  0  0  0  0  0  0
  148.0245  138.4543  155.0859 N   0  0  0  0  0  0  0  0  0  0  0  0
  148.4332  137.8743  156.2670 C   0  0  0  0  0  0  0  0  0  0  0  0
  148.2425  136.5636  156.7600 C   0  0  0  0  0  0  0  0  0  0  0  0
  148.7537  136.1941  158.0212 C   0  0  0  0  0  0  0  0  0  0  0  0
  149.4568  137.1300  158.8064 C   0  0  0  0  0  0  0  0  0  0  0  0
  149.6515  138.4419  158.3338 C   0  0  0  0  0  0  0  0  0  0  0  0
  149.1465  138.8040  157.0696 C   0  0  0  0  0  0  0  0  0  0  0  0
  151.2153  146.7202  158.5678 H   0  0  0  0  0  0  0  0  0  0  0  0
  152.8178  146.4059  159.2241 H   0  0  0  0  0  0  0  0  0  0  0  0
  151.3626  146.0302  160.1795 H   0  0  0  0  0  0  0  0  0  0  0  0
  153.0360  144.7628  161.0305 H   0  0  0  0  0  0  0  0  0  0  0  0
  154.1626  142.8317  162.0390 H   0  0  0  0  0  0  0  0  0  0  0  0
  154.2083  140.6440  160.8613 H   0  0  0  0  0  0  0  0  0  0  0  0
  153.1249  140.3883  158.6737 H   0  0  0  0  0  0  0  0  0  0  0  0
  151.7121  140.9175  155.8984 H   0  0  0  0  0  0  0  0  0  0  0  0
  151.5831  140.3536  157.5662 H   0  0  0  0  0  0  0  0  0  0  0  0
  149.3505  141.4716  157.7631 H   0  0  0  0  0  0  0  0  0  0  0  0
  149.4524  142.0535  156.1352 H   0  0  0  0  0  0  0  0  0  0  0  0
  146.3191  139.8589  153.3968 H   0  0  0  0  0  0  0  0  0  0  0  0
  147.7110  139.2174  152.5311 H   0  0  0  0  0  0  0  0  0  0  0  0
  147.1125  140.8336  152.1765 H   0  0  0  0  0  0  0  0  0  0  0  0
  146.7136  141.7820  155.1836 H   0  0  0  0  0  0  0  0  0  0  0  0
  147.4169  142.7215  153.8730 H   0  0  0  0  0  0  0  0  0  0  0  0
  148.3282  142.4567  155.3550 H   0  0  0  0  0  0  0  0  0  0  0  0
  150.1076  141.1639  153.9117 H   0  0  0  0  0  0  0  0  0  0  0  0
  147.7033  135.8411  156.1655 H   0  0  0  0  0  0  0  0  0  0  0  0
  148.6049  135.1889  158.3875 H   0  0  0  0  0  0  0  0  0  0  0  0
  149.8472  136.8408  159.7711 H   0  0  0  0  0  0  0  0  0  0  0  0
  150.1928  139.1585  158.9336 H   0  0  0  0  0  0  0  0  0  0  0  0
  1  2  1  0  0  0  0
  1 25  1  0  0  0  0
  1 26  1  0  0  0  0
  1 27  1  0  0  0  0
  2  3  1  0  0  0  0
  3  8  1  0  0  0  0
  3  4  2  0  0  0  0
  4  5  1  0  0  0  0
  4 28  1  0  0  0  0
  5  6  2  0  0  0  0
  5 29  1  0  0  0  0
  6  7  1  0  0  0  0
  6 30  1  0  0  0  0
  7  8  2  0  0  0  0
  7 31  1  0  0  0  0
  8  9  1  0  0  0  0
  9 10  1  0  0  0  0
 10 11  1  0  0  0  0
 10 32  1  0  0  0  0
 10 33  1  0  0  0  0
 11 12  1  0  0  0  0
 11 34  1  0  0  0  0
 11 35  1  0  0  0  0
 12 24  1  0  0  0  0
 12 13  1  0  0  0  0
 13 14  1  0  0  0  0
 13 18  2  0  0  0  0
 14 15  1  0  0  0  0
 14 16  1  0  0  0  0
 14 17  1  0  0  0  0
 15 36  1  0  0  0  0
 15 37  1  0  0  0  0
 15 38  1  0  0  0  0
 16 39  1  0  0  0  0
 16 40  1  0  0  0  0
 16 41  1  0  0  0  0
 17 42  1  0  0  0  0
 18 19  1  0  0  0  0
 19 24  2  0  0  0  0
 19 20  1  0  0  0  0
 20 21  2  0  0  0  0
 20 43  1  0  0  0  0
 21 22  1  0  0  0  0
 21 44  1  0  0  0  0
 22 23  2  0  0  0  0
 22 45  1  0  0  0  0
 23 24  1  0  0  0  0
 23 46  1  0  0  0  0
M  END
> <s_m_source_file>
AV-unprocessed.smi

> <i_m_source_file_index>
462

> <i_lp_mmshare_version>
43012

> <i_f3d_flags>
0

> <s_epik_input>
W0NIM11PYzFbY0hdW2NIXVtjSF1bY0hdYzFPW0NIMl1bQ0gyXW4oYyhuMilDKFtDSDNdKShbQ0gzXSlbT0hdKWMoYzIzKVtjSF1bY0hdW2NIXVtjSF0z

> <s_epik_cmdline>
J2VwaWtfcHl0aG9uJywgJy1waCcsICc3LjAnLCAnLXRuJywgJzgnLCAnLW1hJywgJzIwMCcsICctbWV0YWxfYmluZGluZycsICctaW1hZScsICc8aW5maWxlLm1hZT4nLCAnLW9tYWUnLCAnPG91dGZpbGUubWFlPic=

> <r_lp_tautomer_probability>
1

> <r_epik_Ionization_Penalty>
0.0665975

> <r_epik_Ionization_Penalty_Charging>
0

> <r_epik_Ionization_Penalty_Neutral>
0.0665975

> <r_epik_State_Penalty>
0.0581545

> <r_epik_Charging_Adjusted_Penalty>
0.0581545

> <i_epik_Tot_Q>
0

> <i_epik_Tot_abs_Q>
0

> <r_epik_Metal_State_Penalty>
6.11011e-05

> <b_epik_Metal_Only>
0

> <s_lp_Force_Field>
OPLS_2005

> <r_lp_Energy>
19.5197

> <b_lp_Chiralities_Consistent>
1

> <s_lp_Variant>
AV-unprocessed.smi:462-1

> <Gold.Version>
5.8.1

> <Gold.Id.Protein>
6NUR|6NUR_protein|mol2

> <Gold.PLP.Fitness>
43.1017

> <Gold.PLP.PLP>
-42.1220

> <Gold.PLP.part.hbond>
-3.0000

> <Gold.PLP.part.metal>
0.0000

> <Gold.PLP.part.buried>
-5.3186

> <Gold.PLP.part.nonpolar>
-33.6725

> <Gold.PLP.part.repulsive>
0.1820

> <Gold.PLP.ligand.clash>
0.0000

> <Gold.PLP.ligand.torsion>
1.0607

> <Gold.PLP.Chemscore.Hbond>
1.0000

> <Gold.PLP.Chemscore.CHOScore>
0.0000

> <Gold.PLP.Chemscore.Metal>
0.0000

> <Gold.Chemscore.Hbonds>
donor molecule, donor type, donor heavy atom, donor atom, acceptor molecule, acceptor atom, score
      P1  H  8011  8017       L1    17  0.80

> <Gold.PLP.Chemscore.Internal.Correction>
0.1010

> <Gold.Rescore>
     Score         DG    S(hbond)    S(metal)    S(lipo)     H(rot)  DE(clash)    DE(int)     intcor
     14.00     -15.02       0.67        0.00     111.79       2.25       0.15       0.86       ----

> <Gold.Chemscore.Fitness>
14.0023

> <Gold.Chemscore.DG>
-15.0198

> <Gold.Chemscore.ZeroCoef>
-5.4800

> <Gold.Chemscore.Hbond>
0.6679

> <Gold.Chemscore.Metal>
0.0000

> <Gold.Chemscore.Lipo>
111.7921

> <Gold.Chemscore.Internal_Hbond>
0.0000

> <Gold.Chemscore.DEClash>
0.1549

> <Gold.Chemscore.DEInternal>
0.8627

> <Gold.Chemscore.Rot>
2.2541

> <Gold.Chemscore.Internal.Correction>
   9.000000E+99

> <Gold.Chemscore.Hbonds>
donor molecule, donor type, donor heavy atom, donor atom, acceptor molecule, acceptor atom, score
      P1  H  8011  8017       L1    17  0.12

> <Gold.Chemscore.Hbond.Weighted>
-2.2307

> <Gold.Chemscore.Metal.Weighted>
-0.0000

> <Gold.Chemscore.Lipo.Weighted>
-13.0797

> <Gold.Chemscore.Internal_Hbond.Weighted>
0.0000

> <Gold.Chemscore.DEClash.Weighted>
0.1549

> <Gold.Chemscore.DEInternal.Weighted>
0.8627

> <Gold.Chemscore.Rot.Weighted>
5.7705

> <Gold.Chemscore.Internal.Correction.Weighted>
   9.000000E+99

> <Gold.Protein.RotatedTorsions>
[ 6907 6896 6895 6894 ] final -143.04 input  -60.11 | X-H torsion
[ 7974 7965 7964 7962 ] final -138.71 input  175.53 | X-H torsion
[ 8008 7997 7996 7995 ] final   81.73 input   59.86 | X-H torsion
[ 10167 10162 10161 10158 ] final   44.55 input  -65.29 | X-H torsion
[ 10718 10713 10712 10709 ] final -132.25 input   66.30 | X-H torsion
[ 10763 10752 10751 10750 ] final   83.14 input  -60.55 | X-H torsion
[ 11005 11000 10999 10996 ] final -119.83 input  -57.11 | X-H torsion

> <Gold.Protein.ActiveResidues>
 VAL166  LYS551  ARG553  GLY616  TRP617  ASP618  TYR619  PRO620  LYS621  CYS622 
 ASP623  PHE694  ASN695  SER759  ASP760  ASP761  ALA762  ILE779  LEU786  VAL792 
 PHE793  MET794  SER795  GLU796  ALA797  LYS798  CYS799  TRP800  GLU811  SER814 

> <Gold.Protein.RotatedAtoms>
  151.0951  133.5286  159.2612 H   0  0  0  0  0  0  0  0  0  0  0  0  # atno 6907 bound_to 6896
  151.2139  135.0491  159.8932 H   0  0  0  0  0  0  0  0  0  0  0  0  # atno 6908 bound_to 6896
  152.5438  134.0762  159.8269 H   0  0  0  0  0  0  0  0  0  0  0  0  # atno 6909 bound_to 6896
  144.8736  140.6403  143.5251 H   0  0  0  0  0  0  0  0  0  0  0  0  # atno 7974 bound_to 7965
  155.9011  140.3433  155.6027 H   0  0  0  0  0  0  0  0  0  0  0  0  # atno 8008 bound_to 7997
  155.7499  140.0818  157.2225 H   0  0  0  0  0  0  0  0  0  0  0  0  # atno 8009 bound_to 7997
  154.4044  140.1555  156.2699 H   0  0  0  0  0  0  0  0  0  0  0  0  # atno 8010 bound_to 7997
  140.3331  144.2563  150.6165 H   0  0  0  0  0  0  0  0  0  0  0  0  # atno 10167 bound_to 10162
  156.2327  130.7047  151.0875 H   0  0  0  0  0  0  0  0  0  0  0  0  # atno 10718 bound_to 10713
  153.1265  135.4702  154.9280 H   0  0  0  0  0  0  0  0  0  0  0  0  # atno 10763 bound_to 10752
  154.7624  135.3135  154.8354 H   0  0  0  0  0  0  0  0  0  0  0  0  # atno 10764 bound_to 10752
  153.8906  135.6885  153.4814 H   0  0  0  0  0  0  0  0  0  0  0  0  # atno 10765 bound_to 10752
  141.0187  134.0156  157.3313 H   0  0  0  0  0  0  0  0  0  0  0  0  # atno 11005 bound_to 11000
  145.4084  139.1584  143.4139 LP  0  0  0  0  0  0  0  0  0  0  0  0  # atno 17320 bound_to 7965
  146.2947  140.4186  142.8726 LP  0  0  0  0  0  0  0  0  0  0  0  0  # atno 17321 bound_to 7965
  140.5378  143.2229  151.8134 LP  0  0  0  0  0  0  0  0  0  0  0  0  # atno 17342 bound_to 10162
  139.4853  144.4639  151.9508 LP  0  0  0  0  0  0  0  0  0  0  0  0  # atno 17343 bound_to 10162
  157.7140  131.0719  150.6395 LP  0  0  0  0  0  0  0  0  0  0  0  0  # atno 17370 bound_to 10713
  156.6464  130.4473  149.5734 LP  0  0  0  0  0  0  0  0  0  0  0  0  # atno 17371 bound_to 10713
  139.9133  135.0193  156.7780 LP  0  0  0  0  0  0  0  0  0  0  0  0  # atno 17394 bound_to 11000
  140.6609  133.9645  155.7804 LP  0  0  0  0  0  0  0  0  0  0  0  0  # atno 17395 bound_to 11000

$$$$
