#       Name:                AV-unprocessed.smi:1029
#       Creating user name   scv26
#       Creation time:       Fri Mar 27 02:45:37 2020


#       File generated by GOLD software.
#

@<TRIPOS>MOLECULE
AV-unprocessed.smi:1029
    53    54     1
SMALL
NO_CHARGES


@<TRIPOS>ATOM
      1 ****        -4.2058   5.8887   4.2958 C.3            1 S1                 0.0000
      2 ****        -4.0127   5.2271   2.9635 C.2            1 S1                 0.0000
      3 ****        -3.5177   3.9218   2.6894 C.2            1 S1                 0.0000
      4 ****        -3.5589   3.8634   1.3218 C.2            1 S1                 0.0000
      5 ****        -3.1908   2.8393   0.5085 N.am           1 S1                 0.0000
      6 ****        -2.7486   1.6139   0.8416 C.2            1 S1                 0.0000
      7 ****        -2.6114   1.1896   1.9893 O.2            1 S1                 0.0000
      8 ****        -2.4709   0.8863  -0.2497 N.am           1 S1                 0.0000
      9 ****        -1.9743  -0.4857  -0.2382 C.3            1 S1                 0.0000
     10 ****        -0.4330  -0.5420  -0.2153 C.3            1 S1                 0.0000
     11 ****         0.0044  -0.3733   1.1194 O.3            1 S1                 0.0000
     12 ****         0.0901  -1.9098  -0.7011 C.3            1 S1                 0.0000
     13 ****         1.5744  -1.9783  -0.7335 N.4            1 S1                 1.0000
     14 ****         2.1734  -1.2735  -1.8982 C.3            1 S1                 0.0000
     15 ****         3.7104  -1.2635  -1.8135 C.3            1 S1                 0.0000
     16 ****         4.2969  -2.6804  -1.6779 C.3            1 S1                 0.0000
     17 ****         4.2368  -3.4792  -2.9918 C.3            1 S1                 0.0000
     18 ****         3.6103  -3.4072  -0.5078 C.3            1 S1                 0.0000
     19 ****         2.0755  -3.3722  -0.6202 C.3            1 S1                 0.0000
     20 ****        -4.0296   5.0196   0.7946 O.3            1 S1                 0.0000
     21 ****        -4.3196   5.8855   1.8555 N.2            1 S1                 0.0000
     22 ****        -3.9581   5.2096   5.1118 H              1 S1                 0.0000
     23 ****        -5.2399   6.2064   4.4312 H              1 S1                 0.0000
     24 ****        -3.5700   6.7690   4.3924 H              1 S1                 0.0000
     25 ****        -3.1908   3.1714   3.3931 H              1 S1                 0.0000
     26 ****        -3.2651   3.0315  -0.4796 H              1 S1                 0.0000
     27 ****        -2.6168   1.3108  -1.1540 H              1 S1                 0.0000
     28 ****        -2.4106  -1.0662   0.5773 H              1 S1                 0.0000
     29 ****        -2.3388  -0.9420  -1.1589 H              1 S1                 0.0000
     30 ****        -0.0288   0.2607  -0.8316 H              1 S1                 0.0000
     31 ****        -0.4761  -0.9690   1.6744 H              1 S1                 0.0000
     32 ****        -0.3011  -2.6829  -0.0375 H              1 S1                 0.0000
     33 ****        -0.2988  -2.1401  -1.6942 H              1 S1                 0.0000
     34 ****         1.8458  -1.7491  -2.8235 H              1 S1                 0.0000
     35 ****         1.8224  -0.2434  -1.9387 H              1 S1                 0.0000
     36 ****         4.1304  -0.7626  -2.6865 H              1 S1                 0.0000
     37 ****         4.0123  -0.6682  -0.9505 H              1 S1                 0.0000
     38 ****         5.3538  -2.5772  -1.4282 H              1 S1                 0.0000
     39 ****         3.2139  -3.6405  -3.3307 H              1 S1                 0.0000
     40 ****         4.7022  -4.4582  -2.8739 H              1 S1                 0.0000
     41 ****         4.7692  -2.9595  -3.7888 H              1 S1                 0.0000
     42 ****         3.9586  -4.4389  -0.4470 H              1 S1                 0.0000
     43 ****         3.9068  -2.9339   0.4292 H              1 S1                 0.0000
     44 ****         1.6475  -3.8444   0.2650 H              1 S1                 0.0000
     45 ****         1.7393  -3.9543  -1.4793 H              1 S1                 0.0000
     46 ****         1.8936  -1.4985   0.0965 H              1 S1                 0.0000
     47 ****        -2.8368   1.7741   2.7687 LP             1 S1                 0.0000
     48 ****        -2.2746   0.2605   2.1420 LP             1 S1                 0.0000
     49 ****        -0.1634   0.5681   1.4118 LP             1 S1                 0.0000
     50 ****         0.9826  -0.5719   1.1803 LP             1 S1                 0.0000
     51 ****        -4.8590   4.8397   0.2656 LP             1 S1                 0.0000
     52 ****        -3.3375   5.4293   0.2003 LP             1 S1                 0.0000
     53 ****        -4.6849   6.8141   1.7902 LP             1 S1                 0.0000
@<TRIPOS>BOND
    1    1    2 1     
    2    1   22 1     
    3    1   23 1     
    4    1   24 1     
    5    2   21 2     
    6    2    3 1     
    7    3    4 2     
    8    3   25 1     
    9    4    5 1     
   10    4   20 1     
   11    5    6 am    
   12    5   26 1     
   13    6    7 2     
   14    6    8 am    
   15    8    9 1     
   16    8   27 1     
   17    9   10 1     
   18    9   28 1     
   19    9   29 1     
   20   10   11 1     
   21   10   12 1     
   22   10   30 1     
   23   11   31 1     
   24   12   13 1     
   25   12   32 1     
   26   12   33 1     
   27   13   19 1     
   28   13   14 1     
   29   13   46 1     
   30   14   15 1     
   31   14   34 1     
   32   14   35 1     
   33   15   16 1     
   34   15   36 1     
   35   15   37 1     
   36   16   17 1     
   37   16   18 1     
   38   16   38 1     
   39   17   39 1     
   40   17   40 1     
   41   17   41 1     
   42   18   19 1     
   43   18   42 1     
   44   18   43 1     
   45   19   44 1     
   46   19   45 1     
   47   20   21 1     
   48    7   47 1     
   49    7   48 1     
   50   11   49 1     
   51   11   50 1     
   52   20   51 1     
   53   20   52 1     
   54   21   53 1     
@<TRIPOS>SUBSTRUCTURE
      1 S1             1
@<TRIPOS>SET
LONE_PAIRS      STATIC     ATOMS    <user>   **** ""
7 47 48 49 50 51 52 53
DONOR_HYDROGENS      STATIC     ATOMS    <user>   **** ""
4 26 27 31 46
ATOM$BLUE        STATIC     ATOMS    COLORGROUP SYSTEM
7 47 48 49 50 51 52 53
ATOM$RED        STATIC     ATOMS    COLORGROUP SYSTEM
4 26 27 31 46
