#       Name:                AV-unprocessed.smi:2959
#       Creating user name   scv26
#       Creation time:       Fri Mar 27 16:20:50 2020


#       File generated by GOLD software.
#

@<TRIPOS>MOLECULE
AV-unprocessed.smi:2959
    50    52     1
SMALL
NO_CHARGES


@<TRIPOS>ATOM
      1 ****        -1.3056   1.9168  -2.4419 C.3            1 S1                 0.0000
      2 ****        -1.8974   2.2804  -1.0837 C.2            1 S1                 0.0000
      3 ****        -2.7025   3.2061  -0.9918 O.2            1 S1                 0.0000
      4 ****        -1.4959   1.5435  -0.0390 N.am           1 S1                 0.0000
      5 ****        -1.9418   1.7371   1.3354 C.3            1 S1                 0.0000
      6 ****        -1.2019   0.8088   2.3176 C.3            1 S1                 0.0000
      7 ****         0.2960   0.8598   2.1863 C.2            1 S1                 0.0000
      8 ****         0.9576   2.0088   2.3364 N.2            1 S1                 0.0000
      9 ****         2.2705   1.6390   2.1300 C.ar           1 S1                 0.0000
     10 ****         3.4539   2.4114   2.1359 C.ar           1 S1                 0.0000
     11 ****         4.7038   1.8039   1.8967 C.ar           1 S1                 0.0000
     12 ****         4.7879   0.4182   1.6503 C.ar           1 S1                 0.0000
     13 ****         3.6205  -0.3692   1.6421 C.ar           1 S1                 0.0000
     14 ****         2.3744   0.2423   1.8799 C.ar           1 S1                 0.0000
     15 ****         1.0678  -0.2343   1.9466 N.pl3          1 S1                 0.0000
     16 ****         0.6784  -1.6311   1.7965 C.3            1 S1                 0.0000
     17 ****         0.3680  -2.0106   0.3415 C.3            1 S1                 0.0000
     18 ****        -0.8705  -1.4363  -0.0496 O.3            1 S1                 0.0000
     19 ****        -1.3590  -1.7298  -1.3044 C.ar           1 S1                 0.0000
     20 ****        -2.6658  -1.2902  -1.6015 C.ar           1 S1                 0.0000
     21 ****        -3.2397  -1.5337  -2.8637 C.ar           1 S1                 0.0000
     22 ****        -2.5083  -2.2255  -3.8463 C.ar           1 S1                 0.0000
     23 ****        -1.2045  -2.6730  -3.5629 C.ar           1 S1                 0.0000
     24 ****        -0.6303  -2.4283  -2.3000 C.ar           1 S1                 0.0000
     25 ****        -0.9160   2.8075  -2.9350 H              1 S1                 0.0000
     26 ****        -2.0728   1.4785  -3.0803 H              1 S1                 0.0000
     27 ****        -0.4912   1.1977  -2.3439 H              1 S1                 0.0000
     28 ****        -0.8359   0.7974  -0.2064 H              1 S1                 0.0000
     29 ****        -1.7634   2.7766   1.6156 H              1 S1                 0.0000
     30 ****        -3.0178   1.5713   1.4017 H              1 S1                 0.0000
     31 ****        -1.4664   1.0752   3.3413 H              1 S1                 0.0000
     32 ****        -1.5642  -0.2064   2.1715 H              1 S1                 0.0000
     33 ****         3.3994   3.4733   2.3247 H              1 S1                 0.0000
     34 ****         5.6021   2.4038   1.9031 H              1 S1                 0.0000
     35 ****         5.7490  -0.0401   1.4688 H              1 S1                 0.0000
     36 ****         3.6835  -1.4307   1.4542 H              1 S1                 0.0000
     37 ****         1.5031  -2.2472   2.1559 H              1 S1                 0.0000
     38 ****        -0.1603  -1.8592   2.4535 H              1 S1                 0.0000
     39 ****         1.1758  -1.6715  -0.3090 H              1 S1                 0.0000
     40 ****         0.3063  -3.0970   0.2614 H              1 S1                 0.0000
     41 ****        -3.2334  -0.7554  -0.8541 H              1 S1                 0.0000
     42 ****        -4.2404  -1.1879  -3.0773 H              1 S1                 0.0000
     43 ****        -2.9463  -2.4126  -4.8157 H              1 S1                 0.0000
     44 ****        -0.6419  -3.2041  -4.3165 H              1 S1                 0.0000
     45 ****         0.3734  -2.7827  -2.1219 H              1 S1                 0.0000
     46 ****        -2.9688   3.7199  -1.8073 LP             1 S1                 0.0000
     47 ****        -3.0906   3.4447  -0.1016 LP             1 S1                 0.0000
     48 ****         0.5916   2.9153   2.5468 LP             1 S1                 0.0000
     49 ****        -0.7660  -0.4432   0.0027 LP             1 S1                 0.0000
     50 ****        -1.5576  -1.7346   0.6129 LP             1 S1                 0.0000
@<TRIPOS>BOND
    1    1    2 1     
    2    1   25 1     
    3    1   26 1     
    4    1   27 1     
    5    2    3 2     
    6    2    4 am    
    7    4    5 1     
    8    4   28 1     
    9    5    6 1     
   10    5   29 1     
   11    5   30 1     
   12    6    7 1     
   13    6   31 1     
   14    6   32 1     
   15    7   15 1     
   16    7    8 2     
   17    8    9 1     
   18    9   14 ar    
   19    9   10 ar    
   20   10   11 ar    
   21   10   33 1     
   22   11   12 ar    
   23   11   34 1     
   24   12   13 ar    
   25   12   35 1     
   26   13   14 ar    
   27   13   36 1     
   28   14   15 1     
   29   15   16 1     
   30   16   17 1     
   31   16   37 1     
   32   16   38 1     
   33   17   18 1     
   34   17   39 1     
   35   17   40 1     
   36   18   19 1     
   37   19   24 ar    
   38   19   20 ar    
   39   20   21 ar    
   40   20   41 1     
   41   21   22 ar    
   42   21   42 1     
   43   22   23 ar    
   44   22   43 1     
   45   23   24 ar    
   46   23   44 1     
   47   24   45 1     
   48    3   46 1     
   49    3   47 1     
   50    8   48 1     
   51   18   49 1     
   52   18   50 1     
@<TRIPOS>SUBSTRUCTURE
      1 S1             1
@<TRIPOS>SET
LONE_PAIRS      STATIC     ATOMS    <user>   **** ""
5 46 47 48 49 50
DONOR_HYDROGENS      STATIC     ATOMS    <user>   **** ""
1 28
ATOM$BLUE        STATIC     ATOMS    COLORGROUP SYSTEM
5 46 47 48 49 50
ATOM$RED        STATIC     ATOMS    COLORGROUP SYSTEM
1 28
