#       Name:                AV-unprocessed.smi:468
#       Creating user name   scv26
#       Creation time:       Thu Mar 26 23:06:13 2020


#       File generated by GOLD software.
#

@<TRIPOS>MOLECULE
AV-unprocessed.smi:468
    58    59     1
SMALL
NO_CHARGES


@<TRIPOS>ATOM
      1 ****        -1.4360  -3.9536   0.7209 C.3            1 S1                 0.0000
      2 ****        -2.2364  -2.8162   1.0023 O.3            1 S1                 0.0000
      3 ****        -3.1603  -2.4753  -0.0228 C.3            1 S1                 0.0000
      4 ****        -2.4875  -1.8737  -1.2744 C.3            1 S1                 0.0000
      5 ****        -1.7660  -0.6212  -0.9925 N.am           1 S1                 0.0000
      6 ****        -2.4364   0.5536  -0.8547 C.2            1 S1                 0.0000
      7 ****        -3.6668   0.6076  -0.8916 O.2            1 S1                 0.0000
      8 ****        -1.6361   1.8534  -0.6135 C.3            1 S1                 0.0000
      9 ****        -2.4672   3.1248  -0.3447 C.3            1 S1                 0.0000
     10 ****        -1.5243   3.8828  -1.2828 C.3            1 S1                 0.0000
     11 ****        -1.1423   2.5352  -1.9005 C.3            1 S1                 0.0000
     12 ****        -0.3607  -0.6723  -1.0475 C.2            1 S1                 0.0000
     13 ****         0.4130  -0.6988   0.0793 C.2            1 S1                 0.0000
     14 ****        -0.1792  -0.6861   1.3330 N.pl3          1 S1                 0.0000
     15 ****         1.8104  -0.7253   0.0094 N.am           1 S1                 0.0000
     16 ****         2.6858  -0.7353   1.1684 C.3            1 S1                 0.0000
     17 ****         3.2643   0.6495   1.5446 C.3            1 S1                 0.0000
     18 ****         4.2150   0.5249   2.7437 C.3            1 S1                 0.0000
     19 ****         2.1755   1.7001   1.8220 C.3            1 S1                 0.0000
     20 ****         2.4574  -0.7138  -1.2498 C.2            1 S1                 0.0000
     21 ****         3.6815  -0.7205  -1.3844 O.2            1 S1                 0.0000
     22 ****         1.6488  -0.6907  -2.3802 N.am           1 S1                 0.0000
     23 ****         0.2572  -0.6704  -2.3797 C.2            1 S1                 0.0000
     24 ****        -0.3476  -0.6442  -3.4507 O.2            1 S1                 0.0000
     25 ****         2.1107  -0.6831  -3.2779 H              1 S1                 0.0000
     26 ****        -0.8295  -4.1914   1.5947 H              1 S1                 0.0000
     27 ****        -0.7537  -3.7727  -0.1092 H              1 S1                 0.0000
     28 ****        -2.0489  -4.8258   0.4915 H              1 S1                 0.0000
     29 ****        -3.7479  -3.3528  -0.2960 H              1 S1                 0.0000
     30 ****        -3.8687  -1.7606   0.3958 H              1 S1                 0.0000
     31 ****        -1.8182  -2.6063  -1.7261 H              1 S1                 0.0000
     32 ****        -3.2462  -1.6906  -2.0372 H              1 S1                 0.0000
     33 ****        -0.8466   1.7520   0.1312 H              1 S1                 0.0000
     34 ****        -3.4898   3.1015  -0.7248 H              1 S1                 0.0000
     35 ****        -2.4367   3.4724   0.6882 H              1 S1                 0.0000
     36 ****        -2.0180   4.5741  -1.9662 H              1 S1                 0.0000
     37 ****        -0.6944   4.3553  -0.7553 H              1 S1                 0.0000
     38 ****        -0.0745   2.4213  -2.0902 H              1 S1                 0.0000
     39 ****        -1.7341   2.2872  -2.7839 H              1 S1                 0.0000
     40 ****        -1.1841  -0.6573   1.4353 H              1 S1                 0.0000
     41 ****         0.3411  -0.9383   2.1610 H              1 S1                 0.0000
     42 ****         2.1277  -1.1672   1.9978 H              1 S1                 0.0000
     43 ****         3.4766  -1.4596   0.9630 H              1 S1                 0.0000
     44 ****         3.8579   1.0130   0.7052 H              1 S1                 0.0000
     45 ****         3.6904   0.1654   3.6296 H              1 S1                 0.0000
     46 ****         4.6661   1.4864   2.9905 H              1 S1                 0.0000
     47 ****         5.0259  -0.1724   2.5310 H              1 S1                 0.0000
     48 ****         1.5189   1.3857   2.6336 H              1 S1                 0.0000
     49 ****         1.5588   1.8785   0.9409 H              1 S1                 0.0000
     50 ****         2.6162   2.6566   2.1041 H              1 S1                 0.0000
     51 ****        -1.6288  -2.0353   1.1472 LP             1 S1                 0.0000
     52 ****        -2.7521  -2.9971   1.8398 LP             1 S1                 0.0000
     53 ****        -4.2001  -0.2276  -1.0259 LP             1 S1                 0.0000
     54 ****        -4.1320   1.4865  -0.7871 LP             1 S1                 0.0000
     55 ****         4.2731  -0.7348  -0.5782 LP             1 S1                 0.0000
     56 ****         4.0840  -0.7117  -2.2998 LP             1 S1                 0.0000
     57 ****        -1.3473  -0.6217  -3.4599 LP             1 S1                 0.0000
     58 ****         0.1605  -0.6455  -4.3120 LP             1 S1                 0.0000
@<TRIPOS>BOND
    1    1    2 1     
    2    1   26 1     
    3    1   27 1     
    4    1   28 1     
    5    2    3 1     
    6    3    4 1     
    7    3   29 1     
    8    3   30 1     
    9    4    5 1     
   10    4   31 1     
   11    4   32 1     
   12    5    6 am    
   13    5   12 1     
   14    6    7 2     
   15    6    8 1     
   16    8   11 1     
   17    8    9 1     
   18    8   33 1     
   19    9   10 1     
   20    9   34 1     
   21    9   35 1     
   22   10   11 1     
   23   10   36 1     
   24   10   37 1     
   25   11   38 1     
   26   11   39 1     
   27   12   23 1     
   28   12   13 2     
   29   13   14 1     
   30   13   15 1     
   31   14   40 1     
   32   14   41 1     
   33   15   16 1     
   34   15   20 1     
   35   16   17 1     
   36   16   42 1     
   37   16   43 1     
   38   17   18 1     
   39   17   19 1     
   40   17   44 1     
   41   18   45 1     
   42   18   46 1     
   43   18   47 1     
   44   19   48 1     
   45   19   49 1     
   46   19   50 1     
   47   20   21 2     
   48   20   22 1     
   49   22   25 1     
   50   22   23 1     
   51   23   24 2     
   52    2   51 1     
   53    2   52 1     
   54    7   53 1     
   55    7   54 1     
   56   21   55 1     
   57   21   56 1     
   58   24   57 1     
   59   24   58 1     
@<TRIPOS>SUBSTRUCTURE
      1 S1             1
@<TRIPOS>SET
LONE_PAIRS      STATIC     ATOMS    <user>   **** ""
8 51 52 53 54 55 56 57 58
DONOR_HYDROGENS      STATIC     ATOMS    <user>   **** ""
3 40 41 25
ATOM$BLUE        STATIC     ATOMS    COLORGROUP SYSTEM
8 51 52 53 54 55 56 57 58
ATOM$RED        STATIC     ATOMS    COLORGROUP SYSTEM
3 40 41 25
