AV-unprocessed.smi:1940|AV-procd|sdf|7844|dock3
  -GOLD-   22720 9583D 1   1.00000     0.00000
 Structure written by MMmdl.
 50 52  0  0  0  0  0  0  0  0  2 V2000
  144.5010  136.8566  153.2234 C   0  0  0  0  0  0  0  0  0  0  0  0
  145.4630  137.1627  152.0620 C   0  0  1  0  0  0  0  0  0  0  0  0
  146.7961  137.4450  152.5881 N   0  0  0  0  0  0  0  0  0  0  0  0
  147.0961  138.4097  153.4690 C   0  0  0  0  0  0  0  0  0  0  0  0
  146.2587  139.1674  153.9576 O   0  0  0  0  0  0  0  0  0  0  0  0
  148.4156  138.4385  153.7243 N   0  0  0  0  0  0  0  0  0  0  0  0
  149.1356  139.2977  154.5985 C   0  0  0  0  0  0  0  0  0  0  0  0
  150.5435  139.2211  154.5793 C   0  0  0  0  0  0  0  0  0  0  0  0
  151.3049  140.0431  155.4349 C   0  0  0  0  0  0  0  0  0  0  0  0
  150.6523  140.9386  156.3194 C   0  0  0  0  0  0  0  0  0  0  0  0
  151.3302  141.8062  157.2060 N   0  0  0  0  0  0  0  0  0  0  0  0
  150.8151  143.1764  157.2986 C   0  0  0  0  0  0  0  0  0  0  0  0
  151.8474  144.1258  157.9303 C   0  0  0  0  0  0  0  0  0  0  0  0
  152.3475  143.5842  159.2764 C   0  0  0  0  0  0  0  0  0  0  0  0
  152.9051  142.1667  159.0911 C   0  0  0  0  0  0  0  0  0  0  0  0
  151.8617  141.2382  158.4468 C   0  0  0  0  0  0  0  0  0  0  0  0
  149.2975  140.9675  156.3078 N   0  3  0  0  0  0  0  0  0  0  0  0
  148.5297  140.2000  155.5046 C   0  0  0  0  0  0  0  0  0  0  0  0
  145.5555  135.9982  151.0572 C   0  0  1  0  0  0  0  0  0  0  0  0
  146.2224  134.7347  151.6023 C   0  0  0  0  0  0  0  0  0  0  0  0
  145.6562  133.6726  150.6888 C   0  0  0  0  0  0  0  0  0  0  0  0
  144.2214  134.1538  150.4975 C   0  0  0  0  0  0  0  0  0  0  0  0
  144.2515  135.5686  150.6703 O   0  0  0  0  0  0  0  0  0  0  0  0
  143.4865  136.6850  152.8641 H   0  0  0  0  0  0  0  0  0  0  0  0
  144.4552  137.6865  153.9292 H   0  0  0  0  0  0  0  0  0  0  0  0
  144.8134  135.9689  153.7741 H   0  0  0  0  0  0  0  0  0  0  0  0
  145.0987  138.0431  151.5289 H   0  0  0  0  0  0  0  0  0  0  0  0
  147.5487  136.8744  152.2321 H   0  0  0  0  0  0  0  0  0  0  0  0
  148.9792  137.7898  153.1947 H   0  0  0  0  0  0  0  0  0  0  0  0
  151.0440  138.5366  153.9098 H   0  0  0  0  0  0  0  0  0  0  0  0
  152.3805  139.9597  155.4010 H   0  0  0  0  0  0  0  0  0  0  0  0
  150.5393  143.5710  156.3210 H   0  0  0  0  0  0  0  0  0  0  0  0
  149.9054  143.1646  157.9001 H   0  0  0  0  0  0  0  0  0  0  0  0
  152.6917  144.2513  157.2508 H   0  0  0  0  0  0  0  0  0  0  0  0
  151.4096  145.1152  158.0650 H   0  0  0  0  0  0  0  0  0  0  0  0
  153.1153  144.2415  159.6858 H   0  0  0  0  0  0  0  0  0  0  0  0
  151.5292  143.5693  159.9975 H   0  0  0  0  0  0  0  0  0  0  0  0
  153.7956  142.2058  158.4623 H   0  0  0  0  0  0  0  0  0  0  0  0
  153.2227  141.7602  160.0516 H   0  0  0  0  0  0  0  0  0  0  0  0
  151.0380  141.0611  159.1396 H   0  0  0  0  0  0  0  0  0  0  0  0
  152.3361  140.2764  158.2503 H   0  0  0  0  0  0  0  0  0  0  0  0
  147.4670  140.3387  155.6326 H   0  0  0  0  0  0  0  0  0  0  0  0
  146.0806  136.3169  150.1549 H   0  0  0  0  0  0  0  0  0  0  0  0
  147.3114  134.7807  151.5750 H   0  0  0  0  0  0  0  0  0  0  0  0
  145.9117  134.5468  152.6311 H   0  0  0  0  0  0  0  0  0  0  0  0
  146.1859  133.6802  149.7352 H   0  0  0  0  0  0  0  0  0  0  0  0
  145.7174  132.6675  151.1068 H   0  0  0  0  0  0  0  0  0  0  0  0
  143.8221  133.8812  149.5204 H   0  0  0  0  0  0  0  0  0  0  0  0
  143.5696  133.7269  151.2605 H   0  0  0  0  0  0  0  0  0  0  0  0
  148.8262  141.6109  156.9441 H   0  0  0  0  0  0  0  0  0  0  0  0
  1  2  1  0  0  0  0
  1 24  1  0  0  0  0
  1 25  1  0  0  0  0
  1 26  1  0  0  0  0
  2  3  1  0  0  0  0
  2 19  1  0  0  0  0
  2 27  1  0  0  0  0
  3  4  1  0  0  0  0
  3 28  1  0  0  0  0
  4  5  2  0  0  0  0
  4  6  1  0  0  0  0
  6  7  1  0  0  0  0
  6 29  1  0  0  0  0
  7 18  1  0  0  0  0
  7  8  2  0  0  0  0
  8  9  1  0  0  0  0
  8 30  1  0  0  0  0
  9 10  2  0  0  0  0
  9 31  1  0  0  0  0
 10 11  1  0  0  0  0
 10 17  1  0  0  0  0
 11 16  1  0  0  0  0
 11 12  1  0  0  0  0
 12 13  1  0  0  0  0
 12 32  1  0  0  0  0
 12 33  1  0  0  0  0
 13 14  1  0  0  0  0
 13 34  1  0  0  0  0
 13 35  1  0  0  0  0
 14 15  1  0  0  0  0
 14 36  1  0  0  0  0
 14 37  1  0  0  0  0
 15 16  1  0  0  0  0
 15 38  1  0  0  0  0
 15 39  1  0  0  0  0
 16 40  1  0  0  0  0
 16 41  1  0  0  0  0
 17 18  2  0  0  0  0
 17 50  1  0  0  0  0
 18 42  1  0  0  0  0
 19 23  1  0  0  0  0
 19 20  1  0  0  0  0
 19 43  1  0  0  0  0
 20 21  1  0  0  0  0
 20 44  1  0  0  0  0
 20 45  1  0  0  0  0
 21 22  1  0  0  0  0
 21 46  1  0  0  0  0
 21 47  1  0  0  0  0
 22 23  1  0  0  0  0
 22 48  1  0  0  0  0
 22 49  1  0  0  0  0
M  CHG  1  17   1
M  END
> <s_m_source_file>
AV-unprocessed.smi

> <i_m_source_file_index>
1940

> <i_lp_mmshare_version>
43012

> <i_f3d_flags>
0

> <s_epik_input>
TzFbQ0gyXVtDSDJdW0NIMl1bQ0BIXTFbQ0BIXShbQ0gzXSlbTkhdQyg9TylbTkhdYzJbY0hdW2NIXWMobltjSF0yKU4zW0NIMl1bQ0gyXVtDSDJdW0NIMl1bQ0gyXTM=

> <s_epik_cmdline>
J2VwaWtfcHl0aG9uJywgJy1waCcsICc3LjAnLCAnLXRuJywgJzgnLCAnLW1hJywgJzIwMCcsICctbWV0YWxfYmluZGluZycsICctaW1hZScsICc8aW5maWxlLm1hZT4nLCAnLW9tYWUnLCAnPG91dGZpbGUubWFlPic=

> <r_lp_tautomer_probability>
0.999994

> <r_epik_Ionization_Penalty>
1.10603

> <r_epik_Ionization_Penalty_Charging>
1.10601

> <r_epik_Ionization_Penalty_Neutral>
1.929e-05

> <r_epik_State_Penalty>
1.16358

> <r_epik_Charging_Adjusted_Penalty>
2.26959

> <i_epik_Tot_Q>
1

> <i_epik_Tot_abs_Q>
1

> <r_epik_Metal_State_Penalty>
1.25013

> <b_epik_Metal_Only>
0

> <s_lp_Force_Field>
OPLS_2005

> <r_lp_Energy>
39.2756

> <b_lp_Chiralities_Consistent>
1

> <s_lp_Variant>
AV-unprocessed.smi:1940-8

> <Gold.Version>
5.8.1

> <Gold.Id.Protein>
6NUR|6NUR_protein|mol2

> <Gold.PLP.Fitness>
45.8241

> <Gold.PLP.PLP>
-42.1956

> <Gold.PLP.part.hbond>
-1.9979

> <Gold.PLP.part.metal>
0.0000

> <Gold.PLP.part.buried>
-2.7919

> <Gold.PLP.part.nonpolar>
-39.5194

> <Gold.PLP.part.repulsive>
0.5217

> <Gold.PLP.ligand.clash>
0.0000

> <Gold.PLP.ligand.torsion>
1.1522

> <Gold.PLP.Chemscore.Hbond>
1.8800

> <Gold.PLP.Chemscore.CHOScore>
0.0000

> <Gold.PLP.Chemscore.Metal>
0.0000

> <Gold.Chemscore.Hbonds>
donor molecule, donor type, donor heavy atom, donor atom, acceptor molecule, acceptor atom, score
      L1  H     3    28       P1  7948  1.00
      L1  H     6    29       P1  7948  0.93

> <Gold.PLP.Chemscore.Internal.Correction>
0.2928

> <Gold.Rescore>
     Score         DG    S(hbond)    S(metal)    S(lipo)     H(rot)  DE(clash)    DE(int)     intcor
     19.02     -21.61       1.86        0.00     110.52       1.18       0.41       2.18       ----

> <Gold.Chemscore.Fitness>
19.0229

> <Gold.Chemscore.DG>
-21.6110

> <Gold.Chemscore.ZeroCoef>
-5.4800

> <Gold.Chemscore.Hbond>
1.8616

> <Gold.Chemscore.Metal>
0.0000

> <Gold.Chemscore.Lipo>
110.5167

> <Gold.Chemscore.Internal_Hbond>
0.0000

> <Gold.Chemscore.DEClash>
0.4115

> <Gold.Chemscore.DEInternal>
2.1765

> <Gold.Chemscore.Rot>
1.1786

> <Gold.Chemscore.Internal.Correction>
   9.000000E+99

> <Gold.Chemscore.Hbonds>
donor molecule, donor type, donor heavy atom, donor atom, acceptor molecule, acceptor atom, score
      L1  H     3    28       P1  7948  0.97
      L1  H     6    29       P1  7948  0.84

> <Gold.Chemscore.Hbond.Weighted>
-6.2179

> <Gold.Chemscore.Metal.Weighted>
-0.0000

> <Gold.Chemscore.Lipo.Weighted>
-12.9305

> <Gold.Chemscore.Internal_Hbond.Weighted>
0.0000

> <Gold.Chemscore.DEClash.Weighted>
0.4115

> <Gold.Chemscore.DEInternal.Weighted>
2.1765

> <Gold.Chemscore.Rot.Weighted>
3.0173

> <Gold.Chemscore.Internal.Correction.Weighted>
   9.000000E+99

> <Gold.Protein.RotatedTorsions>
[ 6907 6896 6895 6894 ] final -132.86 input  -60.11 | X-H torsion
[ 7974 7965 7964 7962 ] final  -45.93 input  175.53 | X-H torsion
[ 8008 7997 7996 7995 ] final  -86.88 input   59.86 | X-H torsion
[ 10167 10162 10161 10158 ] final  -94.28 input  -65.29 | X-H torsion
[ 10718 10713 10712 10709 ] final  -85.67 input   66.30 | X-H torsion
[ 10763 10752 10751 10750 ] final   58.24 input  -60.55 | X-H torsion
[ 11005 11000 10999 10996 ] final  118.96 input  -57.11 | X-H torsion

> <Gold.Protein.ActiveResidues>
 VAL166  LYS551  ARG553  GLY616  TRP617  ASP618  TYR619  PRO620  LYS621  CYS622 
 ASP623  PHE694  ASN695  SER759  ASP760  ASP761  ALA762  ILE779  LEU786  VAL792 
 PHE793  MET794  SER795  GLU796  ALA797  LYS798  CYS799  TRP800  GLU811  SER814 

> <Gold.Protein.RotatedAtoms>
  150.9672  133.6382  159.2743 H   0  0  0  0  0  0  0  0  0  0  0  0  # atno 6907 bound_to 6896
  151.3683  135.0916  159.9467 H   0  0  0  0  0  0  0  0  0  0  0  0  # atno 6908 bound_to 6896
  152.5170  133.9232  159.7599 H   0  0  0  0  0  0  0  0  0  0  0  0  # atno 6909 bound_to 6896
  145.9771  140.7323  142.9382 H   0  0  0  0  0  0  0  0  0  0  0  0  # atno 7974 bound_to 7965
  154.6569  140.0573  157.0018 H   0  0  0  0  0  0  0  0  0  0  0  0  # atno 8008 bound_to 7997
  155.1287  140.3254  155.4461 H   0  0  0  0  0  0  0  0  0  0  0  0  # atno 8009 bound_to 7997
  156.2601  140.1984  156.6407 H   0  0  0  0  0  0  0  0  0  0  0  0  # atno 8010 bound_to 7997
  140.3160  143.3076  152.0097 H   0  0  0  0  0  0  0  0  0  0  0  0  # atno 10167 bound_to 10162
  155.9995  130.4739  150.4597 H   0  0  0  0  0  0  0  0  0  0  0  0  # atno 10718 bound_to 10713
  152.9866  135.5614  154.5520 H   0  0  0  0  0  0  0  0  0  0  0  0  # atno 10763 bound_to 10752
  154.4955  135.2795  155.1465 H   0  0  0  0  0  0  0  0  0  0  0  0  # atno 10764 bound_to 10752
  154.2917  135.6325  153.5441 H   0  0  0  0  0  0  0  0  0  0  0  0  # atno 10765 bound_to 10752
  139.9128  134.9624  156.7582 H   0  0  0  0  0  0  0  0  0  0  0  0  # atno 11005 bound_to 11000
  144.6851  140.2845  143.7287 LP  0  0  0  0  0  0  0  0  0  0  0  0  # atno 17320 bound_to 7965
  145.7824  139.1896  143.2150 LP  0  0  0  0  0  0  0  0  0  0  0  0  # atno 17321 bound_to 7965
  139.4884  144.6347  151.6998 LP  0  0  0  0  0  0  0  0  0  0  0  0  # atno 17342 bound_to 10162
  140.5525  144.0401  150.6133 LP  0  0  0  0  0  0  0  0  0  0  0  0  # atno 17343 bound_to 10162
  157.2622  131.0569  151.2313 LP  0  0  0  0  0  0  0  0  0  0  0  0  # atno 17370 bound_to 10713
  157.3423  130.7040  149.6389 LP  0  0  0  0  0  0  0  0  0  0  0  0  # atno 17371 bound_to 10713
  140.6719  133.9552  155.7861 LP  0  0  0  0  0  0  0  0  0  0  0  0  # atno 17394 bound_to 11000
  141.0572  134.0400  157.3707 LP  0  0  0  0  0  0  0  0  0  0  0  0  # atno 17395 bound_to 11000

$$$$
