#       Name:                AV-unprocessed.smi:946
#       Creating user name   scv26
#       Creation time:       Fri Mar 27 02:14:23 2020


#       File generated by GOLD software.
#

@<TRIPOS>MOLECULE
AV-unprocessed.smi:946
    49    50     1
SMALL
NO_CHARGES


@<TRIPOS>ATOM
      1 ****        -1.4105  -2.5241   2.2460 C.3            1 S1                 0.0000
      2 ****        -1.0025  -1.6820   1.0279 C.3            1 S1                 0.0000
      3 ****         0.4201  -1.6051   1.0169 O.3            1 S1                 0.0000
      4 ****         0.9985  -1.1622  -0.2054 C.3            1 S1                 0.0000
      5 ****         2.5256  -1.2366  -0.0813 C.3            1 S1                 0.0000
      6 ****         3.2345  -0.5378  -1.2583 C.3            1 S1                 0.0000
      7 ****         4.7543  -0.7098  -1.1514 C.3            1 S1                 0.0000
      8 ****         5.0977  -2.1960  -1.0046 C.3            1 S1                 0.0000
      9 ****         4.2930  -2.8175   0.1475 C.3            1 S1                 0.0000
     10 ****         2.9007  -2.6126  -0.0711 O.3            1 S1                 0.0000
     11 ****        -1.6128  -0.2723   1.0884 C.2            1 S1                 0.0000
     12 ****        -1.5151   0.3911   2.1214 O.2            1 S1                 0.0000
     13 ****        -2.2142   0.1529  -0.0387 N.am           1 S1                 0.0000
     14 ****        -2.8697   1.3905  -0.2718 C.ar           1 S1                 0.0000
     15 ****        -3.3447   1.5795  -1.5883 C.ar           1 S1                 0.0000
     16 ****        -4.0112   2.7747  -1.9179 C.ar           1 S1                 0.0000
     17 ****        -4.1887   3.7513  -0.9221 C.ar           1 S1                 0.0000
     18 ****        -3.6878   3.4872   0.3705 C.ar           1 S1                 0.0000
     19 ****        -3.8411   4.4883   1.5068 C.3            1 S1                 0.0000
     20 ****        -4.4716   5.5942   1.1090 F              1 S1                 0.0000
     21 ****        -4.5414   3.9378   2.4988 F              1 S1                 0.0000
     22 ****        -2.6386   4.8319   1.9687 F              1 S1                 0.0000
     23 ****        -3.0473   2.3377   0.6816 N.ar           1 S1                 0.0000
     24 ****        -2.4951  -2.6029   2.3288 H              1 S1                 0.0000
     25 ****        -1.0327  -2.0960   3.1753 H              1 S1                 0.0000
     26 ****        -1.0123  -3.5358   2.1655 H              1 S1                 0.0000
     27 ****        -1.3468  -2.1976   0.1290 H              1 S1                 0.0000
     28 ****         0.6554  -1.7744  -1.0410 H              1 S1                 0.0000
     29 ****         0.7004  -0.1331  -0.4084 H              1 S1                 0.0000
     30 ****         2.8285  -0.7649   0.8553 H              1 S1                 0.0000
     31 ****         2.8855  -0.9596  -2.2018 H              1 S1                 0.0000
     32 ****         2.9817   0.5228  -1.2777 H              1 S1                 0.0000
     33 ****         5.2496  -0.2882  -2.0266 H              1 S1                 0.0000
     34 ****         5.1246  -0.1603  -0.2852 H              1 S1                 0.0000
     35 ****         4.8674  -2.7198  -1.9331 H              1 S1                 0.0000
     36 ****         6.1666  -2.3213  -0.8306 H              1 S1                 0.0000
     37 ****         4.4869  -3.8886   0.2048 H              1 S1                 0.0000
     38 ****         4.5888  -2.3890   1.1063 H              1 S1                 0.0000
     39 ****        -2.1975  -0.4852  -0.8207 H              1 S1                 0.0000
     40 ****        -3.2008   0.8192  -2.3423 H              1 S1                 0.0000
     41 ****        -4.3803   2.9389  -2.9194 H              1 S1                 0.0000
     42 ****        -4.6976   4.6758  -1.1521 H              1 S1                 0.0000
     43 ****         0.7798  -2.5168   1.2158 LP             1 S1                 0.0000
     44 ****         0.7003  -0.9716   1.7381 LP             1 S1                 0.0000
     45 ****         2.6558  -3.0145  -0.9534 LP             1 S1                 0.0000
     46 ****         2.3942  -3.0739   0.6574 LP             1 S1                 0.0000
     47 ****        -1.0404   0.0123   2.9159 LP             1 S1                 0.0000
     48 ****        -1.9104   1.3085   2.1657 LP             1 S1                 0.0000
     49 ****        -2.7066   2.1871   1.6097 LP             1 S1                 0.0000
@<TRIPOS>BOND
    1    1    2 1     
    2    1   24 1     
    3    1   25 1     
    4    1   26 1     
    5    2    3 1     
    6    2   11 1     
    7    2   27 1     
    8    3    4 1     
    9    4    5 1     
   10    4   28 1     
   11    4   29 1     
   12    5   10 1     
   13    5    6 1     
   14    5   30 1     
   15    6    7 1     
   16    6   31 1     
   17    6   32 1     
   18    7    8 1     
   19    7   33 1     
   20    7   34 1     
   21    8    9 1     
   22    8   35 1     
   23    8   36 1     
   24    9   10 1     
   25    9   37 1     
   26    9   38 1     
   27   11   12 2     
   28   11   13 am    
   29   13   14 1     
   30   13   39 1     
   31   14   23 ar    
   32   14   15 ar    
   33   15   16 ar    
   34   15   40 1     
   35   16   17 ar    
   36   16   41 1     
   37   17   18 ar    
   38   17   42 1     
   39   18   19 1     
   40   18   23 ar    
   41   19   20 1     
   42   19   21 1     
   43   19   22 1     
   44    3   43 1     
   45    3   44 1     
   46   10   45 1     
   47   10   46 1     
   48   12   47 1     
   49   12   48 1     
   50   23   49 1     
@<TRIPOS>SUBSTRUCTURE
      1 S1             1
@<TRIPOS>SET
LONE_PAIRS      STATIC     ATOMS    <user>   **** ""
7 43 44 45 46 47 48 49
DONOR_HYDROGENS      STATIC     ATOMS    <user>   **** ""
1 39
ATOM$BLUE        STATIC     ATOMS    COLORGROUP SYSTEM
7 43 44 45 46 47 48 49
ATOM$RED        STATIC     ATOMS    COLORGROUP SYSTEM
1 39
