#       Name:                AV-unprocessed.smi:554
#       Creating user name   scv26
#       Creation time:       Thu Mar 26 23:40:05 2020


#       File generated by GOLD software.
#

@<TRIPOS>MOLECULE
AV-unprocessed.smi:554
    30    31     1
SMALL
NO_CHARGES


@<TRIPOS>ATOM
      1 ****        -3.1696  -0.9872  -0.8656 C.3            1 S1                 0.0000
      2 ****        -1.9292  -1.1032  -1.7243 C.3            1 S1                 0.0000
      3 ****        -1.9566  -0.7015  -3.1801 C.3            1 S1                 0.0000
      4 ****        -1.1910   0.1359  -2.1824 C.3            1 S1                 0.0000
      5 ****         0.3247   0.1764  -2.2214 C.3            1 S1                 0.0000
      6 ****         0.9511   0.7975  -1.0617 N.am           1 S1                 0.0000
      7 ****         1.0816   0.2197   0.1410 C.2            1 S1                 0.0000
      8 ****         0.6901  -0.9204   0.3930 O.2            1 S1                 0.0000
      9 ****         1.6862   1.0446   1.0139 N.am           1 S1                 0.0000
     10 ****         2.0013   0.8033   2.3770 C.2            1 S1                 0.0000
     11 ****         1.7454  -0.3418   3.0205 N.2            1 S1                 0.0000
     12 ****         2.1629  -0.2990   4.3531 C.2            1 S1                 0.0000
     13 ****         2.7390   0.8948   4.7100 C.2            1 S1                 0.0000
     14 ****         2.7809   2.0192   3.3782 S.3            1 S1                 0.0000
     15 ****        -3.7565  -0.1124  -1.1476 H              1 S1                 0.0000
     16 ****        -2.8888  -0.8938   0.1835 H              1 S1                 0.0000
     17 ****        -3.7904  -1.8755  -0.9829 H              1 S1                 0.0000
     18 ****        -1.3140  -1.9680  -1.4831 H              1 S1                 0.0000
     19 ****        -1.3845  -1.3102  -3.8774 H              1 S1                 0.0000
     20 ****        -2.8820  -0.2875  -3.5754 H              1 S1                 0.0000
     21 ****        -1.6462   1.0937  -1.9361 H              1 S1                 0.0000
     22 ****         0.7169  -0.8323  -2.3612 H              1 S1                 0.0000
     23 ****         0.6258   0.7449  -3.1015 H              1 S1                 0.0000
     24 ****         1.3028   1.7361  -1.1820 H              1 S1                 0.0000
     25 ****         1.9497   1.9538   0.6634 H              1 S1                 0.0000
     26 ****         2.0111  -1.1660   4.9789 H              1 S1                 0.0000
     27 ****         3.1399   1.1792   5.6715 H              1 S1                 0.0000
     28 ****         0.2480  -1.4660  -0.3190 LP             1 S1                 0.0000
     29 ****         0.8143  -1.3006   1.3095 LP             1 S1                 0.0000
     30 ****         1.3070  -1.1348   2.5973 LP             1 S1                 0.0000
@<TRIPOS>BOND
    1    1    2 1     
    2    1   15 1     
    3    1   16 1     
    4    1   17 1     
    5    2    4 1     
    6    2    3 1     
    7    2   18 1     
    8    3    4 1     
    9    3   19 1     
   10    3   20 1     
   11    4    5 1     
   12    4   21 1     
   13    5    6 1     
   14    5   22 1     
   15    5   23 1     
   16    6    7 am    
   17    6   24 1     
   18    7    8 2     
   19    7    9 am    
   20    9   10 1     
   21    9   25 1     
   22   10   14 1     
   23   10   11 2     
   24   11   12 1     
   25   12   13 2     
   26   12   26 1     
   27   13   14 1     
   28   13   27 1     
   29    8   28 1     
   30    8   29 1     
   31   11   30 1     
@<TRIPOS>SUBSTRUCTURE
      1 S1             1
@<TRIPOS>SET
LONE_PAIRS      STATIC     ATOMS    <user>   **** ""
3 28 29 30
DONOR_HYDROGENS      STATIC     ATOMS    <user>   **** ""
2 24 25
ATOM$BLUE        STATIC     ATOMS    COLORGROUP SYSTEM
3 28 29 30
ATOM$RED        STATIC     ATOMS    COLORGROUP SYSTEM
2 24 25
