AV-unprocessed.smi:2627|AV-procd|sdf|10239|dock6
  -GOLD-   2272014243D 1   1.00000     0.00000
 Structure written by MMmdl.
 39 41  0  0  0  0  0  0  0  0  1 V2000
  153.3464  138.3102  160.3962 C   0  0  0  0  0  0  0  0  0  0  0  0
  153.3853  139.0262  159.0397 C   0  0  2  0  0  0  0  0  0  0  0  0
  154.7030  138.9408  158.5347 O   0  0  0  0  0  0  0  0  0  0  0  0
  152.9022  140.4476  159.1429 C   0  0  0  0  0  0  0  0  0  0  0  0
  153.4007  141.3057  160.0362 N   0  0  0  0  0  0  0  0  0  0  0  0
  152.6816  142.4584  159.7903 C   0  0  0  0  0  0  0  0  0  0  0  0
  152.7496  143.7311  160.4007 C   0  0  0  0  0  0  0  0  0  0  0  0
  151.9031  144.7744  159.9720 C   0  0  0  0  0  0  0  0  0  0  0  0
  150.9784  144.5603  158.9294 C   0  0  0  0  0  0  0  0  0  0  0  0
  150.8934  143.2989  158.3091 C   0  0  0  0  0  0  0  0  0  0  0  0
  151.7406  142.2609  158.7412 C   0  0  0  0  0  0  0  0  0  0  0  0
  151.9087  140.9349  158.3555 N   0  0  0  0  0  0  0  0  0  0  0  0
  151.1620  140.2487  157.3129 C   0  0  0  0  0  0  0  0  0  0  0  0
  151.2617  140.9859  155.9723 C   0  0  0  0  0  0  0  0  0  0  0  0
  150.7619  140.1357  154.9504 O   0  0  0  0  0  0  0  0  0  0  0  0
  149.4680  140.3303  154.5166 C   0  0  0  0  0  0  0  0  0  0  0  0
  148.9583  141.6431  154.5939 C   0  0  0  0  0  0  0  0  0  0  0  0
  147.6462  141.9333  154.1732 C   0  0  0  0  0  0  0  0  0  0  0  0
  146.8270  140.9076  153.6671 C   0  0  0  0  0  0  0  0  0  0  0  0
  147.3226  139.5931  153.5829 C   0  0  0  0  0  0  0  0  0  0  0  0
  148.6350  139.3028  154.0045 C   0  0  0  0  0  0  0  0  0  0  0  0
  152.3361  138.3026  160.8058 H   0  0  0  0  0  0  0  0  0  0  0  0
  153.9955  138.8013  161.1223 H   0  0  0  0  0  0  0  0  0  0  0  0
  153.6726  137.2738  160.3046 H   0  0  0  0  0  0  0  0  0  0  0  0
  152.7596  138.4828  158.3328 H   0  0  0  0  0  0  0  0  0  0  0  0
  155.0058  138.0519  158.6395 H   0  0  0  0  0  0  0  0  0  0  0  0
  153.4557  143.9052  161.1990 H   0  0  0  0  0  0  0  0  0  0  0  0
  151.9645  145.7438  160.4445 H   0  0  0  0  0  0  0  0  0  0  0  0
  150.3346  145.3652  158.6059 H   0  0  0  0  0  0  0  0  0  0  0  0
  150.1866  143.1323  157.5097 H   0  0  0  0  0  0  0  0  0  0  0  0
  151.5236  139.2246  157.2214 H   0  0  0  0  0  0  0  0  0  0  0  0
  150.1189  140.1741  157.6214 H   0  0  0  0  0  0  0  0  0  0  0  0
  150.6801  141.9080  156.0172 H   0  0  0  0  0  0  0  0  0  0  0  0
  152.3008  141.2480  155.7667 H   0  0  0  0  0  0  0  0  0  0  0  0
  149.5799  142.4372  154.9814 H   0  0  0  0  0  0  0  0  0  0  0  0
  147.2691  142.9432  154.2393 H   0  0  0  0  0  0  0  0  0  0  0  0
  145.8205  141.1285  153.3440 H   0  0  0  0  0  0  0  0  0  0  0  0
  146.6951  138.8048  153.1937 H   0  0  0  0  0  0  0  0  0  0  0  0
  148.9789  138.2829  153.9237 H   0  0  0  0  0  0  0  0  0  0  0  0
  1  2  1  0  0  0  0
  1 22  1  0  0  0  0
  1 23  1  0  0  0  0
  1 24  1  0  0  0  0
  2  3  1  0  0  0  0
  2  4  1  0  0  0  0
  2 25  1  0  0  0  0
  3 26  1  0  0  0  0
  4 12  1  0  0  0  0
  4  5  2  0  0  0  0
  5  6  1  0  0  0  0
  6 11  2  0  0  0  0
  6  7  1  0  0  0  0
  7  8  2  0  0  0  0
  7 27  1  0  0  0  0
  8  9  1  0  0  0  0
  8 28  1  0  0  0  0
  9 10  2  0  0  0  0
  9 29  1  0  0  0  0
 10 11  1  0  0  0  0
 10 30  1  0  0  0  0
 11 12  1  0  0  0  0
 12 13  1  0  0  0  0
 13 14  1  0  0  0  0
 13 31  1  0  0  0  0
 13 32  1  0  0  0  0
 14 15  1  0  0  0  0
 14 33  1  0  0  0  0
 14 34  1  0  0  0  0
 15 16  1  0  0  0  0
 16 21  1  0  0  0  0
 16 17  2  0  0  0  0
 17 18  1  0  0  0  0
 17 35  1  0  0  0  0
 18 19  2  0  0  0  0
 18 36  1  0  0  0  0
 19 20  1  0  0  0  0
 19 37  1  0  0  0  0
 20 21  2  0  0  0  0
 20 38  1  0  0  0  0
 21 39  1  0  0  0  0
M  END
> <s_m_source_file>
AV-unprocessed.smi

> <i_m_source_file_index>
2627

> <i_lp_mmshare_version>
43012

> <i_f3d_flags>
0

> <s_epik_input>
W2NIXTFbY0hdW2NIXVtjSF1jKGMxMiluKGMobjIpW0NASF0oW0NIM10pW09IXSlbQ0gyXVtDSDJdT2MzW2NIXVtjSF1bY0hdW2NIXVtjSF0z

> <s_epik_cmdline>
J2VwaWtfcHl0aG9uJywgJy1waCcsICc3LjAnLCAnLXRuJywgJzgnLCAnLW1hJywgJzIwMCcsICctbWV0YWxfYmluZGluZycsICctaW1hZScsICc8aW5maWxlLm1hZT4nLCAnLW9tYWUnLCAnPG91dGZpbGUubWFlPic=

> <r_lp_tautomer_probability>
1

> <r_epik_Ionization_Penalty>
0.0472514

> <r_epik_Ionization_Penalty_Charging>
0

> <r_epik_Ionization_Penalty_Neutral>
0.0472514

> <r_epik_State_Penalty>
0.040225

> <r_epik_Charging_Adjusted_Penalty>
0.040225

> <i_epik_Tot_Q>
0

> <i_epik_Tot_abs_Q>
0

> <r_epik_Metal_State_Penalty>
4.16204e-05

> <b_epik_Metal_Only>
0

> <s_lp_Force_Field>
OPLS_2005

> <r_lp_Energy>
15.0565

> <b_lp_Chiralities_Consistent>
1

> <s_lp_Variant>
AV-unprocessed.smi:2627-1

> <Gold.Version>
5.8.1

> <Gold.Id.Protein>
6NUR|6NUR_protein|mol2

> <Gold.PLP.Fitness>
51.4043

> <Gold.PLP.PLP>
-47.2847

> <Gold.PLP.part.hbond>
-2.0000

> <Gold.PLP.part.metal>
0.0000

> <Gold.PLP.part.buried>
-2.7471

> <Gold.PLP.part.nonpolar>
-40.5830

> <Gold.PLP.part.repulsive>
0.0568

> <Gold.PLP.ligand.clash>
0.0000

> <Gold.PLP.ligand.torsion>
0.8205

> <Gold.PLP.Chemscore.Hbond>
1.9000

> <Gold.PLP.Chemscore.CHOScore>
0.0000

> <Gold.PLP.Chemscore.Metal>
0.0000

> <Gold.Chemscore.Hbonds>
donor molecule, donor type, donor heavy atom, donor atom, acceptor molecule, acceptor atom, score
      P1  H  7989  7998       L1    15  0.86
      P1  H  7997  8010       L1     3  1.00

> <Gold.PLP.Chemscore.Internal.Correction>
0.0606

> <Gold.Rescore>
     Score         DG    S(hbond)    S(metal)    S(lipo)     H(rot)  DE(clash)    DE(int)     intcor
     18.22     -19.06       0.99        0.00     132.70       2.06       0.03       0.81       ----

> <Gold.Chemscore.Fitness>
18.2198

> <Gold.Chemscore.DG>
-19.0577

> <Gold.Chemscore.ZeroCoef>
-5.4800

> <Gold.Chemscore.Hbond>
0.9939

> <Gold.Chemscore.Metal>
0.0000

> <Gold.Chemscore.Lipo>
132.7014

> <Gold.Chemscore.Internal_Hbond>
0.0000

> <Gold.Chemscore.DEClash>
0.0307

> <Gold.Chemscore.DEInternal>
0.8071

> <Gold.Chemscore.Rot>
2.0577

> <Gold.Chemscore.Internal.Correction>
   9.000000E+99

> <Gold.Chemscore.Hbonds>
donor molecule, donor type, donor heavy atom, donor atom, acceptor molecule, acceptor atom, score
      P1  H  7989  7998       L1    15  0.04
      P1  H  7997  8010       L1     3  0.96

> <Gold.Chemscore.Hbond.Weighted>
-3.3195

> <Gold.Chemscore.Metal.Weighted>
-0.0000

> <Gold.Chemscore.Lipo.Weighted>
-15.5261

> <Gold.Chemscore.Internal_Hbond.Weighted>
0.0000

> <Gold.Chemscore.DEClash.Weighted>
0.0307

> <Gold.Chemscore.DEInternal.Weighted>
0.8071

> <Gold.Chemscore.Rot.Weighted>
5.2678

> <Gold.Chemscore.Internal.Correction.Weighted>
   9.000000E+99

> <Gold.Protein.RotatedTorsions>
[ 6907 6896 6895 6894 ] final -167.71 input  -60.11 | X-H torsion
[ 7974 7965 7964 7962 ] final  119.66 input  175.53 | X-H torsion
[ 8008 7997 7996 7995 ] final  -13.30 input   59.86 | X-H torsion
[ 10167 10162 10161 10158 ] final -167.72 input  -65.29 | X-H torsion
[ 10718 10713 10712 10709 ] final -103.58 input   66.30 | X-H torsion
[ 10763 10752 10751 10750 ] final -136.12 input  -60.55 | X-H torsion
[ 11005 11000 10999 10996 ] final -148.79 input  -57.11 | X-H torsion

> <Gold.Protein.ActiveResidues>
 VAL166  LYS551  ARG553  GLY616  TRP617  ASP618  TYR619  PRO620  LYS621  CYS622 
 ASP623  PHE694  ASN695  SER759  ASP760  ASP761  ALA762  ILE779  LEU786  VAL792 
 PHE793  MET794  SER795  GLU796  ALA797  LYS798  CYS799  TRP800  GLU811  SER814 

> <Gold.Protein.RotatedAtoms>
  151.4639  133.3586  159.2812 H   0  0  0  0  0  0  0  0  0  0  0  0  # atno 6907 bound_to 6896
  150.9007  134.8420  159.7368 H   0  0  0  0  0  0  0  0  0  0  0  0  # atno 6908 bound_to 6896
  152.4877  134.4559  159.9641 H   0  0  0  0  0  0  0  0  0  0  0  0  # atno 6909 bound_to 6896
  145.1405  139.3271  143.4618 H   0  0  0  0  0  0  0  0  0  0  0  0  # atno 7974 bound_to 7965
  154.5304  140.2253  155.8815 H   0  0  0  0  0  0  0  0  0  0  0  0  # atno 8008 bound_to 7997
  156.1757  140.3111  155.9019 H   0  0  0  0  0  0  0  0  0  0  0  0  # atno 8009 bound_to 7997
  155.3464  140.0453  157.3036 H   0  0  0  0  0  0  0  0  0  0  0  0  # atno 8010 bound_to 7997
  139.6031  144.0970  152.1764 H   0  0  0  0  0  0  0  0  0  0  0  0  # atno 10167 bound_to 10162
  156.0271  130.5474  150.7274 H   0  0  0  0  0  0  0  0  0  0  0  0  # atno 10718 bound_to 10713
  154.8690  135.3682  154.5009 H   0  0  0  0  0  0  0  0  0  0  0  0  # atno 10763 bound_to 10752
  153.5650  135.7022  153.5535 H   0  0  0  0  0  0  0  0  0  0  0  0  # atno 10764 bound_to 10752
  153.3593  135.4051  155.1670 H   0  0  0  0  0  0  0  0  0  0  0  0  # atno 10765 bound_to 10752
  140.7575  134.3336  157.5110 H   0  0  0  0  0  0  0  0  0  0  0  0  # atno 11005 bound_to 11000
  146.3505  140.1440  142.8594 LP  0  0  0  0  0  0  0  0  0  0  0  0  # atno 17320 bound_to 7965
  145.0537  140.9037  143.4980 LP  0  0  0  0  0  0  0  0  0  0  0  0  # atno 17321 bound_to 7965
  140.0570  144.5887  150.7292 LP  0  0  0  0  0  0  0  0  0  0  0  0  # atno 17342 bound_to 10162
  140.7264  143.2641  151.4104 LP  0  0  0  0  0  0  0  0  0  0  0  0  # atno 17343 bound_to 10162
  157.4875  131.0908  151.0466 LP  0  0  0  0  0  0  0  0  0  0  0  0  # atno 17370 bound_to 10713
  157.0882  130.5931  149.5434 LP  0  0  0  0  0  0  0  0  0  0  0  0  # atno 17371 bound_to 10713
  139.8776  134.9181  156.3194 LP  0  0  0  0  0  0  0  0  0  0  0  0  # atno 17394 bound_to 11000
  140.9694  133.7337  156.0513 LP  0  0  0  0  0  0  0  0  0  0  0  0  # atno 17395 bound_to 11000

$$$$
