#       Name:                AV-unprocessed.smi:2072
#       Creating user name   scv26
#       Creation time:       Fri Mar 27 11:14:31 2020


#       File generated by GOLD software.
#

@<TRIPOS>MOLECULE
AV-unprocessed.smi:2072
    43    45     1
SMALL
NO_CHARGES


@<TRIPOS>ATOM
      1 ****         1.6205   1.0673   0.9098 O.2            1 S1                 0.0000
      2 ****         1.2974  -0.1080   1.0776 C.2            1 S1                 0.0000
      3 ****         2.1440  -1.1446   1.2007 N.am           1 S1                 0.0000
      4 ****         3.5653  -1.1527   1.1521 C.ar           1 S1                 0.0000
      5 ****         4.3631  -0.0869   0.6676 C.ar           1 S1                 0.0000
      6 ****         5.7638  -0.2331   0.6644 C.ar           1 S1                 0.0000
      7 ****         6.3167  -1.4386   1.1375 C.ar           1 S1                 0.0000
      8 ****         5.5694  -2.4660   1.5923 N.ar           1 S1                 0.0000
      9 ****         4.2275  -2.3184   1.5934 C.ar           1 S1                 0.0000
     10 ****         0.0220  -0.5110   1.1668 N.am           1 S1                 0.0000
     11 ****        -1.1357   0.3759   1.0840 C.3            1 S1                 0.0000
     12 ****        -2.4345  -0.2765   1.5401 C.3            1 S1                 0.0000
     13 ****        -3.5089   0.6317   0.9324 C.3            1 S1                 0.0000
     14 ****        -2.9097   1.2632  -0.2695 N.4            1 S1                 1.0000
     15 ****        -3.6889   1.0479  -1.5184 C.3            1 S1                 0.0000
     16 ****        -2.8406   1.3668  -2.7588 C.3            1 S1                 0.0000
     17 ****        -1.6090   0.4461  -2.8530 C.3            1 S1                 0.0000
     18 ****        -1.1973  -0.1296  -1.4844 C.3            1 S1                 0.0000
     19 ****        -1.4726   0.8718  -0.3357 C.3            1 S1                 0.0000
     20 ****         1.7191  -2.0404   1.3912 H              1 S1                 0.0000
     21 ****         3.9395   0.8299   0.2897 H              1 S1                 0.0000
     22 ****         6.4001   0.5610   0.3028 H              1 S1                 0.0000
     23 ****         7.3871  -1.5832   1.1466 H              1 S1                 0.0000
     24 ****         3.6625  -3.1619   1.9628 H              1 S1                 0.0000
     25 ****        -0.1606  -1.4939   1.3091 H              1 S1                 0.0000
     26 ****        -0.9596   1.2432   1.7242 H              1 S1                 0.0000
     27 ****        -2.5218  -1.2816   1.1242 H              1 S1                 0.0000
     28 ****        -2.5126  -0.3530   2.6251 H              1 S1                 0.0000
     29 ****        -4.4249   0.0797   0.7171 H              1 S1                 0.0000
     30 ****        -3.7676   1.4259   1.6335 H              1 S1                 0.0000
     31 ****        -4.0298   0.0127  -1.5762 H              1 S1                 0.0000
     32 ****        -4.5821   1.6728  -1.4917 H              1 S1                 0.0000
     33 ****        -3.4398   1.2798  -3.6656 H              1 S1                 0.0000
     34 ****        -2.5157   2.4070  -2.7078 H              1 S1                 0.0000
     35 ****        -1.8077  -0.3784  -3.5385 H              1 S1                 0.0000
     36 ****        -0.7803   1.0070  -3.2869 H              1 S1                 0.0000
     37 ****        -1.7501  -1.0517  -1.2991 H              1 S1                 0.0000
     38 ****        -0.1445  -0.4106  -1.5215 H              1 S1                 0.0000
     39 ****        -0.8894   1.7711  -0.5399 H              1 S1                 0.0000
     40 ****        -2.9133   2.2584  -0.0965 H              1 S1                 0.0000
     41 ****         2.5872   1.3171   0.8543 LP             1 S1                 0.0000
     42 ****         0.9164   1.7728   0.8288 LP             1 S1                 0.0000
     43 ****         5.9959  -3.3097   1.9181 LP             1 S1                 0.0000
@<TRIPOS>BOND
    1    1    2 2     
    2    2    3 am    
    3    2   10 am    
    4    3    4 1     
    5    3   20 1     
    6    4    9 ar    
    7    4    5 ar    
    8    5    6 ar    
    9    5   21 1     
   10    6    7 ar    
   11    6   22 1     
   12    7    8 ar    
   13    7   23 1     
   14    8    9 ar    
   15    9   24 1     
   16   10   11 1     
   17   10   25 1     
   18   11   19 1     
   19   11   12 1     
   20   11   26 1     
   21   12   13 1     
   22   12   27 1     
   23   12   28 1     
   24   13   14 1     
   25   13   29 1     
   26   13   30 1     
   27   14   19 1     
   28   14   15 1     
   29   14   40 1     
   30   15   16 1     
   31   15   31 1     
   32   15   32 1     
   33   16   17 1     
   34   16   33 1     
   35   16   34 1     
   36   17   18 1     
   37   17   35 1     
   38   17   36 1     
   39   18   19 1     
   40   18   37 1     
   41   18   38 1     
   42   19   39 1     
   43    1   41 1     
   44    1   42 1     
   45    8   43 1     
@<TRIPOS>SUBSTRUCTURE
      1 S1             1
@<TRIPOS>SET
LONE_PAIRS      STATIC     ATOMS    <user>   **** ""
3 41 42 43
DONOR_HYDROGENS      STATIC     ATOMS    <user>   **** ""
3 20 25 40
ATOM$BLUE        STATIC     ATOMS    COLORGROUP SYSTEM
3 41 42 43
ATOM$RED        STATIC     ATOMS    COLORGROUP SYSTEM
3 20 25 40
