AV-unprocessed.smi:261|AV-procd|sdf|1992|dock7
  -GOLD-   2262021183D 1   1.00000     0.00000
 Structure written by MMmdl.
 51 54  0  0  0  0  0  0  0  0  1 V2000
  154.0475  130.8233  155.0925 C   0  0  0  0  0  0  0  0  0  0  0  0
  154.3714  132.1584  155.4442 O   0  0  0  0  0  0  0  0  0  0  0  0
  153.3460  132.8153  156.1747 C   0  0  2  0  0  0  0  0  0  0  0  0
  152.0715  133.0410  155.3599 C   0  0  0  0  0  0  0  0  0  0  0  0
  151.4022  134.2604  156.0207 C   0  0  1  0  0  0  0  0  0  0  0  0
  150.3349  133.8471  157.0464 C   0  0  0  0  0  0  0  0  0  0  0  0
  149.0602  134.0391  156.6994 N   0  0  0  0  0  0  0  0  0  0  0  0
  150.6472  133.3476  158.1265 O   0  0  0  0  0  0  0  0  0  0  0  0
  152.5001  134.9690  156.6847 N   0  0  0  0  0  0  0  0  0  0  0  0
  152.5762  136.3062  156.5127 C   0  0  0  0  0  0  0  0  0  0  0  0
  152.1779  136.8663  155.3404 N   0  0  0  0  0  0  0  0  0  0  0  0
  152.2681  138.1892  155.1711 C   0  0  0  0  0  0  0  0  0  0  0  0
  152.7189  139.1119  156.0247 N   0  0  0  0  0  0  0  0  0  0  0  0
  153.1199  138.5471  157.2000 C   0  0  0  0  0  0  0  0  0  0  0  0
  153.0826  137.1626  157.5234 C   0  0  0  0  0  0  0  0  0  0  0  0
  153.5679  136.9569  158.8080 N   0  0  0  0  0  0  0  0  0  0  0  0
  153.8719  138.1558  159.2245 C   0  0  0  0  0  0  0  0  0  0  0  0
  153.6452  139.1690  158.3187 N   0  0  0  0  0  0  0  0  0  0  0  0
  153.9020  140.5867  158.5171 C   0  0  0  0  0  0  0  0  0  0  0  0
  152.6306  141.4131  158.8139 C   0  0  2  0  0  0  0  0  0  0  0  0
  151.8052  141.4152  157.6660 O   0  0  0  0  0  0  0  0  0  0  0  0
  152.9120  142.8751  159.2178 C   0  0  1  0  0  0  0  0  0  0  0  0
  151.6971  143.8020  159.1466 C   0  0  0  0  0  0  0  0  0  0  0  0
  152.0105  144.8882  160.1656 C   0  0  0  0  0  0  0  0  0  0  0  0
  153.1912  144.3258  160.9612 C   0  0  0  0  0  0  0  0  0  0  0  0
  153.2617  142.9573  160.5905 O   0  0  0  0  0  0  0  0  0  0  0  0
  153.7533  134.2465  156.5109 C   0  0  0  0  0  0  0  0  0  0  0  0
  153.1169  132.2800  157.0982 H   0  0  0  0  0  0  0  0  0  0  0  0
  150.9236  134.8723  155.2535 H   0  0  0  0  0  0  0  0  0  0  0  0
  154.8819  130.3772  154.5515 H   0  0  0  0  0  0  0  0  0  0  0  0
  153.1702  130.7789  154.4462 H   0  0  0  0  0  0  0  0  0  0  0  0
  153.8603  130.2172  155.9797 H   0  0  0  0  0  0  0  0  0  0  0  0
  152.3348  133.2911  154.3311 H   0  0  0  0  0  0  0  0  0  0  0  0
  151.4325  132.1576  155.3261 H   0  0  0  0  0  0  0  0  0  0  0  0
  148.3190  133.7848  157.3362 H   0  0  0  0  0  0  0  0  0  0  0  0
  148.8426  134.4391  155.7983 H   0  0  0  0  0  0  0  0  0  0  0  0
  151.9322  138.5615  154.2144 H   0  0  0  0  0  0  0  0  0  0  0  0
  154.2833  138.3350  160.2075 H   0  0  0  0  0  0  0  0  0  0  0  0
  154.6267  140.7009  159.3244 H   0  0  0  0  0  0  0  0  0  0  0  0
  154.3875  140.9694  157.6187 H   0  0  0  0  0  0  0  0  0  0  0  0
  152.0796  140.9182  159.6143 H   0  0  0  0  0  0  0  0  0  0  0  0
  151.5555  140.5236  157.4751 H   0  0  0  0  0  0  0  0  0  0  0  0
  153.7252  143.2947  158.6223 H   0  0  0  0  0  0  0  0  0  0  0  0
  151.5316  144.1973  158.1439 H   0  0  0  0  0  0  0  0  0  0  0  0
  150.7945  143.2693  159.4495 H   0  0  0  0  0  0  0  0  0  0  0  0
  152.2825  145.8280  159.6839 H   0  0  0  0  0  0  0  0  0  0  0  0
  151.1486  145.0762  160.8069 H   0  0  0  0  0  0  0  0  0  0  0  0
  154.1193  144.8223  160.6734 H   0  0  0  0  0  0  0  0  0  0  0  0
  153.0649  144.4376  162.0381 H   0  0  0  0  0  0  0  0  0  0  0  0
  154.3607  134.2887  157.4155 H   0  0  0  0  0  0  0  0  0  0  0  0
  154.3358  134.6778  155.6944 H   0  0  0  0  0  0  0  0  0  0  0  0
  1  2  1  0  0  0  0
  1 30  1  0  0  0  0
  1 31  1  0  0  0  0
  1 32  1  0  0  0  0
  2  3  1  0  0  0  0
  3 28  1  0  0  0  0
  3 27  1  0  0  0  0
  3  4  1  0  0  0  0
  4  5  1  0  0  0  0
  4 33  1  0  0  0  0
  4 34  1  0  0  0  0
  5 29  1  0  0  0  0
  5  6  1  0  0  0  0
  5  9  1  0  0  0  0
  6  7  1  0  0  0  0
  6  8  2  0  0  0  0
  7 35  1  0  0  0  0
  7 36  1  0  0  0  0
  9 10  1  0  0  0  0
  9 27  1  0  0  0  0
 10 15  1  0  0  0  0
 10 11  2  0  0  0  0
 11 12  1  0  0  0  0
 12 13  2  0  0  0  0
 12 37  1  0  0  0  0
 13 14  1  0  0  0  0
 14 18  1  0  0  0  0
 14 15  2  0  0  0  0
 15 16  1  0  0  0  0
 16 17  2  0  0  0  0
 17 18  1  0  0  0  0
 17 38  1  0  0  0  0
 18 19  1  0  0  0  0
 19 20  1  0  0  0  0
 19 39  1  0  0  0  0
 19 40  1  0  0  0  0
 20 21  1  0  0  0  0
 20 22  1  0  0  0  0
 20 41  1  0  0  0  0
 21 42  1  0  0  0  0
 22 26  1  0  0  0  0
 22 23  1  0  0  0  0
 22 43  1  0  0  0  0
 23 24  1  0  0  0  0
 23 44  1  0  0  0  0
 23 45  1  0  0  0  0
 24 25  1  0  0  0  0
 24 46  1  0  0  0  0
 24 47  1  0  0  0  0
 25 26  1  0  0  0  0
 25 48  1  0  0  0  0
 25 49  1  0  0  0  0
 27 50  1  0  0  0  0
 27 51  1  0  0  0  0
M  END
> <s_m_source_file>
AV-unprocessed.smi

> <i_m_source_file_index>
261

> <i_lp_mmshare_version>
43012

> <i_f3d_flags>
0

> <s_epik_input>
W0NIM11PW0NASF0xW0NIMl1bQ0BASF0oQyg9TylbTkgyXSlOKFtDSDJdMSljKG5bY0hdbjIpYyhjMjMpbltjSF1uM1tDSDJdW0NASF0oW09IXSlbQ0BASF00W0NIMl1bQ0gyXVtDSDJdTzQ=

> <s_epik_cmdline>
J2VwaWtfcHl0aG9uJywgJy1waCcsICc3LjAnLCAnLXRuJywgJzgnLCAnLW1hJywgJzIwMCcsICctbWV0YWxfYmluZGluZycsICctaW1hZScsICc8aW5maWxlLm1hZT4nLCAnLW9tYWUnLCAnPG91dGZpbGUubWFlPic=

> <r_lp_tautomer_probability>
1

> <r_epik_Ionization_Penalty>
0.000713824

> <r_epik_Ionization_Penalty_Charging>
0

> <r_epik_Ionization_Penalty_Neutral>
0.000713824

> <r_epik_State_Penalty>
0.000402132

> <r_epik_Charging_Adjusted_Penalty>
0.000402132

> <i_epik_Tot_Q>
0

> <i_epik_Tot_abs_Q>
0

> <r_epik_Metal_State_Penalty>
-0

> <b_epik_Metal_Only>
0

> <s_lp_Force_Field>
OPLS_2005

> <r_lp_Energy>
43.7776

> <b_lp_Chiralities_Consistent>
1

> <s_lp_Variant>
AV-unprocessed.smi:261-10

> <Gold.Version>
5.8.1

> <Gold.Id.Protein>
6NUR|6NUR_protein|mol2

> <Gold.PLP.Fitness>
49.2235

> <Gold.PLP.PLP>
-42.5302

> <Gold.PLP.part.hbond>
-4.2626

> <Gold.PLP.part.metal>
0.0000

> <Gold.PLP.part.buried>
-6.8682

> <Gold.PLP.part.nonpolar>
-31.8797

> <Gold.PLP.part.repulsive>
0.2176

> <Gold.PLP.ligand.clash>
0.0000

> <Gold.PLP.ligand.torsion>
1.5980

> <Gold.PLP.Chemscore.Hbond>
3.1734

> <Gold.PLP.Chemscore.CHOScore>
0.0000

> <Gold.PLP.Chemscore.Metal>
0.0000

> <Gold.Chemscore.Hbonds>
donor molecule, donor type, donor heavy atom, donor atom, acceptor molecule, acceptor atom, score
      P1  H  6896  6909       L1     8  0.22
      P1  H  7997  8009       L1    13  0.22
      P1  H 10752 10765       L1    11  0.27

> <Gold.PLP.Chemscore.Internal.Correction>
0.3690

> <Gold.Rescore>
     Score         DG    S(hbond)    S(metal)    S(lipo)     H(rot)  DE(clash)    DE(int)     intcor
     12.30     -14.09       2.25        0.00      87.45       3.57       0.14       1.64       ----

> <Gold.Chemscore.Fitness>
12.2996

> <Gold.Chemscore.DG>
-14.0850

> <Gold.Chemscore.ZeroCoef>
-5.4800

> <Gold.Chemscore.Hbond>
2.2524

> <Gold.Chemscore.Metal>
0.0000

> <Gold.Chemscore.Lipo>
87.4495

> <Gold.Chemscore.Internal_Hbond>
0.0000

> <Gold.Chemscore.DEClash>
0.1417

> <Gold.Chemscore.DEInternal>
1.6437

> <Gold.Chemscore.Rot>
3.5740

> <Gold.Chemscore.Internal.Correction>
   9.000000E+99

> <Gold.Chemscore.Hbonds>
donor molecule, donor type, donor heavy atom, donor atom, acceptor molecule, acceptor atom, score
      P1  H  6896  6909       L1     8  0.21
      P1  H  7997  8009       L1    13  0.02

> <Gold.Chemscore.Hbond.Weighted>
-7.5229

> <Gold.Chemscore.Metal.Weighted>
-0.0000

> <Gold.Chemscore.Lipo.Weighted>
-10.2316

> <Gold.Chemscore.Internal_Hbond.Weighted>
0.0000

> <Gold.Chemscore.DEClash.Weighted>
0.1417

> <Gold.Chemscore.DEInternal.Weighted>
1.6437

> <Gold.Chemscore.Rot.Weighted>
9.1495

> <Gold.Chemscore.Internal.Correction.Weighted>
   9.000000E+99

> <Gold.Protein.RotatedTorsions>
[ 6907 6896 6895 6894 ] final  -36.78 input  -60.11 | X-H torsion
[ 7974 7965 7964 7962 ] final -155.95 input  175.53 | X-H torsion
[ 8008 7997 7996 7995 ] final -120.18 input   59.86 | X-H torsion
[ 10167 10162 10161 10158 ] final  128.76 input  -65.29 | X-H torsion
[ 10718 10713 10712 10709 ] final   72.93 input   66.30 | X-H torsion
[ 10763 10752 10751 10750 ] final  179.53 input  -60.55 | X-H torsion
[ 11005 11000 10999 10996 ] final -161.54 input  -57.11 | X-H torsion

> <Gold.Protein.ActiveResidues>
 VAL166  LYS551  ARG553  GLY616  TRP617  ASP618  TYR619  PRO620  LYS621  CYS622 
 ASP623  PHE694  ASN695  SER759  ASP760  ASP761  ALA762  ILE779  LEU786  VAL792 
 PHE793  MET794  SER795  GLU796  ALA797  LYS798  CYS799  TRP800  GLU811  SER814 

> <Gold.Protein.RotatedAtoms>
  151.0229  134.9482  159.8068 H   0  0  0  0  0  0  0  0  0  0  0  0  # atno 6907 bound_to 6896
  152.5329  134.2880  159.9042 H   0  0  0  0  0  0  0  0  0  0  0  0  # atno 6908 bound_to 6896
  151.2888  133.4133  159.2666 H   0  0  0  0  0  0  0  0  0  0  0  0  # atno 6909 bound_to 6896
  144.7616  140.4177  143.5973 H   0  0  0  0  0  0  0  0  0  0  0  0  # atno 7974 bound_to 7965
  155.1277  140.0399  157.2766 H   0  0  0  0  0  0  0  0  0  0  0  0  # atno 8008 bound_to 7997
  154.6566  140.2581  155.7128 H   0  0  0  0  0  0  0  0  0  0  0  0  # atno 8009 bound_to 7997
  156.2601  140.2825  156.1021 H   0  0  0  0  0  0  0  0  0  0  0  0  # atno 8010 bound_to 7997
  139.5511  144.6814  151.4321 H   0  0  0  0  0  0  0  0  0  0  0  0  # atno 10167 bound_to 10162
  157.6524  130.9603  150.0997 H   0  0  0  0  0  0  0  0  0  0  0  0  # atno 10718 bound_to 10713
  154.5219  135.2794  155.1255 H   0  0  0  0  0  0  0  0  0  0  0  0  # atno 10763 bound_to 10752
  154.2810  135.6285  153.5350 H   0  0  0  0  0  0  0  0  0  0  0  0  # atno 10764 bound_to 10752
  152.9938  135.5651  154.5710 H   0  0  0  0  0  0  0  0  0  0  0  0  # atno 10765 bound_to 10752
  140.6193  134.4768  157.5222 H   0  0  0  0  0  0  0  0  0  0  0  0  # atno 11005 bound_to 11000
  145.6603  139.1580  143.2812 LP  0  0  0  0  0  0  0  0  0  0  0  0  # atno 17320 bound_to 7965
  146.1683  140.6684  142.9245 LP  0  0  0  0  0  0  0  0  0  0  0  0  # atno 17321 bound_to 7965
  140.6774  143.8159  150.7076 LP  0  0  0  0  0  0  0  0  0  0  0  0  # atno 17342 bound_to 10162
  140.1602  143.4282  152.2072 LP  0  0  0  0  0  0  0  0  0  0  0  0  # atno 17343 bound_to 10162
  156.1923  130.3655  149.8894 LP  0  0  0  0  0  0  0  0  0  0  0  0  # atno 17370 bound_to 10713
  156.6819  130.8861  151.3577 LP  0  0  0  0  0  0  0  0  0  0  0  0  # atno 17371 bound_to 10713
  139.9160  134.8245  156.1365 LP  0  0  0  0  0  0  0  0  0  0  0  0  # atno 17394 bound_to 11000
  141.0754  133.6778  156.2225 LP  0  0  0  0  0  0  0  0  0  0  0  0  # atno 17395 bound_to 11000

$$$$
