AV-unprocessed.smi:2104|AV-procd|sdf|8588|dock5
  -GOLD-   2272011323D 1   1.00000     0.00000
 Structure written by MMmdl.
 42 43  0  0  0  0  0  0  0  0  2 V2000
  149.3001  134.6679  154.6145 C   0  0  0  0  0  0  0  0  0  0  0  0
  150.3423  135.5902  155.1477 C   0  0  0  0  0  0  0  0  0  0  0  0
  150.4606  136.9509  155.1554 C   0  0  0  0  0  0  0  0  0  0  0  0
  151.6986  137.1653  155.8207 C   0  0  0  0  0  0  0  0  0  0  0  0
  152.2513  138.3582  156.0883 N   0  5  0  0  0  0  0  0  0  0  0  0
  151.6183  139.4980  155.7275 C   0  0  0  0  0  0  0  0  0  0  0  0
  150.9556  139.6734  154.7023 O   0  0  0  0  0  0  0  0  0  0  0  0
  151.7491  140.4913  156.6182 N   0  0  0  0  0  0  0  0  0  0  0  0
  151.1121  141.8030  156.5448 C   0  0  0  0  0  0  0  0  0  0  0  0
  150.5632  142.2407  157.9112 C   0  0  0  0  0  0  0  0  0  0  0  0
  151.5073  141.8927  158.9138 O   0  0  0  0  0  0  0  0  0  0  0  0
  152.6366  142.7541  158.9931 C   0  0  1  0  0  0  0  0  0  0  0  0
  152.1861  144.1904  159.3443 C   0  0  0  0  0  0  0  0  0  0  0  0
  151.5472  144.2612  160.7410 C   0  0  0  0  0  0  0  0  0  0  0  0
  152.4959  143.7076  161.8144 C   0  0  0  0  0  0  0  0  0  0  0  0
  152.9524  142.2796  161.4748 C   0  0  0  0  0  0  0  0  0  0  0  0
  153.5952  142.2070  160.0745 C   0  0  1  0  0  0  0  0  0  0  0  0
  154.0889  140.7896  159.7445 C   0  0  0  0  0  0  0  0  0  0  0  0
  152.2725  136.0355  156.1986 N   0  0  0  0  0  0  0  0  0  0  0  0
  151.4113  135.0198  155.7657 O   0  0  0  0  0  0  0  0  0  0  0  0
  148.9528  135.0015  153.6366 H   0  0  0  0  0  0  0  0  0  0  0  0
  148.4414  134.6301  155.2845 H   0  0  0  0  0  0  0  0  0  0  0  0
  149.6899  133.6555  154.5065 H   0  0  0  0  0  0  0  0  0  0  0  0
  149.7753  137.6785  154.7476 H   0  0  0  0  0  0  0  0  0  0  0  0
  152.3017  140.3013  157.4412 H   0  0  0  0  0  0  0  0  0  0  0  0
  151.8527  142.5226  156.1954 H   0  0  0  0  0  0  0  0  0  0  0  0
  150.3142  141.7873  155.8008 H   0  0  0  0  0  0  0  0  0  0  0  0
  150.4008  143.3188  157.9293 H   0  0  0  0  0  0  0  0  0  0  0  0
  149.5942  141.7745  158.0873 H   0  0  0  0  0  0  0  0  0  0  0  0
  153.1601  142.7579  158.0352 H   0  0  0  0  0  0  0  0  0  0  0  0
  153.0507  144.8540  159.3134 H   0  0  0  0  0  0  0  0  0  0  0  0
  151.4878  144.5776  158.6031 H   0  0  0  0  0  0  0  0  0  0  0  0
  151.2802  145.2917  160.9756 H   0  0  0  0  0  0  0  0  0  0  0  0
  150.6153  143.6947  160.7476 H   0  0  0  0  0  0  0  0  0  0  0  0
  153.3666  144.3583  161.9020 H   0  0  0  0  0  0  0  0  0  0  0  0
  152.0024  143.7188  162.7866 H   0  0  0  0  0  0  0  0  0  0  0  0
  153.6615  141.9365  162.2287 H   0  0  0  0  0  0  0  0  0  0  0  0
  152.0984  141.6029  161.5263 H   0  0  0  0  0  0  0  0  0  0  0  0
  154.4746  142.8527  160.0859 H   0  0  0  0  0  0  0  0  0  0  0  0
  153.2672  140.0727  159.7358 H   0  0  0  0  0  0  0  0  0  0  0  0
  154.8179  140.4481  160.4798 H   0  0  0  0  0  0  0  0  0  0  0  0
  154.5680  140.7589  158.7658 H   0  0  0  0  0  0  0  0  0  0  0  0
  1  2  1  0  0  0  0
  1 21  1  0  0  0  0
  1 22  1  0  0  0  0
  1 23  1  0  0  0  0
  2 20  1  0  0  0  0
  2  3  2  0  0  0  0
  3  4  1  0  0  0  0
  3 24  1  0  0  0  0
  4  5  1  0  0  0  0
  4 19  2  0  0  0  0
  5  6  1  0  0  0  0
  6  7  2  0  0  0  0
  6  8  1  0  0  0  0
  8  9  1  0  0  0  0
  8 25  1  0  0  0  0
  9 10  1  0  0  0  0
  9 26  1  0  0  0  0
  9 27  1  0  0  0  0
 10 11  1  0  0  0  0
 10 28  1  0  0  0  0
 10 29  1  0  0  0  0
 11 12  1  0  0  0  0
 12 17  1  0  0  0  0
 12 13  1  0  0  0  0
 12 30  1  0  0  0  0
 13 14  1  0  0  0  0
 13 31  1  0  0  0  0
 13 32  1  0  0  0  0
 14 15  1  0  0  0  0
 14 33  1  0  0  0  0
 14 34  1  0  0  0  0
 15 16  1  0  0  0  0
 15 35  1  0  0  0  0
 15 36  1  0  0  0  0
 16 17  1  0  0  0  0
 16 37  1  0  0  0  0
 16 38  1  0  0  0  0
 17 18  1  0  0  0  0
 17 39  1  0  0  0  0
 18 40  1  0  0  0  0
 18 41  1  0  0  0  0
 18 42  1  0  0  0  0
 19 20  1  0  0  0  0
M  CHG  1   5  -1
M  END
> <s_m_source_file>
AV-unprocessed.smi

> <i_m_source_file_index>
2104

> <i_lp_mmshare_version>
43012

> <i_f3d_flags>
0

> <s_epik_input>
W0NIM11jMVtjSF1jKG5vMSlbTkhdQyg9TylbTkhdW0NIMl1bQ0gyXU9bQ0BASF0yW0NIMl1bQ0gyXVtDSDJdW0NIMl1bQ0BIXTJbQ0gzXQ==

> <s_epik_cmdline>
J2VwaWtfcHl0aG9uJywgJy1waCcsICc3LjAnLCAnLXRuJywgJzgnLCAnLW1hJywgJzIwMCcsICctbWV0YWxfYmluZGluZycsICctaW1hZScsICc8aW5maWxlLm1hZT4nLCAnLW9tYWUnLCAnPG91dGZpbGUubWFlPic=

> <r_lp_tautomer_probability>
1

> <r_epik_Ionization_Penalty>
6.47137

> <r_epik_Ionization_Penalty_Charging>
6.47125

> <r_epik_Ionization_Penalty_Neutral>
0.000118933

> <r_epik_State_Penalty>
6.47124

> <r_epik_Charging_Adjusted_Penalty>
12.9425

> <i_epik_Tot_Q>
-1

> <i_epik_Tot_abs_Q>
1

> <r_epik_Metal_State_Penalty>
2.3995

> <b_epik_Metal_Only>
1

> <s_lp_Force_Field>
OPLS_2005

> <r_lp_Energy>
3.93088

> <b_lp_Chiralities_Consistent>
1

> <s_lp_Variant>
AV-unprocessed.smi:2104-6

> <Gold.Version>
5.8.1

> <Gold.Id.Protein>
6NUR|6NUR_protein|mol2

> <Gold.PLP.Fitness>
47.5064

> <Gold.PLP.PLP>
-43.7133

> <Gold.PLP.part.hbond>
-3.0000

> <Gold.PLP.part.metal>
0.0000

> <Gold.PLP.part.buried>
-5.8891

> <Gold.PLP.part.nonpolar>
-34.5420

> <Gold.PLP.part.repulsive>
0.2459

> <Gold.PLP.ligand.clash>
0.0000

> <Gold.PLP.ligand.torsion>
0.5396

> <Gold.PLP.Chemscore.Hbond>
1.6000

> <Gold.PLP.Chemscore.CHOScore>
0.0000

> <Gold.PLP.Chemscore.Metal>
0.0000

> <Gold.Chemscore.Hbonds>
donor molecule, donor type, donor heavy atom, donor atom, acceptor molecule, acceptor atom, score
      P1  H  7989  7998       L1     7  1.00
      P1  H 10752 10763       L1    19  0.44

> <Gold.PLP.Chemscore.Internal.Correction>
0.0722

> <Gold.Rescore>
     Score         DG    S(hbond)    S(metal)    S(lipo)     H(rot)  DE(clash)    DE(int)     intcor
     16.19     -18.22       1.28        0.00     109.70       1.71       0.13       1.90       ----

> <Gold.Chemscore.Fitness>
16.1862

> <Gold.Chemscore.DG>
-18.2223

> <Gold.Chemscore.ZeroCoef>
-5.4800

> <Gold.Chemscore.Hbond>
1.2833

> <Gold.Chemscore.Metal>
0.0000

> <Gold.Chemscore.Lipo>
109.6958

> <Gold.Chemscore.Internal_Hbond>
0.0000

> <Gold.Chemscore.DEClash>
0.1334

> <Gold.Chemscore.DEInternal>
1.9027

> <Gold.Chemscore.Rot>
1.7103

> <Gold.Chemscore.Internal.Correction>
   9.000000E+99

> <Gold.Chemscore.Hbonds>
donor molecule, donor type, donor heavy atom, donor atom, acceptor molecule, acceptor atom, score
      P1  H  7989  7998       L1     7  0.93
      P1  H 10752 10763       L1    19  0.01

> <Gold.Chemscore.Hbond.Weighted>
-4.2863

> <Gold.Chemscore.Metal.Weighted>
-0.0000

> <Gold.Chemscore.Lipo.Weighted>
-12.8344

> <Gold.Chemscore.Internal_Hbond.Weighted>
0.0000

> <Gold.Chemscore.DEClash.Weighted>
0.1334

> <Gold.Chemscore.DEInternal.Weighted>
1.9027

> <Gold.Chemscore.Rot.Weighted>
4.3784

> <Gold.Chemscore.Internal.Correction.Weighted>
   9.000000E+99

> <Gold.Protein.RotatedTorsions>
[ 6907 6896 6895 6894 ] final  -71.31 input  -60.11 | X-H torsion
[ 7974 7965 7964 7962 ] final -178.52 input  175.53 | X-H torsion
[ 8008 7997 7996 7995 ] final   26.21 input   59.86 | X-H torsion
[ 10167 10162 10161 10158 ] final  129.50 input  -65.29 | X-H torsion
[ 10718 10713 10712 10709 ] final   71.88 input   66.30 | X-H torsion
[ 10763 10752 10751 10750 ] final  114.52 input  -60.55 | X-H torsion
[ 11005 11000 10999 10996 ] final  -87.32 input  -57.11 | X-H torsion

> <Gold.Protein.ActiveResidues>
 VAL166  LYS551  ARG553  GLY616  TRP617  ASP618  TYR619  PRO620  LYS621  CYS622 
 ASP623  PHE694  ASN695  SER759  ASP760  ASP761  ALA762  ILE779  LEU786  VAL792 
 PHE793  MET794  SER795  GLU796  ALA797  LYS798  CYS799  TRP800  GLU811  SER814 

> <Gold.Protein.RotatedAtoms>
  150.7218  134.5326  159.5707 H   0  0  0  0  0  0  0  0  0  0  0  0  # atno 6907 bound_to 6896
  152.2856  134.7777  160.0397 H   0  0  0  0  0  0  0  0  0  0  0  0  # atno 6908 bound_to 6896
  151.8408  133.3388  159.3679 H   0  0  0  0  0  0  0  0  0  0  0  0  # atno 6909 bound_to 6896
  144.7131  140.0855  143.6423 H   0  0  0  0  0  0  0  0  0  0  0  0  # atno 7974 bound_to 7965
  155.0237  140.3150  155.4784 H   0  0  0  0  0  0  0  0  0  0  0  0  # atno 8008 bound_to 7997
  156.2887  140.2193  156.5298 H   0  0  0  0  0  0  0  0  0  0  0  0  # atno 8009 bound_to 7997
  154.7430  140.0472  157.0815 H   0  0  0  0  0  0  0  0  0  0  0  0  # atno 8010 bound_to 7997
  139.5475  144.6785  151.4428 H   0  0  0  0  0  0  0  0  0  0  0  0  # atno 10167 bound_to 10162
  157.6473  130.9550  150.0851 H   0  0  0  0  0  0  0  0  0  0  0  0  # atno 10718 bound_to 10713
  153.5085  135.3623  155.2575 H   0  0  0  0  0  0  0  0  0  0  0  0  # atno 10763 bound_to 10752
  154.8743  135.4017  154.3395 H   0  0  0  0  0  0  0  0  0  0  0  0  # atno 10764 bound_to 10752
  153.4044  135.7076  153.6469 H   0  0  0  0  0  0  0  0  0  0  0  0  # atno 10765 bound_to 10752
  141.1618  133.7504  156.9289 H   0  0  0  0  0  0  0  0  0  0  0  0  # atno 11005 bound_to 11000
  145.9665  139.2838  143.1124 LP  0  0  0  0  0  0  0  0  0  0  0  0  # atno 17320 bound_to 7965
  145.9164  140.9145  143.0428 LP  0  0  0  0  0  0  0  0  0  0  0  0  # atno 17321 bound_to 7965
  140.6727  143.8257  150.7020 LP  0  0  0  0  0  0  0  0  0  0  0  0  # atno 17342 bound_to 10162
  140.1686  143.4213  152.2016 LP  0  0  0  0  0  0  0  0  0  0  0  0  # atno 17343 bound_to 10162
  156.1816  130.3650  149.9028 LP  0  0  0  0  0  0  0  0  0  0  0  0  # atno 17370 bound_to 10713
  156.6979  130.8921  151.3596 LP  0  0  0  0  0  0  0  0  0  0  0  0  # atno 17371 bound_to 10713
  140.1400  134.9300  157.2454 LP  0  0  0  0  0  0  0  0  0  0  0  0  # atno 17394 bound_to 11000
  140.2848  134.3308  155.7332 LP  0  0  0  0  0  0  0  0  0  0  0  0  # atno 17395 bound_to 11000

$$$$
