AV-unprocessed.smi:497|AV-procd|sdf|2725|dock3
  -GOLD-   2262023173D 1   1.00000     0.00000
 Structure written by MMmdl.
 40 42  0  0  0  0  0  0  0  0  2 V2000
  147.5393  127.5612  151.3021 C   0  0  0  0  0  0  0  0  0  0  0  0
  147.7682  128.5938  152.2443 O   0  0  0  0  0  0  0  0  0  0  0  0
  146.6962  129.5209  152.3068 C   0  0  0  0  0  0  0  0  0  0  0  0
  147.0326  130.6291  153.3142 C   0  0  0  0  0  0  0  0  0  0  0  0
  147.0816  131.9573  152.6842 N   0  0  0  0  0  0  0  0  0  0  0  0
  148.0264  132.9406  152.7533 C   0  0  0  0  0  0  0  0  0  0  0  0
  149.3120  132.9145  153.5204 C   0  0  0  0  0  0  0  0  0  0  0  0
  149.9556  134.2204  153.5918 N   0  0  0  0  0  0  0  0  0  0  0  0
  150.9592  134.5424  154.4229 C   0  0  0  0  0  0  0  0  0  0  0  0
  151.4560  133.7512  155.2241 O   0  0  0  0  0  0  0  0  0  0  0  0
  151.4454  135.9324  154.3350 C   0  0  0  0  0  0  0  0  0  0  0  0
  150.8234  137.0875  153.9385 C   0  0  0  0  0  0  0  0  0  0  0  0
  151.7862  138.1283  154.0527 C   0  0  0  0  0  0  0  0  0  0  0  0
  152.9283  137.5351  154.5085 C   0  0  0  0  0  0  0  0  0  0  0  0
  152.7384  136.1989  154.6822 O   0  0  0  0  0  0  0  0  0  0  0  0
  147.5850  133.9768  151.9850 N   0  3  0  0  0  0  0  0  0  0  0  0
  146.3469  133.6586  151.4266 C   0  0  0  0  0  0  0  0  0  0  0  0
  145.5112  134.3882  150.5867 C   0  0  0  0  0  0  0  0  0  0  0  0
  144.3036  133.7691  150.2022 C   0  0  0  0  0  0  0  0  0  0  0  0
  143.9667  132.4753  150.6504 C   0  0  0  0  0  0  0  0  0  0  0  0
  144.8231  131.7449  151.5007 C   0  0  0  0  0  0  0  0  0  0  0  0
  146.0156  132.3636  151.8745 C   0  0  0  0  0  0  0  0  0  0  0  0
  148.3870  126.8759  151.2969 H   0  0  0  0  0  0  0  0  0  0  0  0
  147.4262  127.9646  150.2949 H   0  0  0  0  0  0  0  0  0  0  0  0
  146.6453  126.9889  151.5532 H   0  0  0  0  0  0  0  0  0  0  0  0
  146.5198  129.9583  151.3228 H   0  0  0  0  0  0  0  0  0  0  0  0
  145.7796  129.0094  152.6049 H   0  0  0  0  0  0  0  0  0  0  0  0
  146.2822  130.6572  154.1035 H   0  0  0  0  0  0  0  0  0  0  0  0
  147.9841  130.4342  153.8094 H   0  0  0  0  0  0  0  0  0  0  0  0
  149.1037  132.5788  154.5364 H   0  0  0  0  0  0  0  0  0  0  0  0
  149.9972  132.1825  153.0922 H   0  0  0  0  0  0  0  0  0  0  0  0
  149.6052  134.9379  152.9737 H   0  0  0  0  0  0  0  0  0  0  0  0
  149.7995  137.1768  153.6060 H   0  0  0  0  0  0  0  0  0  0  0  0
  151.6594  139.1774  153.8294 H   0  0  0  0  0  0  0  0  0  0  0  0
  153.9175  137.8962  154.7494 H   0  0  0  0  0  0  0  0  0  0  0  0
  145.7666  135.3800  150.2433 H   0  0  0  0  0  0  0  0  0  0  0  0
  143.6217  134.2974  149.5515 H   0  0  0  0  0  0  0  0  0  0  0  0
  143.0320  132.0337  150.3360 H   0  0  0  0  0  0  0  0  0  0  0  0
  144.5549  130.7553  151.8397 H   0  0  0  0  0  0  0  0  0  0  0  0
  148.0964  134.8401  151.8558 H   0  0  0  0  0  0  0  0  0  0  0  0
  1  2  1  0  0  0  0
  1 23  1  0  0  0  0
  1 24  1  0  0  0  0
  1 25  1  0  0  0  0
  2  3  1  0  0  0  0
  3  4  1  0  0  0  0
  3 26  1  0  0  0  0
  3 27  1  0  0  0  0
  4  5  1  0  0  0  0
  4 28  1  0  0  0  0
  4 29  1  0  0  0  0
  5 22  1  0  0  0  0
  5  6  1  0  0  0  0
  6  7  1  0  0  0  0
  6 16  2  0  0  0  0
  7  8  1  0  0  0  0
  7 30  1  0  0  0  0
  7 31  1  0  0  0  0
  8  9  1  0  0  0  0
  8 32  1  0  0  0  0
  9 10  2  0  0  0  0
  9 11  1  0  0  0  0
 11 15  1  0  0  0  0
 11 12  2  0  0  0  0
 12 13  1  0  0  0  0
 12 33  1  0  0  0  0
 13 14  2  0  0  0  0
 13 34  1  0  0  0  0
 14 15  1  0  0  0  0
 14 35  1  0  0  0  0
 16 17  1  0  0  0  0
 16 40  1  0  0  0  0
 17 22  2  0  0  0  0
 17 18  1  0  0  0  0
 18 19  2  0  0  0  0
 18 36  1  0  0  0  0
 19 20  1  0  0  0  0
 19 37  1  0  0  0  0
 20 21  2  0  0  0  0
 20 38  1  0  0  0  0
 21 22  1  0  0  0  0
 21 39  1  0  0  0  0
M  CHG  1  16   1
M  END
> <s_m_source_file>
AV-unprocessed.smi

> <i_m_source_file_index>
497

> <i_lp_mmshare_version>
43012

> <i_f3d_flags>
0

> <s_epik_input>
W2NIXTFbY0hdW2NIXVtjSF1jKGMxMiluKFtDSDJdW0NIMl1PW0NIM10pYyhuMilbQ0gyXVtOSF1DKD1PKWMzW2NIXVtjSF1bY0hdbzM=

> <s_epik_cmdline>
J2VwaWtfcHl0aG9uJywgJy1waCcsICc3LjAnLCAnLXRuJywgJzgnLCAnLW1hJywgJzIwMCcsICctbWV0YWxfYmluZGluZycsICctaW1hZScsICc8aW5maWxlLm1hZT4nLCAnLW9tYWUnLCAnPG91dGZpbGUubWFlPic=

> <r_epik_Ionization_Penalty>
1.26486

> <r_epik_Ionization_Penalty_Charging>
1.26483

> <r_epik_Ionization_Penalty_Neutral>
2.77772e-05

> <r_epik_State_Penalty>
1.33577

> <r_epik_Charging_Adjusted_Penalty>
2.6006

> <i_epik_Tot_Q>
1

> <i_epik_Tot_abs_Q>
1

> <r_epik_Metal_State_Penalty>
1.44158

> <b_epik_Metal_Only>
0

> <s_lp_Force_Field>
OPLS_2005

> <r_lp_Energy>
9.51778

> <b_lp_Chiralities_Consistent>
1

> <s_lp_Variant>
AV-unprocessed.smi:497-2

> <Gold.Version>
5.8.1

> <Gold.Id.Protein>
6NUR|6NUR_protein|mol2

> <Gold.PLP.Fitness>
52.8671

> <Gold.PLP.PLP>
-42.7916

> <Gold.PLP.part.hbond>
-3.0000

> <Gold.PLP.part.metal>
0.0000

> <Gold.PLP.part.buried>
-5.3110

> <Gold.PLP.part.nonpolar>
-35.2701

> <Gold.PLP.part.repulsive>
0.6386

> <Gold.PLP.ligand.clash>
0.0000

> <Gold.PLP.ligand.torsion>
0.9833

> <Gold.PLP.Chemscore.Hbond>
4.0000

> <Gold.PLP.Chemscore.CHOScore>
0.0000

> <Gold.PLP.Chemscore.Metal>
0.0000

> <Gold.Chemscore.Hbonds>
donor molecule, donor type, donor heavy atom, donor atom, acceptor molecule, acceptor atom, score
      L1  H    16    40       P1  7948  1.80

> <Gold.PLP.Chemscore.Internal.Correction>
0.0420

> <Gold.Rescore>
     Score         DG    S(hbond)    S(metal)    S(lipo)     H(rot)  DE(clash)    DE(int)     intcor
     16.90     -18.81       2.29        0.00      91.40       1.96       0.02       1.89       ----

> <Gold.Chemscore.Fitness>
16.9030

> <Gold.Chemscore.DG>
-18.8098

> <Gold.Chemscore.ZeroCoef>
-5.4800

> <Gold.Chemscore.Hbond>
2.2896

> <Gold.Chemscore.Metal>
0.0000

> <Gold.Chemscore.Lipo>
91.3964

> <Gold.Chemscore.Internal_Hbond>
0.0000

> <Gold.Chemscore.DEClash>
0.0211

> <Gold.Chemscore.DEInternal>
1.8857

> <Gold.Chemscore.Rot>
1.9573

> <Gold.Chemscore.Internal.Correction>
   9.000000E+99

> <Gold.Chemscore.Hbonds>
donor molecule, donor type, donor heavy atom, donor atom, acceptor molecule, acceptor atom, score
      L1  H    16    40       P1  7948  0.17

> <Gold.Chemscore.Hbond.Weighted>
-7.6471

> <Gold.Chemscore.Metal.Weighted>
-0.0000

> <Gold.Chemscore.Lipo.Weighted>
-10.6934

> <Gold.Chemscore.Internal_Hbond.Weighted>
0.0000

> <Gold.Chemscore.DEClash.Weighted>
0.0211

> <Gold.Chemscore.DEInternal.Weighted>
1.8857

> <Gold.Chemscore.Rot.Weighted>
5.0107

> <Gold.Chemscore.Internal.Correction.Weighted>
   9.000000E+99

> <Gold.Protein.RotatedTorsions>
[ 6907 6896 6895 6894 ] final -179.19 input  -60.11 | X-H torsion
[ 7974 7965 7964 7962 ] final   98.64 input  175.53 | X-H torsion
[ 8008 7997 7996 7995 ] final  -17.73 input   59.86 | X-H torsion
[ 10167 10162 10161 10158 ] final  169.71 input  -65.29 | X-H torsion
[ 10718 10713 10712 10709 ] final  158.98 input   66.30 | X-H torsion
[ 10763 10752 10751 10750 ] final   85.75 input  -60.55 | X-H torsion
[ 11005 11000 10999 10996 ] final -113.84 input  -57.11 | X-H torsion

> <Gold.Protein.ActiveResidues>
 VAL166  LYS551  ARG553  GLY616  TRP617  ASP618  TYR619  PRO620  LYS621  CYS622 
 ASP623  PHE694  ASN695  SER759  ASP760  ASP761  ALA762  ILE779  LEU786  VAL792 
 PHE793  MET794  SER795  GLU796  ALA797  LYS798  CYS799  TRP800  GLU811  SER814 

> <Gold.Protein.RotatedAtoms>
  151.6493  133.3322  159.3148 H   0  0  0  0  0  0  0  0  0  0  0  0  # atno 6907 bound_to 6896
  150.7968  134.7037  159.6574 H   0  0  0  0  0  0  0  0  0  0  0  0  # atno 6908 bound_to 6896
  152.4056  134.6217  160.0104 H   0  0  0  0  0  0  0  0  0  0  0  0  # atno 6909 bound_to 6896
  145.4094  139.2336  143.3256 H   0  0  0  0  0  0  0  0  0  0  0  0  # atno 7974 bound_to 7965
  154.4957  140.2135  155.9452 H   0  0  0  0  0  0  0  0  0  0  0  0  # atno 8008 bound_to 7997
  156.1367  140.3187  155.8399 H   0  0  0  0  0  0  0  0  0  0  0  0  # atno 8009 bound_to 7997
  155.4197  140.0496  157.3017 H   0  0  0  0  0  0  0  0  0  0  0  0  # atno 8010 bound_to 7997
  139.4999  144.3677  151.9758 H   0  0  0  0  0  0  0  0  0  0  0  0  # atno 10167 bound_to 10162
  157.1705  131.0609  151.2185 H   0  0  0  0  0  0  0  0  0  0  0  0  # atno 10718 bound_to 10713
  153.1505  135.4605  154.9629 H   0  0  0  0  0  0  0  0  0  0  0  0  # atno 10763 bound_to 10752
  154.7820  135.3191  154.7970 H   0  0  0  0  0  0  0  0  0  0  0  0  # atno 10764 bound_to 10752
  153.8476  135.6924  153.4850 H   0  0  0  0  0  0  0  0  0  0  0  0  # atno 10765 bound_to 10752
  141.0589  133.9567  157.2703 H   0  0  0  0  0  0  0  0  0  0  0  0  # atno 11005 bound_to 11000
  146.2712  140.4804  142.8813 LP  0  0  0  0  0  0  0  0  0  0  0  0  # atno 17320 bound_to 7965
  144.8319  140.6720  143.6285 LP  0  0  0  0  0  0  0  0  0  0  0  0  # atno 17321 bound_to 7965
  140.3113  144.3535  150.6033 LP  0  0  0  0  0  0  0  0  0  0  0  0  # atno 17342 bound_to 10162
  140.5797  143.2173  151.7451 LP  0  0  0  0  0  0  0  0  0  0  0  0  # atno 17343 bound_to 10162
  157.4047  130.7352  149.6794 LP  0  0  0  0  0  0  0  0  0  0  0  0  # atno 17370 bound_to 10713
  155.9739  130.4111  150.3965 LP  0  0  0  0  0  0  0  0  0  0  0  0  # atno 17371 bound_to 10713
  139.9415  135.0190  156.8722 LP  0  0  0  0  0  0  0  0  0  0  0  0  # atno 17394 bound_to 11000
  140.5908  134.0263  155.7499 LP  0  0  0  0  0  0  0  0  0  0  0  0  # atno 17395 bound_to 11000

$$$$
