AV-unprocessed.smi:1399|AV-procd|sdf|5683|dock9
  -GOLD-   22720 5303D 1   1.00000     0.00000
 Structure written by MMmdl.
 38 39  0  0  0  0  0  0  0  0  2 V2000
  144.1003  134.3235  149.4000 N   0  0  0  0  0  0  0  0  0  0  0  0
  144.6326  134.1999  150.6178 C   0  0  0  0  0  0  0  0  0  0  0  0
  145.7532  134.6272  150.8896 O   0  0  0  0  0  0  0  0  0  0  0  0
  143.7874  133.4780  151.6721 C   0  0  0  0  0  0  0  0  0  0  0  0
  144.3691  133.5553  153.0372 N   0  3  2  0  0  0  0  0  0  0  0  0
  144.2942  134.9245  153.6074 C   0  0  0  0  0  0  0  0  0  0  0  0
  144.7591  134.9421  155.0749 C   0  0  0  0  0  0  0  0  0  0  0  0
  146.1717  134.3557  155.2422 C   0  0  2  0  0  0  0  0  0  0  0  0
  147.1762  135.2621  154.6843 N   0  0  0  0  0  0  0  0  0  0  0  0
  147.8202  136.2318  155.3504 C   0  0  0  0  0  0  0  0  0  0  0  0
  147.6411  136.4792  156.5424 O   0  0  0  0  0  0  0  0  0  0  0  0
  148.6755  136.8845  154.5472 N   0  0  0  0  0  0  0  0  0  0  0  0
  149.5154  137.9730  154.8916 C   0  0  0  0  0  0  0  0  0  0  0  0
  150.3802  138.7445  154.0607 C   0  0  0  0  0  0  0  0  0  0  0  0
  151.0056  139.6814  154.7595 N   0  0  0  0  0  0  0  0  0  0  0  0
  150.5518  139.5156  156.0222 N   0  0  0  0  0  0  0  0  0  0  0  0
  149.6444  138.4873  156.1473 C   0  0  0  0  0  0  0  0  0  0  0  0
  146.2516  132.9733  154.5711 C   0  0  0  0  0  0  0  0  0  0  0  0
  145.7497  133.0065  153.1164 C   0  0  0  0  0  0  0  0  0  0  0  0
  150.8678  140.1057  156.7788 H   0  0  0  0  0  0  0  0  0  0  0  0
  144.6236  134.7870  148.6706 H   0  0  0  0  0  0  0  0  0  0  0  0
  143.1820  133.9512  149.2042 H   0  0  0  0  0  0  0  0  0  0  0  0
  142.7669  133.8648  151.6775 H   0  0  0  0  0  0  0  0  0  0  0  0
  143.7256  132.4351  151.3582 H   0  0  0  0  0  0  0  0  0  0  0  0
  144.9006  135.6043  153.0067 H   0  0  0  0  0  0  0  0  0  0  0  0
  143.2679  135.2895  153.5564 H   0  0  0  0  0  0  0  0  0  0  0  0
  144.7224  135.9587  155.4691 H   0  0  0  0  0  0  0  0  0  0  0  0
  144.0584  134.3604  155.6756 H   0  0  0  0  0  0  0  0  0  0  0  0
  146.3530  134.2208  156.3096 H   0  0  0  0  0  0  0  0  0  0  0  0
  147.3981  135.1440  153.7069 H   0  0  0  0  0  0  0  0  0  0  0  0
  148.7306  136.5733  153.5886 H   0  0  0  0  0  0  0  0  0  0  0  0
  150.5783  138.6653  153.0021 H   0  0  0  0  0  0  0  0  0  0  0  0
  149.1864  138.2221  157.0889 H   0  0  0  0  0  0  0  0  0  0  0  0
  147.2737  132.5936  154.6076 H   0  0  0  0  0  0  0  0  0  0  0  0
  145.6459  132.2652  155.1382 H   0  0  0  0  0  0  0  0  0  0  0  0
  145.7769  131.9952  152.7101 H   0  0  0  0  0  0  0  0  0  0  0  0
  146.4181  133.6083  152.4988 H   0  0  0  0  0  0  0  0  0  0  0  0
  143.7861  132.9722  153.6214 H   0  0  0  0  0  0  0  0  0  0  0  0
  1  2  1  0  0  0  0
  1 21  1  0  0  0  0
  1 22  1  0  0  0  0
  2  3  2  0  0  0  0
  2  4  1  0  0  0  0
  4  5  1  0  0  0  0
  4 23  1  0  0  0  0
  4 24  1  0  0  0  0
  5 19  1  0  0  0  0
  5  6  1  0  0  0  0
  5 38  1  0  0  0  0
  6  7  1  0  0  0  0
  6 25  1  0  0  0  0
  6 26  1  0  0  0  0
  7  8  1  0  0  0  0
  7 27  1  0  0  0  0
  7 28  1  0  0  0  0
  8  9  1  0  0  0  0
  8 18  1  0  0  0  0
  8 29  1  0  0  0  0
  9 10  1  0  0  0  0
  9 30  1  0  0  0  0
 10 11  2  0  0  0  0
 10 12  1  0  0  0  0
 12 13  1  0  0  0  0
 12 31  1  0  0  0  0
 13 17  2  0  0  0  0
 13 14  1  0  0  0  0
 14 15  2  0  0  0  0
 14 32  1  0  0  0  0
 15 16  1  0  0  0  0
 16 20  1  0  0  0  0
 16 17  1  0  0  0  0
 17 33  1  0  0  0  0
 18 19  1  0  0  0  0
 18 34  1  0  0  0  0
 18 35  1  0  0  0  0
 19 36  1  0  0  0  0
 19 37  1  0  0  0  0
M  CHG  1   5   1
M  END
> <s_m_source_file>
AV-unprocessed.smi

> <i_m_source_file_index>
1399

> <i_lp_mmshare_version>
43012

> <i_f3d_flags>
0

> <s_epik_input>
W05IMl1DKD1PKVtDSDJdTjFbQ0gyXVtDSDJdW0NIXShbQ0gyXVtDSDJdMSlbTkhdQyg9TylbTkhdYzJbY0hdbltuSF1bY0hdMg==

> <s_epik_cmdline>
J2VwaWtfcHl0aG9uJywgJy1waCcsICc3LjAnLCAnLXRuJywgJzgnLCAnLW1hJywgJzIwMCcsICctbWV0YWxfYmluZGluZycsICctaW1hZScsICc8aW5maWxlLm1hZT4nLCAnLW9tYWUnLCAnPG91dGZpbGUubWFlPic=

> <r_lp_tautomer_probability>
0.5

> <r_epik_Ionization_Penalty>
0.838927

> <r_epik_Ionization_Penalty_Charging>
0.838844

> <r_epik_Ionization_Penalty_Neutral>
8.28742e-05

> <r_epik_State_Penalty>
0.8734

> <r_epik_Charging_Adjusted_Penalty>
1.71224

> <i_epik_Tot_Q>
1

> <i_epik_Tot_abs_Q>
1

> <r_epik_Metal_State_Penalty>
0.890702

> <b_epik_Metal_Only>
0

> <s_lp_Force_Field>
OPLS_2005

> <r_lp_Energy>
14.6422

> <b_lp_Chiralities_Consistent>
1

> <s_lp_Variant>
AV-unprocessed.smi:1399-3

> <Gold.Version>
5.8.1

> <Gold.Id.Protein>
6NUR|6NUR_protein|mol2

> <Gold.PLP.Fitness>
38.7434

> <Gold.PLP.PLP>
-19.4257

> <Gold.PLP.part.hbond>
-5.0000

> <Gold.PLP.part.metal>
0.0000

> <Gold.PLP.part.buried>
-5.8110

> <Gold.PLP.part.nonpolar>
-9.7631

> <Gold.PLP.part.repulsive>
0.4258

> <Gold.PLP.ligand.clash>
0.0000

> <Gold.PLP.ligand.torsion>
0.4715

> <Gold.PLP.Chemscore.Hbond>
5.7440

> <Gold.PLP.Chemscore.CHOScore>
1.0000

> <Gold.PLP.Chemscore.Metal>
0.0000

> <Gold.Chemscore.Hbonds>
donor molecule, donor type, donor heavy atom, donor atom, acceptor molecule, acceptor atom, score
      L1  H     1    21       P1  7921  0.96
      L1  H     1    22       P1 10186  0.37
      L1  H     5    38       P1 10957  2.00
      L1  H    12    31       P1  7948  1.00
      P1  H  7989  7998       L1    15  1.00
      L1  C    14    32       P1  7957  0.98

> <Gold.PLP.Chemscore.Internal.Correction>
0.0286

> <Gold.Rescore>
     Score         DG    S(hbond)    S(metal)    S(lipo)     H(rot)  DE(clash)    DE(int)     intcor
     16.54     -20.07       4.83        0.00      32.42       2.09       0.08       3.45       ----

> <Gold.Chemscore.Fitness>
16.5428

> <Gold.Chemscore.DG>
-20.0712

> <Gold.Chemscore.ZeroCoef>
-5.4800

> <Gold.Chemscore.Hbond>
4.8323

> <Gold.Chemscore.Metal>
0.0000

> <Gold.Chemscore.Lipo>
32.4171

> <Gold.Chemscore.Internal_Hbond>
0.0000

> <Gold.Chemscore.DEClash>
0.0790

> <Gold.Chemscore.DEInternal>
3.4494

> <Gold.Chemscore.Rot>
2.0865

> <Gold.Chemscore.Internal.Correction>
   9.000000E+99

> <Gold.Chemscore.Hbonds>
donor molecule, donor type, donor heavy atom, donor atom, acceptor molecule, acceptor atom, score
      L1  H     1    21       P1  7921  0.92
      L1  H     1    22       P1 10186  0.36
      L1  H     5    38       P1 10957  0.84
      L1  H    12    31       P1  7948  1.00
      P1  H  7989  7998       L1    15  0.50

> <Gold.Chemscore.Hbond.Weighted>
-16.1398

> <Gold.Chemscore.Metal.Weighted>
-0.0000

> <Gold.Chemscore.Lipo.Weighted>
-3.7928

> <Gold.Chemscore.Internal_Hbond.Weighted>
0.0000

> <Gold.Chemscore.DEClash.Weighted>
0.0790

> <Gold.Chemscore.DEInternal.Weighted>
3.4494

> <Gold.Chemscore.Rot.Weighted>
5.3415

> <Gold.Chemscore.Internal.Correction.Weighted>
   9.000000E+99

> <Gold.Protein.RotatedTorsions>
[ 6907 6896 6895 6894 ] final -114.39 input  -60.11 | X-H torsion
[ 7974 7965 7964 7962 ] final  136.23 input  175.53 | X-H torsion
[ 8008 7997 7996 7995 ] final    4.23 input   59.86 | X-H torsion
[ 10167 10162 10161 10158 ] final  118.78 input  -65.29 | X-H torsion
[ 10718 10713 10712 10709 ] final  109.85 input   66.30 | X-H torsion
[ 10763 10752 10751 10750 ] final -138.32 input  -60.55 | X-H torsion
[ 11005 11000 10999 10996 ] final -113.45 input  -57.11 | X-H torsion

> <Gold.Protein.ActiveResidues>
 VAL166  LYS551  ARG553  GLY616  TRP617  ASP618  TYR619  PRO620  LYS621  CYS622 
 ASP623  PHE694  ASN695  SER759  ASP760  ASP761  ALA762  ILE779  LEU786  VAL792 
 PHE793  MET794  SER795  GLU796  ALA797  LYS798  CYS799  TRP800  GLU811  SER814 

> <Gold.Protein.RotatedAtoms>
  150.7899  133.8807  159.3284 H   0  0  0  0  0  0  0  0  0  0  0  0  # atno 6907 bound_to 6896
  151.6648  135.0982  160.0196 H   0  0  0  0  0  0  0  0  0  0  0  0  # atno 6908 bound_to 6896
  152.3971  133.6724  159.6320 H   0  0  0  0  0  0  0  0  0  0  0  0  # atno 6909 bound_to 6896
  144.9585  139.4737  143.5491 H   0  0  0  0  0  0  0  0  0  0  0  0  # atno 7974 bound_to 7965
  154.7134  140.2697  155.6608 H   0  0  0  0  0  0  0  0  0  0  0  0  # atno 8008 bound_to 7997
  156.2802  140.2749  156.1707 H   0  0  0  0  0  0  0  0  0  0  0  0  # atno 8009 bound_to 7997
  155.0604  140.0371  157.2565 H   0  0  0  0  0  0  0  0  0  0  0  0  # atno 8010 bound_to 7997
  139.6089  144.7077  151.2889 H   0  0  0  0  0  0  0  0  0  0  0  0  # atno 10167 bound_to 10162
  157.6522  131.0921  150.6514 H   0  0  0  0  0  0  0  0  0  0  0  0  # atno 10718 bound_to 10713
  154.8640  135.3615  154.5366 H   0  0  0  0  0  0  0  0  0  0  0  0  # atno 10763 bound_to 10752
  153.5990  135.7013  153.5397 H   0  0  0  0  0  0  0  0  0  0  0  0  # atno 10764 bound_to 10752
  153.3307  135.4125  155.1455 H   0  0  0  0  0  0  0  0  0  0  0  0  # atno 10765 bound_to 10752
  141.0613  133.9531  157.2661 H   0  0  0  0  0  0  0  0  0  0  0  0  # atno 11005 bound_to 11000
  146.3345  139.8719  142.8838 LP  0  0  0  0  0  0  0  0  0  0  0  0  # atno 17320 bound_to 7965
  145.2736  141.0116  143.3758 LP  0  0  0  0  0  0  0  0  0  0  0  0  # atno 17321 bound_to 7965
  140.7305  143.6878  150.7947 LP  0  0  0  0  0  0  0  0  0  0  0  0  # atno 17342 bound_to 10162
  140.0469  143.5289  152.2692 LP  0  0  0  0  0  0  0  0  0  0  0  0  # atno 17343 bound_to 10162
  156.6824  130.4571  149.5624 LP  0  0  0  0  0  0  0  0  0  0  0  0  # atno 17370 bound_to 10713
  156.1919  130.6565  151.1071 LP  0  0  0  0  0  0  0  0  0  0  0  0  # atno 17371 bound_to 10713
  139.9435  135.0187  156.8782 LP  0  0  0  0  0  0  0  0  0  0  0  0  # atno 17394 bound_to 11000
  140.5863  134.0304  155.7482 LP  0  0  0  0  0  0  0  0  0  0  0  0  # atno 17395 bound_to 11000

$$$$
