#       Name:                AV-unprocessed.smi:1402
#       Creating user name   scv26
#       Creation time:       Fri Mar 27 05:32:39 2020


#       File generated by GOLD software.
#

@<TRIPOS>MOLECULE
AV-unprocessed.smi:1402
    49    50     1
SMALL
NO_CHARGES


@<TRIPOS>ATOM
      1 ****        -6.3237   0.2390  -1.3773 C.3            1 S1                 0.0000
      2 ****        -4.9690   0.8195  -1.6560 C.2            1 S1                 0.0000
      3 ****        -3.7102   0.1517  -1.6531 C.2            1 S1                 0.0000
      4 ****        -2.8344   1.1576  -1.9582 C.2            1 S1                 0.0000
      5 ****        -1.4834   1.0935  -2.0962 N.am           1 S1                 0.0000
      6 ****        -0.6527   0.1003  -1.7349 C.2            1 S1                 0.0000
      7 ****        -0.9981  -0.9717  -1.2371 O.2            1 S1                 0.0000
      8 ****         0.6256   0.4293  -1.9704 N.am           1 S1                 0.0000
      9 ****         1.7785  -0.3831  -1.5988 C.3            1 S1                 0.0000
     10 ****         2.4592   0.1569  -0.3238 C.3            1 S1                 0.0000
     11 ****         2.3705  -0.7962   0.7887 N.am           1 S1                 0.0000
     12 ****         3.5099  -1.7131   0.9471 C.3            1 S1                 0.0000
     13 ****         4.3809  -1.4162   2.1898 C.3            1 S1                 0.0000
     14 ****         3.6500  -0.8121   3.4055 C.3            1 S1                 0.0000
     15 ****         2.3896  -1.5794   3.8582 C.3            1 S1                 0.0000
     16 ****         1.3059  -1.8273   2.7811 C.3            1 S1                 0.0000
     17 ****         1.3084  -0.8074   1.6311 C.2            1 S1                 0.0000
     18 ****         0.3540  -0.0376   1.5204 O.2            1 S1                 0.0000
     19 ****        -3.5439   2.3257  -2.1398 N.pl3          1 S1                 0.0000
     20 ****        -3.0837   3.6595  -2.4751 C.3            1 S1                 0.0000
     21 ****        -4.8631   2.1110  -1.9477 N.2            1 S1                 0.0000
     22 ****        -6.2633  -0.8342  -1.1956 H              1 S1                 0.0000
     23 ****        -6.9996   0.3955  -2.2181 H              1 S1                 0.0000
     24 ****        -6.7728   0.6992  -0.4971 H              1 S1                 0.0000
     25 ****        -3.5059  -0.8902  -1.4573 H              1 S1                 0.0000
     26 ****        -1.0477   1.9270  -2.4625 H              1 S1                 0.0000
     27 ****         0.8180   1.3274  -2.3894 H              1 S1                 0.0000
     28 ****         1.5188  -1.4393  -1.5035 H              1 S1                 0.0000
     29 ****         2.4841  -0.3300  -2.4283 H              1 S1                 0.0000
     30 ****         3.5091   0.3620  -0.5375 H              1 S1                 0.0000
     31 ****         2.0502   1.1271  -0.0343 H              1 S1                 0.0000
     32 ****         3.1398  -2.7374   0.9938 H              1 S1                 0.0000
     33 ****         4.1408  -1.7038   0.0574 H              1 S1                 0.0000
     34 ****         4.8901  -2.3331   2.4890 H              1 S1                 0.0000
     35 ****         5.1713  -0.7229   1.9007 H              1 S1                 0.0000
     36 ****         4.3478  -0.7562   4.2414 H              1 S1                 0.0000
     37 ****         3.3862   0.2242   3.1898 H              1 S1                 0.0000
     38 ****         2.6916  -2.5414   4.2737 H              1 S1                 0.0000
     39 ****         1.9387  -1.0327   4.6871 H              1 S1                 0.0000
     40 ****         1.4129  -2.8285   2.3644 H              1 S1                 0.0000
     41 ****         0.3236  -1.8277   3.2556 H              1 S1                 0.0000
     42 ****        -2.0055   3.6677  -2.6340 H              1 S1                 0.0000
     43 ****        -3.3243   4.3449  -1.6619 H              1 S1                 0.0000
     44 ****        -3.5759   4.0004  -3.3863 H              1 S1                 0.0000
     45 ****        -1.9667  -1.1572  -1.0720 LP             1 S1                 0.0000
     46 ****        -0.3099  -1.6567  -0.9979 LP             1 S1                 0.0000
     47 ****         0.3386   0.6368   0.7821 LP             1 S1                 0.0000
     48 ****        -0.4057  -0.0866   2.1687 LP             1 S1                 0.0000
     49 ****        -5.6025   2.7813  -2.0115 LP             1 S1                 0.0000
@<TRIPOS>BOND
    1    1    2 1     
    2    1   22 1     
    3    1   23 1     
    4    1   24 1     
    5    2   21 2     
    6    2    3 1     
    7    3    4 2     
    8    3   25 1     
    9    4    5 1     
   10    4   19 1     
   11    5    6 am    
   12    5   26 1     
   13    6    7 2     
   14    6    8 am    
   15    8    9 1     
   16    8   27 1     
   17    9   10 1     
   18    9   28 1     
   19    9   29 1     
   20   10   11 1     
   21   10   30 1     
   22   10   31 1     
   23   11   17 am    
   24   11   12 1     
   25   12   13 1     
   26   12   32 1     
   27   12   33 1     
   28   13   14 1     
   29   13   34 1     
   30   13   35 1     
   31   14   15 1     
   32   14   36 1     
   33   14   37 1     
   34   15   16 1     
   35   15   38 1     
   36   15   39 1     
   37   16   17 1     
   38   16   40 1     
   39   16   41 1     
   40   17   18 2     
   41   19   20 1     
   42   19   21 1     
   43   20   42 1     
   44   20   43 1     
   45   20   44 1     
   46    7   45 1     
   47    7   46 1     
   48   18   47 1     
   49   18   48 1     
   50   21   49 1     
@<TRIPOS>SUBSTRUCTURE
      1 S1             1
@<TRIPOS>SET
LONE_PAIRS      STATIC     ATOMS    <user>   **** ""
5 45 46 47 48 49
DONOR_HYDROGENS      STATIC     ATOMS    <user>   **** ""
2 26 27
ATOM$BLUE        STATIC     ATOMS    COLORGROUP SYSTEM
5 45 46 47 48 49
ATOM$RED        STATIC     ATOMS    COLORGROUP SYSTEM
2 26 27
