AV-unprocessed.smi:2819|AV-procd|sdf|10853|dock9
  -GOLD-   2272015293D 1   1.00000     0.00000
 Structure written by MMmdl.
 50 51  0  0  0  0  0  0  0  0  2 V2000
  152.0224  145.6685  160.3027 C   0  0  0  0  0  0  0  0  0  0  0  0
  152.3863  144.2963  160.6401 N   0  0  0  0  0  0  0  0  0  0  0  0
  152.7967  143.9582  161.9966 C   0  0  0  0  0  0  0  0  0  0  0  0
  152.3415  143.2957  159.6445 C   0  0  0  0  0  0  0  0  0  0  0  0
  153.2277  142.1914  159.6462 C   0  0  0  0  0  0  0  0  0  0  0  0
  153.0867  141.2606  158.5983 C   0  0  0  0  0  0  0  0  0  0  0  0
  152.1539  141.4071  157.6341 N   0  0  0  0  0  0  0  0  0  0  0  0
  151.3597  142.4771  157.7121 C   0  0  0  0  0  0  0  0  0  0  0  0
  150.4339  142.5733  156.6960 N   0  0  0  0  0  0  0  0  0  0  0  0
  150.1397  141.7241  155.6932 C   0  0  0  0  0  0  0  0  0  0  0  0
  150.7040  140.6511  155.4750 O   0  0  0  0  0  0  0  0  0  0  0  0
  149.1309  142.1902  154.9415 N   0  0  0  0  0  0  0  0  0  0  0  0
  148.5637  141.5175  153.7730 C   0  0  0  0  0  0  0  0  0  0  0  0
  147.0048  141.4823  153.7680 C   0  0  0  0  0  0  0  0  0  0  0  0
  146.4492  141.6192  155.2080 C   0  0  0  0  0  0  0  0  0  0  0  0
  146.4593  142.7012  152.9826 C   0  0  0  0  0  0  0  0  0  0  0  0
  146.4876  140.2072  153.1518 N   0  3  0  0  0  0  0  0  0  0  0  0
  147.1114  139.8096  151.8577 C   0  0  0  0  0  0  0  0  0  0  0  0
  146.3707  138.6084  151.2461 C   0  0  0  0  0  0  0  0  0  0  0  0
  146.3779  137.5233  152.1623 O   0  0  0  0  0  0  0  0  0  0  0  0
  145.7079  137.8528  153.3707 C   0  0  0  0  0  0  0  0  0  0  0  0
  146.4277  139.0248  154.0582 C   0  0  0  0  0  0  0  0  0  0  0  0
  151.4137  143.4174  158.6649 N   0  0  0  0  0  0  0  0  0  0  0  0
  152.6708  146.0542  159.5152 H   0  0  0  0  0  0  0  0  0  0  0  0
  152.1156  146.3291  161.1648 H   0  0  0  0  0  0  0  0  0  0  0  0
  150.9899  145.7164  159.9547 H   0  0  0  0  0  0  0  0  0  0  0  0
  153.8125  143.5619  162.0016 H   0  0  0  0  0  0  0  0  0  0  0  0
  152.1273  143.2114  162.4243 H   0  0  0  0  0  0  0  0  0  0  0  0
  152.7777  144.8331  162.6464 H   0  0  0  0  0  0  0  0  0  0  0  0
  153.9844  142.0467  160.4022 H   0  0  0  0  0  0  0  0  0  0  0  0
  153.7273  140.3939  158.5330 H   0  0  0  0  0  0  0  0  0  0  0  0
  149.8849  143.4197  156.7175 H   0  0  0  0  0  0  0  0  0  0  0  0
  148.7270  143.0813  155.1916 H   0  0  0  0  0  0  0  0  0  0  0  0
  148.9332  142.0597  152.9033 H   0  0  0  0  0  0  0  0  0  0  0  0
  148.9797  140.5128  153.6936 H   0  0  0  0  0  0  0  0  0  0  0  0
  146.6128  142.6182  155.6131 H   0  0  0  0  0  0  0  0  0  0  0  0
  146.9264  140.9292  155.9037 H   0  0  0  0  0  0  0  0  0  0  0  0
  145.3743  141.4378  155.2389 H   0  0  0  0  0  0  0  0  0  0  0  0
  146.6498  143.6376  153.5084 H   0  0  0  0  0  0  0  0  0  0  0  0
  145.3806  142.6310  152.8381 H   0  0  0  0  0  0  0  0  0  0  0  0
  146.9240  142.8069  152.0025 H   0  0  0  0  0  0  0  0  0  0  0  0
  147.0836  140.6207  151.1327 H   0  0  0  0  0  0  0  0  0  0  0  0
  148.1585  139.5464  152.0084 H   0  0  0  0  0  0  0  0  0  0  0  0
  145.3454  138.8744  150.9837 H   0  0  0  0  0  0  0  0  0  0  0  0
  146.8628  138.2933  150.3256 H   0  0  0  0  0  0  0  0  0  0  0  0
  144.6641  138.0994  153.1692 H   0  0  0  0  0  0  0  0  0  0  0  0
  145.7073  136.9789  154.0223 H   0  0  0  0  0  0  0  0  0  0  0  0
  147.4331  138.7122  154.3409 H   0  0  0  0  0  0  0  0  0  0  0  0
  145.8905  139.2477  154.9778 H   0  0  0  0  0  0  0  0  0  0  0  0
  145.5244  140.4111  152.9263 H   0  0  0  0  0  0  0  0  0  0  0  0
  1  2  1  0  0  0  0
  1 24  1  0  0  0  0
  1 25  1  0  0  0  0
  1 26  1  0  0  0  0
  2  3  1  0  0  0  0
  2  4  1  0  0  0  0
  3 27  1  0  0  0  0
  3 28  1  0  0  0  0
  3 29  1  0  0  0  0
  4 23  1  0  0  0  0
  4  5  2  0  0  0  0
  5  6  1  0  0  0  0
  5 30  1  0  0  0  0
  6  7  2  0  0  0  0
  6 31  1  0  0  0  0
  7  8  1  0  0  0  0
  8  9  1  0  0  0  0
  8 23  2  0  0  0  0
  9 10  1  0  0  0  0
  9 32  1  0  0  0  0
 10 11  2  0  0  0  0
 10 12  1  0  0  0  0
 12 13  1  0  0  0  0
 12 33  1  0  0  0  0
 13 14  1  0  0  0  0
 13 34  1  0  0  0  0
 13 35  1  0  0  0  0
 14 15  1  0  0  0  0
 14 16  1  0  0  0  0
 14 17  1  0  0  0  0
 15 36  1  0  0  0  0
 15 37  1  0  0  0  0
 15 38  1  0  0  0  0
 16 39  1  0  0  0  0
 16 40  1  0  0  0  0
 16 41  1  0  0  0  0
 17 22  1  0  0  0  0
 17 18  1  0  0  0  0
 17 50  1  0  0  0  0
 18 19  1  0  0  0  0
 18 42  1  0  0  0  0
 18 43  1  0  0  0  0
 19 20  1  0  0  0  0
 19 44  1  0  0  0  0
 19 45  1  0  0  0  0
 20 21  1  0  0  0  0
 21 22  1  0  0  0  0
 21 46  1  0  0  0  0
 21 47  1  0  0  0  0
 22 48  1  0  0  0  0
 22 49  1  0  0  0  0
M  CHG  1  17   1
M  END
> <s_m_source_file>
AV-unprocessed.smi

> <i_m_source_file_index>
2819

> <i_lp_mmshare_version>
43012

> <i_f3d_flags>
0

> <s_epik_input>
W0NIM11OKFtDSDNdKWMxW2NIXVtjSF1uYyhuMSlbTkhdQyg9TylbTkhdW0NIMl1DKFtDSDNdKShbQ0gzXSlOMltDSDJdW0NIMl1PW0NIMl1bQ0gyXTI=

> <s_epik_cmdline>
J2VwaWtfcHl0aG9uJywgJy1waCcsICc3LjAnLCAnLXRuJywgJzgnLCAnLW1hJywgJzIwMCcsICctbWV0YWxfYmluZGluZycsICctaW1hZScsICc8aW5maWxlLm1hZT4nLCAnLW9tYWUnLCAnPG91dGZpbGUubWFlPic=

> <r_epik_Ionization_Penalty>
1.64867

> <r_epik_Ionization_Penalty_Charging>
0.602531

> <r_epik_Ionization_Penalty_Neutral>
1.04614

> <r_epik_State_Penalty>
1.74763

> <r_epik_Charging_Adjusted_Penalty>
2.35016

> <i_epik_Tot_Q>
1

> <i_epik_Tot_abs_Q>
1

> <r_epik_Metal_State_Penalty>
1.04264

> <b_epik_Metal_Only>
0

> <s_lp_Force_Field>
OPLS_2005

> <r_lp_Energy>
22.1801

> <b_lp_Chiralities_Consistent>
1

> <s_lp_Variant>
AV-unprocessed.smi:2819-4

> <Gold.Version>
5.8.1

> <Gold.Id.Protein>
6NUR|6NUR_protein|mol2

> <Gold.PLP.Fitness>
50.6988

> <Gold.PLP.PLP>
-41.9052

> <Gold.PLP.part.hbond>
-3.0000

> <Gold.PLP.part.metal>
0.0000

> <Gold.PLP.part.buried>
-1.3012

> <Gold.PLP.part.nonpolar>
-38.6358

> <Gold.PLP.part.repulsive>
1.2938

> <Gold.PLP.ligand.clash>
0.0000

> <Gold.PLP.ligand.torsion>
1.6522

> <Gold.PLP.Chemscore.Hbond>
3.9920

> <Gold.PLP.Chemscore.CHOScore>
0.0000

> <Gold.PLP.Chemscore.Metal>
0.0000

> <Gold.Chemscore.Hbonds>
donor molecule, donor type, donor heavy atom, donor atom, acceptor molecule, acceptor atom, score
      L1  H     9    32       P1  8028  0.93
      L1  H    12    33       P1  8028  1.00
      L1  H    17    50       P1 10175  2.00
      P1  H  7989  7998       L1    11  0.54

> <Gold.PLP.Chemscore.Internal.Correction>
0.1221

> <Gold.Rescore>
     Score         DG    S(hbond)    S(metal)    S(lipo)     H(rot)  DE(clash)    DE(int)     intcor
     14.16     -22.10       2.59        0.00     101.97       1.55       4.46       3.49       ----

> <Gold.Chemscore.Fitness>
14.1576

> <Gold.Chemscore.DG>
-22.1044

> <Gold.Chemscore.ZeroCoef>
-5.4800

> <Gold.Chemscore.Hbond>
2.5939

> <Gold.Chemscore.Metal>
0.0000

> <Gold.Chemscore.Lipo>
101.9678

> <Gold.Chemscore.Internal_Hbond>
0.0000

> <Gold.Chemscore.DEClash>
4.4597

> <Gold.Chemscore.DEInternal>
3.4871

> <Gold.Chemscore.Rot>
1.5506

> <Gold.Chemscore.Internal.Correction>
   9.000000E+99

> <Gold.Chemscore.Hbonds>
donor molecule, donor type, donor heavy atom, donor atom, acceptor molecule, acceptor atom, score
      L1  H     9    32       P1  8028  0.89
      L1  H    12    33       P1  8028  0.96
      L1  H    17    50       P1 10175  0.88
      P1  H  7989  7998       L1    11  0.27

> <Gold.Chemscore.Hbond.Weighted>
-8.6636

> <Gold.Chemscore.Metal.Weighted>
-0.0000

> <Gold.Chemscore.Lipo.Weighted>
-11.9302

> <Gold.Chemscore.Internal_Hbond.Weighted>
0.0000

> <Gold.Chemscore.DEClash.Weighted>
4.4597

> <Gold.Chemscore.DEInternal.Weighted>
3.4871

> <Gold.Chemscore.Rot.Weighted>
3.9695

> <Gold.Chemscore.Internal.Correction.Weighted>
   9.000000E+99

> <Gold.Protein.RotatedTorsions>
[ 6907 6896 6895 6894 ] final -139.97 input  -60.11 | X-H torsion
[ 7974 7965 7964 7962 ] final  -17.64 input  175.53 | X-H torsion
[ 8008 7997 7996 7995 ] final  112.19 input   59.86 | X-H torsion
[ 10167 10162 10161 10158 ] final   21.06 input  -65.29 | X-H torsion
[ 10718 10713 10712 10709 ] final   48.93 input   66.30 | X-H torsion
[ 10763 10752 10751 10750 ] final  148.67 input  -60.55 | X-H torsion
[ 11005 11000 10999 10996 ] final   20.97 input  -57.11 | X-H torsion

> <Gold.Protein.ActiveResidues>
 VAL166  LYS551  ARG553  GLY616  TRP617  ASP618  TYR619  PRO620  LYS621  CYS622 
 ASP623  PHE694  ASN695  SER759  ASP760  ASP761  ALA762  ILE779  LEU786  VAL792 
 PHE793  MET794  SER795  GLU796  ALA797  LYS798  CYS799  TRP800  GLU811  SER814 

> <Gold.Protein.RotatedAtoms>
  151.0547  133.5594  159.2639 H   0  0  0  0  0  0  0  0  0  0  0  0  # atno 6907 bound_to 6896
  151.2592  135.0647  159.9101 H   0  0  0  0  0  0  0  0  0  0  0  0  # atno 6908 bound_to 6896
  152.5388  134.0295  159.8072 H   0  0  0  0  0  0  0  0  0  0  0  0  # atno 6909 bound_to 6896
  146.1931  140.3808  142.8450 H   0  0  0  0  0  0  0  0  0  0  0  0  # atno 7974 bound_to 7965
  156.2175  140.3004  155.9874 H   0  0  0  0  0  0  0  0  0  0  0  0  # atno 8008 bound_to 7997
  155.2567  140.0428  157.3010 H   0  0  0  0  0  0  0  0  0  0  0  0  # atno 8009 bound_to 7997
  154.5790  140.2370  155.8089 H   0  0  0  0  0  0  0  0  0  0  0  0  # atno 8010 bound_to 7997
  140.5456  143.9600  150.6546 H   0  0  0  0  0  0  0  0  0  0  0  0  # atno 10167 bound_to 10162
  157.4736  130.8271  149.8015 H   0  0  0  0  0  0  0  0  0  0  0  0  # atno 10718 bound_to 10713
  154.0586  135.2876  155.3328 H   0  0  0  0  0  0  0  0  0  0  0  0  # atno 10763 bound_to 10752
  154.6823  135.5259  153.8282 H   0  0  0  0  0  0  0  0  0  0  0  0  # atno 10764 bound_to 10752
  153.0531  135.6584  154.0777 H   0  0  0  0  0  0  0  0  0  0  0  0  # atno 10765 bound_to 10752
  140.3968  134.1761  155.7663 H   0  0  0  0  0  0  0  0  0  0  0  0  # atno 11005 bound_to 11000
  144.8526  140.7023  143.6159 LP  0  0  0  0  0  0  0  0  0  0  0  0  # atno 17320 bound_to 7965
  145.3730  139.1654  143.4322 LP  0  0  0  0  0  0  0  0  0  0  0  0  # atno 17321 bound_to 7965
  140.3012  143.3259  152.0969 LP  0  0  0  0  0  0  0  0  0  0  0  0  # atno 17342 bound_to 10162
  139.5006  144.6695  151.6276 LP  0  0  0  0  0  0  0  0  0  0  0  0  # atno 17343 bound_to 10162
  156.0085  130.3844  150.2345 LP  0  0  0  0  0  0  0  0  0  0  0  0  # atno 17370 bound_to 10713
  157.0528  131.0067  151.3248 LP  0  0  0  0  0  0  0  0  0  0  0  0  # atno 17371 bound_to 10713
  141.1871  133.8288  157.1043 LP  0  0  0  0  0  0  0  0  0  0  0  0  # atno 17394 bound_to 11000
  140.0366  134.9875  157.0882 LP  0  0  0  0  0  0  0  0  0  0  0  0  # atno 17395 bound_to 11000

$$$$
