#       Name:                AV-unprocessed.smi:3128
#       Creating user name   scv26
#       Creation time:       Fri Mar 27 17:29:50 2020


#       File generated by GOLD software.
#

@<TRIPOS>MOLECULE
AV-unprocessed.smi:3128
    43    43     1
SMALL
NO_CHARGES


@<TRIPOS>ATOM
      1 ****        -4.9031  -0.1766   0.2254 C.3            1 S1                 0.0000
      2 ****        -3.3791  -0.0769   0.0338 C.3            1 S1                 0.0000
      3 ****        -2.9112   1.3472   0.3913 C.3            1 S1                 0.0000
      4 ****        -2.9370  -0.5063  -1.3953 C.3            1 S1                 0.0000
      5 ****        -3.3410  -1.9471  -1.7706 C.3            1 S1                 0.0000
      6 ****        -1.5049  -0.2972  -1.6336 N.am           1 S1                 0.0000
      7 ****        -0.4767  -0.9001  -1.0125 C.2            1 S1                 0.0000
      8 ****        -0.6129  -1.7522  -0.1343 O.2            1 S1                 0.0000
      9 ****         0.9201  -0.4758  -1.4663 C.3            1 S1                 0.0000
     10 ****         1.9265  -0.6793  -0.4058 N.4            1 S1                 1.0000
     11 ****         3.2898  -0.2457  -0.7712 C.3            1 S1                 0.0000
     12 ****         4.2629  -0.3814   0.4109 C.3            1 S1                 0.0000
     13 ****         3.9444   0.5347   1.4916 N.pl3          1 S1                 0.0000
     14 ****         4.4702   1.7854   1.7386 C.2            1 S1                 0.0000
     15 ****         3.8564   2.2699   2.8581 C.2            1 S1                 0.0000
     16 ****         2.9610   1.2290   3.2312 C.2            1 S1                 0.0000
     17 ****         3.0148   0.1925   2.4101 N.2            1 S1                 0.0000
     18 ****        -5.4352   0.4365  -0.5026 H              1 S1                 0.0000
     19 ****        -5.1966   0.1627   1.2193 H              1 S1                 0.0000
     20 ****        -5.2583  -1.2018   0.1258 H              1 S1                 0.0000
     21 ****        -2.9249  -0.7564   0.7555 H              1 S1                 0.0000
     22 ****        -3.3017   2.0801  -0.3153 H              1 S1                 0.0000
     23 ****        -1.8246   1.4314   0.3937 H              1 S1                 0.0000
     24 ****        -3.2521   1.6331   1.3867 H              1 S1                 0.0000
     25 ****        -3.4362   0.1563  -2.1035 H              1 S1                 0.0000
     26 ****        -4.4233  -2.0556  -1.8336 H              1 S1                 0.0000
     27 ****        -2.9787  -2.6725  -1.0419 H              1 S1                 0.0000
     28 ****        -2.9393  -2.2250  -2.7455 H              1 S1                 0.0000
     29 ****        -1.2763   0.3829  -2.3441 H              1 S1                 0.0000
     30 ****         1.1965  -1.0542  -2.3486 H              1 S1                 0.0000
     31 ****         0.9072   0.5770  -1.7530 H              1 S1                 0.0000
     32 ****         1.6360  -0.1583   0.4098 H              1 S1                 0.0000
     33 ****         3.6386  -0.8531  -1.6071 H              1 S1                 0.0000
     34 ****         3.2667   0.7891  -1.1159 H              1 S1                 0.0000
     35 ****         4.2664  -1.4023   0.7963 H              1 S1                 0.0000
     36 ****         5.2797  -0.1711   0.0766 H              1 S1                 0.0000
     37 ****         5.2273   2.2229   1.1044 H              1 S1                 0.0000
     38 ****         4.0226   3.2226   3.3389 H              1 S1                 0.0000
     39 ****         2.2774   1.1966   4.0669 H              1 S1                 0.0000
     40 ****         1.9469  -1.6600  -0.1643 H              1 S1                 0.0000
     41 ****        -1.5289  -2.0315   0.1537 LP             1 S1                 0.0000
     42 ****         0.1925  -2.1651   0.2910 LP             1 S1                 0.0000
     43 ****         2.4857  -0.6546   2.4587 LP             1 S1                 0.0000
@<TRIPOS>BOND
    1    1    2 1     
    2    1   18 1     
    3    1   19 1     
    4    1   20 1     
    5    2    3 1     
    6    2    4 1     
    7    2   21 1     
    8    3   22 1     
    9    3   23 1     
   10    3   24 1     
   11    4    5 1     
   12    4    6 1     
   13    4   25 1     
   14    5   26 1     
   15    5   27 1     
   16    5   28 1     
   17    6    7 am    
   18    6   29 1     
   19    7    8 2     
   20    7    9 1     
   21    9   10 1     
   22    9   30 1     
   23    9   31 1     
   24   10   11 1     
   25   10   32 1     
   26   10   40 1     
   27   11   12 1     
   28   11   33 1     
   29   11   34 1     
   30   12   13 1     
   31   12   35 1     
   32   12   36 1     
   33   13   17 1     
   34   13   14 1     
   35   14   15 2     
   36   14   37 1     
   37   15   16 1     
   38   15   38 1     
   39   16   17 2     
   40   16   39 1     
   41    8   41 1     
   42    8   42 1     
   43   17   43 1     
@<TRIPOS>SUBSTRUCTURE
      1 S1             1
@<TRIPOS>SET
LONE_PAIRS      STATIC     ATOMS    <user>   **** ""
3 41 42 43
DONOR_HYDROGENS      STATIC     ATOMS    <user>   **** ""
3 29 32 40
ATOM$BLUE        STATIC     ATOMS    COLORGROUP SYSTEM
3 41 42 43
ATOM$RED        STATIC     ATOMS    COLORGROUP SYSTEM
3 29 32 40
