AV-unprocessed.smi:3212|AV-procd|sdf|12281|dock2
  -GOLD-   2272018113D 1   1.00000     0.00000
 Structure written by MMmdl.
 39 39  0  0  0  0  0  0  0  0  1 V2000
  148.6474  141.3933  155.8146 C   0  0  0  0  0  0  0  0  0  0  0  0
  150.1234  141.5955  155.4389 C   0  0  1  0  0  0  0  0  0  0  0  0
  150.6534  142.7864  156.1331 N   0  0  0  0  0  0  0  0  0  0  0  0
  151.0081  142.6210  157.5439 C   0  0  0  0  0  0  0  0  0  0  0  0
  151.9054  143.7504  158.0909 C   0  0  0  0  0  0  0  0  0  0  0  0
  152.2569  143.5588  159.4863 N   0  0  0  0  0  0  0  0  0  0  0  0
  152.9311  142.5034  160.0633 C   0  0  0  0  0  0  0  0  0  0  0  0
  153.0255  142.7642  161.4001 C   0  0  0  0  0  0  0  0  0  0  0  0
  152.3703  144.0187  161.5469 C   0  0  0  0  0  0  0  0  0  0  0  0
  151.9080  144.4900  160.4002 N   0  0  0  0  0  0  0  0  0  0  0  0
  150.9298  140.3151  155.7111 C   0  0  0  0  0  0  0  0  0  0  0  0
  151.7084  139.8873  154.8591 O   0  0  0  0  0  0  0  0  0  0  0  0
  150.6990  139.7097  156.8897 N   0  0  0  0  0  0  0  0  0  0  0  0
  151.2701  138.4596  157.4029 C   0  0  0  0  0  0  0  0  0  0  0  0
  150.9618  137.3694  156.3618 C   0  0  0  0  0  0  0  0  0  0  0  0
  150.6198  138.0680  158.7467 C   0  0  0  0  0  0  0  0  0  0  0  0
  152.8000  138.5904  157.5552 C   0  0  0  0  0  0  0  0  0  0  0  0
  148.2221  140.5287  155.3035 H   0  0  0  0  0  0  0  0  0  0  0  0
  148.0514  142.2622  155.5329 H   0  0  0  0  0  0  0  0  0  0  0  0
  148.5214  141.2411  156.8874 H   0  0  0  0  0  0  0  0  0  0  0  0
  150.1500  141.7911  154.3662 H   0  0  0  0  0  0  0  0  0  0  0  0
  150.0134  143.5635  156.0497 H   0  0  0  0  0  0  0  0  0  0  0  0
  150.0771  142.6009  158.1112 H   0  0  0  0  0  0  0  0  0  0  0  0
  151.4729  141.6501  157.7160 H   0  0  0  0  0  0  0  0  0  0  0  0
  152.8288  143.7945  157.5121 H   0  0  0  0  0  0  0  0  0  0  0  0
  151.4338  144.7262  157.9753 H   0  0  0  0  0  0  0  0  0  0  0  0
  153.2857  141.6661  159.4804 H   0  0  0  0  0  0  0  0  0  0  0  0
  153.4927  142.1531  162.1579 H   0  0  0  0  0  0  0  0  0  0  0  0
  152.2164  144.5961  162.4464 H   0  0  0  0  0  0  0  0  0  0  0  0
  150.0322  140.1607  157.4989 H   0  0  0  0  0  0  0  0  0  0  0  0
  151.3594  136.4015  156.6694 H   0  0  0  0  0  0  0  0  0  0  0  0
  151.4001  137.6096  155.3922 H   0  0  0  0  0  0  0  0  0  0  0  0
  149.8873  137.2503  156.2165 H   0  0  0  0  0  0  0  0  0  0  0  0
  149.5339  138.0160  158.6620 H   0  0  0  0  0  0  0  0  0  0  0  0
  150.8551  138.7769  159.5406 H   0  0  0  0  0  0  0  0  0  0  0  0
  150.9696  137.0905  159.0806 H   0  0  0  0  0  0  0  0  0  0  0  0
  153.2474  137.6409  157.8506 H   0  0  0  0  0  0  0  0  0  0  0  0
  153.0751  139.3227  158.3142 H   0  0  0  0  0  0  0  0  0  0  0  0
  153.2675  138.8958  156.6184 H   0  0  0  0  0  0  0  0  0  0  0  0
  1  2  1  0  0  0  0
  1 18  1  0  0  0  0
  1 19  1  0  0  0  0
  1 20  1  0  0  0  0
  2  3  1  0  0  0  0
  2 11  1  0  0  0  0
  2 21  1  0  0  0  0
  3  4  1  0  0  0  0
  3 22  1  0  0  0  0
  4  5  1  0  0  0  0
  4 23  1  0  0  0  0
  4 24  1  0  0  0  0
  5  6  1  0  0  0  0
  5 25  1  0  0  0  0
  5 26  1  0  0  0  0
  6 10  1  0  0  0  0
  6  7  1  0  0  0  0
  7  8  2  0  0  0  0
  7 27  1  0  0  0  0
  8  9  1  0  0  0  0
  8 28  1  0  0  0  0
  9 10  2  0  0  0  0
  9 29  1  0  0  0  0
 11 12  2  0  0  0  0
 11 13  1  0  0  0  0
 13 14  1  0  0  0  0
 13 30  1  0  0  0  0
 14 15  1  0  0  0  0
 14 16  1  0  0  0  0
 14 17  1  0  0  0  0
 15 31  1  0  0  0  0
 15 32  1  0  0  0  0
 15 33  1  0  0  0  0
 16 34  1  0  0  0  0
 16 35  1  0  0  0  0
 16 36  1  0  0  0  0
 17 37  1  0  0  0  0
 17 38  1  0  0  0  0
 17 39  1  0  0  0  0
M  END
> <s_m_source_file>
AV-unprocessed.smi

> <i_m_source_file_index>
3212

> <i_lp_mmshare_version>
43012

> <i_f3d_flags>
0

> <s_epik_input>
W0NIM11DKFtDSDNdKShbQ0gzXSlbTkhdQyg9TylbQ0BIXShbQ0gzXSlbTkhdW0NIMl1bQ0gyXW4xW2NIXVtjSF1bY0hdbjE=

> <s_epik_cmdline>
J2VwaWtfcHl0aG9uJywgJy1waCcsICc3LjAnLCAnLXRuJywgJzgnLCAnLW1hJywgJzIwMCcsICctbWV0YWxfYmluZGluZycsICctaW1hZScsICc8aW5maWxlLm1hZT4nLCAnLW9tYWUnLCAnPG91dGZpbGUubWFlPic=

> <r_lp_tautomer_probability>
1

> <r_epik_Ionization_Penalty>
0.745735

> <r_epik_Ionization_Penalty_Charging>
0

> <r_epik_Ionization_Penalty_Neutral>
0.745735

> <r_epik_State_Penalty>
0.771152

> <r_epik_Charging_Adjusted_Penalty>
0.771152

> <i_epik_Tot_Q>
0

> <i_epik_Tot_abs_Q>
0

> <r_epik_Metal_State_Penalty>
0.770403

> <b_epik_Metal_Only>
0

> <s_lp_Force_Field>
OPLS_2005

> <r_lp_Energy>
7.05168

> <b_lp_Chiralities_Consistent>
1

> <s_lp_Variant>
AV-unprocessed.smi:3212-4

> <Gold.Version>
5.8.1

> <Gold.Id.Protein>
6NUR|6NUR_protein|mol2

> <Gold.PLP.Fitness>
41.5334

> <Gold.PLP.PLP>
-36.7214

> <Gold.PLP.part.hbond>
-2.0000

> <Gold.PLP.part.metal>
0.0000

> <Gold.PLP.part.buried>
-5.2528

> <Gold.PLP.part.nonpolar>
-29.1690

> <Gold.PLP.part.repulsive>
0.1750

> <Gold.PLP.ligand.clash>
0.0036

> <Gold.PLP.ligand.torsion>
0.6268

> <Gold.PLP.Chemscore.Hbond>
2.0000

> <Gold.PLP.Chemscore.CHOScore>
0.0000

> <Gold.PLP.Chemscore.Metal>
0.0000

> <Gold.Chemscore.Hbonds>
donor molecule, donor type, donor heavy atom, donor atom, acceptor molecule, acceptor atom, score
      L1  H     3    22       P1  8028  1.00
      P1  H  7989  7998       L1    12  1.00

> <Gold.PLP.Chemscore.Internal.Correction>
0.0693

> <Gold.Rescore>
     Score         DG    S(hbond)    S(metal)    S(lipo)     H(rot)  DE(clash)    DE(int)     intcor
     15.95     -16.74       1.93        0.00      84.58       1.99       0.00       0.79       ----

> <Gold.Chemscore.Fitness>
15.9453

> <Gold.Chemscore.DG>
-16.7388

> <Gold.Chemscore.ZeroCoef>
-5.4800

> <Gold.Chemscore.Hbond>
1.9318

> <Gold.Chemscore.Metal>
0.0000

> <Gold.Chemscore.Lipo>
84.5796

> <Gold.Chemscore.Internal_Hbond>
0.0000

> <Gold.Chemscore.DEClash>
0.0036

> <Gold.Chemscore.DEInternal>
0.7899

> <Gold.Chemscore.Rot>
1.9880

> <Gold.Chemscore.Internal.Correction>
   9.000000E+99

> <Gold.Chemscore.Hbonds>
donor molecule, donor type, donor heavy atom, donor atom, acceptor molecule, acceptor atom, score
      L1  H     3    22       P1  8028  1.00
      P1  H  7989  7998       L1    12  0.72

> <Gold.Chemscore.Hbond.Weighted>
-6.4523

> <Gold.Chemscore.Metal.Weighted>
-0.0000

> <Gold.Chemscore.Lipo.Weighted>
-9.8958

> <Gold.Chemscore.Internal_Hbond.Weighted>
0.0000

> <Gold.Chemscore.DEClash.Weighted>
0.0036

> <Gold.Chemscore.DEInternal.Weighted>
0.7899

> <Gold.Chemscore.Rot.Weighted>
5.0893

> <Gold.Chemscore.Internal.Correction.Weighted>
   9.000000E+99

> <Gold.Protein.RotatedTorsions>
[ 6907 6896 6895 6894 ] final  -46.68 input  -60.11 | X-H torsion
[ 7974 7965 7964 7962 ] final  113.11 input  175.53 | X-H torsion
[ 8008 7997 7996 7995 ] final -105.90 input   59.86 | X-H torsion
[ 10167 10162 10161 10158 ] final   91.75 input  -65.29 | X-H torsion
[ 10718 10713 10712 10709 ] final   51.46 input   66.30 | X-H torsion
[ 10763 10752 10751 10750 ] final -130.38 input  -60.55 | X-H torsion
[ 11005 11000 10999 10996 ] final  -48.73 input  -57.11 | X-H torsion

> <Gold.Protein.ActiveResidues>
 VAL166  LYS551  ARG553  GLY616  TRP617  ASP618  TYR619  PRO620  LYS621  CYS622 
 ASP623  PHE694  ASN695  SER759  ASP760  ASP761  ALA762  ILE779  LEU786  VAL792 
 PHE793  MET794  SER795  GLU796  ALA797  LYS798  CYS799  TRP800  GLU811  SER814 

> <Gold.Protein.RotatedAtoms>
  150.9087  134.8503  159.7409 H   0  0  0  0  0  0  0  0  0  0  0  0  # atno 6907 bound_to 6896
  152.4932  134.4392  159.9548 H   0  0  0  0  0  0  0  0  0  0  0  0  # atno 6908 bound_to 6896
  151.4437  133.3597  159.2820 H   0  0  0  0  0  0  0  0  0  0  0  0  # atno 6909 bound_to 6896
  145.2210  139.2862  143.4218 H   0  0  0  0  0  0  0  0  0  0  0  0  # atno 7974 bound_to 7965
  154.9066  140.0411  157.1923 H   0  0  0  0  0  0  0  0  0  0  0  0  # atno 8008 bound_to 7997
  154.8390  140.2911  155.5650 H   0  0  0  0  0  0  0  0  0  0  0  0  # atno 8009 bound_to 7997
  156.2991  140.2486  156.3329 H   0  0  0  0  0  0  0  0  0  0  0  0  # atno 8010 bound_to 7997
  139.8344  144.6672  150.9360 H   0  0  0  0  0  0  0  0  0  0  0  0  # atno 10167 bound_to 10162
  157.4983  130.8421  149.8285 H   0  0  0  0  0  0  0  0  0  0  0  0  # atno 10718 bound_to 10713
  154.8755  135.3864  154.4074 H   0  0  0  0  0  0  0  0  0  0  0  0  # atno 10763 bound_to 10752
  153.4792  135.7030  153.5953 H   0  0  0  0  0  0  0  0  0  0  0  0  # atno 10764 bound_to 10752
  153.4376  135.3863  155.2176 H   0  0  0  0  0  0  0  0  0  0  0  0  # atno 10765 bound_to 10752
  141.0718  133.6677  156.3482 H   0  0  0  0  0  0  0  0  0  0  0  0  # atno 11005 bound_to 11000
  146.3376  140.2516  142.8599 LP  0  0  0  0  0  0  0  0  0  0  0  0  # atno 17320 bound_to 7965
  144.9765  140.8419  143.5423 LP  0  0  0  0  0  0  0  0  0  0  0  0  # atno 17321 bound_to 7965
  140.7804  143.3971  151.1211 LP  0  0  0  0  0  0  0  0  0  0  0  0  # atno 17342 bound_to 10162
  139.7622  143.8618  152.3103 LP  0  0  0  0  0  0  0  0  0  0  0  0  # atno 17343 bound_to 10162
  156.0214  130.3794  150.1952 LP  0  0  0  0  0  0  0  0  0  0  0  0  # atno 17370 bound_to 10713
  157.0141  130.9960  151.3358 LP  0  0  0  0  0  0  0  0  0  0  0  0  # atno 17371 bound_to 10713
  140.5658  134.5889  157.5445 LP  0  0  0  0  0  0  0  0  0  0  0  0  # atno 17394 bound_to 11000
  139.9531  134.7583  156.0404 LP  0  0  0  0  0  0  0  0  0  0  0  0  # atno 17395 bound_to 11000

$$$$
