#       Name:                AV-unprocessed.smi:305
#       Creating user name   scv26
#       Creation time:       Thu Mar 26 22:17:54 2020


#       File generated by GOLD software.
#

@<TRIPOS>MOLECULE
AV-unprocessed.smi:305
    55    57     1
SMALL
NO_CHARGES


@<TRIPOS>ATOM
      1 ****        -5.3485   1.9539  -1.2458 C.3            1 S1                 0.0000
      2 ****        -3.8342   2.1696  -1.2879 C.3            1 S1                 0.0000
      3 ****        -3.1862   0.9169  -1.1465 O.3            1 S1                 0.0000
      4 ****        -1.7736   1.0282  -1.1697 C.3            1 S1                 0.0000
      5 ****        -1.1637  -0.3693  -1.0016 C.3            1 S1                 0.0000
      6 ****         0.2939  -0.3249  -0.9871 N.pl3          1 S1                 0.0000
      7 ****         1.1227  -0.3213   0.0887 C.2            1 S1                 0.0000
      8 ****         0.6189  -0.3555   1.4067 N.pl3          1 S1                 0.0000
      9 ****        -0.1050   0.6792   1.8817 N.2            1 S1                 0.0000
     10 ****        -0.4133   0.3394   3.1217 C.2            1 S1                 0.0000
     11 ****        -1.2410   1.2737   3.9568 C.3            1 S1                 0.0000
     12 ****         0.1226  -0.9302   3.4853 C.2            1 S1                 0.0000
     13 ****        -0.0137  -1.6413   4.8034 C.3            1 S1                 0.0000
     14 ****         0.7806  -1.3447   2.3590 C.2            1 S1                 0.0000
     15 ****         1.5493  -2.5989   2.0910 C.3            1 S1                 0.0000
     16 ****         2.4261  -0.2978  -0.2049 N.2            1 S1                 0.0000
     17 ****         2.4271  -0.2696  -1.5926 C.2            1 S1                 0.0000
     18 ****         1.1594  -0.2838  -2.0790 C.2            1 S1                 0.0000
     19 ****         0.8634  -0.2586  -3.5163 C.2            1 S1                 0.0000
     20 ****        -0.2777  -0.2688  -3.9727 O.2            1 S1                 0.0000
     21 ****         1.9778  -0.2190  -4.2865 N.am           1 S1                 0.0000
     22 ****         3.2796  -0.2013  -3.8650 C.2            1 S1                 0.0000
     23 ****         4.1925  -0.1604  -4.6898 O.2            1 S1                 0.0000
     24 ****         3.5130  -0.2300  -2.5134 N.am           1 S1                 0.0000
     25 ****         4.8866  -0.2135  -2.0076 C.3            1 S1                 0.0000
     26 ****         1.8311  -0.1985  -5.2851 H              1 S1                 0.0000
     27 ****        -5.8796   2.8999  -1.3540 H              1 S1                 0.0000
     28 ****        -5.6536   1.5049  -0.3003 H              1 S1                 0.0000
     29 ****        -5.6723   1.2944  -2.0512 H              1 S1                 0.0000
     30 ****        -3.5509   2.6349  -2.2332 H              1 S1                 0.0000
     31 ****        -3.5326   2.8426  -0.4840 H              1 S1                 0.0000
     32 ****        -1.4501   1.4723  -2.1120 H              1 S1                 0.0000
     33 ****        -1.4393   1.6863  -0.3667 H              1 S1                 0.0000
     34 ****        -1.5209  -0.8273  -0.0789 H              1 S1                 0.0000
     35 ****        -1.4904  -1.0297  -1.8045 H              1 S1                 0.0000
     36 ****        -2.0863   0.7505   4.4040 H              1 S1                 0.0000
     37 ****        -1.6401   2.0994   3.3663 H              1 S1                 0.0000
     38 ****        -0.6486   1.7003   4.7663 H              1 S1                 0.0000
     39 ****         0.9244  -2.1024   5.1131 H              1 S1                 0.0000
     40 ****        -0.7612  -2.4333   4.7552 H              1 S1                 0.0000
     41 ****        -0.3133  -0.9646   5.6037 H              1 S1                 0.0000
     42 ****         1.3791  -3.3396   2.8721 H              1 S1                 0.0000
     43 ****         2.6191  -2.3939   2.0494 H              1 S1                 0.0000
     44 ****         1.2523  -3.0440   1.1413 H              1 S1                 0.0000
     45 ****         5.4632  -1.0355  -2.4337 H              1 S1                 0.0000
     46 ****         4.9358  -0.3138  -0.9234 H              1 S1                 0.0000
     47 ****         5.3787   0.7229  -2.2740 H              1 S1                 0.0000
     48 ****        -3.4729   0.3216  -1.8970 LP             1 S1                 0.0000
     49 ****        -3.4612   0.5107  -0.2751 LP             1 S1                 0.0000
     50 ****        -0.3541   1.5199   1.4008 LP             1 S1                 0.0000
     51 ****         3.2068  -0.2999   0.4200 LP             1 S1                 0.0000
     52 ****        -1.0633  -0.2955  -3.3544 LP             1 S1                 0.0000
     53 ****        -0.4206  -0.2503  -4.9622 LP             1 S1                 0.0000
     54 ****         3.9826  -0.1401  -5.6673 LP             1 S1                 0.0000
     55 ****         5.1439  -0.1474  -4.3823 LP             1 S1                 0.0000
@<TRIPOS>BOND
    1    1    2 1     
    2    1   27 1     
    3    1   28 1     
    4    1   29 1     
    5    2    3 1     
    6    2   30 1     
    7    2   31 1     
    8    3    4 1     
    9    4    5 1     
   10    4   32 1     
   11    4   33 1     
   12    5    6 1     
   13    5   34 1     
   14    5   35 1     
   15    6   18 1     
   16    6    7 1     
   17    7    8 1     
   18    7   16 2     
   19    8   14 1     
   20    8    9 1     
   21    9   10 2     
   22   10   11 1     
   23   10   12 1     
   24   11   36 1     
   25   11   37 1     
   26   11   38 1     
   27   12   13 1     
   28   12   14 2     
   29   13   39 1     
   30   13   40 1     
   31   13   41 1     
   32   14   15 1     
   33   15   42 1     
   34   15   43 1     
   35   15   44 1     
   36   16   17 1     
   37   17   24 1     
   38   17   18 2     
   39   18   19 1     
   40   19   20 2     
   41   19   21 1     
   42   21   26 1     
   43   21   22 1     
   44   22   23 2     
   45   22   24 1     
   46   24   25 1     
   47   25   45 1     
   48   25   46 1     
   49   25   47 1     
   50    3   48 1     
   51    3   49 1     
   52    9   50 1     
   53   16   51 1     
   54   20   52 1     
   55   20   53 1     
   56   23   54 1     
   57   23   55 1     
@<TRIPOS>SUBSTRUCTURE
      1 S1             1
@<TRIPOS>SET
LONE_PAIRS      STATIC     ATOMS    <user>   **** ""
8 48 49 50 51 52 53 54 55
DONOR_HYDROGENS      STATIC     ATOMS    <user>   **** ""
1 26
ATOM$BLUE        STATIC     ATOMS    COLORGROUP SYSTEM
8 48 49 50 51 52 53 54 55
ATOM$RED        STATIC     ATOMS    COLORGROUP SYSTEM
1 26
