AV-unprocessed.smi:2186|AV-procd|sdf|8876|dock4
  -GOLD-   2272012 73D 1   1.00000     0.00000
 Structure written by MMmdl.
 43 44  0  0  0  0  0  0  0  0  1 V2000
  147.7211  136.9566  163.3500 C   0  0  0  0  0  0  0  0  0  0  0  0
  146.6509  136.6433  162.2941 C   0  0  0  0  0  0  0  0  0  0  0  0
  145.7070  135.5063  162.7115 C   0  0  0  0  0  0  0  0  0  0  0  0
  147.2483  136.4124  160.9419 C   0  0  0  0  0  0  0  0  0  0  0  0
  147.9700  137.3254  160.2850 N   0  0  0  0  0  0  0  0  0  0  0  0
  148.4045  136.8754  159.0338 C   0  0  0  0  0  0  0  0  0  0  0  0
  149.2166  137.7790  158.1522 C   0  0  0  0  0  0  0  0  0  0  0  0
  150.5446  138.1171  158.8313 C   0  0  0  0  0  0  0  0  0  0  0  0
  151.1656  137.2456  159.4394 O   0  0  0  0  0  0  0  0  0  0  0  0
  150.9708  139.3845  158.7141 N   0  0  0  0  0  0  0  0  0  0  0  0
  152.2271  139.8979  159.2436 C   0  0  0  0  0  0  0  0  0  0  0  0
  152.5333  141.2966  158.6768 C   0  0  0  0  0  0  0  0  0  0  0  0
  151.9937  142.4092  159.4559 N   0  0  0  0  0  0  0  0  0  0  0  0
  151.9290  143.6257  158.6530 C   0  0  0  0  0  0  0  0  0  0  0  0
  151.3605  144.8115  159.4511 C   0  0  0  0  0  0  0  0  0  0  0  0
  152.1524  145.0230  160.6151 O   0  0  0  0  0  0  0  0  0  0  0  0
  152.2110  143.8740  161.4540 C   0  0  0  0  0  0  0  0  0  0  0  0
  152.7731  142.6798  160.6625 C   0  0  0  0  0  0  0  0  0  0  0  0
  148.0084  135.5907  158.7553 C   0  0  0  0  0  0  0  0  0  0  0  0
  147.0655  134.9058  160.0499 S   0  0  0  0  0  0  0  0  0  0  0  0
  148.3181  137.8210  163.0578 H   0  0  0  0  0  0  0  0  0  0  0  0
  148.3999  136.1146  163.4894 H   0  0  0  0  0  0  0  0  0  0  0  0
  147.2667  137.1794  164.3156 H   0  0  0  0  0  0  0  0  0  0  0  0
  146.0336  137.5382  162.2078 H   0  0  0  0  0  0  0  0  0  0  0  0
  144.9105  135.3694  161.9794 H   0  0  0  0  0  0  0  0  0  0  0  0
  145.2389  135.7171  163.6731 H   0  0  0  0  0  0  0  0  0  0  0  0
  146.2415  134.5602  162.8033 H   0  0  0  0  0  0  0  0  0  0  0  0
  149.4113  137.3112  157.1861 H   0  0  0  0  0  0  0  0  0  0  0  0
  148.6731  138.7013  157.9436 H   0  0  0  0  0  0  0  0  0  0  0  0
  150.3971  140.0307  158.1913 H   0  0  0  0  0  0  0  0  0  0  0  0
  152.1415  139.9482  160.3293 H   0  0  0  0  0  0  0  0  0  0  0  0
  153.0292  139.1921  159.0250 H   0  0  0  0  0  0  0  0  0  0  0  0
  153.6111  141.4200  158.5596 H   0  0  0  0  0  0  0  0  0  0  0  0
  152.1167  141.3409  157.6692 H   0  0  0  0  0  0  0  0  0  0  0  0
  152.9252  143.8821  158.2890 H   0  0  0  0  0  0  0  0  0  0  0  0
  151.3095  143.4560  157.7719 H   0  0  0  0  0  0  0  0  0  0  0  0
  151.3680  145.7168  158.8437 H   0  0  0  0  0  0  0  0  0  0  0  0
  150.3241  144.6245  159.7362 H   0  0  0  0  0  0  0  0  0  0  0  0
  152.8455  144.0920  162.3132 H   0  0  0  0  0  0  0  0  0  0  0  0
  151.2162  143.6466  161.8400 H   0  0  0  0  0  0  0  0  0  0  0  0
  152.7820  141.8062  161.3134 H   0  0  0  0  0  0  0  0  0  0  0  0
  153.8115  142.8818  160.3948 H   0  0  0  0  0  0  0  0  0  0  0  0
  148.2092  135.0104  157.8668 H   0  0  0  0  0  0  0  0  0  0  0  0
  1  2  1  0  0  0  0
  1 21  1  0  0  0  0
  1 22  1  0  0  0  0
  1 23  1  0  0  0  0
  2  3  1  0  0  0  0
  2  4  1  0  0  0  0
  2 24  1  0  0  0  0
  3 25  1  0  0  0  0
  3 26  1  0  0  0  0
  3 27  1  0  0  0  0
  4 20  1  0  0  0  0
  4  5  2  0  0  0  0
  5  6  1  0  0  0  0
  6  7  1  0  0  0  0
  6 19  2  0  0  0  0
  7  8  1  0  0  0  0
  7 28  1  0  0  0  0
  7 29  1  0  0  0  0
  8  9  2  0  0  0  0
  8 10  1  0  0  0  0
 10 11  1  0  0  0  0
 10 30  1  0  0  0  0
 11 12  1  0  0  0  0
 11 31  1  0  0  0  0
 11 32  1  0  0  0  0
 12 13  1  0  0  0  0
 12 33  1  0  0  0  0
 12 34  1  0  0  0  0
 13 18  1  0  0  0  0
 13 14  1  0  0  0  0
 14 15  1  0  0  0  0
 14 35  1  0  0  0  0
 14 36  1  0  0  0  0
 15 16  1  0  0  0  0
 15 37  1  0  0  0  0
 15 38  1  0  0  0  0
 16 17  1  0  0  0  0
 17 18  1  0  0  0  0
 17 39  1  0  0  0  0
 17 40  1  0  0  0  0
 18 41  1  0  0  0  0
 18 42  1  0  0  0  0
 19 20  1  0  0  0  0
 19 43  1  0  0  0  0
M  END
> <s_m_source_file>
AV-unprocessed.smi

> <i_m_source_file_index>
2186

> <i_lp_mmshare_version>
43012

> <i_f3d_flags>
0

> <s_epik_input>
W0NIM11bQ0hdKFtDSDNdKWMxbmMoW2NIXXMxKVtDSDJdQyg9TylbTkhdW0NIMl1bQ0gyXU4yW0NIMl1bQ0gyXU9bQ0gyXVtDSDJdMg==

> <s_epik_cmdline>
J2VwaWtfcHl0aG9uJywgJy1waCcsICc3LjAnLCAnLXRuJywgJzgnLCAnLW1hJywgJzIwMCcsICctbWV0YWxfYmluZGluZycsICctaW1hZScsICc8aW5maWxlLm1hZT4nLCAnLW9tYWUnLCAnPG91dGZpbGUubWFlPic=

> <r_epik_Ionization_Penalty>
0.226788

> <r_epik_Ionization_Penalty_Charging>
0

> <r_epik_Ionization_Penalty_Neutral>
0.226788

> <r_epik_State_Penalty>
0.21727

> <r_epik_Charging_Adjusted_Penalty>
0.21727

> <i_epik_Tot_Q>
0

> <i_epik_Tot_abs_Q>
0

> <r_epik_Metal_State_Penalty>
0.217263

> <b_epik_Metal_Only>
0

> <s_lp_Force_Field>
OPLS_2005

> <r_lp_Energy>
12.6153

> <b_lp_Chiralities_Consistent>
1

> <s_lp_Variant>
AV-unprocessed.smi:2186-1

> <Gold.Version>
5.8.1

> <Gold.Id.Protein>
6NUR|6NUR_protein|mol2

> <Gold.PLP.Fitness>
46.1098

> <Gold.PLP.PLP>
-41.5881

> <Gold.PLP.part.hbond>
-2.9241

> <Gold.PLP.part.metal>
0.0000

> <Gold.PLP.part.buried>
-5.9100

> <Gold.PLP.part.nonpolar>
-34.0668

> <Gold.PLP.part.repulsive>
0.3328

> <Gold.PLP.ligand.clash>
0.0000

> <Gold.PLP.ligand.torsion>
0.7447

> <Gold.PLP.Chemscore.Hbond>
1.9681

> <Gold.PLP.Chemscore.CHOScore>
0.0000

> <Gold.PLP.Chemscore.Metal>
0.0000

> <Gold.Chemscore.Hbonds>
donor molecule, donor type, donor heavy atom, donor atom, acceptor molecule, acceptor atom, score
      P1  H  6896  6909       L1     9  0.68
      P1  H  6931  6943       L1     5  0.47
      P1  H  6934  6947       L1     5  0.74

> <Gold.PLP.Chemscore.Internal.Correction>
0.1071

> <Gold.Rescore>
     Score         DG    S(hbond)    S(metal)    S(lipo)     H(rot)  DE(clash)    DE(int)     intcor
     19.13     -20.41       1.85        0.00     112.66       1.73       0.36       0.92       ----

> <Gold.Chemscore.Fitness>
19.1299

> <Gold.Chemscore.DG>
-20.4106

> <Gold.Chemscore.ZeroCoef>
-5.4800

> <Gold.Chemscore.Hbond>
1.8465

> <Gold.Chemscore.Metal>
0.0000

> <Gold.Chemscore.Lipo>
112.6634

> <Gold.Chemscore.Internal_Hbond>
0.0000

> <Gold.Chemscore.DEClash>
0.3618

> <Gold.Chemscore.DEInternal>
0.9188

> <Gold.Chemscore.Rot>
1.7259

> <Gold.Chemscore.Internal.Correction>
   9.000000E+99

> <Gold.Chemscore.Hbonds>
donor molecule, donor type, donor heavy atom, donor atom, acceptor molecule, acceptor atom, score
      P1  H  6896  6909       L1     9  0.69
      P1  H  6931  6943       L1     5  0.16
      P1  H  6934  6947       L1     5  0.29

> <Gold.Chemscore.Hbond.Weighted>
-6.1672

> <Gold.Chemscore.Metal.Weighted>
-0.0000

> <Gold.Chemscore.Lipo.Weighted>
-13.1816

> <Gold.Chemscore.Internal_Hbond.Weighted>
0.0000

> <Gold.Chemscore.DEClash.Weighted>
0.3618

> <Gold.Chemscore.DEInternal.Weighted>
0.9188

> <Gold.Chemscore.Rot.Weighted>
4.4182

> <Gold.Chemscore.Internal.Correction.Weighted>
   9.000000E+99

> <Gold.Protein.RotatedTorsions>
[ 6907 6896 6895 6894 ] final  111.91 input  -60.11 | X-H torsion
[ 7974 7965 7964 7962 ] final  -83.79 input  175.53 | X-H torsion
[ 8008 7997 7996 7995 ] final  157.54 input   59.86 | X-H torsion
[ 10167 10162 10161 10158 ] final  -32.79 input  -65.29 | X-H torsion
[ 10718 10713 10712 10709 ] final  112.48 input   66.30 | X-H torsion
[ 10763 10752 10751 10750 ] final  -42.24 input  -60.55 | X-H torsion
[ 11005 11000 10999 10996 ] final  176.91 input  -57.11 | X-H torsion

> <Gold.Protein.ActiveResidues>
 VAL166  LYS551  ARG553  GLY616  TRP617  ASP618  TYR619  PRO620  LYS621  CYS622 
 ASP623  PHE694  ASN695  SER759  ASP760  ASP761  ALA762  ILE779  LEU786  VAL792 
 PHE793  MET794  SER795  GLU796  ALA797  LYS798  CYS799  TRP800  GLU811  SER814 

> <Gold.Protein.RotatedAtoms>
  152.4944  133.8590  159.7240 H   0  0  0  0  0  0  0  0  0  0  0  0  # atno 6907 bound_to 6896
  150.9107  133.6993  159.2862 H   0  0  0  0  0  0  0  0  0  0  0  0  # atno 6908 bound_to 6896
  151.4403  135.1023  159.9720 H   0  0  0  0  0  0  0  0  0  0  0  0  # atno 6909 bound_to 6896
  145.5153  140.9536  143.1685 H   0  0  0  0  0  0  0  0  0  0  0  0  # atno 7974 bound_to 7965
  156.2358  140.1882  156.7124 H   0  0  0  0  0  0  0  0  0  0  0  0  # atno 8008 bound_to 7997
  154.6103  140.0623  156.9512 H   0  0  0  0  0  0  0  0  0  0  0  0  # atno 8009 bound_to 7997
  155.2027  140.3293  155.4343 H   0  0  0  0  0  0  0  0  0  0  0  0  # atno 8010 bound_to 7997
  140.7215  143.3668  151.1855 H   0  0  0  0  0  0  0  0  0  0  0  0  # atno 10167 bound_to 10162
  157.6390  131.0968  150.6901 H   0  0  0  0  0  0  0  0  0  0  0  0  # atno 10718 bound_to 10713
  153.9757  135.6723  153.4748 H   0  0  0  0  0  0  0  0  0  0  0  0  # atno 10763 bound_to 10752
  153.0772  135.4942  154.8425 H   0  0  0  0  0  0  0  0  0  0  0  0  # atno 10764 bound_to 10752
  154.7193  135.3114  154.9034 H   0  0  0  0  0  0  0  0  0  0  0  0  # atno 10765 bound_to 10752
  140.3783  134.6969  157.4435 H   0  0  0  0  0  0  0  0  0  0  0  0  # atno 11005 bound_to 11000
  144.7705  139.6745  143.7196 LP  0  0  0  0  0  0  0  0  0  0  0  0  # atno 17320 bound_to 7965
  146.2141  139.5518  142.9662 LP  0  0  0  0  0  0  0  0  0  0  0  0  # atno 17321 bound_to 7965
  139.7231  143.9191  152.2993 LP  0  0  0  0  0  0  0  0  0  0  0  0  # atno 17342 bound_to 10162
  139.8954  144.6942  150.8723 LP  0  0  0  0  0  0  0  0  0  0  0  0  # atno 17343 bound_to 10162
  156.7228  130.4685  149.5519 LP  0  0  0  0  0  0  0  0  0  0  0  0  # atno 17370 bound_to 10713
  156.1654  130.6402  151.0772 LP  0  0  0  0  0  0  0  0  0  0  0  0  # atno 17371 bound_to 10713
  140.0498  134.6146  155.8875 LP  0  0  0  0  0  0  0  0  0  0  0  0  # atno 17394 bound_to 11000
  141.1932  133.6578  156.5537 LP  0  0  0  0  0  0  0  0  0  0  0  0  # atno 17395 bound_to 11000

$$$$
