AV-unprocessed.smi:3162|AV-procd|sdf|12067|dock3
  -GOLD-   2272017493D 1   1.00000     0.00000
 Structure written by MMmdl.
 36 36  0  0  0  0  0  0  0  0  1 V2000
  148.3144  142.0212  153.3398 C   0  0  0  0  0  0  0  0  0  0  0  0
  149.6989  141.5734  153.8344 C   0  0  0  0  0  0  0  0  0  0  0  0
  149.6726  140.3767  154.8113 C   0  0  2  0  0  0  0  0  0  0  0  0
  151.0523  140.0620  155.2294 N   0  0  0  0  0  0  0  0  0  0  0  0
  151.5187  140.7105  156.4535 C   0  0  2  0  0  0  0  0  0  0  0  0
  151.1078  139.8126  157.6328 C   0  0  0  0  0  0  0  0  0  0  0  0
  150.9200  142.1326  156.5532 C   0  0  0  0  0  0  0  0  0  0  0  0
  151.4226  142.8775  157.6933 N   0  0  0  0  0  0  0  0  0  0  0  0
  151.5010  144.2441  157.8576 C   0  0  0  0  0  0  0  0  0  0  0  0
  152.0471  144.4798  159.0875 C   0  0  0  0  0  0  0  0  0  0  0  0
  152.3401  145.7972  159.7460 C   0  0  0  0  0  0  0  0  0  0  0  0
  152.2766  143.1724  159.6030 C   0  0  0  0  0  0  0  0  0  0  0  0
  151.9065  142.2166  158.7663 N   0  0  0  0  0  0  0  0  0  0  0  0
  148.9350  139.1643  154.2137 C   0  0  0  0  0  0  0  0  0  0  0  0
  149.3155  138.7537  153.0012 N   0  0  0  0  0  0  0  0  0  0  0  0
  148.0204  138.6205  154.8301 O   0  0  0  0  0  0  0  0  0  0  0  0
  148.3990  142.9074  152.7105 H   0  0  0  0  0  0  0  0  0  0  0  0
  147.6594  142.2700  154.1751 H   0  0  0  0  0  0  0  0  0  0  0  0
  147.8264  141.2467  152.7480 H   0  0  0  0  0  0  0  0  0  0  0  0
  150.3334  141.3460  152.9763 H   0  0  0  0  0  0  0  0  0  0  0  0
  150.1687  142.4233  154.3317 H   0  0  0  0  0  0  0  0  0  0  0  0
  149.1282  140.6993  155.7011 H   0  0  0  0  0  0  0  0  0  0  0  0
  151.2219  139.0670  155.2688 H   0  0  0  0  0  0  0  0  0  0  0  0
  152.6084  140.7677  156.4572 H   0  0  0  0  0  0  0  0  0  0  0  0
  151.4879  140.1985  158.5788 H   0  0  0  0  0  0  0  0  0  0  0  0
  151.5049  138.8037  157.5154 H   0  0  0  0  0  0  0  0  0  0  0  0
  150.0231  139.7363  157.7172 H   0  0  0  0  0  0  0  0  0  0  0  0
  151.1322  142.7139  155.6560 H   0  0  0  0  0  0  0  0  0  0  0  0
  149.8333  142.0782  156.6335 H   0  0  0  0  0  0  0  0  0  0  0  0
  151.1619  144.9291  157.0942 H   0  0  0  0  0  0  0  0  0  0  0  0
  152.8414  145.6688  160.7057 H   0  0  0  0  0  0  0  0  0  0  0  0
  151.4280  146.3639  159.9336 H   0  0  0  0  0  0  0  0  0  0  0  0
  152.9859  146.4208  159.1275 H   0  0  0  0  0  0  0  0  0  0  0  0
  152.7010  142.8915  160.5557 H   0  0  0  0  0  0  0  0  0  0  0  0
  148.8639  137.9589  152.5725 H   0  0  0  0  0  0  0  0  0  0  0  0
  150.0594  139.2376  152.5195 H   0  0  0  0  0  0  0  0  0  0  0  0
  1  2  1  0  0  0  0
  1 17  1  0  0  0  0
  1 18  1  0  0  0  0
  1 19  1  0  0  0  0
  2  3  1  0  0  0  0
  2 20  1  0  0  0  0
  2 21  1  0  0  0  0
  3  4  1  0  0  0  0
  3 14  1  0  0  0  0
  3 22  1  0  0  0  0
  4  5  1  0  0  0  0
  4 23  1  0  0  0  0
  5  6  1  0  0  0  0
  5  7  1  0  0  0  0
  5 24  1  0  0  0  0
  6 25  1  0  0  0  0
  6 26  1  0  0  0  0
  6 27  1  0  0  0  0
  7  8  1  0  0  0  0
  7 28  1  0  0  0  0
  7 29  1  0  0  0  0
  8 13  1  0  0  0  0
  8  9  1  0  0  0  0
  9 10  2  0  0  0  0
  9 30  1  0  0  0  0
 10 11  1  0  0  0  0
 10 12  1  0  0  0  0
 11 31  1  0  0  0  0
 11 32  1  0  0  0  0
 11 33  1  0  0  0  0
 12 13  2  0  0  0  0
 12 34  1  0  0  0  0
 14 15  1  0  0  0  0
 14 16  2  0  0  0  0
 15 35  1  0  0  0  0
 15 36  1  0  0  0  0
M  END
> <s_m_source_file>
AV-unprocessed.smi

> <i_m_source_file_index>
3162

> <i_lp_mmshare_version>
43012

> <i_f3d_flags>
0

> <s_epik_input>
W0NIM11bQ0gyXVtDQEBIXShDKD1PKVtOSDJdKVtOSF1bQ0BIXShbQ0gzXSlbQ0gyXW4xW2NIXWMoW0NIM10pW2NIXW4x

> <s_epik_cmdline>
J2VwaWtfcHl0aG9uJywgJy1waCcsICc3LjAnLCAnLXRuJywgJzgnLCAnLW1hJywgJzIwMCcsICctbWV0YWxfYmluZGluZycsICctaW1hZScsICc8aW5maWxlLm1hZT4nLCAnLW9tYWUnLCAnPG91dGZpbGUubWFlPic=

> <r_lp_tautomer_probability>
1

> <r_epik_Ionization_Penalty>
1.04167

> <r_epik_Ionization_Penalty_Charging>
0

> <r_epik_Ionization_Penalty_Neutral>
1.04167

> <r_epik_State_Penalty>
1.09367

> <r_epik_Charging_Adjusted_Penalty>
1.09367

> <i_epik_Tot_Q>
0

> <i_epik_Tot_abs_Q>
0

> <r_epik_Metal_State_Penalty>
1.09362

> <b_epik_Metal_Only>
0

> <s_lp_Force_Field>
OPLS_2005

> <r_lp_Energy>
3.0379

> <b_lp_Chiralities_Consistent>
1

> <s_lp_Variant>
AV-unprocessed.smi:3162-5

> <Gold.Version>
5.8.1

> <Gold.Id.Protein>
6NUR|6NUR_protein|mol2

> <Gold.PLP.Fitness>
46.7921

> <Gold.PLP.PLP>
-37.8039

> <Gold.PLP.part.hbond>
-3.0000

> <Gold.PLP.part.metal>
0.0000

> <Gold.PLP.part.buried>
-4.4821

> <Gold.PLP.part.nonpolar>
-31.3338

> <Gold.PLP.part.repulsive>
0.1663

> <Gold.PLP.ligand.clash>
0.0000

> <Gold.PLP.ligand.torsion>
1.3082

> <Gold.PLP.Chemscore.Hbond>
2.7680

> <Gold.PLP.Chemscore.CHOScore>
1.0306

> <Gold.PLP.Chemscore.Metal>
0.0000

> <Gold.Chemscore.Hbonds>
donor molecule, donor type, donor heavy atom, donor atom, acceptor molecule, acceptor atom, score
      L1  H    15    35       P1  7948  0.98
      L1  H    15    36       P1  7957  0.32
      P1  H  7989  7998       L1     4  0.35
      L1  C     9    30       P1  8028  0.66

> <Gold.PLP.Chemscore.Internal.Correction>
0.2087

> <Gold.Rescore>
     Score         DG    S(hbond)    S(metal)    S(lipo)     H(rot)  DE(clash)    DE(int)     intcor
     13.38     -16.14       1.94        0.00      88.95       2.43       0.06       2.70       ----

> <Gold.Chemscore.Fitness>
13.3802

> <Gold.Chemscore.DG>
-16.1353

> <Gold.Chemscore.ZeroCoef>
-5.4800

> <Gold.Chemscore.Hbond>
1.9390

> <Gold.Chemscore.Metal>
0.0000

> <Gold.Chemscore.Lipo>
88.9499

> <Gold.Chemscore.Internal_Hbond>
0.0000

> <Gold.Chemscore.DEClash>
0.0578

> <Gold.Chemscore.DEInternal>
2.6973

> <Gold.Chemscore.Rot>
2.4328

> <Gold.Chemscore.Internal.Correction>
   9.000000E+99

> <Gold.Chemscore.Hbonds>
donor molecule, donor type, donor heavy atom, donor atom, acceptor molecule, acceptor atom, score
      L1  H    15    35       P1  7948  0.93
      L1  H    15    36       P1  7957  0.24
      P1  H  7989  7998       L1     4  0.01

> <Gold.Chemscore.Hbond.Weighted>
-6.4761

> <Gold.Chemscore.Metal.Weighted>
-0.0000

> <Gold.Chemscore.Lipo.Weighted>
-10.4071

> <Gold.Chemscore.Internal_Hbond.Weighted>
0.0000

> <Gold.Chemscore.DEClash.Weighted>
0.0578

> <Gold.Chemscore.DEInternal.Weighted>
2.6973

> <Gold.Chemscore.Rot.Weighted>
6.2279

> <Gold.Chemscore.Internal.Correction.Weighted>
   9.000000E+99

> <Gold.Protein.RotatedTorsions>
[ 6907 6896 6895 6894 ] final   -7.19 input  -60.11 | X-H torsion
[ 7974 7965 7964 7962 ] final -125.67 input  175.53 | X-H torsion
[ 8008 7997 7996 7995 ] final   71.69 input   59.86 | X-H torsion
[ 10167 10162 10161 10158 ] final   -1.29 input  -65.29 | X-H torsion
[ 10718 10713 10712 10709 ] final  158.76 input   66.30 | X-H torsion
[ 10763 10752 10751 10750 ] final  -51.77 input  -60.55 | X-H torsion
[ 11005 11000 10999 10996 ] final -171.02 input  -57.11 | X-H torsion

> <Gold.Protein.ActiveResidues>
 VAL166  LYS551  ARG553  GLY616  TRP617  ASP618  TYR619  PRO620  LYS621  CYS622 
 ASP623  PHE694  ASN695  SER759  ASP760  ASP761  ALA762  ILE779  LEU786  VAL792 
 PHE793  MET794  SER795  GLU796  ALA797  LYS798  CYS799  TRP800  GLU811  SER814 

> <Gold.Protein.RotatedAtoms>
  151.4536  135.1032  159.9704 H   0  0  0  0  0  0  0  0  0  0  0  0  # atno 6907 bound_to 6896
  152.4879  133.8418  159.7167 H   0  0  0  0  0  0  0  0  0  0  0  0  # atno 6908 bound_to 6896
  150.9005  133.7065  159.2907 H   0  0  0  0  0  0  0  0  0  0  0  0  # atno 6909 bound_to 6896
  144.9952  140.7769  143.4530 H   0  0  0  0  0  0  0  0  0  0  0  0  # atno 7974 bound_to 7965
  155.7577  140.3487  155.5182 H   0  0  0  0  0  0  0  0  0  0  0  0  # atno 8008 bound_to 7997
  155.8944  140.1023  157.1416 H   0  0  0  0  0  0  0  0  0  0  0  0  # atno 8009 bound_to 7997
  154.4037  140.1298  156.4344 H   0  0  0  0  0  0  0  0  0  0  0  0  # atno 8010 bound_to 7997
  140.6804  143.6793  150.8119 H   0  0  0  0  0  0  0  0  0  0  0  0  # atno 10167 bound_to 10162
  157.1734  131.0615  151.2170 H   0  0  0  0  0  0  0  0  0  0  0  0  # atno 10718 bound_to 10713
  154.1319  135.6518  153.4924 H   0  0  0  0  0  0  0  0  0  0  0  0  # atno 10763 bound_to 10752
  153.0192  135.5295  154.6992 H   0  0  0  0  0  0  0  0  0  0  0  0  # atno 10764 bound_to 10752
  154.6229  135.2967  155.0276 H   0  0  0  0  0  0  0  0  0  0  0  0  # atno 10765 bound_to 10752
  140.5129  134.5784  157.5024 H   0  0  0  0  0  0  0  0  0  0  0  0  # atno 11005 bound_to 11000
  145.2230  139.2150  143.5083 LP  0  0  0  0  0  0  0  0  0  0  0  0  # atno 17320 bound_to 7965
  146.3440  140.2092  142.8590 LP  0  0  0  0  0  0  0  0  0  0  0  0  # atno 17321 bound_to 7965
  140.0492  143.5267  152.2681 LP  0  0  0  0  0  0  0  0  0  0  0  0  # atno 17342 bound_to 10162
  139.6122  144.7611  151.2925 LP  0  0  0  0  0  0  0  0  0  0  0  0  # atno 17343 bound_to 10162
  157.4021  130.7339  149.6775 LP  0  0  0  0  0  0  0  0  0  0  0  0  # atno 17370 bound_to 10713
  155.9735  130.4118  150.3999 LP  0  0  0  0  0  0  0  0  0  0  0  0  # atno 17371 bound_to 10713
  139.9649  134.7390  156.0160 LP  0  0  0  0  0  0  0  0  0  0  0  0  # atno 17394 bound_to 11000
  141.1376  133.6571  156.3637 LP  0  0  0  0  0  0  0  0  0  0  0  0  # atno 17395 bound_to 11000

$$$$
