#       Name:                AV-unprocessed.smi:844
#       Creating user name   scv26
#       Creation time:       Fri Mar 27 01:38:50 2020


#       File generated by GOLD software.
#

@<TRIPOS>MOLECULE
AV-unprocessed.smi:844
    35    37     1
SMALL
NO_CHARGES


@<TRIPOS>ATOM
      1 ****        -1.1367   3.1095  -0.3857 O.3            1 S1                 0.0000
      2 ****        -0.7528   1.7587  -0.2309 C.3            1 S1                 0.0000
      3 ****         0.7861   1.7069  -0.1445 C.3            1 S1                 0.0000
      4 ****         1.3035   0.3331  -0.1152 N.pl3          1 S1                 0.0000
      5 ****         1.7347  -0.4175   0.9348 C.2            1 S1                 0.0000
      6 ****         2.0972  -1.6362   0.4468 N.pl3          1 S1                 1.0000
      7 ****         1.8991  -1.6629  -0.9355 C.ar           1 S1                 0.0000
      8 ****         2.1176  -2.6711  -1.8692 C.ar           1 S1                 0.0000
      9 ****         1.8077  -2.3683  -3.2116 C.ar           1 S1                 0.0000
     10 ****         1.3018  -1.1052  -3.5825 C.ar           1 S1                 0.0000
     11 ****         1.0834  -0.0907  -2.6273 C.ar           1 S1                 0.0000
     12 ****         1.3922  -0.3989  -1.3032 C.ar           1 S1                 0.0000
     13 ****        -1.4188   1.0994   0.9719 C.ar           1 S1                 0.0000
     14 ****        -1.5052   1.7860   2.2037 C.ar           1 S1                 0.0000
     15 ****        -2.1025   1.1720   3.3213 C.ar           1 S1                 0.0000
     16 ****        -2.6153  -0.1347   3.2165 C.ar           1 S1                 0.0000
     17 ****        -3.1864  -0.7269   4.2918 F              1 S1                 0.0000
     18 ****        -2.5293  -0.8269   1.9938 C.ar           1 S1                 0.0000
     19 ****        -1.9322  -0.2147   0.8747 C.ar           1 S1                 0.0000
     20 ****        -1.8455  -0.9018  -0.2900 F              1 S1                 0.0000
     21 ****        -2.0676   3.1406  -0.5462 H              1 S1                 0.0000
     22 ****        -1.0787   1.2508  -1.1385 H              1 S1                 0.0000
     23 ****         1.2440   2.2230  -0.9896 H              1 S1                 0.0000
     24 ****         1.1381   2.2130   0.7557 H              1 S1                 0.0000
     25 ****         1.7718  -0.1061   1.9689 H              1 S1                 0.0000
     26 ****         2.5043  -3.6397  -1.5882 H              1 S1                 0.0000
     27 ****         1.9610  -3.1200  -3.9724 H              1 S1                 0.0000
     28 ****         1.0763  -0.9100  -4.6209 H              1 S1                 0.0000
     29 ****         0.6942   0.8735  -2.9199 H              1 S1                 0.0000
     30 ****        -1.1088   2.7866   2.2979 H              1 S1                 0.0000
     31 ****        -2.1653   1.7031   4.2596 H              1 S1                 0.0000
     32 ****        -2.9196  -1.8309   1.9147 H              1 S1                 0.0000
     33 ****         2.4529  -2.3924   1.0177 H              1 S1                 0.0000
     34 ****        -0.6475   3.5126  -1.1591 LP             1 S1                 0.0000
     35 ****        -0.9209   3.6189   0.4473 LP             1 S1                 0.0000
@<TRIPOS>BOND
    1    1    2 1     
    2    1   21 1     
    3    2    3 1     
    4    2   13 1     
    5    2   22 1     
    6    3    4 1     
    7    3   23 1     
    8    3   24 1     
    9    4   12 1     
   10    4    5 1     
   11    5    6 2     
   12    5   25 1     
   13    6    7 1     
   14    6   33 1     
   15    7   12 ar    
   16    7    8 ar    
   17    8    9 ar    
   18    8   26 1     
   19    9   10 ar    
   20    9   27 1     
   21   10   11 ar    
   22   10   28 1     
   23   11   12 ar    
   24   11   29 1     
   25   13   19 ar    
   26   13   14 ar    
   27   14   15 ar    
   28   14   30 1     
   29   15   16 ar    
   30   15   31 1     
   31   16   17 1     
   32   16   18 ar    
   33   18   19 ar    
   34   18   32 1     
   35   19   20 1     
   36    1   34 1     
   37    1   35 1     
@<TRIPOS>SUBSTRUCTURE
      1 S1             1
@<TRIPOS>SET
LONE_PAIRS      STATIC     ATOMS    <user>   **** ""
2 34 35
DONOR_HYDROGENS      STATIC     ATOMS    <user>   **** ""
2 21 33
ATOM$BLUE        STATIC     ATOMS    COLORGROUP SYSTEM
2 34 35
ATOM$RED        STATIC     ATOMS    COLORGROUP SYSTEM
2 21 33
