AV-unprocessed.smi:1554|AV-procd|sdf|6260|dock2
  -GOLD-   22720 6443D 1   1.00000     0.00000
 Structure written by MMmdl.
 49 51  0  0  0  0  0  0  0  0  3 V2000
  152.5360  143.4499  161.0654 C   0  0  0  0  0  0  0  0  0  0  0  0
  152.3416  142.5871  159.8302 C   0  0  0  0  0  0  0  0  0  0  0  0
  151.4102  143.0068  158.8541 C   0  0  0  0  0  0  0  0  0  0  0  0
  151.2556  142.1975  157.7350 C   0  0  0  0  0  0  0  0  0  0  0  0
  150.4326  142.3357  156.6159 N   0  3  0  0  0  0  0  0  0  0  0  0
  150.6289  141.2834  155.7750 C   0  0  0  0  0  0  0  0  0  0  0  0
  151.5603  140.4694  156.3435 N   0  0  0  0  0  0  0  0  0  0  0  0
  152.1239  139.2027  155.8461 C   0  0  0  0  0  0  0  0  0  0  0  0
  151.0600  138.1961  155.3540 C   0  0  2  0  0  0  0  0  0  0  0  0
  151.6934  136.9572  155.0968 O   0  0  0  0  0  0  0  0  0  0  0  0
  150.3258  138.6583  154.0760 C   0  0  0  0  0  0  0  0  0  0  0  0
  148.8857  138.2844  154.0680 N   0  3  1  0  0  0  0  0  0  0  0  0
  148.3331  137.9109  155.3953 C   0  0  0  0  0  0  0  0  0  0  0  0
  148.0350  139.1542  156.2564 C   0  0  0  0  0  0  0  0  0  0  0  0
  147.1845  140.0449  155.5445 O   0  0  0  0  0  0  0  0  0  0  0  0
  147.7677  140.5039  154.3299 C   0  0  2  0  0  0  0  0  0  0  0  0
  146.8138  141.5229  153.6969 C   0  0  0  0  0  0  0  0  0  0  0  0
  148.0158  139.2906  153.4101 C   0  0  0  0  0  0  0  0  0  0  0  0
  151.9871  141.0052  157.5656 C   0  0  0  0  0  0  0  0  0  0  0  0
  152.9104  140.5788  158.5186 C   0  0  0  0  0  0  0  0  0  0  0  0
  153.0817  141.3880  159.6643 C   0  0  0  0  0  0  0  0  0  0  0  0
  154.0815  140.9467  160.7196 C   0  0  0  0  0  0  0  0  0  0  0  0
  151.9126  144.3438  161.0297 H   0  0  0  0  0  0  0  0  0  0  0  0
  153.5742  143.7720  161.1490 H   0  0  0  0  0  0  0  0  0  0  0  0
  152.2714  142.8952  161.9659 H   0  0  0  0  0  0  0  0  0  0  0  0
  150.8437  143.9191  158.9731 H   0  0  0  0  0  0  0  0  0  0  0  0
  150.1308  141.1197  154.8299 H   0  0  0  0  0  0  0  0  0  0  0  0
  152.8026  139.4528  155.0296 H   0  0  0  0  0  0  0  0  0  0  0  0
  152.7462  138.7562  156.6210 H   0  0  0  0  0  0  0  0  0  0  0  0
  150.3512  138.0433  156.1670 H   0  0  0  0  0  0  0  0  0  0  0  0
  151.2181  136.2713  155.5404 H   0  0  0  0  0  0  0  0  0  0  0  0
  150.4237  139.7370  153.9578 H   0  0  0  0  0  0  0  0  0  0  0  0
  150.8204  138.2159  153.2102 H   0  0  0  0  0  0  0  0  0  0  0  0
  147.4049  137.3616  155.2314 H   0  0  0  0  0  0  0  0  0  0  0  0
  148.9979  137.2297  155.9250 H   0  0  0  0  0  0  0  0  0  0  0  0
  147.5347  138.8562  157.1779 H   0  0  0  0  0  0  0  0  0  0  0  0
  148.9513  139.6665  156.5518 H   0  0  0  0  0  0  0  0  0  0  0  0
  148.7107  141.0074  154.5499 H   0  0  0  0  0  0  0  0  0  0  0  0
  147.2205  141.9162  152.7648 H   0  0  0  0  0  0  0  0  0  0  0  0
  146.6447  142.3669  154.3663 H   0  0  0  0  0  0  0  0  0  0  0  0
  145.8448  141.0739  153.4764 H   0  0  0  0  0  0  0  0  0  0  0  0
  148.4450  139.6029  152.4573 H   0  0  0  0  0  0  0  0  0  0  0  0
  147.0639  138.8137  153.1720 H   0  0  0  0  0  0  0  0  0  0  0  0
  153.4787  139.6692  158.3969 H   0  0  0  0  0  0  0  0  0  0  0  0
  154.5394  139.9912  160.4615 H   0  0  0  0  0  0  0  0  0  0  0  0
  153.5929  140.8298  161.6870 H   0  0  0  0  0  0  0  0  0  0  0  0
  154.8799  141.6823  160.8203 H   0  0  0  0  0  0  0  0  0  0  0  0
  148.8323  137.4588  153.4885 H   0  0  0  0  0  0  0  0  0  0  0  0
  149.7855  143.0927  156.4347 H   0  0  0  0  0  0  0  0  0  0  0  0
  1  2  1  0  0  0  0
  1 23  1  0  0  0  0
  1 24  1  0  0  0  0
  1 25  1  0  0  0  0
  2 21  1  0  0  0  0
  2  3  2  0  0  0  0
  3  4  1  0  0  0  0
  3 26  1  0  0  0  0
  4 19  2  0  0  0  0
  4  5  1  0  0  0  0
  5  6  2  0  0  0  0
  5 49  1  0  0  0  0
  6  7  1  0  0  0  0
  6 27  1  0  0  0  0
  7  8  1  0  0  0  0
  7 19  1  0  0  0  0
  8  9  1  0  0  0  0
  8 28  1  0  0  0  0
  8 29  1  0  0  0  0
  9 10  1  0  0  0  0
  9 11  1  0  0  0  0
  9 30  1  0  0  0  0
 10 31  1  0  0  0  0
 11 12  1  0  0  0  0
 11 32  1  0  0  0  0
 11 33  1  0  0  0  0
 12 18  1  0  0  0  0
 12 13  1  0  0  0  0
 12 48  1  0  0  0  0
 13 14  1  0  0  0  0
 13 34  1  0  0  0  0
 13 35  1  0  0  0  0
 14 15  1  0  0  0  0
 14 36  1  0  0  0  0
 14 37  1  0  0  0  0
 15 16  1  0  0  0  0
 16 17  1  0  0  0  0
 16 18  1  0  0  0  0
 16 38  1  0  0  0  0
 17 39  1  0  0  0  0
 17 40  1  0  0  0  0
 17 41  1  0  0  0  0
 18 42  1  0  0  0  0
 18 43  1  0  0  0  0
 19 20  1  0  0  0  0
 20 21  2  0  0  0  0
 20 44  1  0  0  0  0
 21 22  1  0  0  0  0
 22 45  1  0  0  0  0
 22 46  1  0  0  0  0
 22 47  1  0  0  0  0
M  CHG  1   5   1
M  CHG  1  12   1
M  END
> <s_m_source_file>
AV-unprocessed.smi

> <i_m_source_file_index>
1554

> <i_lp_mmshare_version>
43012

> <i_f3d_flags>
0

> <s_epik_input>
W0NIM11jKFtjSF0xKWMoW0NIM10pW2NIXWMoYzEyKW4oW2NIXW4yKVtDSDJdW0NASF0oW09IXSlbQ0gyXU4zW0NIMl1bQ0gyXU9bQ0BASF0oW0NIM10pW0NIMl0z

> <s_epik_cmdline>
J2VwaWtfcHl0aG9uJywgJy1waCcsICc3LjAnLCAnLXRuJywgJzgnLCAnLW1hJywgJzIwMCcsICctbWV0YWxfYmluZGluZycsICctaW1hZScsICc8aW5maWxlLm1hZT4nLCAnLW9tYWUnLCAnPG91dGZpbGUubWFlPic=

> <r_epik_Ionization_Penalty>
1.8848

> <r_epik_Ionization_Penalty_Charging>
1.88479

> <r_epik_Ionization_Penalty_Neutral>
1.42224e-05

> <r_epik_State_Penalty>
1.94551

> <r_epik_Charging_Adjusted_Penalty>
3.8303

> <i_epik_Tot_Q>
2

> <i_epik_Tot_abs_Q>
2

> <r_epik_Metal_State_Penalty>
5.95849

> <b_epik_Metal_Only>
0

> <s_lp_Force_Field>
OPLS_2005

> <r_lp_Energy>
33.2635

> <b_lp_Chiralities_Consistent>
1

> <s_lp_Variant>
AV-unprocessed.smi:1554-21

> <Gold.Version>
5.8.1

> <Gold.Id.Protein>
6NUR|6NUR_protein|mol2

> <Gold.PLP.Fitness>
53.7354

> <Gold.PLP.PLP>
-41.3472

> <Gold.PLP.part.hbond>
-3.0000

> <Gold.PLP.part.metal>
0.0000

> <Gold.PLP.part.buried>
-3.1756

> <Gold.PLP.part.nonpolar>
-34.9583

> <Gold.PLP.part.repulsive>
0.1029

> <Gold.PLP.ligand.clash>
0.2874

> <Gold.PLP.ligand.torsion>
1.2039

> <Gold.PLP.Chemscore.Hbond>
5.0000

> <Gold.PLP.Chemscore.CHOScore>
0.0000

> <Gold.PLP.Chemscore.Metal>
0.0000

> <Gold.Chemscore.Hbonds>
donor molecule, donor type, donor heavy atom, donor atom, acceptor molecule, acceptor atom, score
      L1  H     5    49       P1  8028  2.00
      L1  H    12    48       P1  7948  2.00
      P1  H 10752 10763       L1    10  0.50

> <Gold.PLP.Chemscore.Internal.Correction>
0.0834

> <Gold.Rescore>
     Score         DG    S(hbond)    S(metal)    S(lipo)     H(rot)  DE(clash)    DE(int)     intcor
     20.52     -21.89       2.59        0.00     112.49       2.11       0.18       1.19       ----

> <Gold.Chemscore.Fitness>
20.5175

> <Gold.Chemscore.DG>
-21.8883

> <Gold.Chemscore.ZeroCoef>
-5.4800

> <Gold.Chemscore.Hbond>
2.5910

> <Gold.Chemscore.Metal>
0.0000

> <Gold.Chemscore.Lipo>
112.4927

> <Gold.Chemscore.Internal_Hbond>
0.0000

> <Gold.Chemscore.DEClash>
0.1811

> <Gold.Chemscore.DEInternal>
1.1897

> <Gold.Chemscore.Rot>
2.1122

> <Gold.Chemscore.Internal.Correction>
   9.000000E+99

> <Gold.Chemscore.Hbonds>
donor molecule, donor type, donor heavy atom, donor atom, acceptor molecule, acceptor atom, score
      L1  H     5    49       P1  8028  0.95
      L1  H    12    48       P1  7948  0.93
      P1  H 10752 10763       L1    10  0.02

> <Gold.Chemscore.Hbond.Weighted>
-8.6540

> <Gold.Chemscore.Metal.Weighted>
-0.0000

> <Gold.Chemscore.Lipo.Weighted>
-13.1616

> <Gold.Chemscore.Internal_Hbond.Weighted>
0.0000

> <Gold.Chemscore.DEClash.Weighted>
0.1811

> <Gold.Chemscore.DEInternal.Weighted>
1.1897

> <Gold.Chemscore.Rot.Weighted>
5.4073

> <Gold.Chemscore.Internal.Correction.Weighted>
   9.000000E+99

> <Gold.Protein.RotatedTorsions>
[ 6907 6896 6895 6894 ] final -133.29 input  -60.11 | X-H torsion
[ 7974 7965 7964 7962 ] final  -70.77 input  175.53 | X-H torsion
[ 8008 7997 7996 7995 ] final  -27.01 input   59.86 | X-H torsion
[ 10167 10162 10161 10158 ] final -177.50 input  -65.29 | X-H torsion
[ 10718 10713 10712 10709 ] final  -42.29 input   66.30 | X-H torsion
[ 10763 10752 10751 10750 ] final   46.69 input  -60.55 | X-H torsion
[ 11005 11000 10999 10996 ] final  117.56 input  -57.11 | X-H torsion

> <Gold.Protein.ActiveResidues>
 VAL166  LYS551  ARG553  GLY616  TRP617  ASP618  TYR619  PRO620  LYS621  CYS622 
 ASP623  PHE694  ASN695  SER759  ASP760  ASP761  ALA762  ILE779  LEU786  VAL792 
 PHE793  MET794  SER795  GLU796  ALA797  LYS798  CYS799  TRP800  GLU811  SER814 

> <Gold.Protein.RotatedAtoms>
  150.9723  133.6331  159.2735 H   0  0  0  0  0  0  0  0  0  0  0  0  # atno 6907 bound_to 6896
  151.3616  135.0904  159.9446 H   0  0  0  0  0  0  0  0  0  0  0  0  # atno 6908 bound_to 6896
  152.5187  133.9295  159.7628 H   0  0  0  0  0  0  0  0  0  0  0  0  # atno 6909 bound_to 6896
  145.6867  140.9168  143.0803 H   0  0  0  0  0  0  0  0  0  0  0  0  # atno 7974 bound_to 7965
  154.4397  140.1884  156.0865 H   0  0  0  0  0  0  0  0  0  0  0  0  # atno 8008 bound_to 7997
  156.0399  140.3321  155.7205 H   0  0  0  0  0  0  0  0  0  0  0  0  # atno 8009 bound_to 7997
  155.5716  140.0613  157.2796 H   0  0  0  0  0  0  0  0  0  0  0  0  # atno 8010 bound_to 7997
  139.5477  144.2191  152.1019 H   0  0  0  0  0  0  0  0  0  0  0  0  # atno 10167 bound_to 10162
  156.2612  130.4197  149.8540 H   0  0  0  0  0  0  0  0  0  0  0  0  # atno 10718 bound_to 10713
  152.9808  135.6000  154.3641 H   0  0  0  0  0  0  0  0  0  0  0  0  # atno 10763 bound_to 10752
  154.3320  135.2768  155.2469 H   0  0  0  0  0  0  0  0  0  0  0  0  # atno 10764 bound_to 10752
  154.4589  135.5971  153.6297 H   0  0  0  0  0  0  0  0  0  0  0  0  # atno 10765 bound_to 10752
  139.9079  134.9611  156.7369 H   0  0  0  0  0  0  0  0  0  0  0  0  # atno 11005 bound_to 11000
  144.7009  139.8768  143.7444 LP  0  0  0  0  0  0  0  0  0  0  0  0  # atno 17320 bound_to 7965
  146.0917  139.3907  143.0401 LP  0  0  0  0  0  0  0  0  0  0  0  0  # atno 17321 bound_to 7965
  140.1681  144.4962  150.6595 LP  0  0  0  0  0  0  0  0  0  0  0  0  # atno 17342 bound_to 10162
  140.6731  143.2293  151.5576 LP  0  0  0  0  0  0  0  0  0  0  0  0  # atno 17343 bound_to 10162
  156.6055  130.8564  151.3442 LP  0  0  0  0  0  0  0  0  0  0  0  0  # atno 17370 bound_to 10713
  157.7251  130.9611  150.1601 LP  0  0  0  0  0  0  0  0  0  0  0  0  # atno 17371 bound_to 10713
  140.6880  133.9415  155.7949 LP  0  0  0  0  0  0  0  0  0  0  0  0  # atno 17394 bound_to 11000
  141.0462  134.0551  157.3841 LP  0  0  0  0  0  0  0  0  0  0  0  0  # atno 17395 bound_to 11000

$$$$
