AV-unprocessed.smi:886|AV-procd|sdf|4049|dock9
  -GOLD-   22720 1533D 1   1.00000     0.00000
 Structure written by MMmdl.
 35 37  0  0  0  0  0  0  0  0  1 V2000
  146.8845  140.9443  153.0891 C   0  0  0  0  0  0  0  0  0  0  0  0
  148.1027  140.4089  153.6770 N   0  0  0  0  0  0  0  0  0  0  0  0
  148.6028  140.7972  154.8600 C   0  0  0  0  0  0  0  0  0  0  0  0
  148.0640  141.6419  155.5763 O   0  0  0  0  0  0  0  0  0  0  0  0
  149.8698  140.0987  155.2830 C   0  0  0  0  0  0  0  0  0  0  0  0
  150.1875  138.8367  154.7280 C   0  0  0  0  0  0  0  0  0  0  0  0
  151.3842  138.1964  155.0956 C   0  0  0  0  0  0  0  0  0  0  0  0
  152.2326  138.8468  156.0075 C   0  0  0  0  0  0  0  0  0  0  0  0
  151.9510  140.0508  156.5447 N   0  0  0  0  0  0  0  0  0  0  0  0
  150.7996  140.6759  156.1962 C   0  0  0  0  0  0  0  0  0  0  0  0
  150.5397  141.9193  156.8008 N   0  0  0  0  0  0  0  0  0  0  0  0
  151.5478  142.5786  157.6241 C   0  0  1  0  0  0  0  0  0  0  0  0
  151.6170  144.0931  157.3879 C   0  0  0  0  0  0  0  0  0  0  0  0
  151.3779  144.6465  158.7982 C   0  0  2  0  0  0  0  0  0  0  0  0
  152.5560  144.3658  159.7407 C   0  0  0  0  0  0  0  0  0  0  0  0
  152.4045  142.8658  159.9911 C   0  0  0  0  0  0  0  0  0  0  0  0
  151.1898  142.5204  159.1188 C   0  0  1  0  0  0  0  0  0  0  0  0
  150.4304  143.7084  159.2757 O   0  0  0  0  0  0  0  0  0  0  0  0
  146.6868  140.4568  152.1345 H   0  0  0  0  0  0  0  0  0  0  0  0
  146.9778  142.0167  152.9122 H   0  0  0  0  0  0  0  0  0  0  0  0
  146.0291  140.7719  153.7435 H   0  0  0  0  0  0  0  0  0  0  0  0
  148.5949  139.6980  153.1554 H   0  0  0  0  0  0  0  0  0  0  0  0
  149.5277  138.3585  154.0185 H   0  0  0  0  0  0  0  0  0  0  0  0
  151.6473  137.2331  154.6844 H   0  0  0  0  0  0  0  0  0  0  0  0
  153.1619  138.3898  156.3136 H   0  0  0  0  0  0  0  0  0  0  0  0
  149.8436  142.5106  156.3689 H   0  0  0  0  0  0  0  0  0  0  0  0
  152.5157  142.1026  157.4609 H   0  0  0  0  0  0  0  0  0  0  0  0
  152.5747  144.4086  156.9730 H   0  0  0  0  0  0  0  0  0  0  0  0
  150.8291  144.4328  156.7139 H   0  0  0  0  0  0  0  0  0  0  0  0
  151.0332  145.6808  158.8145 H   0  0  0  0  0  0  0  0  0  0  0  0
  153.5153  144.6269  159.2927 H   0  0  0  0  0  0  0  0  0  0  0  0
  152.4494  144.9215  160.6730 H   0  0  0  0  0  0  0  0  0  0  0  0
  153.2930  142.2969  159.7146 H   0  0  0  0  0  0  0  0  0  0  0  0
  152.1910  142.6746  161.0434 H   0  0  0  0  0  0  0  0  0  0  0  0
  150.6782  141.6078  159.4270 H   0  0  0  0  0  0  0  0  0  0  0  0
  1  2  1  0  0  0  0
  1 19  1  0  0  0  0
  1 20  1  0  0  0  0
  1 21  1  0  0  0  0
  2  3  1  0  0  0  0
  2 22  1  0  0  0  0
  3  4  2  0  0  0  0
  3  5  1  0  0  0  0
  5 10  1  0  0  0  0
  5  6  2  0  0  0  0
  6  7  1  0  0  0  0
  6 23  1  0  0  0  0
  7  8  2  0  0  0  0
  7 24  1  0  0  0  0
  8  9  1  0  0  0  0
  8 25  1  0  0  0  0
  9 10  2  0  0  0  0
 10 11  1  0  0  0  0
 11 12  1  0  0  0  0
 11 26  1  0  0  0  0
 12 17  1  0  0  0  0
 12 13  1  0  0  0  0
 12 27  1  0  0  0  0
 13 14  1  0  0  0  0
 13 28  1  0  0  0  0
 13 29  1  0  0  0  0
 14 18  1  0  0  0  0
 14 15  1  0  0  0  0
 14 30  1  0  0  0  0
 15 16  1  0  0  0  0
 15 31  1  0  0  0  0
 15 32  1  0  0  0  0
 16 17  1  0  0  0  0
 16 33  1  0  0  0  0
 16 34  1  0  0  0  0
 17 18  1  0  0  0  0
 17 35  1  0  0  0  0
M  END
> <s_m_source_file>
AV-unprocessed.smi

> <i_m_source_file_index>
886

> <i_lp_mmshare_version>
43012

> <i_f3d_flags>
0

> <s_epik_input>
W0NIM11bTkhdQyg9TyljMVtjSF1bY0hdW2NIXW5jMVtOSF1bQ0BIXShbQ0gyXVtDQEhdMjMpW0NASF0oTzMpW0NIMl1bQ0gyXTI=

> <s_epik_cmdline>
J2VwaWtfcHl0aG9uJywgJy1waCcsICc3LjAnLCAnLXRuJywgJzgnLCAnLW1hJywgJzIwMCcsICctbWV0YWxfYmluZGluZycsICctaW1hZScsICc8aW5maWxlLm1hZT4nLCAnLW9tYWUnLCAnPG91dGZpbGUubWFlPic=

> <r_lp_tautomer_probability>
1

> <r_epik_Ionization_Penalty>
0.0065447

> <r_epik_Ionization_Penalty_Charging>
0

> <r_epik_Ionization_Penalty_Neutral>
0.0065447

> <r_epik_State_Penalty>
0.00484214

> <r_epik_Charging_Adjusted_Penalty>
0.00484214

> <i_epik_Tot_Q>
0

> <i_epik_Tot_abs_Q>
0

> <r_epik_Metal_State_Penalty>
-0

> <b_epik_Metal_Only>
0

> <s_lp_Force_Field>
OPLS_2005

> <r_lp_Energy>
46.3803

> <b_lp_Chiralities_Consistent>
1

> <s_lp_Variant>
AV-unprocessed.smi:886-2

> <Gold.Version>
5.8.1

> <Gold.Id.Protein>
6NUR|6NUR_protein|mol2

> <Gold.PLP.Fitness>
41.8166

> <Gold.PLP.PLP>
-40.4994

> <Gold.PLP.part.hbond>
-1.7952

> <Gold.PLP.part.metal>
0.0000

> <Gold.PLP.part.buried>
-4.5924

> <Gold.PLP.part.nonpolar>
-33.4433

> <Gold.PLP.part.repulsive>
0.4001

> <Gold.PLP.ligand.clash>
0.0000

> <Gold.PLP.ligand.torsion>
0.4575

> <Gold.PLP.Chemscore.Hbond>
0.7360

> <Gold.PLP.Chemscore.CHOScore>
0.0000

> <Gold.PLP.Chemscore.Metal>
0.0000

> <Gold.Chemscore.Hbonds>
donor molecule, donor type, donor heavy atom, donor atom, acceptor molecule, acceptor atom, score
      L1  H     2    22       P1  7957  0.21

> <Gold.PLP.Chemscore.Internal.Correction>
0.0242

> <Gold.Rescore>
     Score         DG    S(hbond)    S(metal)    S(lipo)     H(rot)  DE(clash)    DE(int)     intcor
     16.73     -17.24       0.53        0.00     107.27       1.00       0.31       0.19       ----

> <Gold.Chemscore.Fitness>
16.7348

> <Gold.Chemscore.DG>
-17.2412

> <Gold.Chemscore.ZeroCoef>
-5.4800

> <Gold.Chemscore.Hbond>
0.5301

> <Gold.Chemscore.Metal>
0.0000

> <Gold.Chemscore.Lipo>
107.2696

> <Gold.Chemscore.Internal_Hbond>
0.0000

> <Gold.Chemscore.DEClash>
0.3148

> <Gold.Chemscore.DEInternal>
0.1916

> <Gold.Chemscore.Rot>
1.0000

> <Gold.Chemscore.Internal.Correction>
   9.000000E+99

> <Gold.Chemscore.Hbonds>
donor molecule, donor type, donor heavy atom, donor atom, acceptor molecule, acceptor atom, score
      L1  H     2    22       P1  7957  0.21
      L1  H    11    26       P1  8028  0.01

> <Gold.Chemscore.Hbond.Weighted>
-1.7707

> <Gold.Chemscore.Metal.Weighted>
-0.0000

> <Gold.Chemscore.Lipo.Weighted>
-12.5505

> <Gold.Chemscore.Internal_Hbond.Weighted>
0.0000

> <Gold.Chemscore.DEClash.Weighted>
0.3148

> <Gold.Chemscore.DEInternal.Weighted>
0.1916

> <Gold.Chemscore.Rot.Weighted>
2.5600

> <Gold.Chemscore.Internal.Correction.Weighted>
   9.000000E+99

> <Gold.Protein.RotatedTorsions>
[ 6907 6896 6895 6894 ] final  121.12 input  -60.11 | X-H torsion
[ 7974 7965 7964 7962 ] final  -52.69 input  175.53 | X-H torsion
[ 8008 7997 7996 7995 ] final  -47.32 input   59.86 | X-H torsion
[ 10167 10162 10161 10158 ] final   45.03 input  -65.29 | X-H torsion
[ 10718 10713 10712 10709 ] final -129.52 input   66.30 | X-H torsion
[ 10763 10752 10751 10750 ] final   73.68 input  -60.55 | X-H torsion
[ 11005 11000 10999 10996 ] final -152.59 input  -57.11 | X-H torsion

> <Gold.Protein.ActiveResidues>
 VAL166  LYS551  ARG553  GLY616  TRP617  ASP618  TYR619  PRO620  LYS621  CYS622 
 ASP623  PHE694  ASN695  SER759  ASP760  ASP761  ALA762  ILE779  LEU786  VAL792 
 PHE793  MET794  SER795  GLU796  ALA797  LYS798  CYS799  TRP800  GLU811  SER814 

> <Gold.Protein.RotatedAtoms>
  152.4346  133.7338  159.6601 H   0  0  0  0  0  0  0  0  0  0  0  0  # atno 6907 bound_to 6896
  150.8228  133.8212  159.3137 H   0  0  0  0  0  0  0  0  0  0  0  0  # atno 6908 bound_to 6896
  151.5889  135.1057  160.0086 H   0  0  0  0  0  0  0  0  0  0  0  0  # atno 6909 bound_to 6896
  145.9052  140.7961  142.9723 H   0  0  0  0  0  0  0  0  0  0  0  0  # atno 7974 bound_to 7965
  154.4015  140.1349  156.4156 H   0  0  0  0  0  0  0  0  0  0  0  0  # atno 8008 bound_to 7997
  155.7691  140.3484  155.5217 H   0  0  0  0  0  0  0  0  0  0  0  0  # atno 8009 bound_to 7997
  155.8784  140.0983  157.1492 H   0  0  0  0  0  0  0  0  0  0  0  0  # atno 8010 bound_to 7997
  140.3283  144.2620  150.6172 H   0  0  0  0  0  0  0  0  0  0  0  0  # atno 10167 bound_to 10162
  156.2055  130.6884  151.0589 H   0  0  0  0  0  0  0  0  0  0  0  0  # atno 10718 bound_to 10713
  153.0537  135.5054  154.7929 H   0  0  0  0  0  0  0  0  0  0  0  0  # atno 10763 bound_to 10752
  154.6771  135.2962  154.9665 H   0  0  0  0  0  0  0  0  0  0  0  0  # atno 10764 bound_to 10752
  154.0464  135.6710  153.4848 H   0  0  0  0  0  0  0  0  0  0  0  0  # atno 10765 bound_to 10752
  140.7172  134.3767  157.5189 H   0  0  0  0  0  0  0  0  0  0  0  0  # atno 11005 bound_to 11000
  144.6738  140.1738  143.7412 LP  0  0  0  0  0  0  0  0  0  0  0  0  # atno 17320 bound_to 7965
  145.8741  139.2288  143.1643 LP  0  0  0  0  0  0  0  0  0  0  0  0  # atno 17321 bound_to 7965
  140.5421  143.2221  151.8068 LP  0  0  0  0  0  0  0  0  0  0  0  0  # atno 17342 bound_to 10162
  139.4861  144.4587  151.9567 LP  0  0  0  0  0  0  0  0  0  0  0  0  # atno 17343 bound_to 10162
  157.7009  131.0776  150.6821 LP  0  0  0  0  0  0  0  0  0  0  0  0  # atno 17370 bound_to 10713
  156.6880  130.4586  149.5608 LP  0  0  0  0  0  0  0  0  0  0  0  0  # atno 17371 bound_to 10713
  139.8857  134.8930  156.2629 LP  0  0  0  0  0  0  0  0  0  0  0  0  # atno 17394 bound_to 11000
  141.0034  133.7138  156.0996 LP  0  0  0  0  0  0  0  0  0  0  0  0  # atno 17395 bound_to 11000

$$$$
