AV-unprocessed.smi:340|AV-procd|sdf|2380|dock9
  -GOLD-   2262022303D 1   1.00000     0.00000
 Structure written by MMmdl.
 35 36  0  0  0  0  0  0  0  0  1 V2000
  150.9576  133.9382  156.2394 C   0  0  0  0  0  0  0  0  0  0  0  0
  151.2357  135.7193  156.6079 S   0  0  0  0  0  0  0  0  0  0  0  0
  150.4559  136.0588  157.8075 O   0  0  0  0  0  0  0  0  0  0  0  0
  152.6792  135.9971  156.5538 O   0  0  0  0  0  0  0  0  0  0  0  0
  150.4855  136.5162  155.2716 N   0  0  0  0  0  0  0  0  0  0  0  0
  151.0531  137.6981  154.6203 C   0  0  0  0  0  0  0  0  0  0  0  0
  151.3172  138.8428  155.5784 C   0  0  0  0  0  0  0  0  0  0  0  0
  150.5527  140.0239  155.5223 C   0  0  0  0  0  0  0  0  0  0  0  0
  150.8471  141.0689  156.4186 C   0  0  0  0  0  0  0  0  0  0  0  0
  151.8989  140.9036  157.3515 C   0  0  0  0  0  0  0  0  0  0  0  0
  152.2139  141.9399  158.2572 N   0  0  0  0  0  0  0  0  0  0  0  0
  151.6012  143.2364  157.9768 C   0  0  0  0  0  0  0  0  0  0  0  0
  152.2588  144.3354  158.8294 C   0  0  0  0  0  0  0  0  0  0  0  0
  152.1978  143.9800  160.2068 O   0  0  0  0  0  0  0  0  0  0  0  0
  152.8987  142.7696  160.4729 C   0  0  0  0  0  0  0  0  0  0  0  0
  152.2584  141.6166  159.6822 C   0  0  0  0  0  0  0  0  0  0  0  0
  152.6333  139.7640  157.3977 N   0  0  0  0  0  0  0  0  0  0  0  0
  152.3462  138.7641  156.5379 C   0  0  0  0  0  0  0  0  0  0  0  0
  151.3257  133.3373  157.0705 H   0  0  0  0  0  0  0  0  0  0  0  0
  151.4927  133.6562  155.3337 H   0  0  0  0  0  0  0  0  0  0  0  0
  149.8919  133.7544  156.1051 H   0  0  0  0  0  0  0  0  0  0  0  0
  149.5193  136.2662  155.0612 H   0  0  0  0  0  0  0  0  0  0  0  0
  151.9936  137.4164  154.1465 H   0  0  0  0  0  0  0  0  0  0  0  0
  150.3860  138.0201  153.8197 H   0  0  0  0  0  0  0  0  0  0  0  0
  149.7595  140.1332  154.7975 H   0  0  0  0  0  0  0  0  0  0  0  0
  150.2782  141.9853  156.3679 H   0  0  0  0  0  0  0  0  0  0  0  0
  151.6864  143.5059  156.9252 H   0  0  0  0  0  0  0  0  0  0  0  0
  150.5358  143.1774  158.2033 H   0  0  0  0  0  0  0  0  0  0  0  0
  153.2961  144.4922  158.5286 H   0  0  0  0  0  0  0  0  0  0  0  0
  151.7396  145.2827  158.6847 H   0  0  0  0  0  0  0  0  0  0  0  0
  153.9526  142.8819  160.2126 H   0  0  0  0  0  0  0  0  0  0  0  0
  152.8552  142.5610  161.5419 H   0  0  0  0  0  0  0  0  0  0  0  0
  151.2453  141.4338  160.0432 H   0  0  0  0  0  0  0  0  0  0  0  0
  152.8337  140.7042  159.8453 H   0  0  0  0  0  0  0  0  0  0  0  0
  152.9642  137.8812  156.6125 H   0  0  0  0  0  0  0  0  0  0  0  0
  1  2  1  0  0  0  0
  1 19  1  0  0  0  0
  1 20  1  0  0  0  0
  1 21  1  0  0  0  0
  2  3  2  0  0  0  0
  2  4  2  0  0  0  0
  2  5  1  0  0  0  0
  5  6  1  0  0  0  0
  5 22  1  0  0  0  0
  6  7  1  0  0  0  0
  6 23  1  0  0  0  0
  6 24  1  0  0  0  0
  7 18  1  0  0  0  0
  7  8  2  0  0  0  0
  8  9  1  0  0  0  0
  8 25  1  0  0  0  0
  9 10  2  0  0  0  0
  9 26  1  0  0  0  0
 10 11  1  0  0  0  0
 10 17  1  0  0  0  0
 11 16  1  0  0  0  0
 11 12  1  0  0  0  0
 12 13  1  0  0  0  0
 12 27  1  0  0  0  0
 12 28  1  0  0  0  0
 13 14  1  0  0  0  0
 13 29  1  0  0  0  0
 13 30  1  0  0  0  0
 14 15  1  0  0  0  0
 15 16  1  0  0  0  0
 15 31  1  0  0  0  0
 15 32  1  0  0  0  0
 16 33  1  0  0  0  0
 16 34  1  0  0  0  0
 17 18  2  0  0  0  0
 18 35  1  0  0  0  0
M  END
> <s_m_source_file>
AV-unprocessed.smi

> <i_m_source_file_index>
340

> <i_lp_mmshare_version>
43012

> <i_f3d_flags>
0

> <s_epik_input>
W0NIM11TKD1PKSg9TylbTkhdW0NIMl1jMVtjSF1bY0hdYyhuW2NIXTEpTjJbQ0gyXVtDSDJdT1tDSDJdW0NIMl0y

> <s_epik_cmdline>
J2VwaWtfcHl0aG9uJywgJy1waCcsICc3LjAnLCAnLXRuJywgJzgnLCAnLW1hJywgJzIwMCcsICctbWV0YWxfYmluZGluZycsICctaW1hZScsICc8aW5maWxlLm1hZT4nLCAnLW9tYWUnLCAnPG91dGZpbGUubWFlPic=

> <r_lp_tautomer_probability>
1

> <r_epik_Ionization_Penalty>
0.00676355

> <r_epik_Ionization_Penalty_Charging>
0

> <r_epik_Ionization_Penalty_Neutral>
0.00676355

> <r_epik_State_Penalty>
0.00499739

> <r_epik_Charging_Adjusted_Penalty>
0.00499739

> <i_epik_Tot_Q>
0

> <i_epik_Tot_abs_Q>
0

> <r_epik_Metal_State_Penalty>
0.025736

> <b_epik_Metal_Only>
0

> <s_lp_Force_Field>
OPLS_2005

> <r_lp_Energy>
12.1718

> <b_lp_Chiralities_Consistent>
1

> <s_lp_Variant>
AV-unprocessed.smi:340-1

> <Gold.Version>
5.8.1

> <Gold.Id.Protein>
6NUR|6NUR_protein|mol2

> <Gold.PLP.Fitness>
39.8136

> <Gold.PLP.PLP>
-33.2534

> <Gold.PLP.part.hbond>
-3.0000

> <Gold.PLP.part.metal>
0.0000

> <Gold.PLP.part.buried>
-5.0816

> <Gold.PLP.part.nonpolar>
-26.2907

> <Gold.PLP.part.repulsive>
0.1175

> <Gold.PLP.ligand.clash>
0.0000

> <Gold.PLP.ligand.torsion>
0.8466

> <Gold.PLP.Chemscore.Hbond>
2.3011

> <Gold.PLP.Chemscore.CHOScore>
0.0000

> <Gold.PLP.Chemscore.Metal>
0.0000

> <Gold.Chemscore.Hbonds>
donor molecule, donor type, donor heavy atom, donor atom, acceptor molecule, acceptor atom, score
      P1  H  6896  6909       L1     3  0.30
      P1  H  7997  8008       L1    17  1.00
      P1  H 10752 10765       L1     4  1.00

> <Gold.PLP.Chemscore.Internal.Correction>
1.3499

> <Gold.Rescore>
     Score         DG    S(hbond)    S(metal)    S(lipo)     H(rot)  DE(clash)    DE(int)     intcor
     16.23     -18.42       2.34        0.00      78.66       1.59       0.05       2.13       ----

> <Gold.Chemscore.Fitness>
16.2323

> <Gold.Chemscore.DG>
-18.4166

> <Gold.Chemscore.ZeroCoef>
-5.4800

> <Gold.Chemscore.Hbond>
2.3379

> <Gold.Chemscore.Metal>
0.0000

> <Gold.Chemscore.Lipo>
78.6624

> <Gold.Chemscore.Internal_Hbond>
0.0000

> <Gold.Chemscore.DEClash>
0.0502

> <Gold.Chemscore.DEInternal>
2.1340

> <Gold.Chemscore.Rot>
1.5921

> <Gold.Chemscore.Internal.Correction>
   9.000000E+99

> <Gold.Chemscore.Hbonds>
donor molecule, donor type, donor heavy atom, donor atom, acceptor molecule, acceptor atom, score
      P1  H  6896  6909       L1     3  0.28
      P1  H  7997  8008       L1    17  0.21
      P1  H 10752 10765       L1     4  0.47

> <Gold.Chemscore.Hbond.Weighted>
-7.8087

> <Gold.Chemscore.Metal.Weighted>
-0.0000

> <Gold.Chemscore.Lipo.Weighted>
-9.2035

> <Gold.Chemscore.Internal_Hbond.Weighted>
0.0000

> <Gold.Chemscore.DEClash.Weighted>
0.0502

> <Gold.Chemscore.DEInternal.Weighted>
2.1340

> <Gold.Chemscore.Rot.Weighted>
4.0757

> <Gold.Chemscore.Internal.Correction.Weighted>
   9.000000E+99

> <Gold.Protein.RotatedTorsions>
[ 6907 6896 6895 6894 ] final   70.71 input  -60.11 | X-H torsion
[ 7974 7965 7964 7962 ] final   77.56 input  175.53 | X-H torsion
[ 8008 7997 7996 7995 ] final  -80.73 input   59.86 | X-H torsion
[ 10167 10162 10161 10158 ] final    9.94 input  -65.29 | X-H torsion
[ 10718 10713 10712 10709 ] final   16.95 input   66.30 | X-H torsion
[ 10763 10752 10751 10750 ] final -152.61 input  -60.55 | X-H torsion
[ 11005 11000 10999 10996 ] final   55.98 input  -57.11 | X-H torsion

> <Gold.Protein.ActiveResidues>
 VAL166  LYS551  ARG553  GLY616  TRP617  ASP618  TYR619  PRO620  LYS621  CYS622 
 ASP623  PHE694  ASN695  SER759  ASP760  ASP761  ALA762  ILE779  LEU786  VAL792 
 PHE793  MET794  SER795  GLU796  ALA797  LYS798  CYS799  TRP800  GLU811  SER814 

> <Gold.Protein.RotatedAtoms>
  152.4766  134.4827  159.9670 H   0  0  0  0  0  0  0  0  0  0  0  0  # atno 6907 bound_to 6896
  151.4842  133.3533  159.2851 H   0  0  0  0  0  0  0  0  0  0  0  0  # atno 6908 bound_to 6896
  150.8809  134.8226  159.7285 H   0  0  0  0  0  0  0  0  0  0  0  0  # atno 6909 bound_to 6896
  145.6885  139.2545  143.1773 H   0  0  0  0  0  0  0  0  0  0  0  0  # atno 7974 bound_to 7965
  154.5912  140.0658  156.9241 H   0  0  0  0  0  0  0  0  0  0  0  0  # atno 8008 bound_to 7997
  155.2292  140.3336  155.4287 H   0  0  0  0  0  0  0  0  0  0  0  0  # atno 8009 bound_to 7997
  156.2257  140.1818  156.7353 H   0  0  0  0  0  0  0  0  0  0  0  0  # atno 8010 bound_to 7997
  140.6225  143.8174  150.7192 H   0  0  0  0  0  0  0  0  0  0  0  0  # atno 10167 bound_to 10162
  157.0752  130.6364  149.5814 H   0  0  0  0  0  0  0  0  0  0  0  0  # atno 10718 bound_to 10713
  154.7983  135.3232  154.7613 H   0  0  0  0  0  0  0  0  0  0  0  0  # atno 10763 bound_to 10752
  153.8287  135.6881  153.4822 H   0  0  0  0  0  0  0  0  0  0  0  0  # atno 10764 bound_to 10752
  153.1685  135.4632  154.9813 H   0  0  0  0  0  0  0  0  0  0  0  0  # atno 10765 bound_to 10752
  140.0564  134.5664  155.9202 H   0  0  0  0  0  0  0  0  0  0  0  0  # atno 11005 bound_to 11000
  146.0903  140.7664  142.9598 LP  0  0  0  0  0  0  0  0  0  0  0  0  # atno 17320 bound_to 7965
  144.7004  140.3626  143.7161 LP  0  0  0  0  0  0  0  0  0  0  0  0  # atno 17321 bound_to 7965
  140.1767  143.4149  152.1962 LP  0  0  0  0  0  0  0  0  0  0  0  0  # atno 17342 bound_to 10162
  139.5450  144.7291  151.4611 LP  0  0  0  0  0  0  0  0  0  0  0  0  # atno 17343 bound_to 10162
  155.9939  130.5001  150.7399 LP  0  0  0  0  0  0  0  0  0  0  0  0  # atno 17370 bound_to 10713
  157.4846  131.0905  151.0497 LP  0  0  0  0  0  0  0  0  0  0  0  0  # atno 17371 bound_to 10713
  141.1954  133.6587  156.5640 LP  0  0  0  0  0  0  0  0  0  0  0  0  # atno 17394 bound_to 11000
  140.3837  134.7501  157.4677 LP  0  0  0  0  0  0  0  0  0  0  0  0  # atno 17395 bound_to 11000

$$$$
