AV-unprocessed.smi:653|AV-procd|sdf|3211|dock2
  -GOLD-   22720 0143D 1   1.00000     0.00000
 Structure written by MMmdl.
 45 46  0  0  0  0  0  0  0  0  2 V2000
  153.5750  143.1782  163.8331 C   0  0  0  0  0  0  0  0  0  0  0  0
  153.1072  143.2603  162.3954 C   0  0  0  0  0  0  0  0  0  0  0  0
  153.5591  142.3633  161.4038 C   0  0  0  0  0  0  0  0  0  0  0  0
  153.0761  142.4940  160.0852 C   0  0  0  0  0  0  0  0  0  0  0  0
  152.1500  143.5173  159.7839 C   0  0  0  0  0  0  0  0  0  0  0  0
  151.6064  143.6806  158.3756 C   0  0  0  0  0  0  0  0  0  0  0  0
  150.7511  142.4729  157.9915 C   0  0  0  0  0  0  0  0  0  0  0  0
  150.7783  141.4564  158.6844 O   0  0  0  0  0  0  0  0  0  0  0  0
  150.0016  142.5958  156.8852 N   0  0  0  0  0  0  0  0  0  0  0  0
  149.1185  141.5638  156.3531 C   0  0  0  0  0  0  0  0  0  0  0  0
  149.7792  140.7786  155.2033 C   0  0  1  0  0  0  0  0  0  0  0  0
  150.9713  139.9403  155.6240 C   0  0  0  0  0  0  0  0  0  0  0  0
  151.0850  138.9625  154.4611 C   0  0  0  0  0  0  0  0  0  0  0  0
  149.7462  138.7105  154.0483 O   0  0  0  0  0  0  0  0  0  0  0  0
  148.8725  139.7098  154.5727 C   0  0  2  0  0  0  0  0  0  0  0  0
  147.8823  140.2083  153.4949 C   0  0  0  0  0  0  0  0  0  0  0  0
  147.0513  141.3887  154.0217 C   0  0  0  0  0  0  0  0  0  0  0  0
  146.9621  139.1005  152.9494 C   0  0  0  0  0  0  0  0  0  0  0  0
  151.7359  144.3865  160.8167 C   0  0  0  0  0  0  0  0  0  0  0  0
  152.2214  144.2277  162.0674 N   0  3  0  0  0  0  0  0  0  0  0  0
  154.4553  142.5410  163.9221 H   0  0  0  0  0  0  0  0  0  0  0  0
  152.7877  142.7634  164.4630 H   0  0  0  0  0  0  0  0  0  0  0  0
  153.8339  144.1679  164.2109 H   0  0  0  0  0  0  0  0  0  0  0  0
  154.2656  141.5832  161.6479 H   0  0  0  0  0  0  0  0  0  0  0  0
  153.4113  141.8129  159.3164 H   0  0  0  0  0  0  0  0  0  0  0  0
  151.0066  144.5902  158.3187 H   0  0  0  0  0  0  0  0  0  0  0  0
  152.4249  143.7982  157.6639 H   0  0  0  0  0  0  0  0  0  0  0  0
  150.0387  143.4681  156.3782 H   0  0  0  0  0  0  0  0  0  0  0  0
  148.8590  140.8890  157.1693 H   0  0  0  0  0  0  0  0  0  0  0  0
  148.1823  142.0125  156.0175 H   0  0  0  0  0  0  0  0  0  0  0  0
  150.1178  141.4764  154.4380 H   0  0  0  0  0  0  0  0  0  0  0  0
  151.8789  140.5259  155.7735 H   0  0  0  0  0  0  0  0  0  0  0  0
  150.7550  139.4002  156.5469 H   0  0  0  0  0  0  0  0  0  0  0  0
  151.6241  139.4213  153.6314 H   0  0  0  0  0  0  0  0  0  0  0  0
  151.6005  138.0419  154.7349 H   0  0  0  0  0  0  0  0  0  0  0  0
  148.3104  139.2307  155.3761 H   0  0  0  0  0  0  0  0  0  0  0  0
  148.4693  140.5867  152.6573 H   0  0  0  0  0  0  0  0  0  0  0  0
  146.4281  141.0894  154.8651 H   0  0  0  0  0  0  0  0  0  0  0  0
  146.3941  141.7842  153.2469 H   0  0  0  0  0  0  0  0  0  0  0  0
  147.6921  142.2052  154.3551 H   0  0  0  0  0  0  0  0  0  0  0  0
  146.3632  138.6533  153.7436 H   0  0  0  0  0  0  0  0  0  0  0  0
  147.5233  138.3023  152.4655 H   0  0  0  0  0  0  0  0  0  0  0  0
  146.2731  139.4996  152.2046 H   0  0  0  0  0  0  0  0  0  0  0  0
  151.0310  145.1945  160.6825 H   0  0  0  0  0  0  0  0  0  0  0  0
  151.9042  144.8661  162.7974 H   0  0  0  0  0  0  0  0  0  0  0  0
  1  2  1  0  0  0  0
  1 21  1  0  0  0  0
  1 22  1  0  0  0  0
  1 23  1  0  0  0  0
  2 20  1  0  0  0  0
  2  3  2  0  0  0  0
  3  4  1  0  0  0  0
  3 24  1  0  0  0  0
  4  5  2  0  0  0  0
  4 25  1  0  0  0  0
  5  6  1  0  0  0  0
  5 19  1  0  0  0  0
  6  7  1  0  0  0  0
  6 26  1  0  0  0  0
  6 27  1  0  0  0  0
  7  8  2  0  0  0  0
  7  9  1  0  0  0  0
  9 10  1  0  0  0  0
  9 28  1  0  0  0  0
 10 11  1  0  0  0  0
 10 29  1  0  0  0  0
 10 30  1  0  0  0  0
 11 15  1  0  0  0  0
 11 12  1  0  0  0  0
 11 31  1  0  0  0  0
 12 13  1  0  0  0  0
 12 32  1  0  0  0  0
 12 33  1  0  0  0  0
 13 14  1  0  0  0  0
 13 34  1  0  0  0  0
 13 35  1  0  0  0  0
 14 15  1  0  0  0  0
 15 16  1  0  0  0  0
 15 36  1  0  0  0  0
 16 17  1  0  0  0  0
 16 18  1  0  0  0  0
 16 37  1  0  0  0  0
 17 38  1  0  0  0  0
 17 39  1  0  0  0  0
 17 40  1  0  0  0  0
 18 41  1  0  0  0  0
 18 42  1  0  0  0  0
 18 43  1  0  0  0  0
 19 20  2  0  0  0  0
 19 44  1  0  0  0  0
 20 45  1  0  0  0  0
M  CHG  1  20   1
M  END
> <s_m_source_file>
AV-unprocessed.smi

> <i_m_source_file_index>
653

> <i_lp_mmshare_version>
43012

> <i_f3d_flags>
0

> <s_epik_input>
W0NIM11jMVtjSF1bY0hdYyhbY0hdbjEpW0NIMl1DKD1PKVtOSF1bQ0gyXVtDQEBIXTJbQ0gyXVtDSDJdT1tDQEhdMltDSF0oW0NIM10pW0NIM10=

> <s_epik_cmdline>
J2VwaWtfcHl0aG9uJywgJy1waCcsICc3LjAnLCAnLXRuJywgJzgnLCAnLW1hJywgJzIwMCcsICctbWV0YWxfYmluZGluZycsICctaW1hZScsICc8aW5maWxlLm1hZT4nLCAnLW9tYWUnLCAnPG91dGZpbGUubWFlPic=

> <r_epik_Ionization_Penalty>
2.12486

> <r_epik_Ionization_Penalty_Charging>
2.12486

> <r_epik_Ionization_Penalty_Neutral>
9.0873e-08

> <r_epik_State_Penalty>
2.26279

> <r_epik_Charging_Adjusted_Penalty>
4.38765

> <i_epik_Tot_Q>
1

> <i_epik_Tot_abs_Q>
1

> <r_epik_Metal_State_Penalty>
2.27914

> <b_epik_Metal_Only>
0

> <s_lp_Force_Field>
OPLS_2005

> <r_lp_Energy>
26.1393

> <b_lp_Chiralities_Consistent>
1

> <s_lp_Variant>
AV-unprocessed.smi:653-8

> <Gold.Version>
5.8.1

> <Gold.Id.Protein>
6NUR|6NUR_protein|mol2

> <Gold.PLP.Fitness>
50.4261

> <Gold.PLP.PLP>
-49.0709

> <Gold.PLP.part.hbond>
-2.1944

> <Gold.PLP.part.metal>
0.0000

> <Gold.PLP.part.buried>
-2.4071

> <Gold.PLP.part.nonpolar>
-45.2101

> <Gold.PLP.part.repulsive>
0.5940

> <Gold.PLP.ligand.clash>
0.0000

> <Gold.PLP.ligand.torsion>
0.3633

> <Gold.PLP.Chemscore.Hbond>
0.6720

> <Gold.PLP.Chemscore.CHOScore>
0.0000

> <Gold.PLP.Chemscore.Metal>
0.0000

> <Gold.Chemscore.Hbonds>
donor molecule, donor type, donor heavy atom, donor atom, acceptor molecule, acceptor atom, score
      L1  H     9    28       P1  8028  0.80

> <Gold.PLP.Chemscore.Internal.Correction>
0.0657

> <Gold.Rescore>
     Score         DG    S(hbond)    S(metal)    S(lipo)     H(rot)  DE(clash)    DE(int)     intcor
     17.57     -19.05       0.66        0.00     131.57       1.57       0.02       1.46       ----

> <Gold.Chemscore.Fitness>
17.5672

> <Gold.Chemscore.DG>
-19.0526

> <Gold.Chemscore.ZeroCoef>
-5.4800

> <Gold.Chemscore.Hbond>
0.6582

> <Gold.Chemscore.Metal>
0.0000

> <Gold.Chemscore.Lipo>
131.5706

> <Gold.Chemscore.Internal_Hbond>
0.0000

> <Gold.Chemscore.DEClash>
0.0240

> <Gold.Chemscore.DEInternal>
1.4614

> <Gold.Chemscore.Rot>
1.5701

> <Gold.Chemscore.Internal.Correction>
   9.000000E+99

> <Gold.Chemscore.Hbonds>
donor molecule, donor type, donor heavy atom, donor atom, acceptor molecule, acceptor atom, score
      L1  H     9    28       P1  8028  0.80

> <Gold.Chemscore.Hbond.Weighted>
-2.1985

> <Gold.Chemscore.Metal.Weighted>
-0.0000

> <Gold.Chemscore.Lipo.Weighted>
-15.3938

> <Gold.Chemscore.Internal_Hbond.Weighted>
0.0000

> <Gold.Chemscore.DEClash.Weighted>
0.0240

> <Gold.Chemscore.DEInternal.Weighted>
1.4614

> <Gold.Chemscore.Rot.Weighted>
4.0196

> <Gold.Chemscore.Internal.Correction.Weighted>
   9.000000E+99

> <Gold.Protein.RotatedTorsions>
[ 6907 6896 6895 6894 ] final   86.90 input  -60.11 | X-H torsion
[ 7974 7965 7964 7962 ] final  -69.62 input  175.53 | X-H torsion
[ 8008 7997 7996 7995 ] final -176.50 input   59.86 | X-H torsion
[ 10167 10162 10161 10158 ] final  179.30 input  -65.29 | X-H torsion
[ 10718 10713 10712 10709 ] final  -52.10 input   66.30 | X-H torsion
[ 10763 10752 10751 10750 ] final -172.10 input  -60.55 | X-H torsion
[ 11005 11000 10999 10996 ] final   35.41 input  -57.11 | X-H torsion

> <Gold.Protein.ActiveResidues>
 VAL166  LYS551  ARG553  GLY616  TRP617  ASP618  TYR619  PRO620  LYS621  CYS622 
 ASP623  PHE694  ASN695  SER759  ASP760  ASP761  ALA762  ILE779  LEU786  VAL792 
 PHE793  MET794  SER795  GLU796  ALA797  LYS798  CYS799  TRP800  GLU811  SER814 

> <Gold.Protein.RotatedAtoms>
  152.5402  134.2359  159.8842 H   0  0  0  0  0  0  0  0  0  0  0  0  # atno 6907 bound_to 6896
  151.2329  133.4434  159.2612 H   0  0  0  0  0  0  0  0  0  0  0  0  # atno 6908 bound_to 6896
  151.0698  134.9805  159.8359 H   0  0  0  0  0  0  0  0  0  0  0  0  # atno 6909 bound_to 6896
  145.7015  140.9115  143.0729 H   0  0  0  0  0  0  0  0  0  0  0  0  # atno 7974 bound_to 7965
  155.9956  140.1210  157.0596 H   0  0  0  0  0  0  0  0  0  0  0  0  # atno 8008 bound_to 7997
  154.4225  140.1117  156.5695 H   0  0  0  0  0  0  0  0  0  0  0  0  # atno 8009 bound_to 7997
  155.6283  140.3473  155.4676 H   0  0  0  0  0  0  0  0  0  0  0  0  # atno 8010 bound_to 7997
  139.5330  144.2577  152.0732 H   0  0  0  0  0  0  0  0  0  0  0  0  # atno 10167 bound_to 10162
  156.1651  130.4149  149.9732 H   0  0  0  0  0  0  0  0  0  0  0  0  # atno 10718 bound_to 10713
  154.6231  135.2877  155.0303 H   0  0  0  0  0  0  0  0  0  0  0  0  # atno 10763 bound_to 10752
  154.1491  135.6506  153.4963 H   0  0  0  0  0  0  0  0  0  0  0  0  # atno 10764 bound_to 10752
  153.0245  135.5351  154.7029 H   0  0  0  0  0  0  0  0  0  0  0  0  # atno 10765 bound_to 10752
  140.2429  134.3393  155.7918 H   0  0  0  0  0  0  0  0  0  0  0  0  # atno 11005 bound_to 11000
  144.6967  139.8953  143.7455 LP  0  0  0  0  0  0  0  0  0  0  0  0  # atno 17320 bound_to 7965
  146.0794  139.3782  143.0474 LP  0  0  0  0  0  0  0  0  0  0  0  0  # atno 17321 bound_to 7965
  140.2044  144.4626  150.6416 LP  0  0  0  0  0  0  0  0  0  0  0  0  # atno 17342 bound_to 10162
  140.6521  143.2227  151.6054 LP  0  0  0  0  0  0  0  0  0  0  0  0  # atno 17343 bound_to 10162
  156.7550  130.9129  151.3639 LP  0  0  0  0  0  0  0  0  0  0  0  0  # atno 17370 bound_to 10713
  157.6762  130.9096  150.0155 LP  0  0  0  0  0  0  0  0  0  0  0  0  # atno 17371 bound_to 10713
  141.2209  133.7309  156.8915 LP  0  0  0  0  0  0  0  0  0  0  0  0  # atno 17394 bound_to 11000
  140.1635  134.9149  157.2744 LP  0  0  0  0  0  0  0  0  0  0  0  0  # atno 17395 bound_to 11000

$$$$
