AV-unprocessed.smi:204|AV-procd|sdf|1599|dock7
  -GOLD-   2262019503D 1   1.00000     0.00000
 Structure written by MMmdl.
 53 56  0  0  0  0  0  0  0  0  1 V2000
  150.0945  130.9675  154.3508 C   0  0  0  0  0  0  0  0  0  0  0  0
  148.5775  130.8314  154.2752 C   0  0  0  0  0  0  0  0  0  0  0  0
  147.9095  130.7732  155.3071 O   0  0  0  0  0  0  0  0  0  0  0  0
  148.0461  130.7823  153.0459 N   0  0  0  0  0  0  0  0  0  0  0  0
  146.6200  130.6598  152.7698 C   0  0  0  0  0  0  0  0  0  0  0  0
  146.0970  131.8462  151.9389 C   0  0  1  0  0  0  0  0  0  0  0  0
  144.7133  131.5706  151.3120 C   0  0  0  0  0  0  0  0  0  0  0  0
  144.2217  132.7955  150.5262 C   0  0  0  0  0  0  0  0  0  0  0  0
  144.2187  134.0534  151.4084 C   0  0  0  0  0  0  0  0  0  0  0  0
  145.5320  134.2607  152.0203 N   0  0  0  0  0  0  0  0  0  0  0  0
  145.7975  135.4815  152.5528 C   0  0  0  0  0  0  0  0  0  0  0  0
  145.1078  136.5724  152.1238 N   0  0  0  0  0  0  0  0  0  0  0  0
  145.3538  137.7769  152.6471 C   0  0  0  0  0  0  0  0  0  0  0  0
  146.2359  138.1119  153.5899 N   0  0  0  0  0  0  0  0  0  0  0  0
  146.9398  137.0257  154.0188 C   0  0  0  0  0  0  0  0  0  0  0  0
  146.7825  135.6864  153.5610 C   0  0  0  0  0  0  0  0  0  0  0  0
  147.6739  134.8531  154.2266 N   0  0  0  0  0  0  0  0  0  0  0  0
  148.3085  135.6502  155.0417 C   0  0  0  0  0  0  0  0  0  0  0  0
  147.9427  136.9757  154.9718 N   0  0  0  0  0  0  0  0  0  0  0  0
  148.4921  138.0707  155.7573 C   0  0  0  0  0  0  0  0  0  0  0  0
  149.3389  139.0704  154.9418 C   0  0  0  0  0  0  0  0  0  0  0  0
  148.4374  140.0234  154.1372 C   0  0  0  0  0  0  0  0  0  0  0  0
  149.1870  141.0567  153.5297 O   0  0  0  0  0  0  0  0  0  0  0  0
  150.4733  139.7711  155.7035 C   0  0  0  0  0  0  0  0  0  0  0  0
  151.4414  139.4235  154.6914 O   0  0  0  0  0  0  0  0  0  0  0  0
  150.5065  138.4673  154.1485 C   0  0  0  0  0  0  0  0  0  0  0  0
  146.0378  133.1272  152.7946 C   0  0  0  0  0  0  0  0  0  0  0  0
  150.4298  131.8312  153.7758 H   0  0  0  0  0  0  0  0  0  0  0  0
  150.5763  130.0755  153.9498 H   0  0  0  0  0  0  0  0  0  0  0  0
  150.4215  131.0982  155.3830 H   0  0  0  0  0  0  0  0  0  0  0  0
  148.6669  130.8332  152.2514 H   0  0  0  0  0  0  0  0  0  0  0  0
  146.4328  129.7213  152.2452 H   0  0  0  0  0  0  0  0  0  0  0  0
  146.0805  130.6078  153.7171 H   0  0  0  0  0  0  0  0  0  0  0  0
  146.8066  132.0234  151.1287 H   0  0  0  0  0  0  0  0  0  0  0  0
  144.7543  130.7078  150.6469 H   0  0  0  0  0  0  0  0  0  0  0  0
  143.9945  131.3263  152.0955 H   0  0  0  0  0  0  0  0  0  0  0  0
  144.8686  132.9583  149.6631 H   0  0  0  0  0  0  0  0  0  0  0  0
  143.2212  132.6126  150.1335 H   0  0  0  0  0  0  0  0  0  0  0  0
  143.9443  134.9183  150.8027 H   0  0  0  0  0  0  0  0  0  0  0  0
  143.4670  133.9555  152.1932 H   0  0  0  0  0  0  0  0  0  0  0  0
  144.7588  138.5880  152.2540 H   0  0  0  0  0  0  0  0  0  0  0  0
  149.0752  135.2927  155.7137 H   0  0  0  0  0  0  0  0  0  0  0  0
  147.6593  138.5832  156.2408 H   0  0  0  0  0  0  0  0  0  0  0  0
  149.0792  137.6440  156.5713 H   0  0  0  0  0  0  0  0  0  0  0  0
  147.8702  139.4931  153.3725 H   0  0  0  0  0  0  0  0  0  0  0  0
  147.6977  140.4896  154.7889 H   0  0  0  0  0  0  0  0  0  0  0  0
  149.4327  140.7784  152.6606 H   0  0  0  0  0  0  0  0  0  0  0  0
  150.3407  140.8484  155.8091 H   0  0  0  0  0  0  0  0  0  0  0  0
  150.7204  139.3135  156.6619 H   0  0  0  0  0  0  0  0  0  0  0  0
  150.7589  137.4457  154.4377 H   0  0  0  0  0  0  0  0  0  0  0  0
  150.4012  138.5499  153.0661 H   0  0  0  0  0  0  0  0  0  0  0  0
  145.3796  132.9726  153.6508 H   0  0  0  0  0  0  0  0  0  0  0  0
  147.0271  133.3341  153.2010 H   0  0  0  0  0  0  0  0  0  0  0  0
  1  2  1  0  0  0  0
  1 28  1  0  0  0  0
  1 29  1  0  0  0  0
  1 30  1  0  0  0  0
  2  3  2  0  0  0  0
  2  4  1  0  0  0  0
  4  5  1  0  0  0  0
  4 31  1  0  0  0  0
  5  6  1  0  0  0  0
  5 32  1  0  0  0  0
  5 33  1  0  0  0  0
  6 27  1  0  0  0  0
  6  7  1  0  0  0  0
  6 34  1  0  0  0  0
  7  8  1  0  0  0  0
  7 35  1  0  0  0  0
  7 36  1  0  0  0  0
  8  9  1  0  0  0  0
  8 37  1  0  0  0  0
  8 38  1  0  0  0  0
  9 10  1  0  0  0  0
  9 39  1  0  0  0  0
  9 40  1  0  0  0  0
 10 11  1  0  0  0  0
 10 27  1  0  0  0  0
 11 16  1  0  0  0  0
 11 12  2  0  0  0  0
 12 13  1  0  0  0  0
 13 14  2  0  0  0  0
 13 41  1  0  0  0  0
 14 15  1  0  0  0  0
 15 19  1  0  0  0  0
 15 16  2  0  0  0  0
 16 17  1  0  0  0  0
 17 18  2  0  0  0  0
 18 19  1  0  0  0  0
 18 42  1  0  0  0  0
 19 20  1  0  0  0  0
 20 21  1  0  0  0  0
 20 43  1  0  0  0  0
 20 44  1  0  0  0  0
 21 26  1  0  0  0  0
 21 22  1  0  0  0  0
 21 24  1  0  0  0  0
 22 23  1  0  0  0  0
 22 45  1  0  0  0  0
 22 46  1  0  0  0  0
 23 47  1  0  0  0  0
 24 25  1  0  0  0  0
 24 48  1  0  0  0  0
 24 49  1  0  0  0  0
 25 26  1  0  0  0  0
 26 50  1  0  0  0  0
 26 51  1  0  0  0  0
 27 52  1  0  0  0  0
 27 53  1  0  0  0  0
M  END
> <s_m_source_file>
AV-unprocessed.smi

> <i_m_source_file_index>
204

> <i_lp_mmshare_version>
43012

> <i_f3d_flags>
0

> <s_epik_input>
W0NIM11DKD1PKVtOSF1bQ0gyXVtDQEBIXTFbQ0gyXVtDSDJdW0NIMl1OKFtDSDJdMSljKG5bY0hdbjIpYyhjMjMpbltjSF1uM1tDSDJdQzQoW0NIMl1bT0hdKVtDSDJdT1tDSDJdNA==

> <s_epik_cmdline>
J2VwaWtfcHl0aG9uJywgJy1waCcsICc3LjAnLCAnLXRuJywgJzgnLCAnLW1hJywgJzIwMCcsICctbWV0YWxfYmluZGluZycsICctaW1hZScsICc8aW5maWxlLm1hZT4nLCAnLW9tYWUnLCAnPG91dGZpbGUubWFlPic=

> <r_lp_tautomer_probability>
1

> <r_epik_Ionization_Penalty>
0.00166599

> <r_epik_Ionization_Penalty_Charging>
0

> <r_epik_Ionization_Penalty_Neutral>
0.00166599

> <r_epik_State_Penalty>
0.000989951

> <r_epik_Charging_Adjusted_Penalty>
0.000989951

> <i_epik_Tot_Q>
0

> <i_epik_Tot_abs_Q>
0

> <r_epik_Metal_State_Penalty>
-0

> <b_epik_Metal_Only>
0

> <s_lp_Force_Field>
OPLS_2005

> <r_lp_Energy>
35.563

> <b_lp_Chiralities_Consistent>
1

> <s_lp_Variant>
AV-unprocessed.smi:204-2

> <Gold.Version>
5.8.1

> <Gold.Id.Protein>
6NUR|6NUR_protein|mol2

> <Gold.PLP.Fitness>
45.8171

> <Gold.PLP.PLP>
-32.5349

> <Gold.PLP.part.hbond>
-5.0000

> <Gold.PLP.part.metal>
0.0000

> <Gold.PLP.part.buried>
-1.2433

> <Gold.PLP.part.nonpolar>
-26.4062

> <Gold.PLP.part.repulsive>
1.3198

> <Gold.PLP.ligand.clash>
0.0000

> <Gold.PLP.ligand.torsion>
1.1221

> <Gold.PLP.Chemscore.Hbond>
3.0000

> <Gold.PLP.Chemscore.CHOScore>
1.9078

> <Gold.PLP.Chemscore.Metal>
0.0000

> <Gold.Chemscore.Hbonds>
donor molecule, donor type, donor heavy atom, donor atom, acceptor molecule, acceptor atom, score
      L1  H     4    31       P1 10747  1.00
      L1  H    23    47       P1  7957  1.00
      P1  H  7989  7998       L1    25  1.00
      L1  C    13    41       P1 10171  0.73
      L1  C    13    41       P1 10175  1.00

> <Gold.PLP.Chemscore.Internal.Correction>
0.8030

> <Gold.Rescore>
     Score         DG    S(hbond)    S(metal)    S(lipo)     H(rot)  DE(clash)    DE(int)     intcor
     10.53     -14.93       2.85        0.00      72.13       3.33       0.59       3.80       ----

> <Gold.Chemscore.Fitness>
10.5348

> <Gold.Chemscore.DG>
-14.9259

> <Gold.Chemscore.ZeroCoef>
-5.4800

> <Gold.Chemscore.Hbond>
2.8509

> <Gold.Chemscore.Metal>
0.0000

> <Gold.Chemscore.Lipo>
72.1257

> <Gold.Chemscore.Internal_Hbond>
0.0000

> <Gold.Chemscore.DEClash>
0.5938

> <Gold.Chemscore.DEInternal>
3.7972

> <Gold.Chemscore.Rot>
3.3261

> <Gold.Chemscore.Internal.Correction>
   9.000000E+99

> <Gold.Chemscore.Hbonds>
donor molecule, donor type, donor heavy atom, donor atom, acceptor molecule, acceptor atom, score
      L1  H     4    31       P1 10747  0.74
      L1  H    23    47       P1  7957  1.00
      P1  H  7989  7998       L1    25  0.55

> <Gold.Chemscore.Hbond.Weighted>
-9.5220

> <Gold.Chemscore.Metal.Weighted>
-0.0000

> <Gold.Chemscore.Lipo.Weighted>
-8.4387

> <Gold.Chemscore.Internal_Hbond.Weighted>
0.0000

> <Gold.Chemscore.DEClash.Weighted>
0.5938

> <Gold.Chemscore.DEInternal.Weighted>
3.7972

> <Gold.Chemscore.Rot.Weighted>
8.5149

> <Gold.Chemscore.Internal.Correction.Weighted>
   9.000000E+99

> <Gold.Protein.RotatedTorsions>
[ 6907 6896 6895 6894 ] final   64.78 input  -60.11 | X-H torsion
[ 7974 7965 7964 7962 ] final   92.34 input  175.53 | X-H torsion
[ 8008 7997 7996 7995 ] final -179.35 input   59.86 | X-H torsion
[ 10167 10162 10161 10158 ] final  157.45 input  -65.29 | X-H torsion
[ 10718 10713 10712 10709 ] final  -46.98 input   66.30 | X-H torsion
[ 10763 10752 10751 10750 ] final  144.96 input  -60.55 | X-H torsion
[ 11005 11000 10999 10996 ] final  105.26 input  -57.11 | X-H torsion

> <Gold.Protein.ActiveResidues>
 VAL166  LYS551  ARG553  GLY616  TRP617  ASP618  TYR619  PRO620  LYS621  CYS622 
 ASP623  PHE694  ASN695  SER759  ASP760  ASP761  ALA762  ILE779  LEU786  VAL792 
 PHE793  MET794  SER795  GLU796  ALA797  LYS798  CYS799  TRP800  GLU811  SER814 

> <Gold.Protein.RotatedAtoms>
  152.4358  134.5690  159.9915 H   0  0  0  0  0  0  0  0  0  0  0  0  # atno 6907 bound_to 6896
  151.5801  133.3373  159.3014 H   0  0  0  0  0  0  0  0  0  0  0  0  # atno 6908 bound_to 6896
  150.8256  134.7520  159.6874 H   0  0  0  0  0  0  0  0  0  0  0  0  # atno 6909 bound_to 6896
  145.4936  139.2276  143.2816 H   0  0  0  0  0  0  0  0  0  0  0  0  # atno 7974 bound_to 7965
  156.0295  140.1279  157.0273 H   0  0  0  0  0  0  0  0  0  0  0  0  # atno 8008 bound_to 7997
  154.4344  140.1052  156.6149 H   0  0  0  0  0  0  0  0  0  0  0  0  # atno 8009 bound_to 7997
  155.5828  140.3468  155.4547 H   0  0  0  0  0  0  0  0  0  0  0  0  # atno 8010 bound_to 7997
  139.4823  144.4917  151.8299 H   0  0  0  0  0  0  0  0  0  0  0  0  # atno 10167 bound_to 10162
  156.2130  130.4161  149.9091 H   0  0  0  0  0  0  0  0  0  0  0  0  # atno 10718 bound_to 10713
  153.9975  135.2926  155.3406 H   0  0  0  0  0  0  0  0  0  0  0  0  # atno 10763 bound_to 10752
  154.7179  135.5122  153.8769 H   0  0  0  0  0  0  0  0  0  0  0  0  # atno 10764 bound_to 10752
  153.0781  135.6670  154.0220 H   0  0  0  0  0  0  0  0  0  0  0  0  # atno 10765 bound_to 10752
  139.8800  134.9330  156.5487 H   0  0  0  0  0  0  0  0  0  0  0  0  # atno 11005 bound_to 11000
  146.2269  140.5732  142.8992 LP  0  0  0  0  0  0  0  0  0  0  0  0  # atno 17320 bound_to 7965
  144.7819  140.5858  143.6599 LP  0  0  0  0  0  0  0  0  0  0  0  0  # atno 17321 bound_to 7965
  140.4401  144.1998  150.5891 LP  0  0  0  0  0  0  0  0  0  0  0  0  # atno 17342 bound_to 10162
  140.4691  143.2419  151.9113 LP  0  0  0  0  0  0  0  0  0  0  0  0  # atno 17343 bound_to 10162
  156.6763  130.8840  151.3569 LP  0  0  0  0  0  0  0  0  0  0  0  0  # atno 17370 bound_to 10713
  157.7048  130.9373  150.0897 LP  0  0  0  0  0  0  0  0  0  0  0  0  # atno 17371 bound_to 10713
  140.8256  133.8319  155.8936 LP  0  0  0  0  0  0  0  0  0  0  0  0  # atno 17394 bound_to 11000
  140.9377  134.1940  157.4819 LP  0  0  0  0  0  0  0  0  0  0  0  0  # atno 17395 bound_to 11000

$$$$
