#       Name:                AV-unprocessed.smi:199
#       Creating user name   scv26
#       Creation time:       Thu Mar 26 19:44:48 2020


#       File generated by GOLD software.
#

@<TRIPOS>MOLECULE
AV-unprocessed.smi:199
    61    65     1
SMALL
NO_CHARGES


@<TRIPOS>ATOM
      1 ****        -2.2432   3.1737   1.3247 C.3            1 S1                 0.0000
      2 ****        -3.4065   2.1701   1.3774 C.3            1 S1                 0.0000
      3 ****        -4.5122   2.7224   2.0769 O.3            1 S1                 0.0000
      4 ****        -5.6423   1.9323   1.7552 C.3            1 S1                 0.0000
      5 ****        -5.5019   1.7397   0.2499 C.3            1 S1                 0.0000
      6 ****        -3.9878   1.6886   0.0214 C.3            1 S1                 0.0000
      7 ****        -3.6719   2.5831  -1.0330 O.3            1 S1                 0.0000
      8 ****        -3.5058   0.2734  -0.3836 C.3            1 S1                 0.0000
      9 ****        -2.0579   0.1581  -0.4744 N.pl3          1 S1                 0.0000
     10 ****        -1.2612   0.5738  -1.5164 C.2            1 S1                 0.0000
     11 ****         0.0169   0.3714  -1.3534 N.2            1 S1                 0.0000
     12 ****         0.1134  -0.2472  -0.1121 C.ar           1 S1                 0.0000
     13 ****         1.1943  -0.7351   0.6789 C.ar           1 S1                 0.0000
     14 ****         2.5000  -0.6711   0.2988 N.3            1 S1                 0.0000
     15 ****         3.5095  -1.5065   0.9370 C.3            1 S1                 0.0000
     16 ****         3.2568  -2.9136   0.3559 C.3            1 S1                 0.0000
     17 ****         2.7804  -2.5688  -1.0628 C.3            1 S1                 0.0000
     18 ****         2.8929  -1.0284  -1.0563 C.3            1 S1                 0.0000
     19 ****         4.3667  -0.5594  -1.0738 C.3            1 S1                 0.0000
     20 ****         5.2647  -1.0850  -2.2094 C.3            1 S1                 0.0000
     21 ****         4.7561  -0.6813  -3.4629 O.3            1 S1                 0.0000
     22 ****         4.8189  -0.9576   0.3431 C.3            1 S1                 0.0000
     23 ****         0.8859  -1.2637   1.8933 N.ar           1 S1                 0.0000
     24 ****        -0.3845  -1.3400   2.2978 C.ar           1 S1                 0.0000
     25 ****        -1.4869  -0.9418   1.6622 N.ar           1 S1                 0.0000
     26 ****        -1.1870  -0.3886   0.4526 C.ar           1 S1                 0.0000
     27 ****        -1.3943   2.7650   0.7761 H              1 S1                 0.0000
     28 ****        -1.8992   3.4173   2.3297 H              1 S1                 0.0000
     29 ****        -2.5394   4.1066   0.8447 H              1 S1                 0.0000
     30 ****        -3.0887   1.3051   1.9603 H              1 S1                 0.0000
     31 ****        -5.5873   0.9775   2.2808 H              1 S1                 0.0000
     32 ****        -6.5733   2.4270   2.0322 H              1 S1                 0.0000
     33 ****        -6.0264   0.8507  -0.1024 H              1 S1                 0.0000
     34 ****        -5.9461   2.5991  -0.2553 H              1 S1                 0.0000
     35 ****        -4.1309   2.3045  -1.8105 H              1 S1                 0.0000
     36 ****        -3.8627  -0.4621   0.3386 H              1 S1                 0.0000
     37 ****        -3.9325  -0.0149  -1.3453 H              1 S1                 0.0000
     38 ****        -1.6587   1.0455  -2.4031 H              1 S1                 0.0000
     39 ****         3.5050  -1.4811   2.0274 H              1 S1                 0.0000
     40 ****         4.1504  -3.5386   0.3623 H              1 S1                 0.0000
     41 ****         2.4755  -3.4382   0.9070 H              1 S1                 0.0000
     42 ****         3.3629  -3.0531  -1.8448 H              1 S1                 0.0000
     43 ****         1.7418  -2.8745  -1.1969 H              1 S1                 0.0000
     44 ****         2.3129  -0.5583  -1.8482 H              1 S1                 0.0000
     45 ****         4.3654   0.5310  -1.1306 H              1 S1                 0.0000
     46 ****         6.2708  -0.6791  -2.1012 H              1 S1                 0.0000
     47 ****         5.3647  -2.1695  -2.1855 H              1 S1                 0.0000
     48 ****         5.3356  -0.9982  -4.1387 H              1 S1                 0.0000
     49 ****         5.1624  -0.0811   0.8940 H              1 S1                 0.0000
     50 ****         5.6217  -1.6960   0.3524 H              1 S1                 0.0000
     51 ****        -0.5391  -1.7818   3.2710 H              1 S1                 0.0000
     52 ****        -4.6619   3.6686   1.7903 LP             1 S1                 0.0000
     53 ****        -4.3434   2.6953   3.0622 LP             1 S1                 0.0000
     54 ****        -2.6861   2.5717  -1.2010 LP             1 S1                 0.0000
     55 ****        -3.9573   3.5092  -0.7865 LP             1 S1                 0.0000
     56 ****         0.7597   0.6078  -1.9798 LP             1 S1                 0.0000
     57 ****         2.4961   0.2996   0.5387 LP             1 S1                 0.0000
     58 ****         4.7074   0.3167  -3.5014 LP             1 S1                 0.0000
     59 ****         3.8422  -1.0650  -3.5953 LP             1 S1                 0.0000
     60 ****         1.6167  -1.5981   2.4884 LP             1 S1                 0.0000
     61 ****        -2.4137  -1.0366   2.0256 LP             1 S1                 0.0000
@<TRIPOS>BOND
    1    1    2 1     
    2    1   27 1     
    3    1   28 1     
    4    1   29 1     
    5    2    6 1     
    6    2    3 1     
    7    2   30 1     
    8    3    4 1     
    9    4    5 1     
   10    4   31 1     
   11    4   32 1     
   12    5    6 1     
   13    5   33 1     
   14    5   34 1     
   15    6    7 1     
   16    6    8 1     
   17    7   35 1     
   18    8    9 1     
   19    8   36 1     
   20    8   37 1     
   21    9   26 1     
   22    9   10 1     
   23   10   11 2     
   24   10   38 1     
   25   11   12 1     
   26   12   26 ar    
   27   12   13 ar    
   28   13   14 1     
   29   13   23 ar    
   30   14   18 1     
   31   14   15 1     
   32   15   22 1     
   33   15   16 1     
   34   15   39 1     
   35   16   17 1     
   36   16   40 1     
   37   16   41 1     
   38   17   18 1     
   39   17   42 1     
   40   17   43 1     
   41   18   19 1     
   42   18   44 1     
   43   19   20 1     
   44   19   22 1     
   45   19   45 1     
   46   20   21 1     
   47   20   46 1     
   48   20   47 1     
   49   21   48 1     
   50   22   49 1     
   51   22   50 1     
   52   23   24 ar    
   53   24   25 ar    
   54   24   51 1     
   55   25   26 ar    
   56    3   52 1     
   57    3   53 1     
   58    7   54 1     
   59    7   55 1     
   60   11   56 1     
   61   14   57 1     
   62   21   58 1     
   63   21   59 1     
   64   23   60 1     
   65   25   61 1     
@<TRIPOS>SUBSTRUCTURE
      1 S1             1
@<TRIPOS>SET
LONE_PAIRS      STATIC     ATOMS    <user>   **** ""
10 52 53 54 55 56 57 58 59 60 61
DONOR_HYDROGENS      STATIC     ATOMS    <user>   **** ""
2 35 48
ATOM$BLUE        STATIC     ATOMS    COLORGROUP SYSTEM
10 52 53 54 55 56 57 58 59 60 61
ATOM$RED        STATIC     ATOMS    COLORGROUP SYSTEM
2 35 48
