AV-unprocessed.smi:2640|AV-procd|sdf|10270|dock1
  -GOLD-   2272014283D 1   1.00000     0.00000
 Structure written by MMmdl.
 41 42  0  0  0  0  0  0  0  0  1 V2000
  146.3733  138.7218  154.1497 O   0  0  0  0  0  0  0  0  0  0  0  0
  147.1180  138.8306  153.1761 C   0  0  0  0  0  0  0  0  0  0  0  0
  146.5737  138.6021  151.7681 C   0  0  0  0  0  0  0  0  0  0  0  0
  145.3664  137.7722  151.7892 N   0  0  0  0  0  0  0  0  0  0  0  0
  145.6957  136.3776  151.5324 C   0  0  0  0  0  0  0  0  0  0  0  0
  144.4887  135.6449  150.9226 C   0  0  0  0  0  0  0  0  0  0  0  0
  144.8358  134.3220  150.4341 N   0  0  0  0  0  0  0  0  0  0  0  0
  144.0209  133.3978  149.8146 C   0  0  0  0  0  0  0  0  0  0  0  0
  144.7850  132.2990  149.5441 C   0  0  0  0  0  0  0  0  0  0  0  0
  146.0714  132.6517  150.0400 C   0  0  0  0  0  0  0  0  0  0  0  0
  146.0986  133.8629  150.5718 N   0  0  0  0  0  0  0  0  0  0  0  0
  148.4198  139.1479  153.2697 N   0  0  0  0  0  0  0  0  0  0  0  0
  149.1507  139.3802  154.5173 C   0  0  2  0  0  0  0  0  0  0  0  0
  149.4751  140.8897  154.5936 C   0  0  0  0  0  0  0  0  0  0  0  0
  149.7445  141.3938  156.0220 C   0  0  0  0  0  0  0  0  0  0  0  0
  150.9999  140.8114  156.6888 C   0  0  0  0  0  0  0  0  0  0  0  0
  150.9443  139.2872  156.8880 C   0  0  0  0  0  0  0  0  0  0  0  0
  151.2114  138.5623  155.6526 N   0  0  0  0  0  0  0  0  0  0  0  0
  150.4710  138.5742  154.5336 C   0  0  0  0  0  0  0  0  0  0  0  0
  150.8431  137.9548  153.5369 O   0  0  0  0  0  0  0  0  0  0  0  0
  146.3519  139.5658  151.3066 H   0  0  0  0  0  0  0  0  0  0  0  0
  147.3454  138.1226  151.1638 H   0  0  0  0  0  0  0  0  0  0  0  0
  144.6940  138.0845  151.1024 H   0  0  0  0  0  0  0  0  0  0  0  0
  146.5529  136.3084  150.8605 H   0  0  0  0  0  0  0  0  0  0  0  0
  145.9798  135.8967  152.4692 H   0  0  0  0  0  0  0  0  0  0  0  0
  143.7104  135.5288  151.6777 H   0  0  0  0  0  0  0  0  0  0  0  0
  144.0494  136.2289  150.1121 H   0  0  0  0  0  0  0  0  0  0  0  0
  142.9765  133.5963  149.6236 H   0  0  0  0  0  0  0  0  0  0  0  0
  144.4729  131.3828  149.0655 H   0  0  0  0  0  0  0  0  0  0  0  0
  146.9799  132.0678  150.0295 H   0  0  0  0  0  0  0  0  0  0  0  0
  148.9533  139.1996  152.4142 H   0  0  0  0  0  0  0  0  0  0  0  0
  148.5224  139.0879  155.3606 H   0  0  0  0  0  0  0  0  0  0  0  0
  150.3104  141.1450  153.9388 H   0  0  0  0  0  0  0  0  0  0  0  0
  148.6233  141.4556  154.2124 H   0  0  0  0  0  0  0  0  0  0  0  0
  149.8407  142.4796  155.9943 H   0  0  0  0  0  0  0  0  0  0  0  0
  148.8742  141.1903  156.6475 H   0  0  0  0  0  0  0  0  0  0  0  0
  151.8899  141.0849  156.1202 H   0  0  0  0  0  0  0  0  0  0  0  0
  151.1136  141.2832  157.6653 H   0  0  0  0  0  0  0  0  0  0  0  0
  151.7112  138.9919  157.6042 H   0  0  0  0  0  0  0  0  0  0  0  0
  149.9897  138.9775  157.3160 H   0  0  0  0  0  0  0  0  0  0  0  0
  152.0610  138.0168  155.6322 H   0  0  0  0  0  0  0  0  0  0  0  0
  1  2  2  0  0  0  0
  2  3  1  0  0  0  0
  2 12  1  0  0  0  0
  3  4  1  0  0  0  0
  3 21  1  0  0  0  0
  3 22  1  0  0  0  0
  4  5  1  0  0  0  0
  4 23  1  0  0  0  0
  5  6  1  0  0  0  0
  5 24  1  0  0  0  0
  5 25  1  0  0  0  0
  6  7  1  0  0  0  0
  6 26  1  0  0  0  0
  6 27  1  0  0  0  0
  7 11  1  0  0  0  0
  7  8  1  0  0  0  0
  8  9  2  0  0  0  0
  8 28  1  0  0  0  0
  9 10  1  0  0  0  0
  9 29  1  0  0  0  0
 10 11  2  0  0  0  0
 10 30  1  0  0  0  0
 12 13  1  0  0  0  0
 12 31  1  0  0  0  0
 13 19  1  0  0  0  0
 13 14  1  0  0  0  0
 13 32  1  0  0  0  0
 14 15  1  0  0  0  0
 14 33  1  0  0  0  0
 14 34  1  0  0  0  0
 15 16  1  0  0  0  0
 15 35  1  0  0  0  0
 15 36  1  0  0  0  0
 16 17  1  0  0  0  0
 16 37  1  0  0  0  0
 16 38  1  0  0  0  0
 17 18  1  0  0  0  0
 17 39  1  0  0  0  0
 17 40  1  0  0  0  0
 18 19  1  0  0  0  0
 18 41  1  0  0  0  0
 19 20  2  0  0  0  0
M  END
> <s_m_source_file>
AV-unprocessed.smi

> <i_m_source_file_index>
2640

> <i_lp_mmshare_version>
43012

> <i_f3d_flags>
0

> <s_epik_input>
Tz1DMVtOSF1bQ0gyXVtDSDJdW0NIMl1bQ0gyXVtDQEhdMVtOSF1DKD1PKVtDSDJdW05IXVtDSDJdW0NIMl1uMltjSF1bY0hdW2NIXW4y

> <s_epik_cmdline>
J2VwaWtfcHl0aG9uJywgJy1waCcsICc3LjAnLCAnLXRuJywgJzgnLCAnLW1hJywgJzIwMCcsICctbWV0YWxfYmluZGluZycsICctaW1hZScsICc8aW5maWxlLm1hZT4nLCAnLW9tYWUnLCAnPG91dGZpbGUubWFlPic=

> <r_lp_tautomer_probability>
1

> <r_epik_Ionization_Penalty>
0.641667

> <r_epik_Ionization_Penalty_Charging>
0

> <r_epik_Ionization_Penalty_Neutral>
0.641667

> <r_epik_State_Penalty>
0.657743

> <r_epik_Charging_Adjusted_Penalty>
0.657743

> <i_epik_Tot_Q>
0

> <i_epik_Tot_abs_Q>
0

> <r_epik_Metal_State_Penalty>
0.656014

> <b_epik_Metal_Only>
0

> <s_lp_Force_Field>
OPLS_2005

> <r_lp_Energy>
11.9791

> <b_lp_Chiralities_Consistent>
1

> <s_lp_Variant>
AV-unprocessed.smi:2640-3

> <Gold.Version>
5.8.1

> <Gold.Id.Protein>
6NUR|6NUR_protein|mol2

> <Gold.PLP.Fitness>
47.8146

> <Gold.PLP.PLP>
-37.4573

> <Gold.PLP.part.hbond>
-2.3555

> <Gold.PLP.part.metal>
0.0000

> <Gold.PLP.part.buried>
-4.5531

> <Gold.PLP.part.nonpolar>
-33.3676

> <Gold.PLP.part.repulsive>
0.7503

> <Gold.PLP.ligand.clash>
0.0000

> <Gold.PLP.ligand.torsion>
0.8535

> <Gold.PLP.Chemscore.Hbond>
2.0000

> <Gold.PLP.Chemscore.CHOScore>
2.0000

> <Gold.PLP.Chemscore.Metal>
0.0000

> <Gold.Chemscore.Hbonds>
donor molecule, donor type, donor heavy atom, donor atom, acceptor molecule, acceptor atom, score
      L1  H     4    23       P1 10171  1.00
      L1  H    12    31       P1  7957  1.00
      L1  C     8    28       P1 10186  1.00
      L1  C    10    30       P1 10747  1.00

> <Gold.PLP.Chemscore.Internal.Correction>
0.0643

> <Gold.Rescore>
     Score         DG    S(hbond)    S(metal)    S(lipo)     H(rot)  DE(clash)    DE(int)     intcor
     14.42     -15.67       1.98        0.00      82.55       2.37       0.34       0.91       ----

> <Gold.Chemscore.Fitness>
14.4188

> <Gold.Chemscore.DG>
-15.6698

> <Gold.Chemscore.ZeroCoef>
-5.4800

> <Gold.Chemscore.Hbond>
1.9781

> <Gold.Chemscore.Metal>
0.0000

> <Gold.Chemscore.Lipo>
82.5506

> <Gold.Chemscore.Internal_Hbond>
0.0000

> <Gold.Chemscore.DEClash>
0.3427

> <Gold.Chemscore.DEInternal>
0.9083

> <Gold.Chemscore.Rot>
2.3732

> <Gold.Chemscore.Internal.Correction>
   9.000000E+99

> <Gold.Chemscore.Hbonds>
donor molecule, donor type, donor heavy atom, donor atom, acceptor molecule, acceptor atom, score
      L1  H     4    23       P1 10171  0.99
      L1  H    12    31       P1  7957  0.96

> <Gold.Chemscore.Hbond.Weighted>
-6.6067

> <Gold.Chemscore.Metal.Weighted>
-0.0000

> <Gold.Chemscore.Lipo.Weighted>
-9.6584

> <Gold.Chemscore.Internal_Hbond.Weighted>
0.0000

> <Gold.Chemscore.DEClash.Weighted>
0.3427

> <Gold.Chemscore.DEInternal.Weighted>
0.9083

> <Gold.Chemscore.Rot.Weighted>
6.0753

> <Gold.Chemscore.Internal.Correction.Weighted>
   9.000000E+99

> <Gold.Protein.RotatedTorsions>
[ 6907 6896 6895 6894 ] final   80.83 input  -60.11 | X-H torsion
[ 7974 7965 7964 7962 ] final  122.72 input  175.53 | X-H torsion
[ 8008 7997 7996 7995 ] final   89.81 input   59.86 | X-H torsion
[ 10167 10162 10161 10158 ] final  -70.26 input  -65.29 | X-H torsion
[ 10718 10713 10712 10709 ] final -160.77 input   66.30 | X-H torsion
[ 10763 10752 10751 10750 ] final -177.95 input  -60.55 | X-H torsion
[ 11005 11000 10999 10996 ] final  -32.29 input  -57.11 | X-H torsion

> <Gold.Protein.ActiveResidues>
 VAL166  LYS551  ARG553  GLY616  TRP617  ASP618  TYR619  PRO620  LYS621  CYS622 
 ASP623  PHE694  ASN695  SER759  ASP760  ASP761  ALA762  ILE779  LEU786  VAL792 
 PHE793  MET794  SER795  GLU796  ALA797  LYS798  CYS799  TRP800  GLU811  SER814 

> <Gold.Protein.RotatedAtoms>
  152.5248  134.3297  159.9177 H   0  0  0  0  0  0  0  0  0  0  0  0  # atno 6907 bound_to 6896
  151.3246  133.4019  159.2665 H   0  0  0  0  0  0  0  0  0  0  0  0  # atno 6908 bound_to 6896
  150.9931  134.9278  159.7968 H   0  0  0  0  0  0  0  0  0  0  0  0  # atno 6909 bound_to 6896
  145.1043  139.3497  143.4796 H   0  0  0  0  0  0  0  0  0  0  0  0  # atno 7974 bound_to 7965
  156.0045  140.3356  155.6878 H   0  0  0  0  0  0  0  0  0  0  0  0  # atno 8008 bound_to 7997
  155.6244  140.0678  157.2686 H   0  0  0  0  0  0  0  0  0  0  0  0  # atno 8009 bound_to 7997
  154.4260  140.1771  156.1394 H   0  0  0  0  0  0  0  0  0  0  0  0  # atno 8010 bound_to 7997
  140.5366  143.2317  151.7166 H   0  0  0  0  0  0  0  0  0  0  0  0  # atno 10167 bound_to 10162
  156.5869  130.8753  151.2879 H   0  0  0  0  0  0  0  0  0  0  0  0  # atno 10718 bound_to 10713
  154.5538  135.2815  155.0984 H   0  0  0  0  0  0  0  0  0  0  0  0  # atno 10763 bound_to 10752
  154.2419  135.6355  153.5214 H   0  0  0  0  0  0  0  0  0  0  0  0  # atno 10764 bound_to 10752
  153.0010  135.5562  154.6112 H   0  0  0  0  0  0  0  0  0  0  0  0  # atno 10765 bound_to 10752
  140.9540  133.7204  156.1264 H   0  0  0  0  0  0  0  0  0  0  0  0  # atno 11005 bound_to 11000
  146.3529  140.0934  142.8611 LP  0  0  0  0  0  0  0  0  0  0  0  0  # atno 17320 bound_to 7965
  145.0920  140.9290  143.4763 LP  0  0  0  0  0  0  0  0  0  0  0  0  # atno 17321 bound_to 7965
  139.4973  144.4033  152.0158 LP  0  0  0  0  0  0  0  0  0  0  0  0  # atno 17342 bound_to 10162
  140.3139  144.3506  150.6026 LP  0  0  0  0  0  0  0  0  0  0  0  0  # atno 17343 bound_to 10162
  157.7313  130.9698  150.1874 LP  0  0  0  0  0  0  0  0  0  0  0  0  # atno 17370 bound_to 10713
  156.2583  130.3708  149.8157 LP  0  0  0  0  0  0  0  0  0  0  0  0  # atno 17371 bound_to 10713
  140.7562  134.3990  157.5533 LP  0  0  0  0  0  0  0  0  0  0  0  0  # atno 17394 bound_to 11000
  139.8856  134.8932  156.2632 LP  0  0  0  0  0  0  0  0  0  0  0  0  # atno 17395 bound_to 11000

$$$$
