AV-unprocessed.smi:1748|AV-procd|sdf|7037|dock9
  -GOLD-   22720 8253D 1   1.00000     0.00000
 Structure written by MMmdl.
 40 41  0  0  0  0  0  0  0  0  2 V2000
  145.6989  130.8657  151.2919 C   0  0  0  0  0  0  0  0  0  0  0  0
  145.0947  132.0516  151.9353 N   0  3  2  0  0  0  0  0  0  0  0  0
  144.1204  132.7409  151.0523 C   0  0  0  0  0  0  0  0  0  0  0  0
  143.4157  133.8895  151.7947 C   0  0  0  0  0  0  0  0  0  0  0  0
  144.4330  134.8723  152.3996 C   0  0  0  0  0  0  0  0  0  0  0  0
  145.4627  134.1338  153.2742 C   0  0  1  0  0  0  0  0  0  0  0  0
  144.8186  133.6415  154.4923 N   0  0  0  0  0  0  0  0  0  0  0  0
  145.2532  133.8573  155.7420 C   0  0  0  0  0  0  0  0  0  0  0  0
  146.2790  134.4868  155.9974 O   0  0  0  0  0  0  0  0  0  0  0  0
  144.4341  133.2808  156.6405 N   0  0  0  0  0  0  0  0  0  0  0  0
  144.5097  133.2762  158.0438 C   0  0  0  0  0  0  0  0  0  0  0  0
  145.6010  133.6387  158.7679 C   0  0  0  0  0  0  0  0  0  0  0  0
  145.6031  133.6224  160.2212 C   0  0  0  0  0  0  0  0  0  0  0  0
  146.8561  133.9522  161.0176 C   0  0  0  0  0  0  0  0  0  0  0  0
  147.2690  132.8724  161.6796 F   0  0  0  0  0  0  0  0  0  0  0  0
  147.8465  134.3552  160.2202 F   0  0  0  0  0  0  0  0  0  0  0  0
  146.6157  134.9162  161.9061 F   0  0  0  0  0  0  0  0  0  0  0  0
  144.4659  133.2209  160.8186 C   0  0  0  0  0  0  0  0  0  0  0  0
  143.3332  132.8669  160.0824 N   0  0  0  0  0  0  0  0  0  0  0  0
  143.2742  132.8664  158.7320 C   0  0  0  0  0  0  0  0  0  0  0  0
  142.2382  132.5372  158.1550 O   0  0  0  0  0  0  0  0  0  0  0  0
  146.1156  132.9897  152.4661 C   0  0  0  0  0  0  0  0  0  0  0  0
  142.5139  132.5920  160.6051 H   0  0  0  0  0  0  0  0  0  0  0  0
  146.2849  131.1509  150.4172 H   0  0  0  0  0  0  0  0  0  0  0  0
  144.9267  130.1647  150.9736 H   0  0  0  0  0  0  0  0  0  0  0  0
  146.3550  130.3424  151.9883 H   0  0  0  0  0  0  0  0  0  0  0  0
  144.6352  133.1248  150.1701 H   0  0  0  0  0  0  0  0  0  0  0  0
  143.3763  132.0257  150.6991 H   0  0  0  0  0  0  0  0  0  0  0  0
  142.7491  134.4186  151.1131 H   0  0  0  0  0  0  0  0  0  0  0  0
  142.7826  133.4799  152.5830 H   0  0  0  0  0  0  0  0  0  0  0  0
  144.9521  135.3926  151.5934 H   0  0  0  0  0  0  0  0  0  0  0  0
  143.9192  135.6413  152.9780 H   0  0  0  0  0  0  0  0  0  0  0  0
  146.2358  134.8472  153.5659 H   0  0  0  0  0  0  0  0  0  0  0  0
  143.9636  133.1175  154.3740 H   0  0  0  0  0  0  0  0  0  0  0  0
  143.6625  132.7479  156.2658 H   0  0  0  0  0  0  0  0  0  0  0  0
  146.5041  133.9742  158.2853 H   0  0  0  0  0  0  0  0  0  0  0  0
  144.3375  133.1346  161.8877 H   0  0  0  0  0  0  0  0  0  0  0  0
  146.8257  132.4447  153.0895 H   0  0  0  0  0  0  0  0  0  0  0  0
  146.6909  133.4027  151.6359 H   0  0  0  0  0  0  0  0  0  0  0  0
  144.5749  131.7114  152.7319 H   0  0  0  0  0  0  0  0  0  0  0  0
  1  2  1  0  0  0  0
  1 24  1  0  0  0  0
  1 25  1  0  0  0  0
  1 26  1  0  0  0  0
  2 22  1  0  0  0  0
  2  3  1  0  0  0  0
  2 40  1  0  0  0  0
  3  4  1  0  0  0  0
  3 27  1  0  0  0  0
  3 28  1  0  0  0  0
  4  5  1  0  0  0  0
  4 29  1  0  0  0  0
  4 30  1  0  0  0  0
  5  6  1  0  0  0  0
  5 31  1  0  0  0  0
  5 32  1  0  0  0  0
  6  7  1  0  0  0  0
  6 22  1  0  0  0  0
  6 33  1  0  0  0  0
  7  8  1  0  0  0  0
  7 34  1  0  0  0  0
  8  9  2  0  0  0  0
  8 10  1  0  0  0  0
 10 11  1  0  0  0  0
 10 35  1  0  0  0  0
 11 20  1  0  0  0  0
 11 12  2  0  0  0  0
 12 13  1  0  0  0  0
 12 36  1  0  0  0  0
 13 14  1  0  0  0  0
 13 18  2  0  0  0  0
 14 15  1  0  0  0  0
 14 16  1  0  0  0  0
 14 17  1  0  0  0  0
 18 19  1  0  0  0  0
 18 37  1  0  0  0  0
 19 23  1  0  0  0  0
 19 20  1  0  0  0  0
 20 21  2  0  0  0  0
 22 38  1  0  0  0  0
 22 39  1  0  0  0  0
M  CHG  1   2   1
M  END
> <s_m_source_file>
AV-unprocessed.smi

> <i_m_source_file_index>
1748

> <i_lp_mmshare_version>
43012

> <i_f3d_flags>
0

> <s_epik_input>
W0NIM11OMVtDSDJdW0NIMl1bQ0gyXVtDQEhdKFtDSDJdMSlbTkhdQyg9TylbTkhdYzJbY0hdYyhDKEYpKEYpRilbY0hdW25IXWMyPU8=

> <s_epik_cmdline>
J2VwaWtfcHl0aG9uJywgJy1waCcsICc3LjAnLCAnLXRuJywgJzgnLCAnLW1hJywgJzIwMCcsICctbWV0YWxfYmluZGluZycsICctaW1hZScsICc8aW5maWxlLm1hZT4nLCAnLW9tYWUnLCAnPG91dGZpbGUubWFlPic=

> <r_lp_tautomer_probability>
1

> <r_epik_Ionization_Penalty>
0.00746315

> <r_epik_Ionization_Penalty_Charging>
0.00744398

> <r_epik_Ionization_Penalty_Neutral>
1.91704e-05

> <r_epik_State_Penalty>
-0

> <r_epik_Charging_Adjusted_Penalty>
0.00744398

> <i_epik_Tot_Q>
1

> <i_epik_Tot_abs_Q>
1

> <r_epik_Metal_State_Penalty>
0.379332

> <b_epik_Metal_Only>
0

> <s_lp_Force_Field>
OPLS_2005

> <r_lp_Energy>
33.6429

> <b_lp_Chiralities_Consistent>
1

> <s_lp_Variant>
AV-unprocessed.smi:1748-2

> <Gold.Version>
5.8.1

> <Gold.Id.Protein>
6NUR|6NUR_protein|mol2

> <Gold.PLP.Fitness>
34.1891

> <Gold.PLP.PLP>
-25.5579

> <Gold.PLP.part.hbond>
-3.0000

> <Gold.PLP.part.metal>
0.0000

> <Gold.PLP.part.buried>
-4.0502

> <Gold.PLP.part.nonpolar>
-18.7569

> <Gold.PLP.part.repulsive>
0.1682

> <Gold.PLP.ligand.clash>
0.0000

> <Gold.PLP.ligand.torsion>
0.1872

> <Gold.PLP.Chemscore.Hbond>
2.9913

> <Gold.PLP.Chemscore.CHOScore>
0.0000

> <Gold.PLP.Chemscore.Metal>
0.0000

> <Gold.Chemscore.Hbonds>
donor molecule, donor type, donor heavy atom, donor atom, acceptor molecule, acceptor atom, score
      L1  H     7    34       P1 10957  1.00
      L1  H    10    35       P1 10957  1.00
      P1  H 11000 11005       L1    21  1.00

> <Gold.PLP.Chemscore.Internal.Correction>
0.0319

> <Gold.Rescore>
     Score         DG    S(hbond)    S(metal)    S(lipo)     H(rot)  DE(clash)    DE(int)     intcor
     17.44     -18.69       2.92        0.00      51.57       1.00       0.00       1.26       ----

> <Gold.Chemscore.Fitness>
17.4351

> <Gold.Chemscore.DG>
-18.6930

> <Gold.Chemscore.ZeroCoef>
-5.4800

> <Gold.Chemscore.Hbond>
2.9158

> <Gold.Chemscore.Metal>
0.0000

> <Gold.Chemscore.Lipo>
51.5737

> <Gold.Chemscore.Internal_Hbond>
0.0000

> <Gold.Chemscore.DEClash>
0.0009

> <Gold.Chemscore.DEInternal>
1.2570

> <Gold.Chemscore.Rot>
1.0000

> <Gold.Chemscore.Internal.Correction>
   9.000000E+99

> <Gold.Chemscore.Hbonds>
donor molecule, donor type, donor heavy atom, donor atom, acceptor molecule, acceptor atom, score
      L1  H     7    34       P1 10957  0.98
      L1  H    10    35       P1 10957  0.94
      P1  H 11000 11005       L1    21  0.94

> <Gold.Chemscore.Hbond.Weighted>
-9.7389

> <Gold.Chemscore.Metal.Weighted>
-0.0000

> <Gold.Chemscore.Lipo.Weighted>
-6.0341

> <Gold.Chemscore.Internal_Hbond.Weighted>
0.0000

> <Gold.Chemscore.DEClash.Weighted>
0.0009

> <Gold.Chemscore.DEInternal.Weighted>
1.2570

> <Gold.Chemscore.Rot.Weighted>
2.5600

> <Gold.Chemscore.Internal.Correction.Weighted>
   9.000000E+99

> <Gold.Protein.RotatedTorsions>
[ 6907 6896 6895 6894 ] final  140.15 input  -60.11 | X-H torsion
[ 7974 7965 7964 7962 ] final  173.56 input  175.53 | X-H torsion
[ 8008 7997 7996 7995 ] final -126.63 input   59.86 | X-H torsion
[ 10167 10162 10161 10158 ] final   69.99 input  -65.29 | X-H torsion
[ 10718 10713 10712 10709 ] final -103.74 input   66.30 | X-H torsion
[ 10763 10752 10751 10750 ] final  -76.61 input  -60.55 | X-H torsion
[ 11005 11000 10999 10996 ] final  -94.70 input  -57.11 | X-H torsion

> <Gold.Protein.ActiveResidues>
 VAL166  LYS551  ARG553  GLY616  TRP617  ASP618  TYR619  PRO620  LYS621  CYS622 
 ASP623  PHE694  ASN695  SER759  ASP760  ASP761  ALA762  ILE779  LEU786  VAL792 
 PHE793  MET794  SER795  GLU796  ALA797  LYS798  CYS799  TRP800  GLU811  SER814 

> <Gold.Protein.RotatedAtoms>
  152.2464  133.5178  159.5299 H   0  0  0  0  0  0  0  0  0  0  0  0  # atno 6907 bound_to 6896
  150.7080  134.1019  159.3978 H   0  0  0  0  0  0  0  0  0  0  0  0  # atno 6908 bound_to 6896
  151.8940  135.0405  160.0551 H   0  0  0  0  0  0  0  0  0  0  0  0  # atno 6909 bound_to 6896
  144.7241  139.9666  143.6436 H   0  0  0  0  0  0  0  0  0  0  0  0  # atno 7974 bound_to 7965
  155.2329  140.0426  157.2964 H   0  0  0  0  0  0  0  0  0  0  0  0  # atno 8008 bound_to 7997
  154.5877  140.2418  155.7935 H   0  0  0  0  0  0  0  0  0  0  0  0  # atno 8009 bound_to 7997
  156.2237  140.2961  156.0024 H   0  0  0  0  0  0  0  0  0  0  0  0  # atno 8010 bound_to 7997
  140.0618  144.5226  150.7289 H   0  0  0  0  0  0  0  0  0  0  0  0  # atno 10167 bound_to 10162
  156.0277  130.5482  150.7296 H   0  0  0  0  0  0  0  0  0  0  0  0  # atno 10718 bound_to 10713
  154.5021  135.5792  153.6539 H   0  0  0  0  0  0  0  0  0  0  0  0  # atno 10763 bound_to 10752
  152.9880  135.6138  154.2989 H   0  0  0  0  0  0  0  0  0  0  0  0  # atno 10764 bound_to 10752
  154.2898  135.2849  155.2639 H   0  0  0  0  0  0  0  0  0  0  0  0  # atno 10765 bound_to 10752
  141.1463  133.7975  157.0334 H   0  0  0  0  0  0  0  0  0  0  0  0  # atno 11005 bound_to 11000
  146.0596  139.3590  143.0589 LP  0  0  0  0  0  0  0  0  0  0  0  0  # atno 17320 bound_to 7965
  145.8110  140.9726  143.0949 LP  0  0  0  0  0  0  0  0  0  0  0  0  # atno 17321 bound_to 7965
  140.7168  143.2552  151.4408 LP  0  0  0  0  0  0  0  0  0  0  0  0  # atno 17342 bound_to 10162
  139.5889  144.1543  152.2064 LP  0  0  0  0  0  0  0  0  0  0  0  0  # atno 17343 bound_to 10162
  157.4892  131.0909  151.0447 LP  0  0  0  0  0  0  0  0  0  0  0  0  # atno 17370 bound_to 10713
  157.0858  130.5922  149.5429 LP  0  0  0  0  0  0  0  0  0  0  0  0  # atno 17371 bound_to 10713
  140.0739  134.9687  157.1513 LP  0  0  0  0  0  0  0  0  0  0  0  0  # atno 17394 bound_to 11000
  140.3672  134.2430  155.7181 LP  0  0  0  0  0  0  0  0  0  0  0  0  # atno 17395 bound_to 11000

$$$$
