#       Name:                AV-unprocessed.smi:3162
#       Creating user name   scv26
#       Creation time:       Fri Mar 27 17:49:48 2020


#       File generated by GOLD software.
#

@<TRIPOS>MOLECULE
AV-unprocessed.smi:3162
    40    40     1
SMALL
NO_CHARGES


@<TRIPOS>ATOM
      1 ****        -4.4047   2.4516  -0.8920 C.3            1 S1                 0.0000
      2 ****        -3.5986   1.1607  -1.1058 C.3            1 S1                 0.0000
      3 ****        -2.1497   1.2159  -0.5722 C.3            1 S1                 0.0000
      4 ****        -1.4240   0.0097  -1.0149 N.3            1 S1                 0.0000
      5 ****         0.0063  -0.0280  -0.7160 C.3            1 S1                 0.0000
      6 ****         0.7314  -0.4646  -2.0002 C.3            1 S1                 0.0000
      7 ****         0.2682  -0.9862   0.4689 C.3            1 S1                 0.0000
      8 ****         1.6801  -1.1369   0.7709 N.pl3          1 S1                 0.0000
      9 ****         2.4771  -2.2505   0.6109 C.2            1 S1                 0.0000
     10 ****         3.7334  -1.9215   1.0350 C.2            1 S1                 0.0000
     11 ****         4.9668  -2.7775   1.0646 C.3            1 S1                 0.0000
     12 ****         3.5982  -0.5652   1.4472 C.2            1 S1                 0.0000
     13 ****         2.3693  -0.0999   1.2924 N.2            1 S1                 0.0000
     14 ****        -2.1076   1.4156   0.9541 C.2            1 S1                 0.0000
     15 ****        -1.3261   2.3924   1.4218 N.am           1 S1                 0.0000
     16 ****        -2.7555   0.6838   1.7003 O.2            1 S1                 0.0000
     17 ****        -5.3909   2.3693  -1.3493 H              1 S1                 0.0000
     18 ****        -3.9022   3.3085  -1.3413 H              1 S1                 0.0000
     19 ****        -4.5532   2.6650   0.1666 H              1 S1                 0.0000
     20 ****        -4.1338   0.3217  -0.6581 H              1 S1                 0.0000
     21 ****        -3.5715   0.9555  -2.1770 H              1 S1                 0.0000
     22 ****        -1.6669   2.0764  -1.0397 H              1 S1                 0.0000
     23 ****        -1.8730  -0.8409  -0.7063 H              1 S1                 0.0000
     24 ****         0.3652   0.9722  -0.4681 H              1 S1                 0.0000
     25 ****         1.8139  -0.4449  -1.8729 H              1 S1                 0.0000
     26 ****         0.4942   0.2009  -2.8310 H              1 S1                 0.0000
     27 ****         0.4499  -1.4768  -2.2929 H              1 S1                 0.0000
     28 ****        -0.2307  -0.6402   1.3740 H              1 S1                 0.0000
     29 ****        -0.1413  -1.9738   0.2513 H              1 S1                 0.0000
     30 ****         2.0886  -3.1750   0.2093 H              1 S1                 0.0000
     31 ****         5.8101  -2.2590   1.5215 H              1 S1                 0.0000
     32 ****         5.2759  -3.0711   0.0613 H              1 S1                 0.0000
     33 ****         4.8067  -3.6934   1.6338 H              1 S1                 0.0000
     34 ****         4.3534   0.0911   1.8542 H              1 S1                 0.0000
     35 ****        -1.2718   2.5636   2.4154 H              1 S1                 0.0000
     36 ****        -0.7958   2.9609   0.7775 H              1 S1                 0.0000
     37 ****        -1.4760   0.0718  -2.0116 LP             1 S1                 0.0000
     38 ****         2.0280   0.8140   1.5122 LP             1 S1                 0.0000
     39 ****        -3.3169  -0.0498   1.3174 LP             1 S1                 0.0000
     40 ****        -2.7209   0.8223   2.6901 LP             1 S1                 0.0000
@<TRIPOS>BOND
    1    1    2 1     
    2    1   17 1     
    3    1   18 1     
    4    1   19 1     
    5    2    3 1     
    6    2   20 1     
    7    2   21 1     
    8    3    4 1     
    9    3   14 1     
   10    3   22 1     
   11    4    5 1     
   12    4   23 1     
   13    5    6 1     
   14    5    7 1     
   15    5   24 1     
   16    6   25 1     
   17    6   26 1     
   18    6   27 1     
   19    7    8 1     
   20    7   28 1     
   21    7   29 1     
   22    8   13 1     
   23    8    9 1     
   24    9   10 2     
   25    9   30 1     
   26   10   11 1     
   27   10   12 1     
   28   11   31 1     
   29   11   32 1     
   30   11   33 1     
   31   12   13 2     
   32   12   34 1     
   33   14   15 am    
   34   14   16 2     
   35   15   35 1     
   36   15   36 1     
   37    4   37 1     
   38   13   38 1     
   39   16   39 1     
   40   16   40 1     
@<TRIPOS>SUBSTRUCTURE
      1 S1             1
@<TRIPOS>SET
LONE_PAIRS      STATIC     ATOMS    <user>   **** ""
4 37 38 39 40
DONOR_HYDROGENS      STATIC     ATOMS    <user>   **** ""
3 23 35 36
ATOM$BLUE        STATIC     ATOMS    COLORGROUP SYSTEM
4 37 38 39 40
ATOM$RED        STATIC     ATOMS    COLORGROUP SYSTEM
3 23 35 36
