AV-unprocessed.smi:955|AV-procd|sdf|4262|dock3
  -GOLD-   22720 2173D 1   1.00000     0.00000
 Structure written by MMmdl.
 29 29  0  0  0  0  0  0  0  0  1 V2000
  152.2589  139.5658  155.6006 C   0  0  0  0  0  0  0  0  0  0  0  0
  150.9995  139.7177  156.4695 C   0  0  1  0  0  0  0  0  0  0  0  0
  151.3343  140.5812  157.6005 N   0  0  0  0  0  0  0  0  0  0  0  0
  152.4424  140.4802  158.3530 C   0  0  0  0  0  0  0  0  0  0  0  0
  153.3135  139.6324  158.1538 O   0  0  0  0  0  0  0  0  0  0  0  0
  152.5782  141.4921  159.5016 C   0  0  1  0  0  0  0  0  0  0  0  0
  153.9435  141.4020  160.2142 C   0  0  0  0  0  0  0  0  0  0  0  0
  152.2908  142.8404  159.0246 N   0  0  0  0  0  0  0  0  0  0  0  0
  152.4492  144.0317  159.7038 C   0  0  0  0  0  0  0  0  0  0  0  0
  152.0189  145.0342  158.8827 C   0  0  0  0  0  0  0  0  0  0  0  0
  151.5958  144.3508  157.7091 C   0  0  0  0  0  0  0  0  0  0  0  0
  151.7501  143.0402  157.7996 N   0  0  0  0  0  0  0  0  0  0  0  0
  149.9001  140.3576  155.6055 C   0  0  0  0  0  0  0  0  0  0  0  0
  148.7601  140.6783  156.2224 N   0  0  0  0  0  0  0  0  0  0  0  0
  150.0664  140.5451  154.4008 O   0  0  0  0  0  0  0  0  0  0  0  0
  152.0700  138.9274  154.7365 H   0  0  0  0  0  0  0  0  0  0  0  0
  153.0693  139.1084  156.1691 H   0  0  0  0  0  0  0  0  0  0  0  0
  152.6178  140.5281  155.2315 H   0  0  0  0  0  0  0  0  0  0  0  0
  150.6792  138.7368  156.8268 H   0  0  0  0  0  0  0  0  0  0  0  0
  150.6649  141.2988  157.8367 H   0  0  0  0  0  0  0  0  0  0  0  0
  151.8155  141.2462  160.2426 H   0  0  0  0  0  0  0  0  0  0  0  0
  154.1057  140.4049  160.6249 H   0  0  0  0  0  0  0  0  0  0  0  0
  153.9962  142.1083  161.0431 H   0  0  0  0  0  0  0  0  0  0  0  0
  154.7741  141.6206  159.5420 H   0  0  0  0  0  0  0  0  0  0  0  0
  152.8518  144.0669  160.7054 H   0  0  0  0  0  0  0  0  0  0  0  0
  152.0039  146.0939  159.0905 H   0  0  0  0  0  0  0  0  0  0  0  0
  151.1798  144.7643  156.8022 H   0  0  0  0  0  0  0  0  0  0  0  0
  148.0030  141.0936  155.6991 H   0  0  0  0  0  0  0  0  0  0  0  0
  148.6568  140.4963  157.2102 H   0  0  0  0  0  0  0  0  0  0  0  0
  1  2  1  0  0  0  0
  1 16  1  0  0  0  0
  1 17  1  0  0  0  0
  1 18  1  0  0  0  0
  2  3  1  0  0  0  0
  2 13  1  0  0  0  0
  2 19  1  0  0  0  0
  3  4  1  0  0  0  0
  3 20  1  0  0  0  0
  4  5  2  0  0  0  0
  4  6  1  0  0  0  0
  6  7  1  0  0  0  0
  6  8  1  0  0  0  0
  6 21  1  0  0  0  0
  7 22  1  0  0  0  0
  7 23  1  0  0  0  0
  7 24  1  0  0  0  0
  8 12  1  0  0  0  0
  8  9  1  0  0  0  0
  9 10  2  0  0  0  0
  9 25  1  0  0  0  0
 10 11  1  0  0  0  0
 10 26  1  0  0  0  0
 11 12  2  0  0  0  0
 11 27  1  0  0  0  0
 13 14  1  0  0  0  0
 13 15  2  0  0  0  0
 14 28  1  0  0  0  0
 14 29  1  0  0  0  0
M  END
> <s_m_source_file>
AV-unprocessed.smi

> <i_m_source_file_index>
955

> <i_lp_mmshare_version>
43012

> <i_f3d_flags>
0

> <s_epik_input>
W05IMl1DKD1PKVtDQEhdKFtDSDNdKVtOSF1DKD1PKVtDQEhdKFtDSDNdKW4xW2NIXVtjSF1bY0hdbjE=

> <s_epik_cmdline>
J2VwaWtfcHl0aG9uJywgJy1waCcsICc3LjAnLCAnLXRuJywgJzgnLCAnLW1hJywgJzIwMCcsICctbWV0YWxfYmluZGluZycsICctaW1hZScsICc8aW5maWxlLm1hZT4nLCAnLW9tYWUnLCAnPG91dGZpbGUubWFlPic=

> <r_lp_tautomer_probability>
1

> <r_epik_Ionization_Penalty>
2.8146e-05

> <r_epik_Ionization_Penalty_Charging>
0

> <r_epik_Ionization_Penalty_Neutral>
2.8146e-05

> <r_epik_State_Penalty>
-0

> <r_epik_Charging_Adjusted_Penalty>
0

> <i_epik_Tot_Q>
0

> <i_epik_Tot_abs_Q>
0

> <r_epik_Metal_State_Penalty>
-0

> <b_epik_Metal_Only>
0

> <s_lp_Force_Field>
OPLS_2005

> <r_lp_Energy>
4.82195

> <b_lp_Chiralities_Consistent>
1

> <s_lp_Variant>
AV-unprocessed.smi:955-4

> <Gold.Version>
5.8.1

> <Gold.Id.Protein>
6NUR|6NUR_protein|mol2

> <Gold.PLP.Fitness>
40.6666

> <Gold.PLP.PLP>
-33.4402

> <Gold.PLP.part.hbond>
-2.0000

> <Gold.PLP.part.metal>
0.0000

> <Gold.PLP.part.buried>
-3.2593

> <Gold.PLP.part.nonpolar>
-29.0186

> <Gold.PLP.part.repulsive>
0.2474

> <Gold.PLP.ligand.clash>
0.0000

> <Gold.PLP.ligand.torsion>
0.7167

> <Gold.PLP.Chemscore.Hbond>
1.8480

> <Gold.PLP.Chemscore.CHOScore>
0.9992

> <Gold.PLP.Chemscore.Metal>
0.0000

> <Gold.Chemscore.Hbonds>
donor molecule, donor type, donor heavy atom, donor atom, acceptor molecule, acceptor atom, score
      P1  H  7989  7998       L1    15  0.83
      P1  H  7997  8009       L1     5  1.00
      L1  C    11    27       P1  8028  1.00

> <Gold.PLP.Chemscore.Internal.Correction>
0.1182

> <Gold.Rescore>
     Score         DG    S(hbond)    S(metal)    S(lipo)     H(rot)  DE(clash)    DE(int)     intcor
     10.74     -14.37       1.91        0.00      71.62       2.30       0.27       3.36       ----

> <Gold.Chemscore.Fitness>
10.7388

> <Gold.Chemscore.DG>
-14.3694

> <Gold.Chemscore.ZeroCoef>
-5.4800

> <Gold.Chemscore.Hbond>
1.9133

> <Gold.Chemscore.Metal>
0.0000

> <Gold.Chemscore.Lipo>
71.6239

> <Gold.Chemscore.Internal_Hbond>
0.0000

> <Gold.Chemscore.DEClash>
0.2676

> <Gold.Chemscore.DEInternal>
3.3631

> <Gold.Chemscore.Rot>
2.2972

> <Gold.Chemscore.Internal.Correction>
   9.000000E+99

> <Gold.Chemscore.Hbonds>
donor molecule, donor type, donor heavy atom, donor atom, acceptor molecule, acceptor atom, score
      P1  H  7989  7998       L1    15  0.83
      P1  H  7997  8009       L1     5  0.90

> <Gold.Chemscore.Hbond.Weighted>
-6.3904

> <Gold.Chemscore.Metal.Weighted>
-0.0000

> <Gold.Chemscore.Lipo.Weighted>
-8.3800

> <Gold.Chemscore.Internal_Hbond.Weighted>
0.0000

> <Gold.Chemscore.DEClash.Weighted>
0.2676

> <Gold.Chemscore.DEInternal.Weighted>
3.3631

> <Gold.Chemscore.Rot.Weighted>
5.8809

> <Gold.Chemscore.Internal.Correction.Weighted>
   9.000000E+99

> <Gold.Protein.RotatedTorsions>
[ 6907 6896 6895 6894 ] final   83.58 input  -60.11 | X-H torsion
[ 7974 7965 7964 7962 ] final  -62.70 input  175.53 | X-H torsion
[ 8008 7997 7996 7995 ] final  162.80 input   59.86 | X-H torsion
[ 10167 10162 10161 10158 ] final   -6.71 input  -65.29 | X-H torsion
[ 10718 10713 10712 10709 ] final  168.55 input   66.30 | X-H torsion
[ 10763 10752 10751 10750 ] final   13.75 input  -60.55 | X-H torsion
[ 11005 11000 10999 10996 ] final -129.54 input  -57.11 | X-H torsion

> <Gold.Protein.ActiveResidues>
 VAL166  LYS551  ARG553  GLY616  TRP617  ASP618  TYR619  PRO620  LYS621  CYS622 
 ASP623  PHE694  ASN695  SER759  ASP760  ASP761  ALA762  ILE779  LEU786  VAL792 
 PHE793  MET794  SER795  GLU796  ALA797  LYS798  CYS799  TRP800  GLU811  SER814 

> <Gold.Protein.RotatedAtoms>
  152.5331  134.2873  159.9029 H   0  0  0  0  0  0  0  0  0  0  0  0  # atno 6907 bound_to 6896
  151.2826  133.4196  159.2635 H   0  0  0  0  0  0  0  0  0  0  0  0  # atno 6908 bound_to 6896
  151.0270  134.9527  159.8147 H   0  0  0  0  0  0  0  0  0  0  0  0  # atno 6909 bound_to 6896
  145.7881  140.8725  143.0295 H   0  0  0  0  0  0  0  0  0  0  0  0  # atno 7974 bound_to 7965
  156.2004  140.1740  156.7910 H   0  0  0  0  0  0  0  0  0  0  0  0  # atno 8008 bound_to 7997
  154.5585  140.0704  156.8812 H   0  0  0  0  0  0  0  0  0  0  0  0  # atno 8009 bound_to 7997
  155.2894  140.3354  155.4256 H   0  0  0  0  0  0  0  0  0  0  0  0  # atno 8010 bound_to 7997
  140.7006  143.6163  150.8655 H   0  0  0  0  0  0  0  0  0  0  0  0  # atno 10167 bound_to 10162
  157.0354  131.0271  151.2731 H   0  0  0  0  0  0  0  0  0  0  0  0  # atno 10718 bound_to 10713
  153.1690  135.6809  153.8634 H   0  0  0  0  0  0  0  0  0  0  0  0  # atno 10763 bound_to 10752
  153.8004  135.3156  155.3390 H   0  0  0  0  0  0  0  0  0  0  0  0  # atno 10764 bound_to 10752
  154.7985  135.4792  154.0310 H   0  0  0  0  0  0  0  0  0  0  0  0  # atno 10765 bound_to 10752
  140.9422  134.1177  157.4140 H   0  0  0  0  0  0  0  0  0  0  0  0  # atno 11005 bound_to 11000
  144.6786  140.0085  143.7484 LP  0  0  0  0  0  0  0  0  0  0  0  0  # atno 17320 bound_to 7965
  146.0005  139.3087  143.0930 LP  0  0  0  0  0  0  0  0  0  0  0  0  # atno 17321 bound_to 7965
  139.9885  143.5873  152.2918 LP  0  0  0  0  0  0  0  0  0  0  0  0  # atno 17342 bound_to 10162
  139.6520  144.7661  151.2130 LP  0  0  0  0  0  0  0  0  0  0  0  0  # atno 17343 bound_to 10162
  157.5145  130.7959  149.7741 LP  0  0  0  0  0  0  0  0  0  0  0  0  # atno 17370 bound_to 10713
  156.0055  130.3858  150.2446 LP  0  0  0  0  0  0  0  0  0  0  0  0  # atno 17371 bound_to 10713
  139.8823  135.0040  156.6223 LP  0  0  0  0  0  0  0  0  0  0  0  0  # atno 17394 bound_to 11000
  140.7718  133.8732  155.8498 LP  0  0  0  0  0  0  0  0  0  0  0  0  # atno 17395 bound_to 11000

$$$$
