AV-unprocessed.smi:2138|AV-procd|sdf|8710|dock4
  -GOLD-   2272011473D 1   1.00000     0.00000
 Structure written by MMmdl.
 46 47  0  0  0  0  0  0  0  0  1 V2000
  140.4373  145.6908  154.1570 C   0  0  0  0  0  0  0  0  0  0  0  0
  140.7538  144.3100  154.1746 O   0  0  0  0  0  0  0  0  0  0  0  0
  141.7097  143.9840  155.1696 C   0  0  0  0  0  0  0  0  0  0  0  0
  141.7596  142.4623  155.3357 C   0  0  0  0  0  0  0  0  0  0  0  0
  142.6044  142.1523  156.4354 O   0  0  0  0  0  0  0  0  0  0  0  0
  143.9670  142.2098  156.2431 C   0  0  0  0  0  0  0  0  0  0  0  0
  144.5962  142.7721  155.1045 C   0  0  0  0  0  0  0  0  0  0  0  0
  146.0024  142.7632  155.0371 C   0  0  0  0  0  0  0  0  0  0  0  0
  146.7403  142.1890  156.0907 C   0  0  0  0  0  0  0  0  0  0  0  0
  148.1584  142.2089  156.0049 N   0  0  0  0  0  0  0  0  0  0  0  0
  149.0288  141.2416  156.3480 C   0  0  0  0  0  0  0  0  0  0  0  0
  148.7068  140.1356  156.7823 O   0  0  0  0  0  0  0  0  0  0  0  0
  150.5159  141.5746  156.1451 C   0  0  2  0  0  0  0  0  0  0  0  0
  151.4143  140.3641  156.4607 C   0  0  0  0  0  0  0  0  0  0  0  0
  152.2099  140.7992  157.6789 C   0  0  0  0  0  0  0  0  0  0  0  0
  152.9979  140.0495  158.2540 O   0  0  0  0  0  0  0  0  0  0  0  0
  151.9405  142.0681  158.0135 N   0  0  0  0  0  0  0  0  0  0  0  0
  152.5763  142.8053  159.1153 C   0  0  0  0  0  0  0  0  0  0  0  0
  152.5340  142.0412  160.4504 C   0  0  0  0  0  0  0  0  0  0  0  0
  151.9681  144.2111  159.2404 C   0  0  0  0  0  0  0  0  0  0  0  0
  151.0015  142.6953  157.0901 C   0  0  0  0  0  0  0  0  0  0  0  0
  146.0183  141.6659  157.1900 C   0  0  0  0  0  0  0  0  0  0  0  0
  144.6707  141.6728  157.2628 N   0  0  0  0  0  0  0  0  0  0  0  0
  139.7006  145.8877  153.3781 H   0  0  0  0  0  0  0  0  0  0  0  0
  141.3205  146.2946  153.9450 H   0  0  0  0  0  0  0  0  0  0  0  0
  140.0139  146.0113  155.1098 H   0  0  0  0  0  0  0  0  0  0  0  0
  142.6956  144.3723  154.9091 H   0  0  0  0  0  0  0  0  0  0  0  0
  141.4147  144.4441  156.1137 H   0  0  0  0  0  0  0  0  0  0  0  0
  140.7540  142.0901  155.5373 H   0  0  0  0  0  0  0  0  0  0  0  0
  142.1163  141.9961  154.4160 H   0  0  0  0  0  0  0  0  0  0  0  0
  144.0352  143.2059  154.2909 H   0  0  0  0  0  0  0  0  0  0  0  0
  146.5052  143.1885  154.1806 H   0  0  0  0  0  0  0  0  0  0  0  0
  148.5562  143.0318  155.5759 H   0  0  0  0  0  0  0  0  0  0  0  0
  150.6744  141.8844  155.1105 H   0  0  0  0  0  0  0  0  0  0  0  0
  150.8605  139.4491  156.6780 H   0  0  0  0  0  0  0  0  0  0  0  0
  152.0964  140.1554  155.6360 H   0  0  0  0  0  0  0  0  0  0  0  0
  153.6321  142.9265  158.8663 H   0  0  0  0  0  0  0  0  0  0  0  0
  153.1015  142.5700  161.2167 H   0  0  0  0  0  0  0  0  0  0  0  0
  152.9709  141.0471  160.3498 H   0  0  0  0  0  0  0  0  0  0  0  0
  151.5148  141.9285  160.8212 H   0  0  0  0  0  0  0  0  0  0  0  0
  152.4700  144.7868  160.0185 H   0  0  0  0  0  0  0  0  0  0  0  0
  150.9085  144.1628  159.4937 H   0  0  0  0  0  0  0  0  0  0  0  0
  152.0625  144.7690  158.3083 H   0  0  0  0  0  0  0  0  0  0  0  0
  151.5156  143.4766  156.5289 H   0  0  0  0  0  0  0  0  0  0  0  0
  150.1760  143.1675  157.6246 H   0  0  0  0  0  0  0  0  0  0  0  0
  146.5143  141.2467  158.0516 H   0  0  0  0  0  0  0  0  0  0  0  0
  1  2  1  0  0  0  0
  1 24  1  0  0  0  0
  1 25  1  0  0  0  0
  1 26  1  0  0  0  0
  2  3  1  0  0  0  0
  3  4  1  0  0  0  0
  3 27  1  0  0  0  0
  3 28  1  0  0  0  0
  4  5  1  0  0  0  0
  4 29  1  0  0  0  0
  4 30  1  0  0  0  0
  5  6  1  0  0  0  0
  6 23  1  0  0  0  0
  6  7  2  0  0  0  0
  7  8  1  0  0  0  0
  7 31  1  0  0  0  0
  8  9  2  0  0  0  0
  8 32  1  0  0  0  0
  9 10  1  0  0  0  0
  9 22  1  0  0  0  0
 10 11  1  0  0  0  0
 10 33  1  0  0  0  0
 11 12  2  0  0  0  0
 11 13  1  0  0  0  0
 13 21  1  0  0  0  0
 13 14  1  0  0  0  0
 13 34  1  0  0  0  0
 14 15  1  0  0  0  0
 14 35  1  0  0  0  0
 14 36  1  0  0  0  0
 15 16  2  0  0  0  0
 15 17  1  0  0  0  0
 17 18  1  0  0  0  0
 17 21  1  0  0  0  0
 18 19  1  0  0  0  0
 18 20  1  0  0  0  0
 18 37  1  0  0  0  0
 19 38  1  0  0  0  0
 19 39  1  0  0  0  0
 19 40  1  0  0  0  0
 20 41  1  0  0  0  0
 20 42  1  0  0  0  0
 20 43  1  0  0  0  0
 21 44  1  0  0  0  0
 21 45  1  0  0  0  0
 22 23  2  0  0  0  0
 22 46  1  0  0  0  0
M  END
> <s_m_source_file>
AV-unprocessed.smi

> <i_m_source_file_index>
2138

> <i_lp_mmshare_version>
43012

> <i_f3d_flags>
0

> <s_epik_input>
W0NIM11PW0NIMl1bQ0gyXU9jMVtjSF1bY0hdYyhbY0hdbjEpW05IXUMoPU8pW0NAQEhdMltDSDJdQyg9TylOKFtDSDJdMilbQ0hdKFtDSDNdKVtDSDNd

> <s_epik_cmdline>
J2VwaWtfcHl0aG9uJywgJy1waCcsICc3LjAnLCAnLXRuJywgJzgnLCAnLW1hJywgJzIwMCcsICctbWV0YWxfYmluZGluZycsICctaW1hZScsICc8aW5maWxlLm1hZT4nLCAnLW9tYWUnLCAnPG91dGZpbGUubWFlPic=

> <r_lp_tautomer_probability>
1

> <r_epik_Ionization_Penalty>
1.72652e-05

> <r_epik_Ionization_Penalty_Charging>
0

> <r_epik_Ionization_Penalty_Neutral>
1.72652e-05

> <r_epik_State_Penalty>
-0

> <r_epik_Charging_Adjusted_Penalty>
0

> <i_epik_Tot_Q>
0

> <i_epik_Tot_abs_Q>
0

> <r_epik_Metal_State_Penalty>
-0

> <b_epik_Metal_Only>
0

> <s_lp_Force_Field>
OPLS_2005

> <r_lp_Energy>
27.6576

> <b_lp_Chiralities_Consistent>
1

> <s_lp_Variant>
AV-unprocessed.smi:2138-1

> <Gold.Version>
5.8.1

> <Gold.Id.Protein>
6NUR|6NUR_protein|mol2

> <Gold.PLP.Fitness>
43.2110

> <Gold.PLP.PLP>
-36.8195

> <Gold.PLP.part.hbond>
-3.0000

> <Gold.PLP.part.metal>
0.0000

> <Gold.PLP.part.buried>
-4.2762

> <Gold.PLP.part.nonpolar>
-29.2953

> <Gold.PLP.part.repulsive>
0.2321

> <Gold.PLP.ligand.clash>
0.0000

> <Gold.PLP.ligand.torsion>
0.7693

> <Gold.PLP.Chemscore.Hbond>
2.5819

> <Gold.PLP.Chemscore.CHOScore>
0.0000

> <Gold.PLP.Chemscore.Metal>
0.0000

> <Gold.Chemscore.Hbonds>
donor molecule, donor type, donor heavy atom, donor atom, acceptor molecule, acceptor atom, score
      L1  H    10    33       P1  8028  0.98
      P1  H  7997  8009       L1    16  1.00
      P1  H 10162 10167       L1     2  0.51

> <Gold.PLP.Chemscore.Internal.Correction>
0.1844

> <Gold.Rescore>
     Score         DG    S(hbond)    S(metal)    S(lipo)     H(rot)  DE(clash)    DE(int)     intcor
     14.95     -15.84       1.80        0.00      80.98       2.00       0.28       0.61       ----

> <Gold.Chemscore.Fitness>
14.9470

> <Gold.Chemscore.DG>
-15.8389

> <Gold.Chemscore.ZeroCoef>
-5.4800

> <Gold.Chemscore.Hbond>
1.8004

> <Gold.Chemscore.Metal>
0.0000

> <Gold.Chemscore.Lipo>
80.9785

> <Gold.Chemscore.Internal_Hbond>
0.0000

> <Gold.Chemscore.DEClash>
0.2795

> <Gold.Chemscore.DEInternal>
0.6123

> <Gold.Chemscore.Rot>
2.0035

> <Gold.Chemscore.Internal.Correction>
   9.000000E+99

> <Gold.Chemscore.Hbonds>
donor molecule, donor type, donor heavy atom, donor atom, acceptor molecule, acceptor atom, score
      L1  H    10    33       P1  8028  0.93
      P1  H  7997  8009       L1    16  0.24
      P1  H 10162 10167       L1     2  0.07

> <Gold.Chemscore.Hbond.Weighted>
-6.0135

> <Gold.Chemscore.Metal.Weighted>
-0.0000

> <Gold.Chemscore.Lipo.Weighted>
-9.4745

> <Gold.Chemscore.Internal_Hbond.Weighted>
0.0000

> <Gold.Chemscore.DEClash.Weighted>
0.2795

> <Gold.Chemscore.DEInternal.Weighted>
0.6123

> <Gold.Chemscore.Rot.Weighted>
5.1290

> <Gold.Chemscore.Internal.Correction.Weighted>
   9.000000E+99

> <Gold.Protein.RotatedTorsions>
[ 6907 6896 6895 6894 ] final -158.61 input  -60.11 | X-H torsion
[ 7974 7965 7964 7962 ] final   34.10 input  175.53 | X-H torsion
[ 8008 7997 7996 7995 ] final  161.02 input   59.86 | X-H torsion
[ 10167 10162 10161 10158 ] final -147.35 input  -65.29 | X-H torsion
[ 10718 10713 10712 10709 ] final -154.88 input   66.30 | X-H torsion
[ 10763 10752 10751 10750 ] final   68.91 input  -60.55 | X-H torsion
[ 11005 11000 10999 10996 ] final  135.57 input  -57.11 | X-H torsion

> <Gold.Protein.ActiveResidues>
 VAL166  LYS551  ARG553  GLY616  TRP617  ASP618  TYR619  PRO620  LYS621  CYS622 
 ASP623  PHE694  ASN695  SER759  ASP760  ASP761  ALA762  ILE779  LEU786  VAL792 
 PHE793  MET794  SER795  GLU796  ALA797  LYS798  CYS799  TRP800  GLU811  SER814 

> <Gold.Protein.RotatedAtoms>
  151.3209  133.4040  159.2654 H   0  0  0  0  0  0  0  0  0  0  0  0  # atno 6907 bound_to 6896
  151.0035  134.9342  159.7978 H   0  0  0  0  0  0  0  0  0  0  0  0  # atno 6908 bound_to 6896
  152.5282  134.3174  159.9188 H   0  0  0  0  0  0  0  0  0  0  0  0  # atno 6909 bound_to 6896
  146.1376  139.6312  142.9185 H   0  0  0  0  0  0  0  0  0  0  0  0  # atno 7974 bound_to 7965
  156.2132  140.1788  156.7647 H   0  0  0  0  0  0  0  0  0  0  0  0  # atno 8008 bound_to 7997
  154.5753  140.0675  156.9055 H   0  0  0  0  0  0  0  0  0  0  0  0  # atno 8009 bound_to 7997
  155.2598  140.3335  155.4276 H   0  0  0  0  0  0  0  0  0  0  0  0  # atno 8010 bound_to 7997
  139.7630  143.8349  152.2611 H   0  0  0  0  0  0  0  0  0  0  0  0  # atno 10167 bound_to 10162
  156.5052  130.8410  151.2625 H   0  0  0  0  0  0  0  0  0  0  0  0  # atno 10718 bound_to 10713
  153.0260  135.5230  154.7207 H   0  0  0  0  0  0  0  0  0  0  0  0  # atno 10763 bound_to 10752
  154.6263  135.2895  155.0270 H   0  0  0  0  0  0  0  0  0  0  0  0  # atno 10764 bound_to 10752
  154.1238  135.6603  153.4961 H   0  0  0  0  0  0  0  0  0  0  0  0  # atno 10765 bound_to 10752
  139.9989  134.9486  157.0026 H   0  0  0  0  0  0  0  0  0  0  0  0  # atno 11005 bound_to 11000
  145.5121  141.0435  143.2482 LP  0  0  0  0  0  0  0  0  0  0  0  0  # atno 17320 bound_to 7965
  144.7756  139.6637  143.7176 LP  0  0  0  0  0  0  0  0  0  0  0  0  # atno 17321 bound_to 7965
  139.8361  144.7232  150.9390 LP  0  0  0  0  0  0  0  0  0  0  0  0  # atno 17342 bound_to 10162
  140.7808  143.4026  151.1124 LP  0  0  0  0  0  0  0  0  0  0  0  0  # atno 17343 bound_to 10162
  157.7458  130.9968  150.2793 LP  0  0  0  0  0  0  0  0  0  0  0  0  # atno 17370 bound_to 10713
  156.3293  130.3798  149.7505 LP  0  0  0  0  0  0  0  0  0  0  0  0  # atno 17371 bound_to 10713
  140.4766  134.1332  155.7210 LP  0  0  0  0  0  0  0  0  0  0  0  0  # atno 17394 bound_to 11000
  141.1626  133.8764  157.1805 LP  0  0  0  0  0  0  0  0  0  0  0  0  # atno 17395 bound_to 11000

$$$$
