AV-unprocessed.smi:227|AV-procd|sdf|1733|dock5
  -GOLD-   2262020223D 1   1.00000     0.00000
 Structure written by MMmdl.
 54 58  0  0  0  0  0  0  0  0  1 V2000
  152.8752  139.5765  155.6209 O   0  0  0  0  0  0  0  0  0  0  0  0
  151.8508  140.4934  155.9493 C   0  0  0  0  0  0  0  0  0  0  0  0
  151.8102  140.7874  157.4670 C   0  0  2  0  0  0  0  0  0  0  0  0
  150.9046  139.7426  158.1690 C   0  0  0  0  0  0  0  0  0  0  0  0
  151.6081  138.8608  159.0841 N   0  0  0  0  0  0  0  0  0  0  0  0
  151.5546  137.4861  159.1042 C   0  0  0  0  0  0  0  0  0  0  0  0
  152.2756  136.9164  160.0300 N   0  0  0  0  0  0  0  0  0  0  0  0
  152.8531  137.9768  160.7194 C   0  0  0  0  0  0  0  0  0  0  0  0
  153.7411  138.0800  161.8293 C   0  0  0  0  0  0  0  0  0  0  0  0
  154.2410  137.0052  162.4985 N   0  0  0  0  0  0  0  0  0  0  0  0
  155.0330  137.1744  163.7103 C   0  0  1  0  0  0  0  0  0  0  0  0
  153.9969  137.5510  164.7904 C   0  0  0  0  0  0  0  0  0  0  0  0
  152.7719  136.7542  164.3186 C   0  0  0  0  0  0  0  0  0  0  0  0
  153.3417  136.0218  163.0836 C   0  0  2  0  0  0  0  0  0  0  0  0
  154.3363  134.9073  163.4845 C   0  0  2  0  0  0  0  0  0  0  0  0
  153.8394  133.8364  164.4736 C   0  0  0  0  0  0  0  0  0  0  0  0
  153.8195  134.3553  165.7863 O   0  0  0  0  0  0  0  0  0  0  0  0
  155.5290  135.7436  163.9841 C   0  0  0  0  0  0  0  0  0  0  0  0
  154.1216  139.3301  162.2062 N   0  0  0  0  0  0  0  0  0  0  0  0
  153.6493  140.4048  161.5695 C   0  0  0  0  0  0  0  0  0  0  0  0
  152.8081  140.4583  160.5360 N   0  0  0  0  0  0  0  0  0  0  0  0
  152.4380  139.2087  160.1360 C   0  0  0  0  0  0  0  0  0  0  0  0
  151.4338  142.2665  157.7746 C   0  0  2  0  0  0  0  0  0  0  0  0
  152.0188  142.8146  159.0671 C   0  0  0  0  0  0  0  0  0  0  0  0
  151.1435  144.0319  159.3243 C   0  0  0  0  0  0  0  0  0  0  0  0
  149.8431  143.6161  158.9378 O   0  0  0  0  0  0  0  0  0  0  0  0
  149.9388  142.5481  157.9991 C   0  0  0  0  0  0  0  0  0  0  0  0
  152.6463  139.1457  154.8114 H   0  0  0  0  0  0  0  0  0  0  0  0
  152.0154  141.4135  155.3878 H   0  0  0  0  0  0  0  0  0  0  0  0
  150.8982  140.0951  155.6004 H   0  0  0  0  0  0  0  0  0  0  0  0
  152.8285  140.6304  157.8250 H   0  0  0  0  0  0  0  0  0  0  0  0
  150.0998  140.2428  158.7085 H   0  0  0  0  0  0  0  0  0  0  0  0
  150.4222  139.1078  157.4248 H   0  0  0  0  0  0  0  0  0  0  0  0
  150.9684  136.9149  158.3990 H   0  0  0  0  0  0  0  0  0  0  0  0
  155.8523  137.8893  163.6272 H   0  0  0  0  0  0  0  0  0  0  0  0
  154.3189  137.2769  165.7956 H   0  0  0  0  0  0  0  0  0  0  0  0
  153.7852  138.6208  164.7855 H   0  0  0  0  0  0  0  0  0  0  0  0
  152.3668  136.0908  165.0810 H   0  0  0  0  0  0  0  0  0  0  0  0
  151.9714  137.4335  164.0227 H   0  0  0  0  0  0  0  0  0  0  0  0
  152.5653  135.6484  162.4184 H   0  0  0  0  0  0  0  0  0  0  0  0
  154.6458  134.3961  162.5707 H   0  0  0  0  0  0  0  0  0  0  0  0
  152.8263  133.5324  164.2097 H   0  0  0  0  0  0  0  0  0  0  0  0
  154.4501  132.9349  164.4438 H   0  0  0  0  0  0  0  0  0  0  0  0
  154.7110  134.4693  166.0783 H   0  0  0  0  0  0  0  0  0  0  0  0
  156.4228  135.5197  163.4005 H   0  0  0  0  0  0  0  0  0  0  0  0
  155.7652  135.5792  165.0362 H   0  0  0  0  0  0  0  0  0  0  0  0
  153.9971  141.3576  161.9404 H   0  0  0  0  0  0  0  0  0  0  0  0
  151.7802  142.9013  156.9571 H   0  0  0  0  0  0  0  0  0  0  0  0
  151.9034  142.0938  159.8781 H   0  0  0  0  0  0  0  0  0  0  0  0
  153.0747  143.0750  158.9860 H   0  0  0  0  0  0  0  0  0  0  0  0
  151.1690  144.3598  160.3637 H   0  0  0  0  0  0  0  0  0  0  0  0
  151.4526  144.8661  158.6930 H   0  0  0  0  0  0  0  0  0  0  0  0
  149.4327  142.8206  157.0737 H   0  0  0  0  0  0  0  0  0  0  0  0
  149.4288  141.6825  158.4230 H   0  0  0  0  0  0  0  0  0  0  0  0
  1  2  1  0  0  0  0
  1 28  1  0  0  0  0
  2  3  1  0  0  0  0
  2 29  1  0  0  0  0
  2 30  1  0  0  0  0
  3  4  1  0  0  0  0
  3 23  1  0  0  0  0
  3 31  1  0  0  0  0
  4  5  1  0  0  0  0
  4 32  1  0  0  0  0
  4 33  1  0  0  0  0
  5 22  1  0  0  0  0
  5  6  1  0  0  0  0
  6  7  2  0  0  0  0
  6 34  1  0  0  0  0
  7  8  1  0  0  0  0
  8 22  2  0  0  0  0
  8  9  1  0  0  0  0
  9 10  1  0  0  0  0
  9 19  2  0  0  0  0
 10 14  1  0  0  0  0
 10 11  1  0  0  0  0
 11 18  1  0  0  0  0
 11 12  1  0  0  0  0
 11 35  1  0  0  0  0
 12 13  1  0  0  0  0
 12 36  1  0  0  0  0
 12 37  1  0  0  0  0
 13 14  1  0  0  0  0
 13 38  1  0  0  0  0
 13 39  1  0  0  0  0
 14 15  1  0  0  0  0
 14 40  1  0  0  0  0
 15 16  1  0  0  0  0
 15 18  1  0  0  0  0
 15 41  1  0  0  0  0
 16 17  1  0  0  0  0
 16 42  1  0  0  0  0
 16 43  1  0  0  0  0
 17 44  1  0  0  0  0
 18 45  1  0  0  0  0
 18 46  1  0  0  0  0
 19 20  1  0  0  0  0
 20 21  2  0  0  0  0
 20 47  1  0  0  0  0
 21 22  1  0  0  0  0
 23 27  1  0  0  0  0
 23 24  1  0  0  0  0
 23 48  1  0  0  0  0
 24 25  1  0  0  0  0
 24 49  1  0  0  0  0
 24 50  1  0  0  0  0
 25 26  1  0  0  0  0
 25 51  1  0  0  0  0
 25 52  1  0  0  0  0
 26 27  1  0  0  0  0
 27 53  1  0  0  0  0
 27 54  1  0  0  0  0
M  END
> <s_m_source_file>
AV-unprocessed.smi

> <i_m_source_file_index>
227

> <i_lp_mmshare_version>
43012

> <i_f3d_flags>
0

> <s_epik_input>
W0NIMl0xT1tDSDJdW0NIMl1bQ0BIXTFbQ0BIXShbQ0gyXVtPSF0pW0NIMl1uKFtjSF1uMiljKGMyMyluW2NIXW5jM04oW0NASF00NSlbQ0BASF0oW0NIMl1bQ0gyXTQpW0NASF0oW0NIMl01KVtDSDJdW09IXQ==

> <s_epik_cmdline>
J2VwaWtfcHl0aG9uJywgJy1waCcsICc3LjAnLCAnLXRuJywgJzgnLCAnLW1hJywgJzIwMCcsICctbWV0YWxfYmluZGluZycsICctaW1hZScsICc8aW5maWxlLm1hZT4nLCAnLW9tYWUnLCAnPG91dGZpbGUubWFlPic=

> <r_lp_tautomer_probability>
1

> <r_epik_Ionization_Penalty>
0.0055791

> <r_epik_Ionization_Penalty_Charging>
0

> <r_epik_Ionization_Penalty_Neutral>
0.0055791

> <r_epik_State_Penalty>
0.00401299

> <r_epik_Charging_Adjusted_Penalty>
0.00401299

> <i_epik_Tot_Q>
0

> <i_epik_Tot_abs_Q>
0

> <r_epik_Metal_State_Penalty>
-0

> <b_epik_Metal_Only>
0

> <s_lp_Force_Field>
OPLS_2005

> <r_lp_Energy>
89.6515

> <b_lp_Chiralities_Consistent>
1

> <s_lp_Variant>
AV-unprocessed.smi:227-7

> <Gold.Version>
5.8.1

> <Gold.Id.Protein>
6NUR|6NUR_protein|mol2

> <Gold.PLP.Fitness>
46.4572

> <Gold.PLP.PLP>
-44.5565

> <Gold.PLP.part.hbond>
-3.0097

> <Gold.PLP.part.metal>
0.0000

> <Gold.PLP.part.buried>
-7.5648

> <Gold.PLP.part.nonpolar>
-34.1116

> <Gold.PLP.part.repulsive>
0.1278

> <Gold.PLP.ligand.clash>
0.0000

> <Gold.PLP.ligand.torsion>
2.1055

> <Gold.PLP.Chemscore.Hbond>
2.0000

> <Gold.PLP.Chemscore.CHOScore>
0.0000

> <Gold.PLP.Chemscore.Metal>
0.0000

> <Gold.Chemscore.Hbonds>
donor molecule, donor type, donor heavy atom, donor atom, acceptor molecule, acceptor atom, score
      P1  H  6896  6907       L1     7  1.00
      P1  H  7997  8010       L1     1  1.00

> <Gold.PLP.Chemscore.Internal.Correction>
0.1118

> <Gold.Rescore>
     Score         DG    S(hbond)    S(metal)    S(lipo)     H(rot)  DE(clash)    DE(int)     intcor
     12.01     -14.61       1.88        0.00     103.25       3.61       0.25       2.35       ----

> <Gold.Chemscore.Fitness>
12.0126

> <Gold.Chemscore.DG>
-14.6150

> <Gold.Chemscore.ZeroCoef>
-5.4800

> <Gold.Chemscore.Hbond>
1.8831

> <Gold.Chemscore.Metal>
0.0000

> <Gold.Chemscore.Lipo>
103.2450

> <Gold.Chemscore.Internal_Hbond>
0.0000

> <Gold.Chemscore.DEClash>
0.2500

> <Gold.Chemscore.DEInternal>
2.3523

> <Gold.Chemscore.Rot>
3.6071

> <Gold.Chemscore.Internal.Correction>
   9.000000E+99

> <Gold.Chemscore.Hbonds>
donor molecule, donor type, donor heavy atom, donor atom, acceptor molecule, acceptor atom, score
      P1  H  6896  6907       L1     7  0.70
      P1  H  7997  8010       L1     1  0.78

> <Gold.Chemscore.Hbond.Weighted>
-6.2895

> <Gold.Chemscore.Metal.Weighted>
-0.0000

> <Gold.Chemscore.Lipo.Weighted>
-12.0797

> <Gold.Chemscore.Internal_Hbond.Weighted>
0.0000

> <Gold.Chemscore.DEClash.Weighted>
0.2500

> <Gold.Chemscore.DEInternal.Weighted>
2.3523

> <Gold.Chemscore.Rot.Weighted>
9.2342

> <Gold.Chemscore.Internal.Correction.Weighted>
   9.000000E+99

> <Gold.Protein.RotatedTorsions>
[ 6907 6896 6895 6894 ] final   19.54 input  -60.11 | X-H torsion
[ 7974 7965 7964 7962 ] final  110.43 input  175.53 | X-H torsion
[ 8008 7997 7996 7995 ] final   91.57 input   59.86 | X-H torsion
[ 10167 10162 10161 10158 ] final   72.01 input  -65.29 | X-H torsion
[ 10718 10713 10712 10709 ] final   89.50 input   66.30 | X-H torsion
[ 10763 10752 10751 10750 ] final   81.89 input  -60.55 | X-H torsion
[ 11005 11000 10999 10996 ] final  -94.77 input  -57.11 | X-H torsion

> <Gold.Protein.ActiveResidues>
 VAL166  LYS551  ARG553  GLY616  TRP617  ASP618  TYR619  PRO620  LYS621  CYS622 
 ASP623  PHE694  ASN695  SER759  ASP760  ASP761  ALA762  ILE779  LEU786  VAL792 
 PHE793  MET794  SER795  GLU796  ALA797  LYS798  CYS799  TRP800  GLU811  SER814 

> <Gold.Protein.RotatedAtoms>
  151.8825  135.0448  160.0489 H   0  0  0  0  0  0  0  0  0  0  0  0  # atno 6907 bound_to 6896
  152.2501  133.5203  159.5329 H   0  0  0  0  0  0  0  0  0  0  0  0  # atno 6908 bound_to 6896
  150.7081  134.0887  159.3966 H   0  0  0  0  0  0  0  0  0  0  0  0  # atno 6909 bound_to 6896
  145.2551  139.2724  143.4047 H   0  0  0  0  0  0  0  0  0  0  0  0  # atno 7974 bound_to 7965
  156.0253  140.3336  155.7082 H   0  0  0  0  0  0  0  0  0  0  0  0  # atno 8008 bound_to 7997
  155.5963  140.0651  157.2763 H   0  0  0  0  0  0  0  0  0  0  0  0  # atno 8009 bound_to 7997
  154.4332  140.1818  156.1115 H   0  0  0  0  0  0  0  0  0  0  0  0  # atno 8010 bound_to 7997
  140.0400  144.5397  150.7442 H   0  0  0  0  0  0  0  0  0  0  0  0  # atno 10167 bound_to 10162
  157.6955  131.0335  150.3435 H   0  0  0  0  0  0  0  0  0  0  0  0  # atno 10718 bound_to 10713
  153.1156  135.4748  154.9109 H   0  0  0  0  0  0  0  0  0  0  0  0  # atno 10763 bound_to 10752
  154.7524  135.3109  154.8534 H   0  0  0  0  0  0  0  0  0  0  0  0  # atno 10764 bound_to 10752
  153.9112  135.6865  153.4804 H   0  0  0  0  0  0  0  0  0  0  0  0  # atno 10765 bound_to 10752
  141.1461  133.7979  157.0344 H   0  0  0  0  0  0  0  0  0  0  0  0  # atno 11005 bound_to 11000
  146.3291  140.2952  142.8617 LP  0  0  0  0  0  0  0  0  0  0  0  0  # atno 17320 bound_to 7965
  144.9468  140.8137  143.5596 LP  0  0  0  0  0  0  0  0  0  0  0  0  # atno 17321 bound_to 7965
  140.7264  143.2641  151.4104 LP  0  0  0  0  0  0  0  0  0  0  0  0  # atno 17342 bound_to 10162
  139.6020  144.1275  152.2208 LP  0  0  0  0  0  0  0  0  0  0  0  0  # atno 17343 bound_to 10162
  156.3893  130.3895  149.7042 LP  0  0  0  0  0  0  0  0  0  0  0  0  # atno 17370 bound_to 10713
  156.4397  130.7855  151.2876 LP  0  0  0  0  0  0  0  0  0  0  0  0  # atno 17371 bound_to 10713
  140.0733  134.9690  157.1503 LP  0  0  0  0  0  0  0  0  0  0  0  0  # atno 17394 bound_to 11000
  140.3680  134.2422  155.7180 LP  0  0  0  0  0  0  0  0  0  0  0  0  # atno 17395 bound_to 11000

$$$$
