#       Name:                AV-unprocessed.smi:49
#       Creating user name   scv26
#       Creation time:       Thu Mar 26 16:33:55 2020


#       File generated by GOLD software.
#

@<TRIPOS>MOLECULE
AV-unprocessed.smi:49
    32    33     1
SMALL
NO_CHARGES


@<TRIPOS>ATOM
      1 ****        -4.2099   0.9485   0.6315 C.3            1 S1                 0.0000
      2 ****        -3.7024  -0.4974   0.6219 C.3            1 S1                 0.0000
      3 ****        -2.2117  -0.5814   0.5908 C.2            1 S1                 0.0000
      4 ****        -1.4607  -0.4584  -0.4983 N.2            1 S1                 0.0000
      5 ****        -0.2149  -0.6029   0.0467 C.2            1 S1                 0.0000
      6 ****         1.0316  -0.4951  -0.7777 C.3            1 S1                 0.0000
      7 ****         1.6024   0.9300  -0.7963 C.3            1 S1                 0.0000
      8 ****         3.0913   0.6905  -1.0008 C.3            1 S1                 0.0000
      9 ****         3.8878   1.7723  -0.5670 O.3            1 S1                 0.0000
     10 ****         3.3260  -0.5718  -0.1766 C.3            1 S1                 0.0000
     11 ****         2.1198  -1.3796  -0.3392 N.3            1 S1                 0.0000
     12 ****        -0.1750  -0.7741   1.3692 N.2            1 S1                 0.0000
     13 ****        -1.4844  -0.7640   1.6945 N.pl3          1 S1                 0.0000
     14 ****         0.7771  -0.7645  -1.8037 H              1 S1                 0.0000
     15 ****         3.2944   0.4908  -2.0539 H              1 S1                 0.0000
     16 ****        -1.8186  -0.8712   2.6415 H              1 S1                 0.0000
     17 ****        -5.2993   0.9780   0.6558 H              1 S1                 0.0000
     18 ****        -3.8820   1.4859  -0.2588 H              1 S1                 0.0000
     19 ****        -3.8413   1.4888   1.5039 H              1 S1                 0.0000
     20 ****        -4.0711  -1.0260   1.5018 H              1 S1                 0.0000
     21 ****        -4.0994  -1.0243  -0.2465 H              1 S1                 0.0000
     22 ****         1.1515   1.5617  -1.5620 H              1 S1                 0.0000
     23 ****         1.4425   1.4107   0.1709 H              1 S1                 0.0000
     24 ****         4.7970   1.5386  -0.6753 H              1 S1                 0.0000
     25 ****         4.2228  -1.1120  -0.4806 H              1 S1                 0.0000
     26 ****         3.4398  -0.3072   0.8757 H              1 S1                 0.0000
     27 ****         2.2858  -2.0666  -1.0673 H              1 S1                 0.0000
     28 ****        -1.7304  -0.3037  -1.4487 LP             1 S1                 0.0000
     29 ****         3.7013   1.9631   0.3967 LP             1 S1                 0.0000
     30 ****         3.6809   2.5838  -1.1136 LP             1 S1                 0.0000
     31 ****         1.8837  -1.8335   0.5200 LP             1 S1                 0.0000
     32 ****         0.6204  -0.8821   1.9656 LP             1 S1                 0.0000
@<TRIPOS>BOND
    1    1    2 1     
    2    1   17 1     
    3    1   18 1     
    4    1   19 1     
    5    2    3 1     
    6    2   20 1     
    7    2   21 1     
    8    3   13 1     
    9    3    4 2     
   10    4    5 1     
   11    5    6 1     
   12    5   12 2     
   13    6   14 1     
   14    6   11 1     
   15    6    7 1     
   16    7    8 1     
   17    7   22 1     
   18    7   23 1     
   19    8   15 1     
   20    8    9 1     
   21    8   10 1     
   22    9   24 1     
   23   10   11 1     
   24   10   25 1     
   25   10   26 1     
   26   11   27 1     
   27   12   13 1     
   28   13   16 1     
   29    4   28 1     
   30    9   29 1     
   31    9   30 1     
   32   11   31 1     
   33   12   32 1     
@<TRIPOS>SUBSTRUCTURE
      1 S1             1
@<TRIPOS>SET
LONE_PAIRS      STATIC     ATOMS    <user>   **** ""
5 28 29 30 31 32
DONOR_HYDROGENS      STATIC     ATOMS    <user>   **** ""
3 24 27 16
ATOM$BLUE        STATIC     ATOMS    COLORGROUP SYSTEM
5 28 29 30 31 32
ATOM$RED        STATIC     ATOMS    COLORGROUP SYSTEM
3 24 27 16
