AV-unprocessed.smi:408|AV-procd|sdf|2503|dock4
  -GOLD-   2262022453D 1   1.00000     0.00000
 Structure written by MMmdl.
 41 42  0  0  0  0  0  0  0  0  1 V2000
  153.1297  143.1988  159.7490 C   0  0  0  0  0  0  0  0  0  0  0  0
  152.2013  144.2604  159.1358 C   0  0  0  0  0  0  0  0  0  0  0  0
  151.7785  145.2817  160.2029 C   0  0  0  0  0  0  0  0  0  0  0  0
  150.9635  143.6414  158.4548 C   0  0  0  0  0  0  0  0  0  0  0  0
  151.2913  142.7492  157.2426 C   0  0  0  0  0  0  0  0  0  0  0  0
  150.1275  141.9814  156.8147 N   0  0  0  0  0  0  0  0  0  0  0  0
  150.1480  140.9852  155.9152 C   0  0  0  0  0  0  0  0  0  0  0  0
  151.1775  140.6076  155.3536 O   0  0  0  0  0  0  0  0  0  0  0  0
  148.7975  140.3334  155.5951 C   0  0  0  0  0  0  0  0  0  0  0  0
  147.8284  141.3319  155.0281 C   0  0  0  0  0  0  0  0  0  0  0  0
  147.6319  141.6336  153.7022 C   0  0  0  0  0  0  0  0  0  0  0  0
  146.4065  142.8544  153.4841 S   0  0  0  0  0  0  0  0  0  0  0  0
  146.2171  142.9247  155.2293 C   0  0  0  0  0  0  0  0  0  0  0  0
  145.2815  143.7996  155.8458 N   0  0  0  0  0  0  0  0  0  0  0  0
  144.4588  144.7240  155.3079 C   0  0  0  0  0  0  0  0  0  0  0  0
  144.4388  144.8965  154.0903 O   0  0  0  0  0  0  0  0  0  0  0  0
  143.5665  145.5129  156.2129 C   0  0  0  0  0  0  0  0  0  0  0  0
  142.5936  146.4797  155.5643 C   0  0  0  0  0  0  0  0  0  0  0  0
  143.7983  147.0084  156.2966 C   0  0  0  0  0  0  0  0  0  0  0  0
  146.9969  142.0596  155.8852 N   0  0  0  0  0  0  0  0  0  0  0  0
  152.6027  142.5864  160.4811 H   0  0  0  0  0  0  0  0  0  0  0  0
  153.9760  143.6645  160.2550 H   0  0  0  0  0  0  0  0  0  0  0  0
  153.5388  142.5342  158.9886 H   0  0  0  0  0  0  0  0  0  0  0  0
  152.7681  144.8027  158.3776 H   0  0  0  0  0  0  0  0  0  0  0  0
  151.1960  144.8096  160.9947 H   0  0  0  0  0  0  0  0  0  0  0  0
  151.1692  146.0754  159.7696 H   0  0  0  0  0  0  0  0  0  0  0  0
  152.6472  145.7524  160.6644 H   0  0  0  0  0  0  0  0  0  0  0  0
  150.3880  143.0715  159.1857 H   0  0  0  0  0  0  0  0  0  0  0  0
  150.3100  144.4498  158.1236 H   0  0  0  0  0  0  0  0  0  0  0  0
  151.6689  143.3501  156.4134 H   0  0  0  0  0  0  0  0  0  0  0  0
  152.0769  142.0376  157.4944 H   0  0  0  0  0  0  0  0  0  0  0  0
  149.2401  142.2319  157.2265 H   0  0  0  0  0  0  0  0  0  0  0  0
  148.9419  139.5098  154.8941 H   0  0  0  0  0  0  0  0  0  0  0  0
  148.4028  139.8921  156.5108 H   0  0  0  0  0  0  0  0  0  0  0  0
  148.1337  141.2134  152.8434 H   0  0  0  0  0  0  0  0  0  0  0  0
  145.1920  143.6830  156.8447 H   0  0  0  0  0  0  0  0  0  0  0  0
  143.1884  144.9915  157.0902 H   0  0  0  0  0  0  0  0  0  0  0  0
  142.5917  146.5751  154.4799 H   0  0  0  0  0  0  0  0  0  0  0  0
  141.6203  146.5925  156.0374 H   0  0  0  0  0  0  0  0  0  0  0  0
  143.6491  147.4743  157.2685 H   0  0  0  0  0  0  0  0  0  0  0  0
  144.6010  147.4370  155.6988 H   0  0  0  0  0  0  0  0  0  0  0  0
  1  2  1  0  0  0  0
  1 21  1  0  0  0  0
  1 22  1  0  0  0  0
  1 23  1  0  0  0  0
  2  3  1  0  0  0  0
  2  4  1  0  0  0  0
  2 24  1  0  0  0  0
  3 25  1  0  0  0  0
  3 26  1  0  0  0  0
  3 27  1  0  0  0  0
  4  5  1  0  0  0  0
  4 28  1  0  0  0  0
  4 29  1  0  0  0  0
  5  6  1  0  0  0  0
  5 30  1  0  0  0  0
  5 31  1  0  0  0  0
  6  7  1  0  0  0  0
  6 32  1  0  0  0  0
  7  8  2  0  0  0  0
  7  9  1  0  0  0  0
  9 10  1  0  0  0  0
  9 33  1  0  0  0  0
  9 34  1  0  0  0  0
 10 20  1  0  0  0  0
 10 11  2  0  0  0  0
 11 12  1  0  0  0  0
 11 35  1  0  0  0  0
 12 13  1  0  0  0  0
 13 14  1  0  0  0  0
 13 20  2  0  0  0  0
 14 15  1  0  0  0  0
 14 36  1  0  0  0  0
 15 16  2  0  0  0  0
 15 17  1  0  0  0  0
 17 19  1  0  0  0  0
 17 18  1  0  0  0  0
 17 37  1  0  0  0  0
 18 19  1  0  0  0  0
 18 38  1  0  0  0  0
 18 39  1  0  0  0  0
 19 40  1  0  0  0  0
 19 41  1  0  0  0  0
M  END
> <s_m_source_file>
AV-unprocessed.smi

> <i_m_source_file_index>
408

> <i_lp_mmshare_version>
43012

> <i_f3d_flags>
0

> <s_epik_input>
W0NIM11bQ0hdKFtDSDNdKVtDSDJdW0NIMl1bTkhdQyg9TylbQ0gyXWMxW2NIXXNjKG4xKVtOSF1DKD1PKVtDSF0yW0NIMl1bQ0gyXTI=

> <s_epik_cmdline>
J2VwaWtfcHl0aG9uJywgJy1waCcsICc3LjAnLCAnLXRuJywgJzgnLCAnLW1hJywgJzIwMCcsICctbWV0YWxfYmluZGluZycsICctaW1hZScsICc8aW5maWxlLm1hZT4nLCAnLW9tYWUnLCAnPG91dGZpbGUubWFlPic=

> <r_lp_tautomer_probability>
1

> <r_epik_Ionization_Penalty>
0.000153743

> <r_epik_Ionization_Penalty_Charging>
0

> <r_epik_Ionization_Penalty_Neutral>
0.000153743

> <r_epik_State_Penalty>
-0

> <r_epik_Charging_Adjusted_Penalty>
0

> <i_epik_Tot_Q>
0

> <i_epik_Tot_abs_Q>
0

> <r_epik_Metal_State_Penalty>
0.0946566

> <b_epik_Metal_Only>
0

> <s_lp_Force_Field>
OPLS_2005

> <r_lp_Energy>
15.0159

> <b_lp_Chiralities_Consistent>
1

> <s_lp_Variant>
AV-unprocessed.smi:408-1

> <Gold.Version>
5.8.1

> <Gold.Id.Protein>
6NUR|6NUR_protein|mol2

> <Gold.PLP.Fitness>
46.0952

> <Gold.PLP.PLP>
-41.3704

> <Gold.PLP.part.hbond>
-1.7317

> <Gold.PLP.part.metal>
0.0000

> <Gold.PLP.part.buried>
-6.6417

> <Gold.PLP.part.nonpolar>
-32.2411

> <Gold.PLP.part.repulsive>
0.3576

> <Gold.PLP.ligand.clash>
0.0000

> <Gold.PLP.ligand.torsion>
0.5111

> <Gold.PLP.Chemscore.Hbond>
0.8800

> <Gold.PLP.Chemscore.CHOScore>
1.0000

> <Gold.PLP.Chemscore.Metal>
0.0000

> <Gold.Chemscore.Hbonds>
donor molecule, donor type, donor heavy atom, donor atom, acceptor molecule, acceptor atom, score
      P1  H  7989  7998       L1     8  0.86
      L1  C    11    35       P1  7957  1.00

> <Gold.PLP.Chemscore.Internal.Correction>
0.1070

> <Gold.Rescore>
     Score         DG    S(hbond)    S(metal)    S(lipo)     H(rot)  DE(clash)    DE(int)     intcor
     12.38     -14.82       0.90        0.00      97.58       1.99       0.65       1.79       ----

> <Gold.Chemscore.Fitness>
12.3828

> <Gold.Chemscore.DG>
-14.8192

> <Gold.Chemscore.ZeroCoef>
-5.4800

> <Gold.Chemscore.Hbond>
0.9033

> <Gold.Chemscore.Metal>
0.0000

> <Gold.Chemscore.Lipo>
97.5750

> <Gold.Chemscore.Internal_Hbond>
0.0000

> <Gold.Chemscore.DEClash>
0.6458

> <Gold.Chemscore.DEInternal>
1.7906

> <Gold.Chemscore.Rot>
1.9899

> <Gold.Chemscore.Internal.Correction>
   9.000000E+99

> <Gold.Chemscore.Hbonds>
donor molecule, donor type, donor heavy atom, donor atom, acceptor molecule, acceptor atom, score
      P1  H  7989  7998       L1     8  0.86

> <Gold.Chemscore.Hbond.Weighted>
-3.0170

> <Gold.Chemscore.Metal.Weighted>
-0.0000

> <Gold.Chemscore.Lipo.Weighted>
-11.4163

> <Gold.Chemscore.Internal_Hbond.Weighted>
0.0000

> <Gold.Chemscore.DEClash.Weighted>
0.6458

> <Gold.Chemscore.DEInternal.Weighted>
1.7906

> <Gold.Chemscore.Rot.Weighted>
5.0941

> <Gold.Chemscore.Internal.Correction.Weighted>
   9.000000E+99

> <Gold.Protein.RotatedTorsions>
[ 6907 6896 6895 6894 ] final   77.95 input  -60.11 | X-H torsion
[ 7974 7965 7964 7962 ] final  132.38 input  175.53 | X-H torsion
[ 8008 7997 7996 7995 ] final    2.46 input   59.86 | X-H torsion
[ 10167 10162 10161 10158 ] final  120.54 input  -65.29 | X-H torsion
[ 10718 10713 10712 10709 ] final -136.69 input   66.30 | X-H torsion
[ 10763 10752 10751 10750 ] final  -39.62 input  -60.55 | X-H torsion
[ 11005 11000 10999 10996 ] final  -36.79 input  -57.11 | X-H torsion

> <Gold.Protein.ActiveResidues>
 VAL166  LYS551  ARG553  GLY616  TRP617  ASP618  TYR619  PRO620  LYS621  CYS622 
 ASP623  PHE694  ASN695  SER759  ASP760  ASP761  ALA762  ILE779  LEU786  VAL792 
 PHE793  MET794  SER795  GLU796  ALA797  LYS798  CYS799  TRP800  GLU811  SER814 

> <Gold.Protein.RotatedAtoms>
  152.5139  134.3738  159.9327 H   0  0  0  0  0  0  0  0  0  0  0  0  # atno 6907 bound_to 6896
  151.3693  133.3854  159.2705 H   0  0  0  0  0  0  0  0  0  0  0  0  # atno 6908 bound_to 6896
  150.9590  134.9000  159.7777 H   0  0  0  0  0  0  0  0  0  0  0  0  # atno 6909 bound_to 6896
  144.9975  139.4345  143.5309 H   0  0  0  0  0  0  0  0  0  0  0  0  # atno 7974 bound_to 7965
  154.6919  140.2655  155.6804 H   0  0  0  0  0  0  0  0  0  0  0  0  # atno 8008 bound_to 7997
  156.2735  140.2789  156.1423 H   0  0  0  0  0  0  0  0  0  0  0  0  # atno 8009 bound_to 7997
  155.0885  140.0373  157.2651 H   0  0  0  0  0  0  0  0  0  0  0  0  # atno 8010 bound_to 7997
  139.5976  144.7046  151.3140 H   0  0  0  0  0  0  0  0  0  0  0  0  # atno 10167 bound_to 10162
  156.2798  130.7314  151.1307 H   0  0  0  0  0  0  0  0  0  0  0  0  # atno 10718 bound_to 10713
  153.9325  135.6770  153.4745 H   0  0  0  0  0  0  0  0  0  0  0  0  # atno 10763 bound_to 10752
  153.0972  135.4845  154.8798 H   0  0  0  0  0  0  0  0  0  0  0  0  # atno 10764 bound_to 10752
  154.7420  135.3163  154.8668 H   0  0  0  0  0  0  0  0  0  0  0  0  # atno 10765 bound_to 10752
  140.9902  133.7009  156.1837 H   0  0  0  0  0  0  0  0  0  0  0  0  # atno 11005 bound_to 11000
  146.3445  139.9343  142.8749 LP  0  0  0  0  0  0  0  0  0  0  0  0  # atno 17320 bound_to 7965
  145.2200  140.9931  143.4051 LP  0  0  0  0  0  0  0  0  0  0  0  0  # atno 17321 bound_to 7965
  140.7224  143.7099  150.7778 LP  0  0  0  0  0  0  0  0  0  0  0  0  # atno 17342 bound_to 10162
  140.0668  143.5100  152.2600 LP  0  0  0  0  0  0  0  0  0  0  0  0  # atno 17343 bound_to 10162
  157.7311  131.0611  150.5696 LP  0  0  0  0  0  0  0  0  0  0  0  0  # atno 17370 bound_to 10713
  156.5801  130.4302  149.5981 LP  0  0  0  0  0  0  0  0  0  0  0  0  # atno 17371 bound_to 10713
  140.7051  134.4522  157.5584 LP  0  0  0  0  0  0  0  0  0  0  0  0  # atno 17394 bound_to 11000
  139.8989  134.8603  156.1983 LP  0  0  0  0  0  0  0  0  0  0  0  0  # atno 17395 bound_to 11000

$$$$
