#       Name:                AV-unprocessed.smi:2693
#       Creating user name   scv26
#       Creation time:       Fri Mar 27 14:43:22 2020


#       File generated by GOLD software.
#

@<TRIPOS>MOLECULE
AV-unprocessed.smi:2693
    51    53     1
SMALL
NO_CHARGES


@<TRIPOS>ATOM
      1 ****        -6.8602  -2.3634   0.2009 C.3            1 S1                 0.0000
      2 ****        -6.1363  -1.1568  -0.1886 N.pl3          1 S1                 0.0000
      3 ****        -6.9067  -0.0679  -0.7821 C.3            1 S1                 0.0000
      4 ****        -4.7553  -1.0482  -0.0007 C.ar           1 S1                 0.0000
      5 ****        -4.1173  -2.1060   0.5178 N.ar           1 S1                 0.0000
      6 ****        -2.7831  -2.0061   0.6960 C.ar           1 S1                 0.0000
      7 ****        -2.0703  -0.8370   0.3626 C.ar           1 S1                 0.0000
      8 ****        -0.6627  -0.8074   0.5524 N.am           1 S1                 0.0000
      9 ****         0.1510   0.2615   0.5732 C.2            1 S1                 0.0000
     10 ****        -0.2156   1.4354   0.5289 O.2            1 S1                 0.0000
     11 ****         1.4353  -0.1067   0.6652 N.am           1 S1                 0.0000
     12 ****         2.5574   0.8245   0.6765 C.3            1 S1                 0.0000
     13 ****         3.9091   0.1129   0.7384 C.3            1 S1                 0.0000
     14 ****         5.0007   0.0277   1.7446 C.3            1 S1                 0.0000
     15 ****         6.1948   0.2767   0.7845 C.3            1 S1                 0.0000
     16 ****         5.6131   0.7085  -0.4701 O.3            1 S1                 0.0000
     17 ****         4.3855   1.2928  -0.0866 C.3            1 S1                 0.0000
     18 ****         2.9990   1.2984  -0.7602 C.3            1 S1                 0.0000
     19 ****         2.7860   0.3683  -1.9720 C.3            1 S1                 0.0000
     20 ****         2.4853   2.6754  -1.1820 C.3            1 S1                 0.0000
     21 ****        -2.8401   0.2173  -0.1844 C.ar           1 S1                 0.0000
     22 ****        -4.1737   0.1037  -0.3599 N.ar           1 S1                 0.0000
     23 ****        -6.5125  -3.2181  -0.3801 H              1 S1                 0.0000
     24 ****        -7.9337  -2.2644   0.0400 H              1 S1                 0.0000
     25 ****        -6.7023  -2.5779   1.2584 H              1 S1                 0.0000
     26 ****        -6.5025   0.1979  -1.7596 H              1 S1                 0.0000
     27 ****        -6.8697   0.8149  -0.1431 H              1 S1                 0.0000
     28 ****        -7.9538  -0.3373  -0.9205 H              1 S1                 0.0000
     29 ****        -2.2820  -2.8693   1.1090 H              1 S1                 0.0000
     30 ****        -0.2246  -1.7059   0.6940 H              1 S1                 0.0000
     31 ****         1.6538  -1.0912   0.7067 H              1 S1                 0.0000
     32 ****         2.4633   1.6318   1.4086 H              1 S1                 0.0000
     33 ****         3.8732  -0.8199   0.1709 H              1 S1                 0.0000
     34 ****         4.9175   0.8063   2.5042 H              1 S1                 0.0000
     35 ****         5.0527  -0.9451   2.2341 H              1 S1                 0.0000
     36 ****         6.8587   1.0453   1.1819 H              1 S1                 0.0000
     37 ****         6.7823  -0.6272   0.6214 H              1 S1                 0.0000
     38 ****         4.5579   2.2025   0.5002 H              1 S1                 0.0000
     39 ****         3.3573   0.7130  -2.8345 H              1 S1                 0.0000
     40 ****         1.7375   0.3407  -2.2704 H              1 S1                 0.0000
     41 ****         3.0853  -0.6627  -1.7933 H              1 S1                 0.0000
     42 ****         3.0469   3.0695  -2.0293 H              1 S1                 0.0000
     43 ****         2.5713   3.4007  -0.3724 H              1 S1                 0.0000
     44 ****         1.4342   2.6410  -1.4697 H              1 S1                 0.0000
     45 ****        -2.4078   1.1504  -0.5099 H              1 S1                 0.0000
     46 ****        -4.6118  -2.9396   0.7639 LP             1 S1                 0.0000
     47 ****        -1.1899   1.6532   0.4724 LP             1 S1                 0.0000
     48 ****         0.4609   2.1716   0.5494 LP             1 S1                 0.0000
     49 ****         5.4626  -0.0696  -1.0799 LP             1 S1                 0.0000
     50 ****         6.2007   1.3786  -0.9237 LP             1 S1                 0.0000
     51 ****        -4.7097   0.8548  -0.7454 LP             1 S1                 0.0000
@<TRIPOS>BOND
    1    1    2 1     
    2    1   23 1     
    3    1   24 1     
    4    1   25 1     
    5    2    3 1     
    6    2    4 1     
    7    3   26 1     
    8    3   27 1     
    9    3   28 1     
   10    4   22 ar    
   11    4    5 ar    
   12    5    6 ar    
   13    6    7 ar    
   14    6   29 1     
   15    7    8 1     
   16    7   21 ar    
   17    8    9 am    
   18    8   30 1     
   19    9   10 2     
   20    9   11 am    
   21   11   12 1     
   22   11   31 1     
   23   12   18 1     
   24   12   13 1     
   25   12   32 1     
   26   13   17 1     
   27   13   14 1     
   28   13   33 1     
   29   14   15 1     
   30   14   34 1     
   31   14   35 1     
   32   15   16 1     
   33   15   36 1     
   34   15   37 1     
   35   16   17 1     
   36   17   18 1     
   37   17   38 1     
   38   18   19 1     
   39   18   20 1     
   40   19   39 1     
   41   19   40 1     
   42   19   41 1     
   43   20   42 1     
   44   20   43 1     
   45   20   44 1     
   46   21   22 ar    
   47   21   45 1     
   48    5   46 1     
   49   10   47 1     
   50   10   48 1     
   51   16   49 1     
   52   16   50 1     
   53   22   51 1     
@<TRIPOS>SUBSTRUCTURE
      1 S1             1
@<TRIPOS>SET
LONE_PAIRS      STATIC     ATOMS    <user>   **** ""
6 46 47 48 49 50 51
DONOR_HYDROGENS      STATIC     ATOMS    <user>   **** ""
2 30 31
ATOM$BLUE        STATIC     ATOMS    COLORGROUP SYSTEM
6 46 47 48 49 50 51
ATOM$RED        STATIC     ATOMS    COLORGROUP SYSTEM
2 30 31
