#       Name:                AV-unprocessed.smi:1324
#       Creating user name   scv26
#       Creation time:       Fri Mar 27 05:04:02 2020


#       File generated by GOLD software.
#

@<TRIPOS>MOLECULE
AV-unprocessed.smi:1324
    48    49     1
SMALL
NO_CHARGES


@<TRIPOS>ATOM
      1 ****        -6.5797  -1.0616   1.7973 C.3            1 S1                 0.0000
      2 ****        -5.0747  -0.8980   1.7901 C.2            1 S1                 0.0000
      3 ****        -4.4664   0.1902   2.1309 N.2            1 S1                 0.0000
      4 ****        -3.0656   0.2217   2.0849 C.2            1 S1                 0.0000
      5 ****        -2.4249   1.5348   2.5000 C.3            1 S1                 0.0000
      6 ****        -2.3378  -0.8643   1.6910 C.2            1 S1                 0.0000
      7 ****        -0.8106  -0.8628   1.6290 C.3            1 S1                 0.0000
      8 ****        -0.1806  -0.2678   0.3664 C.2            1 S1                 0.0000
      9 ****        -0.8862   0.1497  -0.5524 O.2            1 S1                 0.0000
     10 ****         1.1608  -0.2360   0.3408 N.am           1 S1                 0.0000
     11 ****         1.9800   0.3010  -0.7442 C.3            1 S1                 0.0000
     12 ****         2.0982  -0.7598  -1.8636 C.3            1 S1                 0.0000
     13 ****         3.2006  -0.5537  -2.9186 C.3            1 S1                 0.0000
     14 ****         3.5007   0.9037  -3.3007 C.3            1 S1                 0.0000
     15 ****         4.5101   1.5682  -2.3498 C.3            1 S1                 0.0000
     16 ****         3.9426   1.9472  -0.9748 C.3            1 S1                 0.0000
     17 ****         3.3291   0.7845  -0.1735 C.3            1 S1                 0.0000
     18 ****        -3.0431  -2.1000   1.2999 C.2            1 S1                 0.0000
     19 ****        -2.4879  -3.1299   0.9206 O.2            1 S1                 0.0000
     20 ****        -4.3914  -2.0413   1.3791 N.am           1 S1                 0.0000
     21 ****        -4.9200  -2.8626   1.1234 H              1 S1                 0.0000
     22 ****        -7.0362  -0.3619   1.0969 H              1 S1                 0.0000
     23 ****        -6.9743  -0.8568   2.7926 H              1 S1                 0.0000
     24 ****        -6.8769  -2.0723   1.5142 H              1 S1                 0.0000
     25 ****        -1.8176   1.3981   3.3948 H              1 S1                 0.0000
     26 ****        -3.1791   2.2912   2.7207 H              1 S1                 0.0000
     27 ****        -1.7894   1.9220   1.7034 H              1 S1                 0.0000
     28 ****        -0.4274  -0.3075   2.4852 H              1 S1                 0.0000
     29 ****        -0.4275  -1.8754   1.7623 H              1 S1                 0.0000
     30 ****         1.6546  -0.6069   1.1396 H              1 S1                 0.0000
     31 ****         1.4609   1.1735  -1.1461 H              1 S1                 0.0000
     32 ****         2.2449  -1.7466  -1.4215 H              1 S1                 0.0000
     33 ****         1.1375  -0.8140  -2.3777 H              1 S1                 0.0000
     34 ****         4.1200  -1.0332  -2.5803 H              1 S1                 0.0000
     35 ****         2.9100  -1.1006  -3.8163 H              1 S1                 0.0000
     36 ****         3.9396   0.9041  -4.2990 H              1 S1                 0.0000
     37 ****         2.5838   1.4890  -3.3791 H              1 S1                 0.0000
     38 ****         5.3800   0.9226  -2.2231 H              1 S1                 0.0000
     39 ****         4.8855   2.4766  -2.8223 H              1 S1                 0.0000
     40 ****         4.7493   2.3851  -0.3860 H              1 S1                 0.0000
     41 ****         3.2037   2.7407  -1.0919 H              1 S1                 0.0000
     42 ****         3.1728   1.1510   0.8424 H              1 S1                 0.0000
     43 ****         4.0337  -0.0432  -0.0840 H              1 S1                 0.0000
     44 ****        -4.9850   0.9943   2.4218 LP             1 S1                 0.0000
     45 ****        -1.8824   0.1024  -0.4790 LP             1 S1                 0.0000
     46 ****        -0.4630   0.5361  -1.3719 LP             1 S1                 0.0000
     47 ****        -1.4904  -3.1674   0.8612 LP             1 S1                 0.0000
     48 ****        -3.0341  -3.9297   0.6716 LP             1 S1                 0.0000
@<TRIPOS>BOND
    1    1    2 1     
    2    1   22 1     
    3    1   23 1     
    4    1   24 1     
    5    2   20 1     
    6    2    3 2     
    7    3    4 1     
    8    4    5 1     
    9    4    6 2     
   10    5   25 1     
   11    5   26 1     
   12    5   27 1     
   13    6    7 1     
   14    6   18 1     
   15    7    8 1     
   16    7   28 1     
   17    7   29 1     
   18    8    9 2     
   19    8   10 am    
   20   10   11 1     
   21   10   30 1     
   22   11   17 1     
   23   11   12 1     
   24   11   31 1     
   25   12   13 1     
   26   12   32 1     
   27   12   33 1     
   28   13   14 1     
   29   13   34 1     
   30   13   35 1     
   31   14   15 1     
   32   14   36 1     
   33   14   37 1     
   34   15   16 1     
   35   15   38 1     
   36   15   39 1     
   37   16   17 1     
   38   16   40 1     
   39   16   41 1     
   40   17   42 1     
   41   17   43 1     
   42   18   19 2     
   43   18   20 am    
   44   20   21 1     
   45    3   44 1     
   46    9   45 1     
   47    9   46 1     
   48   19   47 1     
   49   19   48 1     
@<TRIPOS>SUBSTRUCTURE
      1 S1             1
@<TRIPOS>SET
LONE_PAIRS      STATIC     ATOMS    <user>   **** ""
5 44 45 46 47 48
DONOR_HYDROGENS      STATIC     ATOMS    <user>   **** ""
2 30 21
ATOM$BLUE        STATIC     ATOMS    COLORGROUP SYSTEM
5 44 45 46 47 48
ATOM$RED        STATIC     ATOMS    COLORGROUP SYSTEM
2 30 21
