AV-unprocessed.smi:2321|AV-procd|sdf|9282|dock5
  -GOLD-   2272012503D 1   1.00000     0.00000
 Structure written by MMmdl.
 36 37  0  0  0  0  0  0  0  0  1 V2000
  150.1810  136.4009  158.5743 O   0  0  0  0  0  0  0  0  0  0  0  0
  149.0853  136.9313  158.4054 C   0  0  0  0  0  0  0  0  0  0  0  0
  148.8115  137.8460  157.4548 N   0  0  0  0  0  0  0  0  0  0  0  0
  149.6707  138.3953  156.4651 C   0  0  0  0  0  0  0  0  0  0  0  0
  151.0779  138.4870  156.5937 C   0  0  0  0  0  0  0  0  0  0  0  0
  151.8174  139.0390  155.5284 C   0  0  0  0  0  0  0  0  0  0  0  0
  151.2565  139.4797  154.3822 N   0  0  0  0  0  0  0  0  0  0  0  0
  149.9162  139.3771  154.2576 C   0  0  0  0  0  0  0  0  0  0  0  0
  149.0846  138.8419  155.2617 C   0  0  0  0  0  0  0  0  0  0  0  0
  147.7451  138.7638  155.0713 F   0  0  0  0  0  0  0  0  0  0  0  0
  148.0442  136.6425  159.2082 N   0  0  0  0  0  0  0  0  0  0  0  0
  147.9921  135.7041  160.3319 C   0  0  1  0  0  0  0  0  0  0  0  0
  147.6886  136.4763  161.6281 C   0  0  0  0  0  0  0  0  0  0  0  0
  147.5726  135.5260  162.8290 C   0  0  0  0  0  0  0  0  0  0  0  0
  146.5151  134.4395  162.5794 C   0  0  0  0  0  0  0  0  0  0  0  0
  146.8071  133.6477  161.2874 C   0  0  1  0  0  0  0  0  0  0  0  0
  145.7606  132.5421  161.0375 C   0  0  0  0  0  0  0  0  0  0  0  0
  144.5237  133.0355  161.1033 F   0  0  0  0  0  0  0  0  0  0  0  0
  145.9461  132.0019  159.8329 F   0  0  0  0  0  0  0  0  0  0  0  0
  145.8888  131.5778  161.9490 F   0  0  0  0  0  0  0  0  0  0  0  0
  146.9268  134.6134  160.0887 C   0  0  0  0  0  0  0  0  0  0  0  0
  147.8865  138.2490  157.4887 H   0  0  0  0  0  0  0  0  0  0  0  0
  151.6014  138.1385  157.4703 H   0  0  0  0  0  0  0  0  0  0  0  0
  152.8919  139.1226  155.5971 H   0  0  0  0  0  0  0  0  0  0  0  0
  149.4936  139.7305  153.3286 H   0  0  0  0  0  0  0  0  0  0  0  0
  147.1896  137.1490  159.0265 H   0  0  0  0  0  0  0  0  0  0  0  0
  148.9678  135.2298  160.4531 H   0  0  0  0  0  0  0  0  0  0  0  0
  148.4711  137.2121  161.8181 H   0  0  0  0  0  0  0  0  0  0  0  0
  146.7582  137.0356  161.5186 H   0  0  0  0  0  0  0  0  0  0  0  0
  148.5393  135.0592  163.0219 H   0  0  0  0  0  0  0  0  0  0  0  0
  147.3189  136.0918  163.7259 H   0  0  0  0  0  0  0  0  0  0  0  0
  146.4831  133.7640  163.4348 H   0  0  0  0  0  0  0  0  0  0  0  0
  145.5294  134.9019  162.5150 H   0  0  0  0  0  0  0  0  0  0  0  0
  147.7734  133.1563  161.4126 H   0  0  0  0  0  0  0  0  0  0  0  0
  145.9603  135.0825  159.8993 H   0  0  0  0  0  0  0  0  0  0  0  0
  147.1727  134.0486  159.1891 H   0  0  0  0  0  0  0  0  0  0  0  0
  1  2  2  0  0  0  0
  2  3  1  0  0  0  0
  2 11  1  0  0  0  0
  3  4  1  0  0  0  0
  3 22  1  0  0  0  0
  4  9  1  0  0  0  0
  4  5  2  0  0  0  0
  5  6  1  0  0  0  0
  5 23  1  0  0  0  0
  6  7  2  0  0  0  0
  6 24  1  0  0  0  0
  7  8  1  0  0  0  0
  8  9  2  0  0  0  0
  8 25  1  0  0  0  0
  9 10  1  0  0  0  0
 11 12  1  0  0  0  0
 11 26  1  0  0  0  0
 12 21  1  0  0  0  0
 12 13  1  0  0  0  0
 12 27  1  0  0  0  0
 13 14  1  0  0  0  0
 13 28  1  0  0  0  0
 13 29  1  0  0  0  0
 14 15  1  0  0  0  0
 14 30  1  0  0  0  0
 14 31  1  0  0  0  0
 15 16  1  0  0  0  0
 15 32  1  0  0  0  0
 15 33  1  0  0  0  0
 16 17  1  0  0  0  0
 16 21  1  0  0  0  0
 16 34  1  0  0  0  0
 17 18  1  0  0  0  0
 17 19  1  0  0  0  0
 17 20  1  0  0  0  0
 21 35  1  0  0  0  0
 21 36  1  0  0  0  0
M  END
> <s_m_source_file>
AV-unprocessed.smi

> <i_m_source_file_index>
2321

> <i_lp_mmshare_version>
43012

> <i_f3d_flags>
0

> <s_epik_input>
RkMoRikoRilbQ0BASF0oW0NIMl0xKVtDSDJdW0NIMl1bQ0gyXVtDQEhdMVtOSF1DKD1PKVtOSF1jMltjSF1bY0hdbltjSF1jMkY=

> <s_epik_cmdline>
J2VwaWtfcHl0aG9uJywgJy1waCcsICc3LjAnLCAnLXRuJywgJzgnLCAnLW1hJywgJzIwMCcsICctbWV0YWxfYmluZGluZycsICctaW1hZScsICc8aW5maWxlLm1hZT4nLCAnLW9tYWUnLCAnPG91dGZpbGUubWFlPic=

> <r_epik_Ionization_Penalty>
0.00319438

> <r_epik_Ionization_Penalty_Charging>
0

> <r_epik_Ionization_Penalty_Neutral>
0.00319438

> <r_epik_State_Penalty>
0.00222511

> <r_epik_Charging_Adjusted_Penalty>
0.00222511

> <i_epik_Tot_Q>
0

> <i_epik_Tot_abs_Q>
0

> <r_epik_Metal_State_Penalty>
-0

> <b_epik_Metal_Only>
0

> <s_lp_Force_Field>
OPLS_2005

> <r_lp_Energy>
26.7556

> <b_lp_Chiralities_Consistent>
1

> <s_lp_Variant>
AV-unprocessed.smi:2321-2

> <Gold.Version>
5.8.1

> <Gold.Id.Protein>
6NUR|6NUR_protein|mol2

> <Gold.PLP.Fitness>
38.2376

> <Gold.PLP.PLP>
-29.8923

> <Gold.PLP.part.hbond>
-2.0000

> <Gold.PLP.part.metal>
0.0000

> <Gold.PLP.part.buried>
-3.2867

> <Gold.PLP.part.nonpolar>
-24.9479

> <Gold.PLP.part.repulsive>
0.3002

> <Gold.PLP.ligand.clash>
0.0000

> <Gold.PLP.ligand.torsion>
0.3375

> <Gold.PLP.Chemscore.Hbond>
2.0000

> <Gold.PLP.Chemscore.CHOScore>
1.0000

> <Gold.PLP.Chemscore.Metal>
0.0000

> <Gold.Chemscore.Hbonds>
donor molecule, donor type, donor heavy atom, donor atom, acceptor molecule, acceptor atom, score
      P1  H  6896  6908       L1     1  1.00
      P1  H  7989  7998       L1     7  1.00
      L1  C     8    25       P1  7957  1.00

> <Gold.PLP.Chemscore.Internal.Correction>
0.0204

> <Gold.Rescore>
     Score         DG    S(hbond)    S(metal)    S(lipo)     H(rot)  DE(clash)    DE(int)     intcor
     16.27     -17.57       1.91        0.00      70.75       1.00       0.02       1.28       ----

> <Gold.Chemscore.Fitness>
16.2692

> <Gold.Chemscore.DG>
-17.5703

> <Gold.Chemscore.ZeroCoef>
-5.4800

> <Gold.Chemscore.Hbond>
1.9081

> <Gold.Chemscore.Metal>
0.0000

> <Gold.Chemscore.Lipo>
70.7458

> <Gold.Chemscore.Internal_Hbond>
0.0000

> <Gold.Chemscore.DEClash>
0.0239

> <Gold.Chemscore.DEInternal>
1.2772

> <Gold.Chemscore.Rot>
1.0000

> <Gold.Chemscore.Internal.Correction>
   9.000000E+99

> <Gold.Chemscore.Hbonds>
donor molecule, donor type, donor heavy atom, donor atom, acceptor molecule, acceptor atom, score
      P1  H  6896  6908       L1     1  0.91
      P1  H  7989  7998       L1     7  0.45

> <Gold.Chemscore.Hbond.Weighted>
-6.3730

> <Gold.Chemscore.Metal.Weighted>
-0.0000

> <Gold.Chemscore.Lipo.Weighted>
-8.2773

> <Gold.Chemscore.Internal_Hbond.Weighted>
0.0000

> <Gold.Chemscore.DEClash.Weighted>
0.0239

> <Gold.Chemscore.DEInternal.Weighted>
1.2772

> <Gold.Chemscore.Rot.Weighted>
2.5600

> <Gold.Chemscore.Internal.Correction.Weighted>
   9.000000E+99

> <Gold.Protein.RotatedTorsions>
[ 6907 6896 6895 6894 ] final -173.73 input  -60.11 | X-H torsion
[ 7974 7965 7964 7962 ] final -166.63 input  175.53 | X-H torsion
[ 8008 7997 7996 7995 ] final -103.37 input   59.86 | X-H torsion
[ 10167 10162 10161 10158 ] final  -70.01 input  -65.29 | X-H torsion
[ 10718 10713 10712 10709 ] final   24.42 input   66.30 | X-H torsion
[ 10763 10752 10751 10750 ] final -169.05 input  -60.55 | X-H torsion
[ 11005 11000 10999 10996 ] final   11.94 input  -57.11 | X-H torsion

> <Gold.Protein.ActiveResidues>
 VAL166  LYS551  ARG553  GLY616  TRP617  ASP618  TYR619  PRO620  LYS621  CYS622 
 ASP623  PHE694  ASN695  SER759  ASP760  ASP761  ALA762  ILE779  LEU786  VAL792 
 PHE793  MET794  SER795  GLU796  ALA797  LYS798  CYS799  TRP800  GLU811  SER814 

> <Gold.Protein.RotatedAtoms>
  151.5610  133.3403  159.2970 H   0  0  0  0  0  0  0  0  0  0  0  0  # atno 6907 bound_to 6896
  150.8423  134.7722  159.6953 H   0  0  0  0  0  0  0  0  0  0  0  0  # atno 6908 bound_to 6896
  152.4488  134.5446  159.9900 H   0  0  0  0  0  0  0  0  0  0  0  0  # atno 6909 bound_to 6896
  144.7241  140.2638  143.6261 H   0  0  0  0  0  0  0  0  0  0  0  0  # atno 7974 bound_to 7965
  154.8700  140.0423  157.1718 H   0  0  0  0  0  0  0  0  0  0  0  0  # atno 8008 bound_to 7997
  154.8749  140.2964  155.5438 H   0  0  0  0  0  0  0  0  0  0  0  0  # atno 8009 bound_to 7997
  156.2999  140.2422  156.3743 H   0  0  0  0  0  0  0  0  0  0  0  0  # atno 8010 bound_to 7997
  140.5386  143.2316  151.7131 H   0  0  0  0  0  0  0  0  0  0  0  0  # atno 10167 bound_to 10162
  157.1795  130.6796  149.6108 H   0  0  0  0  0  0  0  0  0  0  0  0  # atno 10718 bound_to 10713
  154.6564  135.2918  154.9922 H   0  0  0  0  0  0  0  0  0  0  0  0  # atno 10763 bound_to 10752
  154.0997  135.6578  153.4870 H   0  0  0  0  0  0  0  0  0  0  0  0  # atno 10764 bound_to 10752
  153.0405  135.5239  154.7495 H   0  0  0  0  0  0  0  0  0  0  0  0  # atno 10765 bound_to 10752
  140.4976  134.0778  155.7786 H   0  0  0  0  0  0  0  0  0  0  0  0  # atno 11005 bound_to 11000
  145.8110  139.2003  143.1993 LP  0  0  0  0  0  0  0  0  0  0  0  0  # atno 17320 bound_to 7965
  146.0596  140.7984  142.9741 LP  0  0  0  0  0  0  0  0  0  0  0  0  # atno 17321 bound_to 7965
  139.4980  144.4004  152.0187 LP  0  0  0  0  0  0  0  0  0  0  0  0  # atno 17342 bound_to 10162
  140.3111  144.3537  150.6033 LP  0  0  0  0  0  0  0  0  0  0  0  0  # atno 17343 bound_to 10162
  155.9726  130.4651  150.6243 LP  0  0  0  0  0  0  0  0  0  0  0  0  # atno 17370 bound_to 10713
  157.3966  131.0803  151.1346 LP  0  0  0  0  0  0  0  0  0  0  0  0  # atno 17371 bound_to 10713
  141.1452  133.9068  157.2232 LP  0  0  0  0  0  0  0  0  0  0  0  0  # atno 17394 bound_to 11000
  139.9732  135.0122  156.9565 LP  0  0  0  0  0  0  0  0  0  0  0  0  # atno 17395 bound_to 11000

$$$$
