#       Name:                AV-unprocessed.smi:2934
#       Creating user name   scv26
#       Creation time:       Fri Mar 27 16:14:42 2020


#       File generated by GOLD software.
#

@<TRIPOS>MOLECULE
AV-unprocessed.smi:2934
    48    49     1
SMALL
NO_CHARGES


@<TRIPOS>ATOM
      1 ****        -4.3572   2.9426  -0.3140 C.3            1 S1                 0.0000
      2 ****        -3.5306   1.8271  -0.7880 N.am           1 S1                 0.0000
      3 ****        -2.2009   2.0465  -0.9761 C.2            1 S1                 0.0000
      4 ****        -1.6841   3.1613  -0.8756 O.2            1 S1                 0.0000
      5 ****        -1.4711   0.9481  -1.2462 N.am           1 S1                 0.0000
      6 ****        -0.0272   0.9187  -1.4471 C.3            1 S1                 0.0000
      7 ****         0.7303   0.9692  -0.1057 C.3            1 S1                 0.0000
      8 ****         2.2299   0.6942  -0.2516 C.2            1 S1                 0.0000
      9 ****         2.8203   0.9656  -1.2976 O.2            1 S1                 0.0000
     10 ****         2.8355   0.1484   0.8143 N.am           1 S1                 0.0000
     11 ****         4.2488  -0.2136   0.8870 C.3            1 S1                 0.0000
     12 ****         4.5150  -1.5791   0.2223 C.3            1 S1                 0.0000
     13 ****         4.7736  -2.5586   1.3667 C.3            1 S1                 0.0000
     14 ****         5.4257  -1.7018   2.4469 C.3            1 S1                 0.0000
     15 ****         4.7029  -0.3563   2.3531 C.3            1 S1                 0.0000
     16 ****        -4.1890   0.5857  -1.0532 C.ar           1 S1                 0.0000
     17 ****        -4.9682   0.0293  -0.0099 C.ar           1 S1                 0.0000
     18 ****        -5.6514  -1.1827  -0.2266 C.ar           1 S1                 0.0000
     19 ****        -5.5436  -1.8064  -1.4822 C.ar           1 S1                 0.0000
     20 ****        -4.7550  -1.1839  -2.4672 C.ar           1 S1                 0.0000
     21 ****        -4.0987  -0.0222  -2.2632 N.ar           1 S1                 0.0000
     22 ****        -5.4195   2.6954  -0.3127 H              1 S1                 0.0000
     23 ****        -4.2391   3.8193  -0.9531 H              1 S1                 0.0000
     24 ****        -4.0786   3.2199   0.7036 H              1 S1                 0.0000
     25 ****        -1.9581   0.0663  -1.3183 H              1 S1                 0.0000
     26 ****         0.2111  -0.0025  -1.9805 H              1 S1                 0.0000
     27 ****         0.2765   1.7422  -2.0961 H              1 S1                 0.0000
     28 ****         0.6007   1.9443   0.3650 H              1 S1                 0.0000
     29 ****         0.3056   0.2324   0.5781 H              1 S1                 0.0000
     30 ****         2.2753  -0.0378   1.6335 H              1 S1                 0.0000
     31 ****         4.8478   0.5550   0.3946 H              1 S1                 0.0000
     32 ****         3.7054  -1.9142  -0.4276 H              1 S1                 0.0000
     33 ****         5.4104  -1.5068  -0.3964 H              1 S1                 0.0000
     34 ****         3.8257  -2.9546   1.7337 H              1 S1                 0.0000
     35 ****         5.3949  -3.4027   1.0659 H              1 S1                 0.0000
     36 ****         5.3541  -2.1490   3.4388 H              1 S1                 0.0000
     37 ****         6.4838  -1.5673   2.2178 H              1 S1                 0.0000
     38 ****         5.3428   0.4691   2.6668 H              1 S1                 0.0000
     39 ****         3.8429  -0.3678   3.0250 H              1 S1                 0.0000
     40 ****        -5.0390   0.5198   0.9502 H              1 S1                 0.0000
     41 ****        -6.2477  -1.6253   0.5576 H              1 S1                 0.0000
     42 ****        -6.0532  -2.7366  -1.6859 H              1 S1                 0.0000
     43 ****        -4.6479  -1.6295  -3.4451 H              1 S1                 0.0000
     44 ****        -2.2477   3.9548  -0.6464 LP             1 S1                 0.0000
     45 ****        -0.7013   3.2719  -1.0233 LP             1 S1                 0.0000
     46 ****         2.3204   1.3700  -2.0635 LP             1 S1                 0.0000
     47 ****         3.7997   0.7815  -1.3812 LP             1 S1                 0.0000
     48 ****        -3.5525   0.3856  -2.9949 LP             1 S1                 0.0000
@<TRIPOS>BOND
    1    1    2 1     
    2    1   22 1     
    3    1   23 1     
    4    1   24 1     
    5    2    3 am    
    6    2   16 1     
    7    3    4 2     
    8    3    5 am    
    9    5    6 1     
   10    5   25 1     
   11    6    7 1     
   12    6   26 1     
   13    6   27 1     
   14    7    8 1     
   15    7   28 1     
   16    7   29 1     
   17    8    9 2     
   18    8   10 am    
   19   10   11 1     
   20   10   30 1     
   21   11   15 1     
   22   11   12 1     
   23   11   31 1     
   24   12   13 1     
   25   12   32 1     
   26   12   33 1     
   27   13   14 1     
   28   13   34 1     
   29   13   35 1     
   30   14   15 1     
   31   14   36 1     
   32   14   37 1     
   33   15   38 1     
   34   15   39 1     
   35   16   21 ar    
   36   16   17 ar    
   37   17   18 ar    
   38   17   40 1     
   39   18   19 ar    
   40   18   41 1     
   41   19   20 ar    
   42   19   42 1     
   43   20   21 ar    
   44   20   43 1     
   45    4   44 1     
   46    4   45 1     
   47    9   46 1     
   48    9   47 1     
   49   21   48 1     
@<TRIPOS>SUBSTRUCTURE
      1 S1             1
@<TRIPOS>SET
LONE_PAIRS      STATIC     ATOMS    <user>   **** ""
5 44 45 46 47 48
DONOR_HYDROGENS      STATIC     ATOMS    <user>   **** ""
2 25 30
ATOM$BLUE        STATIC     ATOMS    COLORGROUP SYSTEM
5 44 45 46 47 48
ATOM$RED        STATIC     ATOMS    COLORGROUP SYSTEM
2 25 30
