AV-unprocessed.smi:752|AV-procd|sdf|3595|dock9
  -GOLD-   22720 0593D 1   1.00000     0.00000
 Structure written by MMmdl.
 41 42  0  0  0  0  0  0  0  0  1 V2000
  153.7354  140.9692  160.4098 C   0  0  0  0  0  0  0  0  0  0  0  0
  153.4680  142.4554  160.6693 C   0  0  0  0  0  0  0  0  0  0  0  0
  152.4982  143.0420  159.6991 C   0  0  0  0  0  0  0  0  0  0  0  0
  151.2698  142.5574  159.5018 N   0  0  0  0  0  0  0  0  0  0  0  0
  150.5519  143.2784  158.5402 C   0  0  0  0  0  0  0  0  0  0  0  0
  149.1257  142.9161  158.2369 C   0  0  0  0  0  0  0  0  0  0  0  0
  149.0959  141.9615  157.0430 C   0  0  0  0  0  0  0  0  0  0  0  0
  148.6382  140.8263  157.1702 O   0  0  0  0  0  0  0  0  0  0  0  0
  149.6395  142.4244  155.9064 N   0  0  0  0  0  0  0  0  0  0  0  0
  149.9590  141.6278  154.7274 C   0  0  0  0  0  0  0  0  0  0  0  0
  150.8517  140.4252  155.0998 C   0  0  2  0  0  0  0  0  0  0  0  0
  152.1381  140.8869  155.8111 C   0  0  0  0  0  0  0  0  0  0  0  0
  153.0098  139.6925  156.2298 C   0  0  0  0  0  0  0  0  0  0  0  0
  153.3640  138.8060  155.0244 C   0  0  0  0  0  0  0  0  0  0  0  0
  152.1132  138.3512  154.2503 C   0  0  1  0  0  0  0  0  0  0  0  0
  151.3825  137.4071  155.0086 O   0  0  0  0  0  0  0  0  0  0  0  0
  151.2077  139.5404  153.8803 C   0  0  0  0  0  0  0  0  0  0  0  0
  151.2780  144.3007  157.9810 C   0  0  0  0  0  0  0  0  0  0  0  0
  152.8796  144.4080  158.6581 S   0  0  0  0  0  0  0  0  0  0  0  0
  154.4490  140.5716  161.1316 H   0  0  0  0  0  0  0  0  0  0  0  0
  154.1467  140.8121  159.4122 H   0  0  0  0  0  0  0  0  0  0  0  0
  152.8184  140.3848  160.4911 H   0  0  0  0  0  0  0  0  0  0  0  0
  153.0832  142.5945  161.6803 H   0  0  0  0  0  0  0  0  0  0  0  0
  154.4010  143.0165  160.6114 H   0  0  0  0  0  0  0  0  0  0  0  0
  148.6563  142.4371  159.0968 H   0  0  0  0  0  0  0  0  0  0  0  0
  148.5335  143.8043  158.0130 H   0  0  0  0  0  0  0  0  0  0  0  0
  149.9754  143.3769  155.9070 H   0  0  0  0  0  0  0  0  0  0  0  0
  149.0574  141.2893  154.2143 H   0  0  0  0  0  0  0  0  0  0  0  0
  150.4853  142.2757  154.0259 H   0  0  0  0  0  0  0  0  0  0  0  0
  150.2896  139.8116  155.8060 H   0  0  0  0  0  0  0  0  0  0  0  0
  152.7091  141.5439  155.1536 H   0  0  0  0  0  0  0  0  0  0  0  0
  151.8858  141.4767  156.6929 H   0  0  0  0  0  0  0  0  0  0  0  0
  153.9231  140.0491  156.7067 H   0  0  0  0  0  0  0  0  0  0  0  0
  152.4831  139.1008  156.9797 H   0  0  0  0  0  0  0  0  0  0  0  0
  154.0116  139.3694  154.3515 H   0  0  0  0  0  0  0  0  0  0  0  0
  153.9434  137.9416  155.3503 H   0  0  0  0  0  0  0  0  0  0  0  0
  152.4258  137.8459  153.3360 H   0  0  0  0  0  0  0  0  0  0  0  0
  150.5497  137.2640  154.5857 H   0  0  0  0  0  0  0  0  0  0  0  0
  150.3073  139.1608  153.3977 H   0  0  0  0  0  0  0  0  0  0  0  0
  151.7136  140.1528  153.1326 H   0  0  0  0  0  0  0  0  0  0  0  0
  150.9632  145.0032  157.2233 H   0  0  0  0  0  0  0  0  0  0  0  0
  1  2  1  0  0  0  0
  1 20  1  0  0  0  0
  1 21  1  0  0  0  0
  1 22  1  0  0  0  0
  2  3  1  0  0  0  0
  2 23  1  0  0  0  0
  2 24  1  0  0  0  0
  3 19  1  0  0  0  0
  3  4  2  0  0  0  0
  4  5  1  0  0  0  0
  5  6  1  0  0  0  0
  5 18  2  0  0  0  0
  6  7  1  0  0  0  0
  6 25  1  0  0  0  0
  6 26  1  0  0  0  0
  7  8  2  0  0  0  0
  7  9  1  0  0  0  0
  9 10  1  0  0  0  0
  9 27  1  0  0  0  0
 10 11  1  0  0  0  0
 10 28  1  0  0  0  0
 10 29  1  0  0  0  0
 11 17  1  0  0  0  0
 11 12  1  0  0  0  0
 11 30  1  0  0  0  0
 12 13  1  0  0  0  0
 12 31  1  0  0  0  0
 12 32  1  0  0  0  0
 13 14  1  0  0  0  0
 13 33  1  0  0  0  0
 13 34  1  0  0  0  0
 14 15  1  0  0  0  0
 14 35  1  0  0  0  0
 14 36  1  0  0  0  0
 15 16  1  0  0  0  0
 15 17  1  0  0  0  0
 15 37  1  0  0  0  0
 16 38  1  0  0  0  0
 17 39  1  0  0  0  0
 17 40  1  0  0  0  0
 18 19  1  0  0  0  0
 18 41  1  0  0  0  0
M  END
> <s_m_source_file>
AV-unprocessed.smi

> <i_m_source_file_index>
752

> <i_lp_mmshare_version>
43012

> <i_f3d_flags>
0

> <s_epik_input>
W0NIM11bQ0gyXWMxbmMoW2NIXXMxKVtDSDJdQyg9TylbTkhdW0NIMl1bQ0BASF0yW0NIMl1bQ0gyXVtDSDJdW0NAQEhdKFtPSF0pW0NIMl0y

> <s_epik_cmdline>
J2VwaWtfcHl0aG9uJywgJy1waCcsICc3LjAnLCAnLXRuJywgJzgnLCAnLW1hJywgJzIwMCcsICctbWV0YWxfYmluZGluZycsICctaW1hZScsICc8aW5maWxlLm1hZT4nLCAnLW9tYWUnLCAnPG91dGZpbGUubWFlPic=

> <r_lp_tautomer_probability>
1

> <r_epik_Ionization_Penalty>
5.44903e-05

> <r_epik_Ionization_Penalty_Charging>
0

> <r_epik_Ionization_Penalty_Neutral>
5.44903e-05

> <r_epik_State_Penalty>
-0

> <r_epik_Charging_Adjusted_Penalty>
0

> <i_epik_Tot_Q>
0

> <i_epik_Tot_abs_Q>
0

> <r_epik_Metal_State_Penalty>
-0

> <b_epik_Metal_Only>
0

> <s_lp_Force_Field>
OPLS_2005

> <r_lp_Energy>
4.55991

> <b_lp_Chiralities_Consistent>
1

> <s_lp_Variant>
AV-unprocessed.smi:752-1

> <Gold.Version>
5.8.1

> <Gold.Id.Protein>
6NUR|6NUR_protein|mol2

> <Gold.PLP.Fitness>
46.5172

> <Gold.PLP.PLP>
-42.2194

> <Gold.PLP.part.hbond>
-1.6281

> <Gold.PLP.part.metal>
0.0000

> <Gold.PLP.part.buried>
-1.2826

> <Gold.PLP.part.nonpolar>
-38.9389

> <Gold.PLP.part.repulsive>
0.1077

> <Gold.PLP.ligand.clash>
0.0000

> <Gold.PLP.ligand.torsion>
0.3941

> <Gold.PLP.Chemscore.Hbond>
0.6880

> <Gold.PLP.Chemscore.CHOScore>
1.0000

> <Gold.PLP.Chemscore.Metal>
0.0000

> <Gold.Chemscore.Hbonds>
donor molecule, donor type, donor heavy atom, donor atom, acceptor molecule, acceptor atom, score
      L1  H     9    27       P1  8028  0.43
      L1  C    18    41       P1  8028  0.85

> <Gold.PLP.Chemscore.Internal.Correction>
0.0220

> <Gold.Rescore>
     Score         DG    S(hbond)    S(metal)    S(lipo)     H(rot)  DE(clash)    DE(int)     intcor
     16.31     -17.25       0.86        0.00     121.53       2.08       0.33       0.61       ----

> <Gold.Chemscore.Fitness>
16.3058

> <Gold.Chemscore.DG>
-17.2513

> <Gold.Chemscore.ZeroCoef>
-5.4800

> <Gold.Chemscore.Hbond>
0.8644

> <Gold.Chemscore.Metal>
0.0000

> <Gold.Chemscore.Lipo>
121.5301

> <Gold.Chemscore.Internal_Hbond>
0.0000

> <Gold.Chemscore.DEClash>
0.3312

> <Gold.Chemscore.DEInternal>
0.6143

> <Gold.Chemscore.Rot>
2.0840

> <Gold.Chemscore.Internal.Correction>
   9.000000E+99

> <Gold.Chemscore.Hbonds>
donor molecule, donor type, donor heavy atom, donor atom, acceptor molecule, acceptor atom, score
      L1  H     9    27       P1  8028  0.44

> <Gold.Chemscore.Hbond.Weighted>
-2.8872

> <Gold.Chemscore.Metal.Weighted>
-0.0000

> <Gold.Chemscore.Lipo.Weighted>
-14.2190

> <Gold.Chemscore.Internal_Hbond.Weighted>
0.0000

> <Gold.Chemscore.DEClash.Weighted>
0.3312

> <Gold.Chemscore.DEInternal.Weighted>
0.6143

> <Gold.Chemscore.Rot.Weighted>
5.3350

> <Gold.Chemscore.Internal.Correction.Weighted>
   9.000000E+99

> <Gold.Protein.RotatedTorsions>
[ 6907 6896 6895 6894 ] final  -51.68 input  -60.11 | X-H torsion
[ 7974 7965 7964 7962 ] final   31.81 input  175.53 | X-H torsion
[ 8008 7997 7996 7995 ] final  140.80 input   59.86 | X-H torsion
[ 10167 10162 10161 10158 ] final -129.90 input  -65.29 | X-H torsion
[ 10718 10713 10712 10709 ] final   16.89 input   66.30 | X-H torsion
[ 10763 10752 10751 10750 ] final   67.16 input  -60.55 | X-H torsion
[ 11005 11000 10999 10996 ] final  135.24 input  -57.11 | X-H torsion

> <Gold.Protein.ActiveResidues>
 VAL166  LYS551  ARG553  GLY616  TRP617  ASP618  TYR619  PRO620  LYS621  CYS622 
 ASP623  PHE694  ASN695  SER759  ASP760  ASP761  ALA762  ILE779  LEU786  VAL792 
 PHE793  MET794  SER795  GLU796  ALA797  LYS798  CYS799  TRP800  GLU811  SER814 

> <Gold.Protein.RotatedAtoms>
  150.8589  134.7935  159.7066 H   0  0  0  0  0  0  0  0  0  0  0  0  # atno 6907 bound_to 6896
  152.4632  134.5133  159.9770 H   0  0  0  0  0  0  0  0  0  0  0  0  # atno 6908 bound_to 6896
  151.5241  133.3423  159.2942 H   0  0  0  0  0  0  0  0  0  0  0  0  # atno 6909 bound_to 6896
  146.1526  139.6607  142.9088 H   0  0  0  0  0  0  0  0  0  0  0  0  # atno 7974 bound_to 7965
  156.2974  140.2332  156.4460 H   0  0  0  0  0  0  0  0  0  0  0  0  # atno 8008 bound_to 7997
  154.8143  140.0441  157.1386 H   0  0  0  0  0  0  0  0  0  0  0  0  # atno 8009 bound_to 7997
  154.9387  140.3026  155.5135 H   0  0  0  0  0  0  0  0  0  0  0  0  # atno 8010 bound_to 7997
  139.9349  143.6229  152.2520 H   0  0  0  0  0  0  0  0  0  0  0  0  # atno 10167 bound_to 10162
  157.0743  130.6361  149.5812 H   0  0  0  0  0  0  0  0  0  0  0  0  # atno 10718 bound_to 10713
  153.0173  135.5294  154.6936 H   0  0  0  0  0  0  0  0  0  0  0  0  # atno 10763 bound_to 10752
  154.6064  135.2873  155.0482 H   0  0  0  0  0  0  0  0  0  0  0  0  # atno 10764 bound_to 10752
  154.1520  135.6561  153.5018 H   0  0  0  0  0  0  0  0  0  0  0  0  # atno 10765 bound_to 10752
  139.9967  134.9494  156.9980 H   0  0  0  0  0  0  0  0  0  0  0  0  # atno 11005 bound_to 11000
  145.4786  141.0437  143.2659 LP  0  0  0  0  0  0  0  0  0  0  0  0  # atno 17320 bound_to 7965
  144.7923  139.6303  143.7108 LP  0  0  0  0  0  0  0  0  0  0  0  0  # atno 17321 bound_to 7965
  139.6752  144.7659  151.1710 LP  0  0  0  0  0  0  0  0  0  0  0  0  # atno 17342 bound_to 10162
  140.7627  143.5806  150.8899 LP  0  0  0  0  0  0  0  0  0  0  0  0  # atno 17343 bound_to 10162
  155.9941  130.5004  150.7408 LP  0  0  0  0  0  0  0  0  0  0  0  0  # atno 17370 bound_to 10713
  157.4853  131.0906  151.0490 LP  0  0  0  0  0  0  0  0  0  0  0  0  # atno 17371 bound_to 10713
  140.4805  134.1294  155.7216 LP  0  0  0  0  0  0  0  0  0  0  0  0  # atno 17394 bound_to 11000
  141.1610  133.8793  157.1848 LP  0  0  0  0  0  0  0  0  0  0  0  0  # atno 17395 bound_to 11000

$$$$
