AV-unprocessed.smi:2964|AV-procd|sdf|11321|dock7
  -GOLD-   2272016223D 1   1.00000     0.00000
 Structure written by MMmdl.
 35 36  0  0  0  0  0  0  0  0  1 V2000
  152.6345  139.8113  156.0308 O   0  0  0  0  0  0  0  0  0  0  0  0
  151.6048  139.7448  156.7039 C   0  0  0  0  0  0  0  0  0  0  0  0
  151.6656  139.4985  158.2184 C   0  0  0  0  0  0  0  0  0  0  0  0
  152.2759  140.6094  158.9685 N   0  0  0  0  0  0  0  0  0  0  0  0
  151.6608  141.8723  158.8588 C   0  0  0  0  0  0  0  0  0  0  0  0
  152.1244  142.9693  159.4889 C   0  0  0  0  0  0  0  0  0  0  0  0
  151.4415  144.3237  159.3832 C   0  0  0  0  0  0  0  0  0  0  0  0
  151.4313  144.7390  158.1167 F   0  0  0  0  0  0  0  0  0  0  0  0
  150.1776  144.2289  159.7941 F   0  0  0  0  0  0  0  0  0  0  0  0
  152.0550  145.2483  160.1233 F   0  0  0  0  0  0  0  0  0  0  0  0
  153.3002  142.7908  160.3160 C   0  0  0  0  0  0  0  0  0  0  0  0
  153.9017  141.5907  160.4303 C   0  0  0  0  0  0  0  0  0  0  0  0
  153.3940  140.4092  159.7290 C   0  0  0  0  0  0  0  0  0  0  0  0
  153.9382  139.3087  159.8206 O   0  0  0  0  0  0  0  0  0  0  0  0
  150.3777  139.8974  156.1837 N   0  0  0  0  0  0  0  0  0  0  0  0
  150.0901  140.1389  154.7724 C   0  0  0  0  0  0  0  0  0  0  0  0
  149.1106  141.3153  154.5779 C   0  0  0  0  0  0  0  0  0  0  0  0
  148.0361  140.8153  153.6113 C   0  0  0  0  0  0  0  0  0  0  0  0
  147.9616  139.3155  153.8765 C   0  0  0  0  0  0  0  0  0  0  0  0
  149.4126  138.9099  154.1387 C   0  0  0  0  0  0  0  0  0  0  0  0
  150.6512  139.3099  158.5724 H   0  0  0  0  0  0  0  0  0  0  0  0
  152.2099  138.5718  158.4103 H   0  0  0  0  0  0  0  0  0  0  0  0
  150.7882  141.8896  158.2220 H   0  0  0  0  0  0  0  0  0  0  0  0
  153.7061  143.6379  160.8493 H   0  0  0  0  0  0  0  0  0  0  0  0
  154.7789  141.4954  161.0533 H   0  0  0  0  0  0  0  0  0  0  0  0
  149.5855  139.8344  156.8067 H   0  0  0  0  0  0  0  0  0  0  0  0
  151.0247  140.3362  154.2438 H   0  0  0  0  0  0  0  0  0  0  0  0
  148.6379  141.5826  155.5244 H   0  0  0  0  0  0  0  0  0  0  0  0
  149.6112  142.2094  154.2049 H   0  0  0  0  0  0  0  0  0  0  0  0
  147.0780  141.3160  153.7530 H   0  0  0  0  0  0  0  0  0  0  0  0
  148.3557  140.9908  152.5833 H   0  0  0  0  0  0  0  0  0  0  0  0
  147.3594  139.1300  154.7671 H   0  0  0  0  0  0  0  0  0  0  0  0
  147.5138  138.7637  153.0496 H   0  0  0  0  0  0  0  0  0  0  0  0
  149.8978  138.6831  153.1885 H   0  0  0  0  0  0  0  0  0  0  0  0
  149.4809  138.0113  154.7535 H   0  0  0  0  0  0  0  0  0  0  0  0
  1  2  2  0  0  0  0
  2  3  1  0  0  0  0
  2 15  1  0  0  0  0
  3  4  1  0  0  0  0
  3 21  1  0  0  0  0
  3 22  1  0  0  0  0
  4 13  1  0  0  0  0
  4  5  1  0  0  0  0
  5  6  2  0  0  0  0
  5 23  1  0  0  0  0
  6  7  1  0  0  0  0
  6 11  1  0  0  0  0
  7  8  1  0  0  0  0
  7  9  1  0  0  0  0
  7 10  1  0  0  0  0
 11 12  2  0  0  0  0
 11 24  1  0  0  0  0
 12 13  1  0  0  0  0
 12 25  1  0  0  0  0
 13 14  2  0  0  0  0
 15 16  1  0  0  0  0
 15 26  1  0  0  0  0
 16 20  1  0  0  0  0
 16 17  1  0  0  0  0
 16 27  1  0  0  0  0
 17 18  1  0  0  0  0
 17 28  1  0  0  0  0
 17 29  1  0  0  0  0
 18 19  1  0  0  0  0
 18 30  1  0  0  0  0
 18 31  1  0  0  0  0
 19 20  1  0  0  0  0
 19 32  1  0  0  0  0
 19 33  1  0  0  0  0
 20 34  1  0  0  0  0
 20 35  1  0  0  0  0
M  END
> <s_m_source_file>
AV-unprocessed.smi

> <i_m_source_file_index>
2964

> <i_lp_mmshare_version>
43012

> <i_f3d_flags>
0

> <s_epik_input>
W0NIMl0xW0NIMl1bQ0gyXVtDSDJdW0NIXTFbTkhdQyg9TylbQ0gyXW4yW2NIXWMoQyhGKShGKUYpW2NIXVtjSF1jMj1P

> <s_epik_cmdline>
J2VwaWtfcHl0aG9uJywgJy1waCcsICc3LjAnLCAnLXRuJywgJzgnLCAnLW1hJywgJzIwMCcsICctbWV0YWxfYmluZGluZycsICctaW1hZScsICc8aW5maWxlLm1hZT4nLCAnLW9tYWUnLCAnPG91dGZpbGUubWFlPic=

> <r_lp_tautomer_probability>
1

> <r_epik_Ionization_Penalty>
3.84201e-08

> <r_epik_Ionization_Penalty_Charging>
1.91184e-08

> <r_epik_Ionization_Penalty_Neutral>
1.93017e-08

> <r_epik_State_Penalty>
-0

> <r_epik_Charging_Adjusted_Penalty>
1.91184e-08

> <i_epik_Tot_Q>
0

> <i_epik_Tot_abs_Q>
0

> <r_epik_Metal_State_Penalty>
-0

> <b_epik_Metal_Only>
0

> <s_lp_Force_Field>
OPLS_2005

> <r_lp_Energy>
29.7678

> <b_lp_Chiralities_Consistent>
1

> <s_lp_Variant>
AV-unprocessed.smi:2964-1

> <Gold.Version>
5.8.1

> <Gold.Id.Protein>
6NUR|6NUR_protein|mol2

> <Gold.PLP.Fitness>
50.2757

> <Gold.PLP.PLP>
-47.5730

> <Gold.PLP.part.hbond>
-1.0000

> <Gold.PLP.part.metal>
0.0000

> <Gold.PLP.part.buried>
-3.1403

> <Gold.PLP.part.nonpolar>
-42.4418

> <Gold.PLP.part.repulsive>
0.0449

> <Gold.PLP.ligand.clash>
0.0000

> <Gold.PLP.ligand.torsion>
0.1565

> <Gold.PLP.Chemscore.Hbond>
1.0000

> <Gold.PLP.Chemscore.CHOScore>
0.0000

> <Gold.PLP.Chemscore.Metal>
0.0000

> <Gold.Chemscore.Hbonds>
donor molecule, donor type, donor heavy atom, donor atom, acceptor molecule, acceptor atom, score
      P1  H  7997  8008       L1     1  1.00

> <Gold.PLP.Chemscore.Internal.Correction>
0.0157

> <Gold.Rescore>
     Score         DG    S(hbond)    S(metal)    S(lipo)     H(rot)  DE(clash)    DE(int)     intcor
     15.29     -15.65       0.99        0.00      92.78       1.56       0.22       0.13       ----

> <Gold.Chemscore.Fitness>
15.2945

> <Gold.Chemscore.DG>
-15.6495

> <Gold.Chemscore.ZeroCoef>
-5.4800

> <Gold.Chemscore.Hbond>
0.9879

> <Gold.Chemscore.Metal>
0.0000

> <Gold.Chemscore.Lipo>
92.7804

> <Gold.Chemscore.Internal_Hbond>
0.0000

> <Gold.Chemscore.DEClash>
0.2237

> <Gold.Chemscore.DEInternal>
0.1312

> <Gold.Chemscore.Rot>
1.5568

> <Gold.Chemscore.Internal.Correction>
   9.000000E+99

> <Gold.Chemscore.Hbonds>
donor molecule, donor type, donor heavy atom, donor atom, acceptor molecule, acceptor atom, score
      P1  H  7997  8008       L1     1  1.00

> <Gold.Chemscore.Hbond.Weighted>
-3.2996

> <Gold.Chemscore.Metal.Weighted>
-0.0000

> <Gold.Chemscore.Lipo.Weighted>
-10.8553

> <Gold.Chemscore.Internal_Hbond.Weighted>
0.0000

> <Gold.Chemscore.DEClash.Weighted>
0.2237

> <Gold.Chemscore.DEInternal.Weighted>
0.1312

> <Gold.Chemscore.Rot.Weighted>
3.9854

> <Gold.Chemscore.Internal.Correction.Weighted>
   9.000000E+99

> <Gold.Protein.RotatedTorsions>
[ 6907 6896 6895 6894 ] final  115.57 input  -60.11 | X-H torsion
[ 7974 7965 7964 7962 ] final  -78.98 input  175.53 | X-H torsion
[ 8008 7997 7996 7995 ] final  -27.46 input   59.86 | X-H torsion
[ 10167 10162 10161 10158 ] final  -26.56 input  -65.29 | X-H torsion
[ 10718 10713 10712 10709 ] final -133.97 input   66.30 | X-H torsion
[ 10763 10752 10751 10750 ] final  -80.61 input  -60.55 | X-H torsion
[ 11005 11000 10999 10996 ] final -103.01 input  -57.11 | X-H torsion

> <Gold.Protein.ActiveResidues>
 VAL166  LYS551  ARG553  GLY616  TRP617  ASP618  TYR619  PRO620  LYS621  CYS622 
 ASP623  PHE694  ASN695  SER759  ASP760  ASP761  ALA762  ILE779  LEU786  VAL792 
 PHE793  MET794  SER795  GLU796  ALA797  LYS798  CYS799  TRP800  GLU811  SER814 

> <Gold.Protein.RotatedAtoms>
  152.4733  133.8080  159.6988 H   0  0  0  0  0  0  0  0  0  0  0  0  # atno 6907 bound_to 6896
  150.8735  133.7462  159.2960 H   0  0  0  0  0  0  0  0  0  0  0  0  # atno 6908 bound_to 6896
  151.4989  135.1064  159.9875 H   0  0  0  0  0  0  0  0  0  0  0  0  # atno 6909 bound_to 6896
  145.5793  140.9451  143.1352 H   0  0  0  0  0  0  0  0  0  0  0  0  # atno 7974 bound_to 7965
  154.4376  140.1872  156.0936 H   0  0  0  0  0  0  0  0  0  0  0  0  # atno 8008 bound_to 7997
  156.0347  140.3326  155.7151 H   0  0  0  0  0  0  0  0  0  0  0  0  # atno 8009 bound_to 7997
  155.5788  140.0619  157.2779 H   0  0  0  0  0  0  0  0  0  0  0  0  # atno 8010 bound_to 7997
  140.7282  143.4168  151.1015 H   0  0  0  0  0  0  0  0  0  0  0  0  # atno 10167 bound_to 10162
  156.2505  130.7150  151.1047 H   0  0  0  0  0  0  0  0  0  0  0  0  # atno 10718 bound_to 10713
  154.5533  135.5655  153.6941 H   0  0  0  0  0  0  0  0  0  0  0  0  # atno 10763 bound_to 10752
  152.9996  135.6256  154.2344 H   0  0  0  0  0  0  0  0  0  0  0  0  # atno 10764 bound_to 10752
  154.2280  135.2867  155.2880 H   0  0  0  0  0  0  0  0  0  0  0  0  # atno 10765 bound_to 10752
  141.1164  133.8605  157.1432 H   0  0  0  0  0  0  0  0  0  0  0  0  # atno 11005 bound_to 11000
  144.7401  139.7473  143.7314 LP  0  0  0  0  0  0  0  0  0  0  0  0  # atno 17320 bound_to 7965
  146.1728  139.4885  142.9917 LP  0  0  0  0  0  0  0  0  0  0  0  0  # atno 17321 bound_to 7965
  139.7809  143.8357  152.3137 LP  0  0  0  0  0  0  0  0  0  0  0  0  # atno 17342 bound_to 10162
  139.8308  144.7254  150.9453 LP  0  0  0  0  0  0  0  0  0  0  0  0  # atno 17343 bound_to 10162
  157.7212  131.0680  150.6125 LP  0  0  0  0  0  0  0  0  0  0  0  0  # atno 17370 bound_to 10713
  156.6205  130.4404  149.5824 LP  0  0  0  0  0  0  0  0  0  0  0  0  # atno 17371 bound_to 10713
  140.0090  134.9996  157.0354 LP  0  0  0  0  0  0  0  0  0  0  0  0  # atno 17394 bound_to 11000
  140.4632  134.1462  155.7194 LP  0  0  0  0  0  0  0  0  0  0  0  0  # atno 17395 bound_to 11000

$$$$
