AV-unprocessed.smi:721|AV-procd|sdf|3503|dock7
  -GOLD-   22720 0493D 1   1.00000     0.00000
 Structure written by MMmdl.
 29 30  0  0  0  0  0  0  0  0  1 V2000
  152.9674  143.3968  162.3976 Cl  0  0  0  0  0  0  0  0  0  0  0  0
  152.2675  143.2821  160.8249 C   0  0  0  0  0  0  0  0  0  0  0  0
  151.3393  144.2324  160.3549 C   0  0  0  0  0  0  0  0  0  0  0  0
  150.7934  144.1386  159.1223 N   0  0  0  0  0  0  0  0  0  0  0  0
  151.1724  143.1045  158.3660 C   0  0  0  0  0  0  0  0  0  0  0  0
  150.5931  143.0452  157.1114 N   0  0  0  0  0  0  0  0  0  0  0  0
  150.8939  142.0404  156.1004 C   0  0  0  0  0  0  0  0  0  0  0  0
  149.6256  141.4228  155.4963 C   0  0  0  0  0  0  0  0  0  0  0  0
  149.9901  140.5761  154.4192 O   0  0  0  0  0  0  0  0  0  0  0  0
  149.6958  139.2138  154.6731 C   0  0  0  0  0  0  0  0  0  0  0  0
  150.9284  138.5428  155.2394 C   0  0  0  0  0  0  0  0  0  0  0  0
  152.1536  139.3574  155.5855 C   0  0  0  0  0  0  0  0  0  0  0  0
  152.1846  138.4161  154.4080 C   0  0  0  0  0  0  0  0  0  0  0  0
  152.0420  142.1469  158.7128 N   0  0  0  0  0  0  0  0  0  0  0  0
  152.5937  142.2329  159.9430 C   0  0  0  0  0  0  0  0  0  0  0  0
  151.0328  145.0683  160.9661 H   0  0  0  0  0  0  0  0  0  0  0  0
  150.0016  143.8187  156.8438 H   0  0  0  0  0  0  0  0  0  0  0  0
  151.4982  142.4930  155.3137 H   0  0  0  0  0  0  0  0  0  0  0  0
  151.5098  141.2616  156.5506 H   0  0  0  0  0  0  0  0  0  0  0  0
  149.0603  140.8713  156.2489 H   0  0  0  0  0  0  0  0  0  0  0  0
  148.9797  142.2198  155.1252 H   0  0  0  0  0  0  0  0  0  0  0  0
  148.8812  139.1264  155.3935 H   0  0  0  0  0  0  0  0  0  0  0  0
  149.3895  138.7103  153.7544 H   0  0  0  0  0  0  0  0  0  0  0  0
  150.7085  137.7065  155.9005 H   0  0  0  0  0  0  0  0  0  0  0  0
  152.1268  140.4249  155.3761 H   0  0  0  0  0  0  0  0  0  0  0  0
  152.7104  139.0709  156.4752 H   0  0  0  0  0  0  0  0  0  0  0  0
  152.7642  137.5010  154.5107 H   0  0  0  0  0  0  0  0  0  0  0  0
  152.1832  138.8587  153.4136 H   0  0  0  0  0  0  0  0  0  0  0  0
  153.2962  141.4615  160.2221 H   0  0  0  0  0  0  0  0  0  0  0  0
  1  2  1  0  0  0  0
  2 15  1  0  0  0  0
  2  3  2  0  0  0  0
  3  4  1  0  0  0  0
  3 16  1  0  0  0  0
  4  5  2  0  0  0  0
  5  6  1  0  0  0  0
  5 14  1  0  0  0  0
  6  7  1  0  0  0  0
  6 17  1  0  0  0  0
  7  8  1  0  0  0  0
  7 18  1  0  0  0  0
  7 19  1  0  0  0  0
  8  9  1  0  0  0  0
  8 20  1  0  0  0  0
  8 21  1  0  0  0  0
  9 10  1  0  0  0  0
 10 11  1  0  0  0  0
 10 22  1  0  0  0  0
 10 23  1  0  0  0  0
 11 13  1  0  0  0  0
 11 12  1  0  0  0  0
 11 24  1  0  0  0  0
 12 13  1  0  0  0  0
 12 25  1  0  0  0  0
 12 26  1  0  0  0  0
 13 27  1  0  0  0  0
 13 28  1  0  0  0  0
 14 15  2  0  0  0  0
 15 29  1  0  0  0  0
M  END
> <s_m_source_file>
AV-unprocessed.smi

> <i_m_source_file_index>
721

> <i_lp_mmshare_version>
43012

> <i_f3d_flags>
0

> <s_epik_input>
Q2xjMVtjSF1uYyhuW2NIXTEpW05IXVtDSDJdW0NIMl1PW0NIMl1bQ0hdMltDSDJdW0NIMl0y

> <s_epik_cmdline>
J2VwaWtfcHl0aG9uJywgJy1waCcsICc3LjAnLCAnLXRuJywgJzgnLCAnLW1hJywgJzIwMCcsICctbWV0YWxfYmluZGluZycsICctaW1hZScsICc8aW5maWxlLm1hZT4nLCAnLW9tYWUnLCAnPG91dGZpbGUubWFlPic=

> <r_lp_tautomer_probability>
1

> <r_epik_Ionization_Penalty>
7.18353e-06

> <r_epik_Ionization_Penalty_Charging>
0

> <r_epik_Ionization_Penalty_Neutral>
7.18353e-06

> <r_epik_State_Penalty>
-0

> <r_epik_Charging_Adjusted_Penalty>
0

> <i_epik_Tot_Q>
0

> <i_epik_Tot_abs_Q>
0

> <r_epik_Metal_State_Penalty>
-0

> <b_epik_Metal_Only>
0

> <s_lp_Force_Field>
OPLS_2005

> <r_lp_Energy>
6.1156

> <b_lp_Chiralities_Consistent>
1

> <s_lp_Variant>
AV-unprocessed.smi:721-1

> <Gold.Version>
5.8.1

> <Gold.Id.Protein>
6NUR|6NUR_protein|mol2

> <Gold.PLP.Fitness>
40.1974

> <Gold.PLP.PLP>
-36.1709

> <Gold.PLP.part.hbond>
-2.0000

> <Gold.PLP.part.metal>
0.0000

> <Gold.PLP.part.buried>
-6.9697

> <Gold.PLP.part.nonpolar>
-26.7838

> <Gold.PLP.part.repulsive>
0.2331

> <Gold.PLP.ligand.clash>
0.0000

> <Gold.PLP.ligand.torsion>
1.0386

> <Gold.PLP.Chemscore.Hbond>
1.8480

> <Gold.PLP.Chemscore.CHOScore>
0.0000

> <Gold.PLP.Chemscore.Metal>
0.0000

> <Gold.Chemscore.Hbonds>
donor molecule, donor type, donor heavy atom, donor atom, acceptor molecule, acceptor atom, score
      L1  H     6    17       P1  8028  1.00
      P1  H  7989  7998       L1     9  0.82

> <Gold.PLP.Chemscore.Internal.Correction>
0.5597

> <Gold.Rescore>
     Score         DG    S(hbond)    S(metal)    S(lipo)     H(rot)  DE(clash)    DE(int)     intcor
     16.79     -17.91       1.87        0.00      91.62       1.77       0.02       1.10       ----

> <Gold.Chemscore.Fitness>
16.7884

> <Gold.Chemscore.DG>
-17.9118

> <Gold.Chemscore.ZeroCoef>
-5.4800

> <Gold.Chemscore.Hbond>
1.8711

> <Gold.Chemscore.Metal>
0.0000

> <Gold.Chemscore.Lipo>
91.6166

> <Gold.Chemscore.Internal_Hbond>
0.0000

> <Gold.Chemscore.DEClash>
0.0184

> <Gold.Chemscore.DEInternal>
1.1049

> <Gold.Chemscore.Rot>
1.7722

> <Gold.Chemscore.Internal.Correction>
   9.000000E+99

> <Gold.Chemscore.Hbonds>
donor molecule, donor type, donor heavy atom, donor atom, acceptor molecule, acceptor atom, score
      L1  H     6    17       P1  8028  0.97
      P1  H  7989  7998       L1     9  0.70

> <Gold.Chemscore.Hbond.Weighted>
-6.2494

> <Gold.Chemscore.Metal.Weighted>
-0.0000

> <Gold.Chemscore.Lipo.Weighted>
-10.7191

> <Gold.Chemscore.Internal_Hbond.Weighted>
0.0000

> <Gold.Chemscore.DEClash.Weighted>
0.0184

> <Gold.Chemscore.DEInternal.Weighted>
1.1049

> <Gold.Chemscore.Rot.Weighted>
4.5367

> <Gold.Chemscore.Internal.Correction.Weighted>
   9.000000E+99

> <Gold.Protein.RotatedTorsions>
[ 6907 6896 6895 6894 ] final -171.57 input  -60.11 | X-H torsion
[ 7974 7965 7964 7962 ] final -100.36 input  175.53 | X-H torsion
[ 8008 7997 7996 7995 ] final -179.59 input   59.86 | X-H torsion
[ 10167 10162 10161 10158 ] final    2.41 input  -65.29 | X-H torsion
[ 10718 10713 10712 10709 ] final  -49.13 input   66.30 | X-H torsion
[ 10763 10752 10751 10750 ] final  -12.54 input  -60.55 | X-H torsion
[ 11005 11000 10999 10996 ] final   26.38 input  -57.11 | X-H torsion

> <Gold.Protein.ActiveResidues>
 VAL166  LYS551  ARG553  GLY616  TRP617  ASP618  TYR619  PRO620  LYS621  CYS622 
 ASP623  PHE694  ASN695  SER759  ASP760  ASP761  ALA762  ILE779  LEU786  VAL792 
 PHE793  MET794  SER795  GLU796  ALA797  LYS798  CYS799  TRP800  GLU811  SER814 

> <Gold.Protein.RotatedAtoms>
  151.5260  133.3458  159.2909 H   0  0  0  0  0  0  0  0  0  0  0  0  # atno 6907 bound_to 6896
  150.8623  134.7980  159.7103 H   0  0  0  0  0  0  0  0  0  0  0  0  # atno 6908 bound_to 6896
  152.4639  134.5131  159.9811 H   0  0  0  0  0  0  0  0  0  0  0  0  # atno 6909 bound_to 6896
  145.2956  140.9364  143.2853 H   0  0  0  0  0  0  0  0  0  0  0  0  # atno 7974 bound_to 7965
  156.0322  140.1284  157.0245 H   0  0  0  0  0  0  0  0  0  0  0  0  # atno 8008 bound_to 7997
  154.4355  140.1047  156.6187 H   0  0  0  0  0  0  0  0  0  0  0  0  # atno 8009 bound_to 7997
  155.5789  140.3467  155.4537 H   0  0  0  0  0  0  0  0  0  0  0  0  # atno 8010 bound_to 7997
  140.6636  143.7238  150.7785 H   0  0  0  0  0  0  0  0  0  0  0  0  # atno 10167 bound_to 10162
  156.1922  130.4153  149.9355 H   0  0  0  0  0  0  0  0  0  0  0  0  # atno 10718 bound_to 10713
  153.5000  135.7017  153.5837 H   0  0  0  0  0  0  0  0  0  0  0  0  # atno 10763 bound_to 10752
  153.3973  135.3881  155.1964 H   0  0  0  0  0  0  0  0  0  0  0  0  # atno 10764 bound_to 10752
  154.8711  135.3873  154.4469 H   0  0  0  0  0  0  0  0  0  0  0  0  # atno 10765 bound_to 10752
  140.3377  134.2368  155.7694 H   0  0  0  0  0  0  0  0  0  0  0  0  # atno 11005 bound_to 11000
  144.9136  139.4497  143.6575 LP  0  0  0  0  0  0  0  0  0  0  0  0  # atno 17320 bound_to 7965
  146.3170  139.7958  142.8976 LP  0  0  0  0  0  0  0  0  0  0  0  0  # atno 17321 bound_to 7965
  140.0911  143.4876  152.2478 LP  0  0  0  0  0  0  0  0  0  0  0  0  # atno 17342 bound_to 10162
  139.5878  144.7538  151.3477 LP  0  0  0  0  0  0  0  0  0  0  0  0  # atno 17343 bound_to 10162
  156.7091  130.8963  151.3607 LP  0  0  0  0  0  0  0  0  0  0  0  0  # atno 17370 bound_to 10713
  157.6936  130.9259  150.0582 LP  0  0  0  0  0  0  0  0  0  0  0  0  # atno 17371 bound_to 10713
  141.2047  133.7880  157.0274 LP  0  0  0  0  0  0  0  0  0  0  0  0  # atno 17394 bound_to 11000
  140.0807  134.9649  157.1620 LP  0  0  0  0  0  0  0  0  0  0  0  0  # atno 17395 bound_to 11000

$$$$
