AV-unprocessed.smi:160|AV-procd|sdf|1357|dock3
  -GOLD-   2262019 63D 1   1.00000     0.00000
 Structure written by MMmdl.
 29 30  0  0  0  0  0  0  0  0  1 V2000
  144.1408  142.2448  154.6994 N   0  0  0  0  0  0  0  0  0  0  0  0
  145.2540  142.6182  155.3389 C   0  0  0  0  0  0  0  0  0  0  0  0
  145.2453  143.4477  156.2471 O   0  0  0  0  0  0  0  0  0  0  0  0
  146.5308  141.9662  154.8855 C   0  0  0  0  0  0  0  0  0  0  0  0
  146.5988  141.2971  153.6965 N   0  0  0  0  0  0  0  0  0  0  0  0
  147.8690  140.9163  153.7441 C   0  0  0  0  0  0  0  0  0  0  0  0
  148.5193  141.3126  154.8428 N   0  0  0  0  0  0  0  0  0  0  0  0
  149.9442  141.0793  155.2500 C   0  0  2  0  0  0  0  0  0  0  0  0
  150.5394  140.2390  154.3056 O   0  0  0  0  0  0  0  0  0  0  0  0
  150.6389  138.9192  154.8315 C   0  0  1  0  0  0  0  0  0  0  0  0
  151.7243  138.1354  154.0781 C   0  0  0  0  0  0  0  0  0  0  0  0
  151.3807  136.7674  154.0193 O   0  0  0  0  0  0  0  0  0  0  0  0
  150.9867  139.2057  156.2929 C   0  0  2  0  0  0  0  0  0  0  0  0
  150.7894  138.0871  157.1374 O   0  0  0  0  0  0  0  0  0  0  0  0
  150.0886  140.3949  156.6313 C   0  0  2  0  0  0  0  0  0  0  0  0
  148.8579  140.0018  157.2210 O   0  0  0  0  0  0  0  0  0  0  0  0
  147.6470  142.0095  155.6143 N   0  0  0  0  0  0  0  0  0  0  0  0
  150.4030  142.0679  155.2076 H   0  0  0  0  0  0  0  0  0  0  0  0
  149.6738  138.4122  154.7729 H   0  0  0  0  0  0  0  0  0  0  0  0
  152.0299  139.5184  156.3611 H   0  0  0  0  0  0  0  0  0  0  0  0
  150.5914  141.0761  157.3185 H   0  0  0  0  0  0  0  0  0  0  0  0
  143.2521  142.6471  154.9580 H   0  0  0  0  0  0  0  0  0  0  0  0
  144.1982  141.5601  153.9591 H   0  0  0  0  0  0  0  0  0  0  0  0
  148.3360  140.3388  152.9600 H   0  0  0  0  0  0  0  0  0  0  0  0
  151.8793  138.5331  153.0748 H   0  0  0  0  0  0  0  0  0  0  0  0
  152.6751  138.2095  154.6067 H   0  0  0  0  0  0  0  0  0  0  0  0
  151.0625  136.5741  153.1508 H   0  0  0  0  0  0  0  0  0  0  0  0
  150.3378  137.4175  156.6470 H   0  0  0  0  0  0  0  0  0  0  0  0
  149.0380  139.3902  157.9185 H   0  0  0  0  0  0  0  0  0  0  0  0
  1  2  1  0  0  0  0
  1 22  1  0  0  0  0
  1 23  1  0  0  0  0
  2  3  2  0  0  0  0
  2  4  1  0  0  0  0
  4 17  2  0  0  0  0
  4  5  1  0  0  0  0
  5  6  2  0  0  0  0
  6  7  1  0  0  0  0
  6 24  1  0  0  0  0
  7  8  1  0  0  0  0
  7 17  1  0  0  0  0
  8 18  1  0  0  0  0
  8 15  1  0  0  0  0
  8  9  1  0  0  0  0
  9 10  1  0  0  0  0
 10 19  1  0  0  0  0
 10 11  1  0  0  0  0
 10 13  1  0  0  0  0
 11 12  1  0  0  0  0
 11 25  1  0  0  0  0
 11 26  1  0  0  0  0
 12 27  1  0  0  0  0
 13 20  1  0  0  0  0
 13 14  1  0  0  0  0
 13 15  1  0  0  0  0
 14 28  1  0  0  0  0
 15 21  1  0  0  0  0
 15 16  1  0  0  0  0
 16 29  1  0  0  0  0
M  END
> <s_m_source_file>
AV-unprocessed.smi

> <i_m_source_file_index>
160

> <i_lp_mmshare_version>
43012

> <i_f3d_flags>
0

> <s_epik_input>
W05IMl1DKD1PKWMxbltjSF1uKG4xKVtDQEBIXTJPW0NASF0oW0NIMl1bT0hdKVtDQEBIXShbT0hdKVtDQEhdMltPSF0=

> <s_epik_cmdline>
J2VwaWtfcHl0aG9uJywgJy1waCcsICc3LjAnLCAnLXRuJywgJzgnLCAnLW1hJywgJzIwMCcsICctbWV0YWxfYmluZGluZycsICctaW1hZScsICc8aW5maWxlLm1hZT4nLCAnLW9tYWUnLCAnPG91dGZpbGUubWFlPic=

> <r_lp_tautomer_probability>
1

> <r_epik_Ionization_Penalty>
1.06932e-05

> <r_epik_Ionization_Penalty_Charging>
0

> <r_epik_Ionization_Penalty_Neutral>
1.06932e-05

> <r_epik_State_Penalty>
-0

> <r_epik_Charging_Adjusted_Penalty>
0

> <i_epik_Tot_Q>
0

> <i_epik_Tot_abs_Q>
0

> <r_epik_Metal_State_Penalty>
0.0142097

> <b_epik_Metal_Only>
0

> <s_epik_Chemistry_Notes>
This compound contains an acetal/aminal-like group ( X-CH(R)-Y where X, Y are N, S, or O) that may be acid/base labile, releasing an aldehyde.

> <s_lp_Force_Field>
OPLS_2005

> <r_lp_Energy>
46.1783

> <b_lp_Chiralities_Consistent>
1

> <s_lp_Variant>
AV-unprocessed.smi:160-15

> <Gold.Version>
5.8.1

> <Gold.Id.Protein>
6NUR|6NUR_protein|mol2

> <Gold.PLP.Fitness>
38.2768

> <Gold.PLP.PLP>
-24.5172

> <Gold.PLP.part.hbond>
-4.9736

> <Gold.PLP.part.metal>
0.0000

> <Gold.PLP.part.buried>
-4.8209

> <Gold.PLP.part.nonpolar>
-17.0804

> <Gold.PLP.part.repulsive>
1.5806

> <Gold.PLP.ligand.clash>
0.0000

> <Gold.PLP.ligand.torsion>
0.6282

> <Gold.PLP.Chemscore.Hbond>
4.0000

> <Gold.PLP.Chemscore.CHOScore>
1.0000

> <Gold.PLP.Chemscore.Metal>
0.0000

> <Gold.Chemscore.Hbonds>
donor molecule, donor type, donor heavy atom, donor atom, acceptor molecule, acceptor atom, score
      L1  H     1    23       P1 10175  0.80
      L1  H    12    27       P1  7949  1.00
      P1  H  7989  7998       L1     9  0.91
      P1  H 10752 10765       L1    12  1.00
      L1  C     6    24       P1  7957  1.00

> <Gold.PLP.Chemscore.Internal.Correction>
0.0161

> <Gold.Rescore>
     Score         DG    S(hbond)    S(metal)    S(lipo)     H(rot)  DE(clash)    DE(int)     intcor
      5.50      -8.06       2.97        0.00      25.94       4.06       0.21       2.35       ----

> <Gold.Chemscore.Fitness>
5.4974

> <Gold.Chemscore.DG>
-8.0571

> <Gold.Chemscore.ZeroCoef>
-5.4800

> <Gold.Chemscore.Hbond>
2.9748

> <Gold.Chemscore.Metal>
0.0000

> <Gold.Chemscore.Lipo>
25.9381

> <Gold.Chemscore.Internal_Hbond>
0.0000

> <Gold.Chemscore.DEClash>
0.2085

> <Gold.Chemscore.DEInternal>
2.3511

> <Gold.Chemscore.Rot>
4.0600

> <Gold.Chemscore.Internal.Correction>
   9.000000E+99

> <Gold.Chemscore.Hbonds>
donor molecule, donor type, donor heavy atom, donor atom, acceptor molecule, acceptor atom, score
      L1  H     1    23       P1 10175  0.12
      L1  H    12    27       P1  7949  0.30
      P1  H  7989  7998       L1     9  0.77
      P1  H 10752 10765       L1    12  0.29

> <Gold.Chemscore.Hbond.Weighted>
-9.9360

> <Gold.Chemscore.Metal.Weighted>
-0.0000

> <Gold.Chemscore.Lipo.Weighted>
-3.0348

> <Gold.Chemscore.Internal_Hbond.Weighted>
0.0000

> <Gold.Chemscore.DEClash.Weighted>
0.2085

> <Gold.Chemscore.DEInternal.Weighted>
2.3511

> <Gold.Chemscore.Rot.Weighted>
10.3936

> <Gold.Chemscore.Internal.Correction.Weighted>
   9.000000E+99

> <Gold.Protein.RotatedTorsions>
[ 6907 6896 6895 6894 ] final  168.95 input  -60.11 | X-H torsion
[ 7974 7965 7964 7962 ] final   17.15 input  175.53 | X-H torsion
[ 8008 7997 7996 7995 ] final   32.96 input   59.86 | X-H torsion
[ 10167 10162 10161 10158 ] final  -28.72 input  -65.29 | X-H torsion
[ 10718 10713 10712 10709 ] final    0.29 input   66.30 | X-H torsion
[ 10763 10752 10751 10750 ] final  152.45 input  -60.55 | X-H torsion
[ 11005 11000 10999 10996 ] final -162.71 input  -57.11 | X-H torsion

> <Gold.Protein.ActiveResidues>
 VAL166  LYS551  ARG553  GLY616  TRP617  ASP618  TYR619  PRO620  LYS621  CYS622 
 ASP623  PHE694  ASN695  SER759  ASP760  ASP761  ALA762  ILE779  LEU786  VAL792 
 PHE793  MET794  SER795  GLU796  ALA797  LYS798  CYS799  TRP800  GLU811  SER814 

> <Gold.Protein.RotatedAtoms>
  151.8396  133.3421  159.3638 H   0  0  0  0  0  0  0  0  0  0  0  0  # atno 6907 bound_to 6896
  150.7239  134.5404  159.5754 H   0  0  0  0  0  0  0  0  0  0  0  0  # atno 6908 bound_to 6896
  152.2875  134.7760  160.0435 H   0  0  0  0  0  0  0  0  0  0  0  0  # atno 6909 bound_to 6896
  146.2227  139.8644  142.8599 H   0  0  0  0  0  0  0  0  0  0  0  0  # atno 7974 bound_to 7965
  155.1309  140.3257  155.4474 H   0  0  0  0  0  0  0  0  0  0  0  0  # atno 8008 bound_to 7997
  156.2634  140.2010  156.6377 H   0  0  0  0  0  0  0  0  0  0  0  0  # atno 8009 bound_to 7997
  154.6613  140.0547  157.0052 H   0  0  0  0  0  0  0  0  0  0  0  0  # atno 8010 bound_to 7997
  140.7267  143.3987  151.1302 H   0  0  0  0  0  0  0  0  0  0  0  0  # atno 10167 bound_to 10162
  156.8313  130.5489  149.5686 H   0  0  0  0  0  0  0  0  0  0  0  0  # atno 10718 bound_to 10713
  154.1201  135.2833  155.3210 H   0  0  0  0  0  0  0  0  0  0  0  0  # atno 10763 bound_to 10752
  154.6429  135.5396  153.7813 H   0  0  0  0  0  0  0  0  0  0  0  0  # atno 10764 bound_to 10752
  153.0315  135.6491  154.1356 H   0  0  0  0  0  0  0  0  0  0  0  0  # atno 10765 bound_to 10752
  140.6062  134.4896  157.5210 H   0  0  0  0  0  0  0  0  0  0  0  0  # atno 11005 bound_to 11000
  145.2672  141.0097  143.3793 LP  0  0  0  0  0  0  0  0  0  0  0  0  # atno 17320 bound_to 7965
  144.9252  139.4364  143.6522 LP  0  0  0  0  0  0  0  0  0  0  0  0  # atno 17321 bound_to 7965
  139.7603  143.8645  152.3099 LP  0  0  0  0  0  0  0  0  0  0  0  0  # atno 17342 bound_to 10162
  139.8528  144.7156  150.9193 LP  0  0  0  0  0  0  0  0  0  0  0  0  # atno 17343 bound_to 10162
  156.0933  130.5912  150.9770 LP  0  0  0  0  0  0  0  0  0  0  0  0  # atno 17370 bound_to 10713
  157.6405  131.0911  150.8260 LP  0  0  0  0  0  0  0  0  0  0  0  0  # atno 17371 bound_to 10713
  139.9211  134.8146  156.1208 LP  0  0  0  0  0  0  0  0  0  0  0  0  # atno 17394 bound_to 11000
  141.0839  133.6742  156.2394 LP  0  0  0  0  0  0  0  0  0  0  0  0  # atno 17395 bound_to 11000

$$$$
