#       Name:                AV-unprocessed.smi:1683
#       Creating user name   scv26
#       Creation time:       Fri Mar 27 07:50:32 2020


#       File generated by GOLD software.
#

@<TRIPOS>MOLECULE
AV-unprocessed.smi:1683
    40    41     1
SMALL
NO_CHARGES


@<TRIPOS>ATOM
      1 ****        -1.3976   0.4355  -2.3757 O.2            1 S1                 0.0000
      2 ****        -1.8973   0.8134  -1.3159 C.2            1 S1                 0.0000
      3 ****        -1.9701   0.0472  -0.2182 N.am           1 S1                 0.0000
      4 ****        -1.4971  -1.3303  -0.1258 C.3            1 S1                 0.0000
      5 ****         0.0381  -1.4174  -0.0206 C.3            1 S1                 0.0000
      6 ****         0.5697  -2.8415   0.1255 C.3            1 S1                 0.0000
      7 ****         1.9451  -2.6734   0.7847 C.3            1 S1                 0.0000
      8 ****         1.9908  -1.2993   1.3417 N.4            1 S1                 1.0000
      9 ****         2.5625  -1.1820   2.7052 C.3            1 S1                 0.0000
     10 ****         4.0919  -1.3511   2.7223 C.3            1 S1                 0.0000
     11 ****         4.5399  -1.1308   3.9574 F              1 S1                 0.0000
     12 ****         4.4468  -2.5826   2.3575 F              1 S1                 0.0000
     13 ****         4.6576  -0.4690   1.8987 F              1 S1                 0.0000
     14 ****         0.6384  -0.7231   1.2019 C.3            1 S1                 0.0000
     15 ****        -2.4298   2.0277  -1.1019 N.am           1 S1                 0.0000
     16 ****        -2.5352   3.0962  -2.0281 C.2            1 S1                 0.0000
     17 ****        -3.1083   4.3644  -1.7388 C.2            1 S1                 0.0000
     18 ****        -3.0712   5.1641  -2.7949 N.2            1 S1                 0.0000
     19 ****        -2.4809   4.4185  -3.7561 N.pl3          1 S1                 0.0000
     20 ****        -2.1378   3.1528  -3.3347 C.2            1 S1                 0.0000
     21 ****        -2.3212   4.7832  -4.6845 H              1 S1                 0.0000
     22 ****        -2.4022   0.4380   0.6065 H              1 S1                 0.0000
     23 ****        -1.9598  -1.7861   0.7500 H              1 S1                 0.0000
     24 ****        -1.8487  -1.8979  -0.9892 H              1 S1                 0.0000
     25 ****         0.4873  -0.9834  -0.9157 H              1 S1                 0.0000
     26 ****        -0.0805  -3.4176   0.7858 H              1 S1                 0.0000
     27 ****         0.6229  -3.3684  -0.8278 H              1 S1                 0.0000
     28 ****         2.0926  -3.4364   1.5502 H              1 S1                 0.0000
     29 ****         2.7459  -2.7799   0.0521 H              1 S1                 0.0000
     30 ****         2.3250  -0.1892   3.0907 H              1 S1                 0.0000
     31 ****         2.0836  -1.8961   3.3770 H              1 S1                 0.0000
     32 ****         0.6768   0.3612   1.0918 H              1 S1                 0.0000
     33 ****         0.0465  -0.9530   2.0899 H              1 S1                 0.0000
     34 ****        -2.8046   2.2067  -0.1818 H              1 S1                 0.0000
     35 ****        -3.5410   4.7238  -0.8167 H              1 S1                 0.0000
     36 ****        -1.6594   2.4366  -3.9862 H              1 S1                 0.0000
     37 ****         2.5829  -0.7621   0.7240 H              1 S1                 0.0000
     38 ****        -1.0187  -0.4870  -2.4489 LP             1 S1                 0.0000
     39 ****        -1.3707   1.0511  -3.1633 LP             1 S1                 0.0000
     40 ****        -3.4040   6.1046  -2.8650 LP             1 S1                 0.0000
@<TRIPOS>BOND
    1    1    2 2     
    2    2    3 am    
    3    2   15 am    
    4    3    4 1     
    5    3   22 1     
    6    4    5 1     
    7    4   23 1     
    8    4   24 1     
    9    5   14 1     
   10    5    6 1     
   11    5   25 1     
   12    6    7 1     
   13    6   26 1     
   14    6   27 1     
   15    7    8 1     
   16    7   28 1     
   17    7   29 1     
   18    8    9 1     
   19    8   14 1     
   20    8   37 1     
   21    9   10 1     
   22    9   30 1     
   23    9   31 1     
   24   10   11 1     
   25   10   12 1     
   26   10   13 1     
   27   14   32 1     
   28   14   33 1     
   29   15   16 1     
   30   15   34 1     
   31   16   20 2     
   32   16   17 1     
   33   17   18 2     
   34   17   35 1     
   35   18   19 1     
   36   19   21 1     
   37   19   20 1     
   38   20   36 1     
   39    1   38 1     
   40    1   39 1     
   41   18   40 1     
@<TRIPOS>SUBSTRUCTURE
      1 S1             1
@<TRIPOS>SET
LONE_PAIRS      STATIC     ATOMS    <user>   **** ""
3 38 39 40
DONOR_HYDROGENS      STATIC     ATOMS    <user>   **** ""
4 22 37 34 21
ATOM$BLUE        STATIC     ATOMS    COLORGROUP SYSTEM
3 38 39 40
ATOM$RED        STATIC     ATOMS    COLORGROUP SYSTEM
4 22 37 34 21
