AV-unprocessed.smi:2763|AV-procd|sdf|10638|dock3
  -GOLD-   2272015 83D 1   1.00000     0.00000
 Structure written by MMmdl.
 37 38  0  0  0  0  0  0  0  0  1 V2000
  154.1709  139.7683  158.9242 O   0  0  0  0  0  0  0  0  0  0  0  0
  154.3913  139.7998  160.1354 C   0  0  0  0  0  0  0  0  0  0  0  0
  155.0855  138.8545  160.7853 N   0  0  0  0  0  0  0  0  0  0  0  0
  155.6745  137.6730  160.1666 C   0  0  0  0  0  0  0  0  0  0  0  0
  155.0981  136.3771  160.7619 C   0  0  0  0  0  0  0  0  0  0  0  0
  155.5699  136.1232  162.2024 C   0  0  2  0  0  0  0  0  0  0  0  0
  155.5109  134.6286  162.5740 C   0  0  0  0  0  0  0  0  0  0  0  0
  155.9154  134.4209  164.0381 C   0  0  0  0  0  0  0  0  0  0  0  0
  155.0708  135.3263  164.9408 C   0  0  0  0  0  0  0  0  0  0  0  0
  155.1427  136.7819  164.4527 C   0  0  0  0  0  0  0  0  0  0  0  0
  154.7295  136.8572  163.0918 O   0  0  0  0  0  0  0  0  0  0  0  0
  153.9767  140.7627  160.9775 N   0  0  0  0  0  0  0  0  0  0  0  0
  153.2426  141.9400  160.6741 C   0  0  0  0  0  0  0  0  0  0  0  0
  152.9553  142.7672  161.7838 C   0  0  0  0  0  0  0  0  0  0  0  0
  152.2343  143.9615  161.5900 C   0  0  0  0  0  0  0  0  0  0  0  0
  151.8202  144.2969  160.2888 C   0  0  0  0  0  0  0  0  0  0  0  0
  151.1253  145.4351  160.0533 F   0  0  0  0  0  0  0  0  0  0  0  0
  152.1468  143.4196  159.2383 C   0  0  0  0  0  0  0  0  0  0  0  0
  152.8377  142.2745  159.4230 N   0  0  0  0  0  0  0  0  0  0  0  0
  155.2177  138.9588  161.7806 H   0  0  0  0  0  0  0  0  0  0  0  0
  155.5242  137.6985  159.0860 H   0  0  0  0  0  0  0  0  0  0  0  0
  156.7517  137.7130  160.3298 H   0  0  0  0  0  0  0  0  0  0  0  0
  154.0081  136.4098  160.7338 H   0  0  0  0  0  0  0  0  0  0  0  0
  155.3957  135.5334  160.1376 H   0  0  0  0  0  0  0  0  0  0  0  0
  156.5968  136.4796  162.3025 H   0  0  0  0  0  0  0  0  0  0  0  0
  154.5002  134.2490  162.4176 H   0  0  0  0  0  0  0  0  0  0  0  0
  156.1663  134.0499  161.9225 H   0  0  0  0  0  0  0  0  0  0  0  0
  155.7930  133.3757  164.3230 H   0  0  0  0  0  0  0  0  0  0  0  0
  156.9723  134.6592  164.1640 H   0  0  0  0  0  0  0  0  0  0  0  0
  154.0332  134.9901  164.9299 H   0  0  0  0  0  0  0  0  0  0  0  0
  155.4125  135.2562  165.9738 H   0  0  0  0  0  0  0  0  0  0  0  0
  154.4883  137.4124  165.0549 H   0  0  0  0  0  0  0  0  0  0  0  0
  156.1531  137.1799  164.5593 H   0  0  0  0  0  0  0  0  0  0  0  0
  154.2228  140.6438  161.9491 H   0  0  0  0  0  0  0  0  0  0  0  0
  153.2824  142.4932  162.7764 H   0  0  0  0  0  0  0  0  0  0  0  0
  152.0044  144.6072  162.4247 H   0  0  0  0  0  0  0  0  0  0  0  0
  151.8474  143.6412  158.2246 H   0  0  0  0  0  0  0  0  0  0  0  0
  1  2  2  0  0  0  0
  2  3  1  0  0  0  0
  2 12  1  0  0  0  0
  3  4  1  0  0  0  0
  3 20  1  0  0  0  0
  4  5  1  0  0  0  0
  4 21  1  0  0  0  0
  4 22  1  0  0  0  0
  5  6  1  0  0  0  0
  5 23  1  0  0  0  0
  5 24  1  0  0  0  0
  6 11  1  0  0  0  0
  6  7  1  0  0  0  0
  6 25  1  0  0  0  0
  7  8  1  0  0  0  0
  7 26  1  0  0  0  0
  7 27  1  0  0  0  0
  8  9  1  0  0  0  0
  8 28  1  0  0  0  0
  8 29  1  0  0  0  0
  9 10  1  0  0  0  0
  9 30  1  0  0  0  0
  9 31  1  0  0  0  0
 10 11  1  0  0  0  0
 10 32  1  0  0  0  0
 10 33  1  0  0  0  0
 12 13  1  0  0  0  0
 12 34  1  0  0  0  0
 13 19  1  0  0  0  0
 13 14  2  0  0  0  0
 14 15  1  0  0  0  0
 14 35  1  0  0  0  0
 15 16  2  0  0  0  0
 15 36  1  0  0  0  0
 16 17  1  0  0  0  0
 16 18  1  0  0  0  0
 18 19  2  0  0  0  0
 18 37  1  0  0  0  0
M  END
> <s_m_source_file>
AV-unprocessed.smi

> <i_m_source_file_index>
2763

> <i_lp_mmshare_version>
43012

> <i_f3d_flags>
0

> <s_epik_input>
bjFbY0hdYyhGKVtjSF1bY0hdYzFbTkhdQyg9TylbTkhdW0NIMl1bQ0gyXVtDQEBIXTJbQ0gyXVtDSDJdW0NIMl1bQ0gyXU8y

> <s_epik_cmdline>
J2VwaWtfcHl0aG9uJywgJy1waCcsICc3LjAnLCAnLXRuJywgJzgnLCAnLW1hJywgJzIwMCcsICctbWV0YWxfYmluZGluZycsICctaW1hZScsICc8aW5maWxlLm1hZT4nLCAnLW9tYWUnLCAnPG91dGZpbGUubWFlPic=

> <r_lp_tautomer_probability>
1

> <r_epik_Ionization_Penalty>
3.67849e-05

> <r_epik_Ionization_Penalty_Charging>
0

> <r_epik_Ionization_Penalty_Neutral>
3.67849e-05

> <r_epik_State_Penalty>
-0

> <r_epik_Charging_Adjusted_Penalty>
0

> <i_epik_Tot_Q>
0

> <i_epik_Tot_abs_Q>
0

> <r_epik_Metal_State_Penalty>
-0

> <b_epik_Metal_Only>
0

> <s_lp_Force_Field>
OPLS_2005

> <r_lp_Energy>
12.1233

> <b_lp_Chiralities_Consistent>
1

> <s_lp_Variant>
AV-unprocessed.smi:2763-1

> <Gold.Version>
5.8.1

> <Gold.Id.Protein>
6NUR|6NUR_protein|mol2

> <Gold.PLP.Fitness>
45.0647

> <Gold.PLP.PLP>
-42.6333

> <Gold.PLP.part.hbond>
-1.0000

> <Gold.PLP.part.metal>
0.0000

> <Gold.PLP.part.buried>
-5.1147

> <Gold.PLP.part.nonpolar>
-36.6133

> <Gold.PLP.part.repulsive>
0.0461

> <Gold.PLP.ligand.clash>
0.0000

> <Gold.PLP.ligand.torsion>
0.2873

> <Gold.PLP.Chemscore.Hbond>
1.0000

> <Gold.PLP.Chemscore.CHOScore>
0.0000

> <Gold.PLP.Chemscore.Metal>
0.0000

> <Gold.Chemscore.Hbonds>
donor molecule, donor type, donor heavy atom, donor atom, acceptor molecule, acceptor atom, score
      P1  H  7997  8010       L1     1  1.00

> <Gold.PLP.Chemscore.Internal.Correction>
0.0059

> <Gold.Rescore>
     Score         DG    S(hbond)    S(metal)    S(lipo)     H(rot)  DE(clash)    DE(int)     intcor
     14.30     -15.95       0.99        0.00      94.77       1.54       0.00       1.65       ----

> <Gold.Chemscore.Fitness>
14.3016

> <Gold.Chemscore.DG>
-15.9491

> <Gold.Chemscore.ZeroCoef>
-5.4800

> <Gold.Chemscore.Hbond>
0.9937

> <Gold.Chemscore.Metal>
0.0000

> <Gold.Chemscore.Lipo>
94.7720

> <Gold.Chemscore.Internal_Hbond>
0.0000

> <Gold.Chemscore.DEClash>
0.0000

> <Gold.Chemscore.DEInternal>
1.6475

> <Gold.Chemscore.Rot>
1.5384

> <Gold.Chemscore.Internal.Correction>
   9.000000E+99

> <Gold.Chemscore.Hbonds>
donor molecule, donor type, donor heavy atom, donor atom, acceptor molecule, acceptor atom, score
      P1  H  7997  8010       L1     1  0.99

> <Gold.Chemscore.Hbond.Weighted>
-3.3190

> <Gold.Chemscore.Metal.Weighted>
-0.0000

> <Gold.Chemscore.Lipo.Weighted>
-11.0883

> <Gold.Chemscore.Internal_Hbond.Weighted>
0.0000

> <Gold.Chemscore.DEClash.Weighted>
0.0000

> <Gold.Chemscore.DEInternal.Weighted>
1.6475

> <Gold.Chemscore.Rot.Weighted>
3.9382

> <Gold.Chemscore.Internal.Correction.Weighted>
   9.000000E+99

> <Gold.Protein.RotatedTorsions>
[ 6907 6896 6895 6894 ] final   88.62 input  -60.11 | X-H torsion
[ 7974 7965 7964 7962 ] final    5.06 input  175.53 | X-H torsion
[ 8008 7997 7996 7995 ] final    6.10 input   59.86 | X-H torsion
[ 10167 10162 10161 10158 ] final   34.00 input  -65.29 | X-H torsion
[ 10718 10713 10712 10709 ] final    1.47 input   66.30 | X-H torsion
[ 10763 10752 10751 10750 ] final   50.67 input  -60.55 | X-H torsion
[ 11005 11000 10999 10996 ] final  -55.34 input  -57.11 | X-H torsion

> <Gold.Protein.ActiveResidues>
 VAL166  LYS551  ARG553  GLY616  TRP617  ASP618  TYR619  PRO620  LYS621  CYS622 
 ASP623  PHE694  ASN695  SER759  ASP760  ASP761  ALA762  ILE779  LEU786  VAL792 
 PHE793  MET794  SER795  GLU796  ALA797  LYS798  CYS799  TRP800  GLU811  SER814 

> <Gold.Protein.RotatedAtoms>
  152.5427  134.2093  159.8743 H   0  0  0  0  0  0  0  0  0  0  0  0  # atno 6907 bound_to 6896
  151.2076  133.4567  159.2605 H   0  0  0  0  0  0  0  0  0  0  0  0  # atno 6908 bound_to 6896
  151.0928  134.9939  159.8466 H   0  0  0  0  0  0  0  0  0  0  0  0  # atno 6909 bound_to 6896
  146.2442  140.0441  142.8380 H   0  0  0  0  0  0  0  0  0  0  0  0  # atno 7974 bound_to 7965
  154.7367  140.2741  155.6408 H   0  0  0  0  0  0  0  0  0  0  0  0  # atno 8008 bound_to 7997
  156.2863  140.2705  156.2009 H   0  0  0  0  0  0  0  0  0  0  0  0  # atno 8009 bound_to 7997
  155.0310  140.0371  157.2464 H   0  0  0  0  0  0  0  0  0  0  0  0  # atno 8010 bound_to 7997
  140.4356  144.1262  150.6166 H   0  0  0  0  0  0  0  0  0  0  0  0  # atno 10167 bound_to 10162
  156.8487  130.5546  149.5671 H   0  0  0  0  0  0  0  0  0  0  0  0  # atno 10718 bound_to 10713
  152.9784  135.5871  154.4291 H   0  0  0  0  0  0  0  0  0  0  0  0  # atno 10763 bound_to 10752
  154.3906  135.2768  155.2159 H   0  0  0  0  0  0  0  0  0  0  0  0  # atno 10764 bound_to 10752
  154.4033  135.6098  153.5964 H   0  0  0  0  0  0  0  0  0  0  0  0  # atno 10765 bound_to 10752
  141.1069  133.6613  156.4455 H   0  0  0  0  0  0  0  0  0  0  0  0  # atno 11005 bound_to 11000
  145.1042  140.9365  143.4694 LP  0  0  0  0  0  0  0  0  0  0  0  0  # atno 17320 bound_to 7965
  145.0641  139.3082  143.5865 LP  0  0  0  0  0  0  0  0  0  0  0  0  # atno 17321 bound_to 7965
  140.4378  143.2540  151.9513 LP  0  0  0  0  0  0  0  0  0  0  0  0  # atno 17342 bound_to 10162
  139.4787  144.5683  151.8129 LP  0  0  0  0  0  0  0  0  0  0  0  0  # atno 17343 bound_to 10162
  156.0840  130.5843  150.9615 LP  0  0  0  0  0  0  0  0  0  0  0  0  # atno 17370 bound_to 10713
  157.6315  131.0920  150.8431 LP  0  0  0  0  0  0  0  0  0  0  0  0  # atno 17371 bound_to 10713
  140.4878  134.6604  157.5198 LP  0  0  0  0  0  0  0  0  0  0  0  0  # atno 17394 bound_to 11000
  139.9943  134.6935  155.9635 LP  0  0  0  0  0  0  0  0  0  0  0  0  # atno 17395 bound_to 11000

$$$$
