AV-unprocessed.smi:1897|AV-procd|sdf|7698|dock5
  -GOLD-   22720 9433D 1   1.00000     0.00000
 Structure written by MMmdl.
 38 40  0  0  0  0  0  0  0  0  3 V2000
  145.6289  134.6671  162.5266 C   0  0  0  0  0  0  0  0  0  0  0  0
  146.7723  135.3078  161.8173 C   0  0  0  0  0  0  0  0  0  0  0  0
  147.3830  136.4036  162.2742 N   0  0  0  0  0  0  0  0  0  0  0  0
  148.4153  136.8116  161.4430 N   0  0  0  0  0  0  0  0  0  0  0  0
  148.5808  136.0123  160.3790 C   0  0  0  0  0  0  0  0  0  0  0  0
  149.5381  136.2255  159.4570 N   0  5  0  0  0  0  0  0  0  0  0  0
  149.2547  136.6134  158.1866 C   0  0  0  0  0  0  0  0  0  0  0  0
  149.6417  137.6751  157.7003 O   0  0  0  0  0  0  0  0  0  0  0  0
  148.5213  135.7788  157.4250 N   0  0  0  0  0  0  0  0  0  0  0  0
  148.1842  135.9791  156.0199 C   0  0  2  0  0  0  0  0  0  0  0  0
  146.6841  136.0298  155.7620 C   0  0  0  0  0  0  0  0  0  0  0  0
  146.5857  135.7478  154.2598 C   0  0  0  0  0  0  0  0  0  0  0  0
  147.7727  134.9350  153.8969 N   0  3  2  0  0  0  0  0  0  0  0  0
  147.4408  133.6373  153.2505 C   0  0  0  0  0  0  0  0  0  0  0  0
  148.6534  132.6952  153.2548 C   0  0  0  0  0  0  0  0  0  0  0  0
  149.0985  132.3557  154.6896 C   0  0  0  0  0  0  0  0  0  0  0  0
  148.6654  133.4259  155.7097 C   0  0  0  0  0  0  0  0  0  0  0  0
  148.6609  134.8465  155.0908 C   0  0  2  0  0  0  0  0  0  0  0  0
  147.4307  134.6779  160.3165 S   0  0  0  0  0  0  0  0  0  0  0  0
  145.9987  134.0386  163.3367 H   0  0  0  0  0  0  0  0  0  0  0  0
  145.0542  134.0490  161.8366 H   0  0  0  0  0  0  0  0  0  0  0  0
  144.9688  135.4275  162.9448 H   0  0  0  0  0  0  0  0  0  0  0  0
  148.2130  134.9163  157.8495 H   0  0  0  0  0  0  0  0  0  0  0  0
  148.6117  136.9237  155.6770 H   0  0  0  0  0  0  0  0  0  0  0  0
  146.1769  135.2414  156.3206 H   0  0  0  0  0  0  0  0  0  0  0  0
  146.2353  136.9830  156.0429 H   0  0  0  0  0  0  0  0  0  0  0  0
  145.6402  135.2688  154.0019 H   0  0  0  0  0  0  0  0  0  0  0  0
  146.6383  136.6828  153.7011 H   0  0  0  0  0  0  0  0  0  0  0  0
  146.6122  133.1570  153.7740 H   0  0  0  0  0  0  0  0  0  0  0  0
  147.1038  133.8248  152.2307 H   0  0  0  0  0  0  0  0  0  0  0  0
  148.4288  131.7790  152.7081 H   0  0  0  0  0  0  0  0  0  0  0  0
  149.4756  133.1744  152.7216 H   0  0  0  0  0  0  0  0  0  0  0  0
  148.6866  131.3925  154.9926 H   0  0  0  0  0  0  0  0  0  0  0  0
  150.1828  132.2395  154.7067 H   0  0  0  0  0  0  0  0  0  0  0  0
  147.6658  133.1902  156.0779 H   0  0  0  0  0  0  0  0  0  0  0  0
  149.3251  133.3745  156.5765 H   0  0  0  0  0  0  0  0  0  0  0  0
  149.6799  135.0651  154.7684 H   0  0  0  0  0  0  0  0  0  0  0  0
  148.2867  135.4742  153.2151 H   0  0  0  0  0  0  0  0  0  0  0  0
  1  2  1  0  0  0  0
  1 20  1  0  0  0  0
  1 21  1  0  0  0  0
  1 22  1  0  0  0  0
  2 19  1  0  0  0  0
  2  3  2  0  0  0  0
  3  4  1  0  0  0  0
  4  5  2  0  0  0  0
  5  6  1  0  0  0  0
  5 19  1  0  0  0  0
  6  7  1  0  0  0  0
  7  8  2  0  0  0  0
  7  9  1  0  0  0  0
  9 10  1  0  0  0  0
  9 23  1  0  0  0  0
 10 18  1  0  0  0  0
 10 11  1  0  0  0  0
 10 24  1  0  0  0  0
 11 12  1  0  0  0  0
 11 25  1  0  0  0  0
 11 26  1  0  0  0  0
 12 13  1  0  0  0  0
 12 27  1  0  0  0  0
 12 28  1  0  0  0  0
 13 18  1  0  0  0  0
 13 14  1  0  0  0  0
 13 38  1  0  0  0  0
 14 15  1  0  0  0  0
 14 29  1  0  0  0  0
 14 30  1  0  0  0  0
 15 16  1  0  0  0  0
 15 31  1  0  0  0  0
 15 32  1  0  0  0  0
 16 17  1  0  0  0  0
 16 33  1  0  0  0  0
 16 34  1  0  0  0  0
 17 18  1  0  0  0  0
 17 35  1  0  0  0  0
 17 36  1  0  0  0  0
 18 37  1  0  0  0  0
M  CHG  1   6  -1
M  CHG  1  13   1
M  END
> <s_m_source_file>
AV-unprocessed.smi

> <i_m_source_file_index>
1897

> <i_lp_mmshare_version>
43012

> <i_f3d_flags>
0

> <s_epik_input>
W0NIM11jMW5uYyhzMSlbTkhdQyg9TylbTkhdW0NASF0oW0NIMl1bQ0gyXTIpW0NAQEhdKE4yMylbQ0gyXVtDSDJdW0NIMl1bQ0gyXTM=

> <s_epik_cmdline>
J2VwaWtfcHl0aG9uJywgJy1waCcsICc3LjAnLCAnLXRuJywgJzgnLCAnLW1hJywgJzIwMCcsICctbWV0YWxfYmluZGluZycsICctaW1hZScsICc8aW5maWxlLm1hZT4nLCAnLW9tYWUnLCAnPG91dGZpbGUubWFlPic=

> <r_lp_tautomer_probability>
1

> <r_epik_Ionization_Penalty>
3.77712

> <r_epik_Ionization_Penalty_Charging>
3.67739

> <r_epik_Ionization_Penalty_Neutral>
0.0997294

> <r_epik_State_Penalty>
3.67514

> <r_epik_Charging_Adjusted_Penalty>
7.35254

> <i_epik_Tot_Q>
0

> <i_epik_Tot_abs_Q>
2

> <r_epik_Metal_State_Penalty>
0.540795

> <b_epik_Metal_Only>
1

> <s_lp_Force_Field>
OPLS_2005

> <r_lp_Energy>
34.1596

> <b_lp_Chiralities_Consistent>
1

> <s_lp_Variant>
AV-unprocessed.smi:1897-15

> <Gold.Version>
5.8.1

> <Gold.Id.Protein>
6NUR|6NUR_protein|mol2

> <Gold.PLP.Fitness>
37.8364

> <Gold.PLP.PLP>
-25.3034

> <Gold.PLP.part.hbond>
-3.1488

> <Gold.PLP.part.metal>
0.0000

> <Gold.PLP.part.buried>
-4.5924

> <Gold.PLP.part.nonpolar>
-17.8119

> <Gold.PLP.part.repulsive>
0.0431

> <Gold.PLP.ligand.clash>
0.0000

> <Gold.PLP.ligand.torsion>
1.2360

> <Gold.PLP.Chemscore.Hbond>
5.0000

> <Gold.PLP.Chemscore.CHOScore>
0.0000

> <Gold.PLP.Chemscore.Metal>
0.0000

> <Gold.Chemscore.Hbonds>
donor molecule, donor type, donor heavy atom, donor atom, acceptor molecule, acceptor atom, score
      L1  H    13    38       P1  7948  2.00
      P1  H  6896  6909       L1     6  2.00
      P1  H  6931  6943       L1     4  1.00

> <Gold.PLP.Chemscore.Internal.Correction>
0.0051

> <Gold.Rescore>
     Score         DG    S(hbond)    S(metal)    S(lipo)     H(rot)  DE(clash)    DE(int)     intcor
     16.53     -17.96       2.77        0.00      49.32       1.00       0.08       1.34       ----

> <Gold.Chemscore.Fitness>
16.5315

> <Gold.Chemscore.DG>
-17.9564

> <Gold.Chemscore.ZeroCoef>
-5.4800

> <Gold.Chemscore.Hbond>
2.7743

> <Gold.Chemscore.Metal>
0.0000

> <Gold.Chemscore.Lipo>
49.3180

> <Gold.Chemscore.Internal_Hbond>
0.0000

> <Gold.Chemscore.DEClash>
0.0811

> <Gold.Chemscore.DEInternal>
1.3437

> <Gold.Chemscore.Rot>
1.0000

> <Gold.Chemscore.Internal.Correction>
   9.000000E+99

> <Gold.Chemscore.Hbonds>
donor molecule, donor type, donor heavy atom, donor atom, acceptor molecule, acceptor atom, score
      L1  H    13    38       P1  7948  1.00
      P1  H  6896  6909       L1     6  0.52
      P1  H  6931  6943       L1     4  0.82

> <Gold.Chemscore.Hbond.Weighted>
-9.2662

> <Gold.Chemscore.Metal.Weighted>
-0.0000

> <Gold.Chemscore.Lipo.Weighted>
-5.7702

> <Gold.Chemscore.Internal_Hbond.Weighted>
0.0000

> <Gold.Chemscore.DEClash.Weighted>
0.0811

> <Gold.Chemscore.DEInternal.Weighted>
1.3437

> <Gold.Chemscore.Rot.Weighted>
2.5600

> <Gold.Chemscore.Internal.Correction.Weighted>
   9.000000E+99

> <Gold.Protein.RotatedTorsions>
[ 6907 6896 6895 6894 ] final   65.48 input  -60.11 | X-H torsion
[ 7974 7965 7964 7962 ] final -145.93 input  175.53 | X-H torsion
[ 8008 7997 7996 7995 ] final -170.76 input   59.86 | X-H torsion
[ 10167 10162 10161 10158 ] final  -94.59 input  -65.29 | X-H torsion
[ 10718 10713 10712 10709 ] final   38.98 input   66.30 | X-H torsion
[ 10763 10752 10751 10750 ] final  -65.40 input  -60.55 | X-H torsion
[ 11005 11000 10999 10996 ] final   23.74 input  -57.11 | X-H torsion

> <Gold.Protein.ActiveResidues>
 VAL166  LYS551  ARG553  GLY616  TRP617  ASP618  TYR619  PRO620  LYS621  CYS622 
 ASP623  PHE694  ASN695  SER759  ASP760  ASP761  ALA762  ILE779  LEU786  VAL792 
 PHE793  MET794  SER795  GLU796  ALA797  LYS798  CYS799  TRP800  GLU811  SER814 

> <Gold.Protein.RotatedAtoms>
  152.4411  134.5589  159.9888 H   0  0  0  0  0  0  0  0  0  0  0  0  # atno 6907 bound_to 6896
  151.5687  133.3387  159.2993 H   0  0  0  0  0  0  0  0  0  0  0  0  # atno 6908 bound_to 6896
  150.8317  134.7607  159.6923 H   0  0  0  0  0  0  0  0  0  0  0  0  # atno 6909 bound_to 6896
  144.8193  140.5520  143.5589 H   0  0  0  0  0  0  0  0  0  0  0  0  # atno 7974 bound_to 7965
  155.9226  140.1077  157.1195 H   0  0  0  0  0  0  0  0  0  0  0  0  # atno 8008 bound_to 7997
  154.4057  140.1253  156.4764 H   0  0  0  0  0  0  0  0  0  0  0  0  # atno 8009 bound_to 7997
  155.7178  140.3470  155.5004 H   0  0  0  0  0  0  0  0  0  0  0  0  # atno 8010 bound_to 7997
  140.3129  143.3094  152.0129 H   0  0  0  0  0  0  0  0  0  0  0  0  # atno 10167 bound_to 10162
  157.3652  130.7671  149.7077 H   0  0  0  0  0  0  0  0  0  0  0  0  # atno 10718 bound_to 10713
  154.3445  135.6149  153.5612 H   0  0  0  0  0  0  0  0  0  0  0  0  # atno 10763 bound_to 10752
  152.9802  135.5777  154.4815 H   0  0  0  0  0  0  0  0  0  0  0  0  # atno 10764 bound_to 10752
  154.4525  135.2853  155.1748 H   0  0  0  0  0  0  0  0  0  0  0  0  # atno 10765 bound_to 10752
  140.3663  134.2071  155.7669 H   0  0  0  0  0  0  0  0  0  0  0  0  # atno 11005 bound_to 11000
  145.5141  139.1478  143.3588 LP  0  0  0  0  0  0  0  0  0  0  0  0  # atno 17320 bound_to 7965
  146.2498  140.5282  142.8898 LP  0  0  0  0  0  0  0  0  0  0  0  0  # atno 17321 bound_to 7965
  139.4890  144.6371  151.6954 LP  0  0  0  0  0  0  0  0  0  0  0  0  # atno 17342 bound_to 10162
  140.5552  144.0359  150.6144 LP  0  0  0  0  0  0  0  0  0  0  0  0  # atno 17343 bound_to 10162
  155.9745  130.4102  150.3920 LP  0  0  0  0  0  0  0  0  0  0  0  0  # atno 17370 bound_to 10713
  157.2003  131.0436  151.2654 LP  0  0  0  0  0  0  0  0  0  0  0  0  # atno 17371 bound_to 10713
  141.1968  133.8073  157.0654 LP  0  0  0  0  0  0  0  0  0  0  0  0  # atno 17394 bound_to 11000
  140.0587  134.9767  157.1266 LP  0  0  0  0  0  0  0  0  0  0  0  0  # atno 17395 bound_to 11000

$$$$
