AV-unprocessed.smi:285|AV-procd|sdf|2166|dock8
  -GOLD-   2262021523D 1   1.00000     0.00000
 Structure written by MMmdl.
 31 33  0  0  0  0  0  0  0  0  1 V2000
  154.6588  141.0812  161.5387 N   0  0  0  0  0  0  0  0  0  0  0  0
  153.5515  141.5090  160.9163 C   0  0  0  0  0  0  0  0  0  0  0  0
  153.0911  142.7490  161.2036 N   0  0  0  0  0  0  0  0  0  0  0  0
  151.9881  143.1993  160.5968 C   0  0  0  0  0  0  0  0  0  0  0  0
  151.2192  142.5827  159.6954 N   0  0  0  0  0  0  0  0  0  0  0  0
  151.6846  141.3326  159.4039 C   0  0  0  0  0  0  0  0  0  0  0  0
  152.8419  140.7240  159.9728 C   0  0  0  0  0  0  0  0  0  0  0  0
  153.0182  139.4478  159.4532 N   0  0  0  0  0  0  0  0  0  0  0  0
  152.0150  139.3332  158.6284 C   0  0  0  0  0  0  0  0  0  0  0  0
  151.7656  137.7279  157.6339 Br  0  0  0  0  0  0  0  0  0  0  0  0
  151.1590  140.4066  158.5243 N   0  0  0  0  0  0  0  0  0  0  0  0
  149.9441  140.5603  157.6670 C   0  0  1  0  0  0  0  0  0  0  0  0
  150.0843  141.7227  156.7003 C   0  0  0  0  0  0  0  0  0  0  0  0
  149.0476  141.3153  155.6764 C   0  0  1  0  0  0  0  0  0  0  0  0
  149.2432  141.9838  154.4458 O   0  0  0  0  0  0  0  0  0  0  0  0
  149.1872  139.7753  155.6278 C   0  0  1  0  0  0  0  0  0  0  0  0
  150.1013  139.2312  154.5111 C   0  0  0  0  0  0  0  0  0  0  0  0
  151.4322  139.6446  154.7357 O   0  0  0  0  0  0  0  0  0  0  0  0
  149.7922  139.4244  156.8785 O   0  0  0  0  0  0  0  0  0  0  0  0
  155.0225  140.1599  161.3415 H   0  0  0  0  0  0  0  0  0  0  0  0
  155.1291  141.6818  162.2002 H   0  0  0  0  0  0  0  0  0  0  0  0
  151.6766  144.1962  160.8722 H   0  0  0  0  0  0  0  0  0  0  0  0
  149.0972  140.6604  158.3459 H   0  0  0  0  0  0  0  0  0  0  0  0
  149.8823  142.6766  157.1884 H   0  0  0  0  0  0  0  0  0  0  0  0
  151.0869  141.7332  156.2698 H   0  0  0  0  0  0  0  0  0  0  0  0
  148.0572  141.5725  156.0556 H   0  0  0  0  0  0  0  0  0  0  0  0
  149.1012  142.9087  154.5795 H   0  0  0  0  0  0  0  0  0  0  0  0
  148.1954  139.3276  155.5496 H   0  0  0  0  0  0  0  0  0  0  0  0
  150.1140  138.1416  154.5117 H   0  0  0  0  0  0  0  0  0  0  0  0
  149.7650  139.5485  153.5245 H   0  0  0  0  0  0  0  0  0  0  0  0
  151.5852  139.6690  155.6676 H   0  0  0  0  0  0  0  0  0  0  0  0
  1  2  1  0  0  0  0
  1 20  1  0  0  0  0
  1 21  1  0  0  0  0
  2  7  1  0  0  0  0
  2  3  2  0  0  0  0
  3  4  1  0  0  0  0
  4  5  2  0  0  0  0
  4 22  1  0  0  0  0
  5  6  1  0  0  0  0
  6 11  1  0  0  0  0
  6  7  2  0  0  0  0
  7  8  1  0  0  0  0
  8  9  2  0  0  0  0
  9 10  1  0  0  0  0
  9 11  1  0  0  0  0
 11 12  1  0  0  0  0
 12 19  1  0  0  0  0
 12 13  1  0  0  0  0
 12 23  1  0  0  0  0
 13 14  1  0  0  0  0
 13 24  1  0  0  0  0
 13 25  1  0  0  0  0
 14 15  1  0  0  0  0
 14 16  1  0  0  0  0
 14 26  1  0  0  0  0
 15 27  1  0  0  0  0
 16 17  1  0  0  0  0
 16 19  1  0  0  0  0
 16 28  1  0  0  0  0
 17 18  1  0  0  0  0
 17 29  1  0  0  0  0
 17 30  1  0  0  0  0
 18 31  1  0  0  0  0
M  END
> <s_m_source_file>
AV-unprocessed.smi

> <i_m_source_file_index>
285

> <i_lp_mmshare_version>
43012

> <i_f3d_flags>
0

> <s_epik_input>
bjFbY0hdbmMoW05IMl0pYyhjMTIpbmMoQnIpbjJbQ0BASF0zW0NIMl1bQ0BASF0oW09IXSlbQ0BIXShPMylbQ0gyXVtPSF0=

> <s_epik_cmdline>
J2VwaWtfcHl0aG9uJywgJy1waCcsICc3LjAnLCAnLXRuJywgJzgnLCAnLW1hJywgJzIwMCcsICctbWV0YWxfYmluZGluZycsICctaW1hZScsICc8aW5maWxlLm1hZT4nLCAnLW9tYWUnLCAnPG91dGZpbGUubWFlPic=

> <r_lp_tautomer_probability>
1

> <r_epik_Ionization_Penalty>
0.000103242

> <r_epik_Ionization_Penalty_Charging>
0

> <r_epik_Ionization_Penalty_Neutral>
0.000103242

> <r_epik_State_Penalty>
-0

> <r_epik_Charging_Adjusted_Penalty>
0

> <i_epik_Tot_Q>
0

> <i_epik_Tot_abs_Q>
0

> <r_epik_Metal_State_Penalty>
-0

> <b_epik_Metal_Only>
0

> <s_epik_Chemistry_Notes>
This compound contains an acetal/aminal-like group ( X-CH(R)-Y where X, Y are N, S, or O) that may be acid/base labile, releasing an aldehyde.

> <s_lp_Force_Field>
OPLS_2005

> <r_lp_Energy>
35.0354

> <b_lp_Chiralities_Consistent>
1

> <s_lp_Variant>
AV-unprocessed.smi:285-2

> <Gold.Version>
5.8.1

> <Gold.Id.Protein>
6NUR|6NUR_protein|mol2

> <Gold.PLP.Fitness>
37.4006

> <Gold.PLP.PLP>
-31.0726

> <Gold.PLP.part.hbond>
-4.7863

> <Gold.PLP.part.metal>
0.0000

> <Gold.PLP.part.buried>
-5.0794

> <Gold.PLP.part.nonpolar>
-21.3806

> <Gold.PLP.part.repulsive>
0.0217

> <Gold.PLP.ligand.clash>
0.0000

> <Gold.PLP.ligand.torsion>
0.0351

> <Gold.PLP.Chemscore.Hbond>
2.1279

> <Gold.PLP.Chemscore.CHOScore>
0.0000

> <Gold.PLP.Chemscore.Metal>
0.0000

> <Gold.Chemscore.Hbonds>
donor molecule, donor type, donor heavy atom, donor atom, acceptor molecule, acceptor atom, score
      L1  H    15    27       P1  8028  0.83
      P1  H  7989  7998       L1    18  1.00
      P1  H  8011  8017       L1    15  0.08

> <Gold.PLP.Chemscore.Internal.Correction>
0.0145

> <Gold.Rescore>
     Score         DG    S(hbond)    S(metal)    S(lipo)     H(rot)  DE(clash)    DE(int)     intcor
      6.53      -8.20       1.97        0.00      34.10       3.06       0.10       1.57       ----

> <Gold.Chemscore.Fitness>
6.5299

> <Gold.Chemscore.DG>
-8.2015

> <Gold.Chemscore.ZeroCoef>
-5.4800

> <Gold.Chemscore.Hbond>
1.9661

> <Gold.Chemscore.Metal>
0.0000

> <Gold.Chemscore.Lipo>
34.1025

> <Gold.Chemscore.Internal_Hbond>
0.0000

> <Gold.Chemscore.DEClash>
0.1036

> <Gold.Chemscore.DEInternal>
1.5679

> <Gold.Chemscore.Rot>
3.0607

> <Gold.Chemscore.Internal.Correction>
   9.000000E+99

> <Gold.Chemscore.Hbonds>
donor molecule, donor type, donor heavy atom, donor atom, acceptor molecule, acceptor atom, score
      L1  H    15    27       P1  8028  0.80
      P1  H  7989  7998       L1    18  0.35

> <Gold.Chemscore.Hbond.Weighted>
-6.5668

> <Gold.Chemscore.Metal.Weighted>
-0.0000

> <Gold.Chemscore.Lipo.Weighted>
-3.9900

> <Gold.Chemscore.Internal_Hbond.Weighted>
0.0000

> <Gold.Chemscore.DEClash.Weighted>
0.1036

> <Gold.Chemscore.DEInternal.Weighted>
1.5679

> <Gold.Chemscore.Rot.Weighted>
7.8354

> <Gold.Chemscore.Internal.Correction.Weighted>
   9.000000E+99

> <Gold.Protein.RotatedTorsions>
[ 6907 6896 6895 6894 ] final  120.62 input  -60.11 | X-H torsion
[ 7974 7965 7964 7962 ] final  128.61 input  175.53 | X-H torsion
[ 8008 7997 7996 7995 ] final   35.86 input   59.86 | X-H torsion
[ 10167 10162 10161 10158 ] final   -7.69 input  -65.29 | X-H torsion
[ 10718 10713 10712 10709 ] final -172.27 input   66.30 | X-H torsion
[ 10763 10752 10751 10750 ] final  163.69 input  -60.55 | X-H torsion
[ 11005 11000 10999 10996 ] final  156.95 input  -57.11 | X-H torsion

> <Gold.Protein.ActiveResidues>
 VAL166  LYS551  ARG553  GLY616  TRP617  ASP618  TYR619  PRO620  LYS621  CYS622 
 ASP623  PHE694  ASN695  SER759  ASP760  ASP761  ALA762  ILE779  LEU786  VAL792 
 PHE793  MET794  SER795  GLU796  ALA797  LYS798  CYS799  TRP800  GLU811  SER814 

> <Gold.Protein.RotatedAtoms>
  152.4384  133.7403  159.6637 H   0  0  0  0  0  0  0  0  0  0  0  0  # atno 6907 bound_to 6896
  150.8271  133.8142  159.3120 H   0  0  0  0  0  0  0  0  0  0  0  0  # atno 6908 bound_to 6896
  151.5807  135.1061  160.0068 H   0  0  0  0  0  0  0  0  0  0  0  0  # atno 6909 bound_to 6896
  145.0377  139.3990  143.5117 H   0  0  0  0  0  0  0  0  0  0  0  0  # atno 7974 bound_to 7965
  155.1779  140.3297  155.4380 H   0  0  0  0  0  0  0  0  0  0  0  0  # atno 8008 bound_to 7997
  156.2487  140.1932  156.6829 H   0  0  0  0  0  0  0  0  0  0  0  0  # atno 8009 bound_to 7997
  154.6291  140.0585  156.9697 H   0  0  0  0  0  0  0  0  0  0  0  0  # atno 8010 bound_to 7997
  140.7036  143.6053  150.8757 H   0  0  0  0  0  0  0  0  0  0  0  0  # atno 10167 bound_to 10162
  156.7532  130.9386  151.3115 H   0  0  0  0  0  0  0  0  0  0  0  0  # atno 10718 bound_to 10713
  154.2975  135.2759  155.2626 H   0  0  0  0  0  0  0  0  0  0  0  0  # atno 10763 bound_to 10752
  154.5078  135.5791  153.6584 H   0  0  0  0  0  0  0  0  0  0  0  0  # atno 10764 bound_to 10752
  152.9905  135.6173  154.3144 H   0  0  0  0  0  0  0  0  0  0  0  0  # atno 10765 bound_to 10752
  140.1723  134.8534  157.2705 H   0  0  0  0  0  0  0  0  0  0  0  0  # atno 11005 bound_to 11000
  146.3506  139.9961  142.8681 LP  0  0  0  0  0  0  0  0  0  0  0  0  # atno 17320 bound_to 7965
  145.1688  140.9710  143.4334 LP  0  0  0  0  0  0  0  0  0  0  0  0  # atno 17321 bound_to 7965
  139.9776  143.5986  152.2953 LP  0  0  0  0  0  0  0  0  0  0  0  0  # atno 17342 bound_to 10162
  139.6596  144.7662  151.1989 LP  0  0  0  0  0  0  0  0  0  0  0  0  # atno 17343 bound_to 10162
  157.6768  130.9102  150.0169 LP  0  0  0  0  0  0  0  0  0  0  0  0  # atno 17370 bound_to 10713
  156.1388  130.3642  149.9615 LP  0  0  0  0  0  0  0  0  0  0  0  0  # atno 17371 bound_to 10713
  140.2363  134.3849  155.7500 LP  0  0  0  0  0  0  0  0  0  0  0  0  # atno 17394 bound_to 11000
  141.2218  133.7241  156.8719 LP  0  0  0  0  0  0  0  0  0  0  0  0  # atno 17395 bound_to 11000

$$$$
