AV-unprocessed.smi:1403|AV-procd|sdf|5698|dock3
  -GOLD-   22720 5323D 1   1.00000     0.00000
 Structure written by MMmdl.
 36 37  0  0  0  0  0  0  0  0  1 V2000
  152.0930  144.9632  158.8715 C   0  0  0  0  0  0  0  0  0  0  0  0
  152.0041  143.4305  158.8423 C   0  0  1  0  0  0  0  0  0  0  0  0
  151.8129  142.9987  157.4587 N   0  0  0  0  0  0  0  0  0  0  0  0
  150.8783  142.1402  157.0213 C   0  0  0  0  0  0  0  0  0  0  0  0
  150.0664  141.5865  157.7638 O   0  0  0  0  0  0  0  0  0  0  0  0
  150.8890  141.8468  155.5143 C   0  0  0  0  0  0  0  0  0  0  0  0
  150.8952  140.4092  155.2078 N   0  0  0  0  0  0  0  0  0  0  0  0
  150.0122  139.8878  154.2726 C   0  0  0  0  0  0  0  0  0  0  0  0
  149.9715  138.5771  153.9353 C   0  0  0  0  0  0  0  0  0  0  0  0
  150.8839  137.6248  154.5596 C   0  0  0  0  0  0  0  0  0  0  0  0
  150.9230  136.4198  154.3221 O   0  0  0  0  0  0  0  0  0  0  0  0
  151.7583  138.1880  155.4931 N   0  0  0  0  0  0  0  0  0  0  0  0
  151.8064  139.5380  155.8443 C   0  0  0  0  0  0  0  0  0  0  0  0
  152.6211  139.9311  156.6785 O   0  0  0  0  0  0  0  0  0  0  0  0
  153.2617  142.7707  159.4456 C   0  0  2  0  0  0  0  0  0  0  0  0
  153.2724  141.2414  159.4095 C   0  0  0  0  0  0  0  0  0  0  0  0
  154.2636  140.9189  160.5036 C   0  0  0  0  0  0  0  0  0  0  0  0
  153.9466  141.9890  161.5449 C   0  0  0  0  0  0  0  0  0  0  0  0
  153.3793  143.0853  160.8307 O   0  0  0  0  0  0  0  0  0  0  0  0
  152.4108  137.5672  155.9494 H   0  0  0  0  0  0  0  0  0  0  0  0
  152.1910  145.3332  159.8924 H   0  0  0  0  0  0  0  0  0  0  0  0
  151.1977  145.4171  158.4449 H   0  0  0  0  0  0  0  0  0  0  0  0
  152.9519  145.3230  158.3040 H   0  0  0  0  0  0  0  0  0  0  0  0
  151.1404  143.1413  159.4436 H   0  0  0  0  0  0  0  0  0  0  0  0
  152.4410  143.3942  156.7744 H   0  0  0  0  0  0  0  0  0  0  0  0
  150.0330  142.3281  155.0368 H   0  0  0  0  0  0  0  0  0  0  0  0
  151.7672  142.3294  155.0830 H   0  0  0  0  0  0  0  0  0  0  0  0
  149.3207  140.5573  153.7808 H   0  0  0  0  0  0  0  0  0  0  0  0
  149.2612  138.2310  153.1985 H   0  0  0  0  0  0  0  0  0  0  0  0
  154.1573  143.1421  158.9440 H   0  0  0  0  0  0  0  0  0  0  0  0
  152.2900  140.8426  159.6672 H   0  0  0  0  0  0  0  0  0  0  0  0
  153.5631  140.8384  158.4390 H   0  0  0  0  0  0  0  0  0  0  0  0
  154.1637  139.9044  160.8900 H   0  0  0  0  0  0  0  0  0  0  0  0
  155.2816  141.0450  160.1323 H   0  0  0  0  0  0  0  0  0  0  0  0
  153.2083  141.6231  162.2592 H   0  0  0  0  0  0  0  0  0  0  0  0
  154.8329  142.2951  162.1012 H   0  0  0  0  0  0  0  0  0  0  0  0
  1  2  1  0  0  0  0
  1 21  1  0  0  0  0
  1 22  1  0  0  0  0
  1 23  1  0  0  0  0
  2  3  1  0  0  0  0
  2 15  1  0  0  0  0
  2 24  1  0  0  0  0
  3  4  1  0  0  0  0
  3 25  1  0  0  0  0
  4  5  2  0  0  0  0
  4  6  1  0  0  0  0
  6  7  1  0  0  0  0
  6 26  1  0  0  0  0
  6 27  1  0  0  0  0
  7 13  1  0  0  0  0
  7  8  1  0  0  0  0
  8  9  2  0  0  0  0
  8 28  1  0  0  0  0
  9 10  1  0  0  0  0
  9 29  1  0  0  0  0
 10 11  2  0  0  0  0
 10 12  1  0  0  0  0
 12 20  1  0  0  0  0
 12 13  1  0  0  0  0
 13 14  2  0  0  0  0
 15 19  1  0  0  0  0
 15 16  1  0  0  0  0
 15 30  1  0  0  0  0
 16 17  1  0  0  0  0
 16 31  1  0  0  0  0
 16 32  1  0  0  0  0
 17 18  1  0  0  0  0
 17 33  1  0  0  0  0
 17 34  1  0  0  0  0
 18 19  1  0  0  0  0
 18 35  1  0  0  0  0
 18 36  1  0  0  0  0
M  END
> <s_m_source_file>
AV-unprocessed.smi

> <i_m_source_file_index>
1403

> <i_lp_mmshare_version>
43012

> <i_f3d_flags>
0

> <s_epik_input>
TzFbQ0gyXVtDSDJdW0NIMl1bQ0BIXTFbQ0BIXShbQ0gzXSlbTkhdQyg9TylbQ0gyXW4yW2NIXVtjSF1jKD1PKVtuSF1jMj1P

> <s_epik_cmdline>
J2VwaWtfcHl0aG9uJywgJy1waCcsICc3LjAnLCAnLXRuJywgJzgnLCAnLW1hJywgJzIwMCcsICctbWV0YWxfYmluZGluZycsICctaW1hZScsICc8aW5maWxlLm1hZT4nLCAnLW9tYWUnLCAnPG91dGZpbGUubWFlPic=

> <r_lp_tautomer_probability>
0.999537

> <r_epik_Ionization_Penalty>
0.00331407

> <r_epik_Ionization_Penalty_Charging>
0.00331405

> <r_epik_Ionization_Penalty_Neutral>
2.30132e-08

> <r_epik_State_Penalty>
0.00234266

> <r_epik_Charging_Adjusted_Penalty>
0.00565671

> <i_epik_Tot_Q>
0

> <i_epik_Tot_abs_Q>
0

> <r_epik_Metal_State_Penalty>
0.365604

> <b_epik_Metal_Only>
0

> <s_lp_Force_Field>
OPLS_2005

> <r_lp_Energy>
17.659

> <b_lp_Chiralities_Consistent>
1

> <s_lp_Variant>
AV-unprocessed.smi:1403-2

> <Gold.Version>
5.8.1

> <Gold.Id.Protein>
6NUR|6NUR_protein|mol2

> <Gold.PLP.Fitness>
47.3376

> <Gold.PLP.PLP>
-42.0288

> <Gold.PLP.part.hbond>
-2.0000

> <Gold.PLP.part.metal>
0.0000

> <Gold.PLP.part.buried>
-3.7216

> <Gold.PLP.part.nonpolar>
-35.7870

> <Gold.PLP.part.repulsive>
0.4160

> <Gold.PLP.ligand.clash>
0.0000

> <Gold.PLP.ligand.torsion>
0.3521

> <Gold.PLP.Chemscore.Hbond>
2.0000

> <Gold.PLP.Chemscore.CHOScore>
0.0000

> <Gold.PLP.Chemscore.Metal>
0.0000

> <Gold.Chemscore.Hbonds>
donor molecule, donor type, donor heavy atom, donor atom, acceptor molecule, acceptor atom, score
      P1  H  7997  8009       L1    14  1.00
      P1  H 10752 10764       L1    11  0.70
      L1  C     8    28       P1  7957  0.31

> <Gold.PLP.Chemscore.Internal.Correction>
0.0129

> <Gold.Rescore>
     Score         DG    S(hbond)    S(metal)    S(lipo)     H(rot)  DE(clash)    DE(int)     intcor
     15.17     -16.90       1.95        0.00      86.62       2.04       0.12       1.61       ----

> <Gold.Chemscore.Fitness>
15.1700

> <Gold.Chemscore.DG>
-16.8999

> <Gold.Chemscore.ZeroCoef>
-5.4800

> <Gold.Chemscore.Hbond>
1.9482

> <Gold.Chemscore.Metal>
0.0000

> <Gold.Chemscore.Lipo>
86.6157

> <Gold.Chemscore.Internal_Hbond>
0.0000

> <Gold.Chemscore.DEClash>
0.1239

> <Gold.Chemscore.DEInternal>
1.6060

> <Gold.Chemscore.Rot>
2.0395

> <Gold.Chemscore.Internal.Correction>
   9.000000E+99

> <Gold.Chemscore.Hbonds>
donor molecule, donor type, donor heavy atom, donor atom, acceptor molecule, acceptor atom, score
      P1  H  7997  8009       L1    14  0.99
      P1  H 10752 10764       L1    11  0.59

> <Gold.Chemscore.Hbond.Weighted>
-6.5070

> <Gold.Chemscore.Metal.Weighted>
-0.0000

> <Gold.Chemscore.Lipo.Weighted>
-10.1340

> <Gold.Chemscore.Internal_Hbond.Weighted>
0.0000

> <Gold.Chemscore.DEClash.Weighted>
0.1239

> <Gold.Chemscore.DEInternal.Weighted>
1.6060

> <Gold.Chemscore.Rot.Weighted>
5.2211

> <Gold.Chemscore.Internal.Correction.Weighted>
   9.000000E+99

> <Gold.Protein.RotatedTorsions>
[ 6907 6896 6895 6894 ] final  107.17 input  -60.11 | X-H torsion
[ 7974 7965 7964 7962 ] final   49.11 input  175.53 | X-H torsion
[ 8008 7997 7996 7995 ] final -165.53 input   59.86 | X-H torsion
[ 10167 10162 10161 10158 ] final  116.77 input  -65.29 | X-H torsion
[ 10718 10713 10712 10709 ] final  168.35 input   66.30 | X-H torsion
[ 10763 10752 10751 10750 ] final  -68.42 input  -60.55 | X-H torsion
[ 11005 11000 10999 10996 ] final   22.82 input  -57.11 | X-H torsion

> <Gold.Protein.ActiveResidues>
 VAL166  LYS551  ARG553  GLY616  TRP617  ASP618  TYR619  PRO620  LYS621  CYS622 
 ASP623  PHE694  ASN695  SER759  ASP760  ASP761  ALA762  ILE779  LEU786  VAL792 
 PHE793  MET794  SER795  GLU796  ALA797  LYS798  CYS799  TRP800  GLU811  SER814 

> <Gold.Protein.RotatedAtoms>
  152.5165  133.9274  159.7563 H   0  0  0  0  0  0  0  0  0  0  0  0  # atno 6907 bound_to 6896
  150.9632  133.6414  159.2757 H   0  0  0  0  0  0  0  0  0  0  0  0  # atno 6908 bound_to 6896
  151.3652  135.0917  159.9500 H   0  0  0  0  0  0  0  0  0  0  0  0  # atno 6909 bound_to 6896
  146.0140  139.4576  142.9938 H   0  0  0  0  0  0  0  0  0  0  0  0  # atno 7974 bound_to 7965
  155.8511  140.0963  157.1674 H   0  0  0  0  0  0  0  0  0  0  0  0  # atno 8008 bound_to 7997
  154.3985  140.1383  156.3907 H   0  0  0  0  0  0  0  0  0  0  0  0  # atno 8009 bound_to 7997
  155.7960  140.3454  155.5378 H   0  0  0  0  0  0  0  0  0  0  0  0  # atno 8010 bound_to 7997
  139.6224  144.7103  151.2605 H   0  0  0  0  0  0  0  0  0  0  0  0  # atno 10167 bound_to 10162
  157.0384  131.0279  151.2721 H   0  0  0  0  0  0  0  0  0  0  0  0  # atno 10718 bound_to 10713
  154.3887  135.6057  153.5831 H   0  0  0  0  0  0  0  0  0  0  0  0  # atno 10763 bound_to 10752
  152.9787  135.5878  154.4323 H   0  0  0  0  0  0  0  0  0  0  0  0  # atno 10764 bound_to 10752
  154.4104  135.2844  155.2018 H   0  0  0  0  0  0  0  0  0  0  0  0  # atno 10765 bound_to 10752
  140.3764  134.1967  155.7665 H   0  0  0  0  0  0  0  0  0  0  0  0  # atno 11005 bound_to 11000
  145.7297  141.0046  143.1358 LP  0  0  0  0  0  0  0  0  0  0  0  0  # atno 17320 bound_to 7965
  144.6964  139.8969  143.7456 LP  0  0  0  0  0  0  0  0  0  0  0  0  # atno 17321 bound_to 7965
  140.7390  143.6630  150.8147 LP  0  0  0  0  0  0  0  0  0  0  0  0  # atno 17342 bound_to 10162
  140.0243  143.5510  152.2787 LP  0  0  0  0  0  0  0  0  0  0  0  0  # atno 17343 bound_to 10162
  157.5124  130.7946  149.7719 LP  0  0  0  0  0  0  0  0  0  0  0  0  # atno 17370 bound_to 10713
  156.0046  130.3862  150.2478 LP  0  0  0  0  0  0  0  0  0  0  0  0  # atno 17371 bound_to 10713
  141.1938  133.8143  157.0785 LP  0  0  0  0  0  0  0  0  0  0  0  0  # atno 17394 bound_to 11000
  140.0512  134.9804  157.1139 LP  0  0  0  0  0  0  0  0  0  0  0  0  # atno 17395 bound_to 11000

$$$$
