AV-unprocessed.smi:2955|AV-procd|sdf|11302|dock1
  -GOLD-   2272016203D 1   1.00000     0.00000
 Structure written by MMmdl.
 45 47  0  0  0  0  0  0  0  0  1 V2000
  152.5625  142.5612  162.1271 C   0  0  0  0  0  0  0  0  0  0  0  0
  151.9271  143.5122  161.1334 C   0  0  0  0  0  0  0  0  0  0  0  0
  151.7911  144.8792  161.4472 C   0  0  0  0  0  0  0  0  0  0  0  0
  151.2042  145.7577  160.5183 C   0  0  0  0  0  0  0  0  0  0  0  0
  150.7543  145.2719  159.2762 C   0  0  0  0  0  0  0  0  0  0  0  0
  150.8840  143.9076  158.9446 C   0  0  0  0  0  0  0  0  0  0  0  0
  150.4198  143.5174  157.7065 O   0  0  0  0  0  0  0  0  0  0  0  0
  150.6940  142.1920  157.2726 C   0  0  0  0  0  0  0  0  0  0  0  0
  150.7224  142.1368  155.7390 C   0  0  0  0  0  0  0  0  0  0  0  0
  150.2666  140.8534  155.2207 N   0  0  0  0  0  0  0  0  0  0  0  0
  149.1785  140.5701  154.4549 C   0  0  0  0  0  0  0  0  0  0  0  0
  148.2053  141.6218  153.9833 C   0  0  1  0  0  0  0  0  0  0  0  0
  147.0735  141.0276  153.1326 C   0  0  0  0  0  0  0  0  0  0  0  0
  147.6595  142.3001  155.1541 N   0  0  0  0  0  0  0  0  0  0  0  0
  146.9191  141.6993  156.0940 C   0  0  0  0  0  0  0  0  0  0  0  0
  146.6253  140.5072  156.0585 O   0  0  0  0  0  0  0  0  0  0  0  0
  149.0001  139.2775  154.1685 N   0  0  0  0  0  0  0  0  0  0  0  0
  150.0841  138.6738  154.7714 C   0  0  0  0  0  0  0  0  0  0  0  0
  150.4704  137.3151  154.8179 C   0  0  0  0  0  0  0  0  0  0  0  0
  151.6394  136.9288  155.5056 C   0  0  0  0  0  0  0  0  0  0  0  0
  152.4367  137.8934  156.1546 C   0  0  0  0  0  0  0  0  0  0  0  0
  152.0679  139.2520  156.1218 C   0  0  0  0  0  0  0  0  0  0  0  0
  150.8993  139.6325  155.4347 C   0  0  0  0  0  0  0  0  0  0  0  0
  151.4761  143.0289  159.8876 C   0  0  0  0  0  0  0  0  0  0  0  0
  152.5779  142.9895  163.1298 H   0  0  0  0  0  0  0  0  0  0  0  0
  153.5888  142.3412  161.8322 H   0  0  0  0  0  0  0  0  0  0  0  0
  152.0085  141.6231  162.1689 H   0  0  0  0  0  0  0  0  0  0  0  0
  152.1360  145.2577  162.3984 H   0  0  0  0  0  0  0  0  0  0  0  0
  151.0994  146.8056  160.7583 H   0  0  0  0  0  0  0  0  0  0  0  0
  150.3035  145.9550  158.5719 H   0  0  0  0  0  0  0  0  0  0  0  0
  151.6552  141.8569  157.6660 H   0  0  0  0  0  0  0  0  0  0  0  0
  149.9240  141.5124  157.6409 H   0  0  0  0  0  0  0  0  0  0  0  0
  150.0731  142.9154  155.3380 H   0  0  0  0  0  0  0  0  0  0  0  0
  151.7161  142.3633  155.3550 H   0  0  0  0  0  0  0  0  0  0  0  0
  148.7102  142.3572  153.3594 H   0  0  0  0  0  0  0  0  0  0  0  0
  147.4740  140.4958  152.2699 H   0  0  0  0  0  0  0  0  0  0  0  0
  146.4095  141.8090  152.7620 H   0  0  0  0  0  0  0  0  0  0  0  0
  146.4698  140.3211  153.7034 H   0  0  0  0  0  0  0  0  0  0  0  0
  147.8385  143.2901  155.2416 H   0  0  0  0  0  0  0  0  0  0  0  0
  146.6130  142.3997  156.8870 H   0  0  0  0  0  0  0  0  0  0  0  0
  149.8665  136.5688  154.3229 H   0  0  0  0  0  0  0  0  0  0  0  0
  151.9255  135.8876  155.5347 H   0  0  0  0  0  0  0  0  0  0  0  0
  153.3313  137.5898  156.6784 H   0  0  0  0  0  0  0  0  0  0  0  0
  152.6773  139.9925  156.6180 H   0  0  0  0  0  0  0  0  0  0  0  0
  151.5969  141.9772  159.6763 H   0  0  0  0  0  0  0  0  0  0  0  0
  1  2  1  0  0  0  0
  1 25  1  0  0  0  0
  1 26  1  0  0  0  0
  1 27  1  0  0  0  0
  2 24  1  0  0  0  0
  2  3  2  0  0  0  0
  3  4  1  0  0  0  0
  3 28  1  0  0  0  0
  4  5  2  0  0  0  0
  4 29  1  0  0  0  0
  5  6  1  0  0  0  0
  5 30  1  0  0  0  0
  6  7  1  0  0  0  0
  6 24  2  0  0  0  0
  7  8  1  0  0  0  0
  8  9  1  0  0  0  0
  8 31  1  0  0  0  0
  8 32  1  0  0  0  0
  9 10  1  0  0  0  0
  9 33  1  0  0  0  0
  9 34  1  0  0  0  0
 10 23  1  0  0  0  0
 10 11  1  0  0  0  0
 11 12  1  0  0  0  0
 11 17  2  0  0  0  0
 12 13  1  0  0  0  0
 12 14  1  0  0  0  0
 12 35  1  0  0  0  0
 13 36  1  0  0  0  0
 13 37  1  0  0  0  0
 13 38  1  0  0  0  0
 14 15  1  0  0  0  0
 14 39  1  0  0  0  0
 15 16  2  0  0  0  0
 15 40  1  0  0  0  0
 17 18  1  0  0  0  0
 18 23  2  0  0  0  0
 18 19  1  0  0  0  0
 19 20  2  0  0  0  0
 19 41  1  0  0  0  0
 20 21  1  0  0  0  0
 20 42  1  0  0  0  0
 21 22  2  0  0  0  0
 21 43  1  0  0  0  0
 22 23  1  0  0  0  0
 22 44  1  0  0  0  0
 24 45  1  0  0  0  0
M  END
> <s_m_source_file>
AV-unprocessed.smi

> <i_m_source_file_index>
2955

> <i_lp_mmshare_version>
43012

> <i_f3d_flags>
0

> <s_epik_input>
W0NIM11jMVtjSF1bY0hdW2NIXWMoW2NIXTEpT1tDSDJdW0NIMl1uKGMobjIpW0NASF0oW0NIM10pW05IXVtDSF09TyljKGMyMylbY0hdW2NIXVtjSF1bY0hdMw==

> <s_epik_cmdline>
J2VwaWtfcHl0aG9uJywgJy1waCcsICc3LjAnLCAnLXRuJywgJzgnLCAnLW1hJywgJzIwMCcsICctbWV0YWxfYmluZGluZycsICctaW1hZScsICc8aW5maWxlLm1hZT4nLCAnLW9tYWUnLCAnPG91dGZpbGUubWFlPic=

> <r_lp_tautomer_probability>
1

> <r_epik_Ionization_Penalty>
0.0917757

> <r_epik_Ionization_Penalty_Charging>
0

> <r_epik_Ionization_Penalty_Neutral>
0.0917757

> <r_epik_State_Penalty>
0.0820948

> <r_epik_Charging_Adjusted_Penalty>
0.0820948

> <i_epik_Tot_Q>
0

> <i_epik_Tot_abs_Q>
0

> <r_epik_Metal_State_Penalty>
0.0709956

> <b_epik_Metal_Only>
0

> <s_lp_Force_Field>
OPLS_2005

> <r_lp_Energy>
12.9149

> <b_lp_Chiralities_Consistent>
1

> <s_lp_Variant>
AV-unprocessed.smi:2955-2

> <Gold.Version>
5.8.1

> <Gold.Id.Protein>
6NUR|6NUR_protein|mol2

> <Gold.PLP.Fitness>
49.3976

> <Gold.PLP.PLP>
-46.9566

> <Gold.PLP.part.hbond>
-1.0000

> <Gold.PLP.part.metal>
0.0000

> <Gold.PLP.part.buried>
-0.7312

> <Gold.PLP.part.nonpolar>
-45.7801

> <Gold.PLP.part.repulsive>
1.0312

> <Gold.PLP.ligand.clash>
0.0000

> <Gold.PLP.ligand.torsion>
0.4489

> <Gold.PLP.Chemscore.Hbond>
1.0000

> <Gold.PLP.Chemscore.CHOScore>
0.0000

> <Gold.PLP.Chemscore.Metal>
0.0000

> <Gold.Chemscore.Hbonds>
donor molecule, donor type, donor heavy atom, donor atom, acceptor molecule, acceptor atom, score
      L1  H    14    39       P1  8028  1.00

> <Gold.PLP.Chemscore.Internal.Correction>
0.3387

> <Gold.Rescore>
     Score         DG    S(hbond)    S(metal)    S(lipo)     H(rot)  DE(clash)    DE(int)     intcor
     14.23     -17.18       0.10        0.00     146.53       2.26       1.01       1.94       ----

> <Gold.Chemscore.Fitness>
14.2310

> <Gold.Chemscore.DG>
-17.1811

> <Gold.Chemscore.ZeroCoef>
-5.4800

> <Gold.Chemscore.Hbond>
0.1039

> <Gold.Chemscore.Metal>
0.0000

> <Gold.Chemscore.Lipo>
146.5347

> <Gold.Chemscore.Internal_Hbond>
0.0000

> <Gold.Chemscore.DEClash>
1.0051

> <Gold.Chemscore.DEInternal>
1.9450

> <Gold.Chemscore.Rot>
2.2619

> <Gold.Chemscore.Internal.Correction>
   9.000000E+99

> <Gold.Chemscore.Hbonds>
donor molecule, donor type, donor heavy atom, donor atom, acceptor molecule, acceptor atom, score
      L1  H    14    39       P1  8028  0.54

> <Gold.Chemscore.Hbond.Weighted>
-0.3471

> <Gold.Chemscore.Metal.Weighted>
-0.0000

> <Gold.Chemscore.Lipo.Weighted>
-17.1446

> <Gold.Chemscore.Internal_Hbond.Weighted>
0.0000

> <Gold.Chemscore.DEClash.Weighted>
1.0051

> <Gold.Chemscore.DEInternal.Weighted>
1.9450

> <Gold.Chemscore.Rot.Weighted>
5.7906

> <Gold.Chemscore.Internal.Correction.Weighted>
   9.000000E+99

> <Gold.Protein.RotatedTorsions>
[ 6907 6896 6895 6894 ] final  161.99 input  -60.11 | X-H torsion
[ 7974 7965 7964 7962 ] final -116.16 input  175.53 | X-H torsion
[ 8008 7997 7996 7995 ] final   92.19 input   59.86 | X-H torsion
[ 10167 10162 10161 10158 ] final -126.06 input  -65.29 | X-H torsion
[ 10718 10713 10712 10709 ] final  143.60 input   66.30 | X-H torsion
[ 10763 10752 10751 10750 ] final  -84.89 input  -60.55 | X-H torsion
[ 11005 11000 10999 10996 ] final  111.08 input  -57.11 | X-H torsion

> <Gold.Protein.ActiveResidues>
 VAL166  LYS551  ARG553  GLY616  TRP617  ASP618  TYR619  PRO620  LYS621  CYS622 
 ASP623  PHE694  ASN695  SER759  ASP760  ASP761  ALA762  ILE779  LEU786  VAL792 
 PHE793  MET794  SER795  GLU796  ALA797  LYS798  CYS799  TRP800  GLU811  SER814 

> <Gold.Protein.RotatedAtoms>
  151.9472  133.3655  159.3986 H   0  0  0  0  0  0  0  0  0  0  0  0  # atno 6907 bound_to 6896
  150.6987  134.4378  159.5287 H   0  0  0  0  0  0  0  0  0  0  0  0  # atno 6908 bound_to 6896
  152.2045  134.8558  160.0555 H   0  0  0  0  0  0  0  0  0  0  0  0  # atno 6909 bound_to 6896
  145.0999  140.8545  143.3932 H   0  0  0  0  0  0  0  0  0  0  0  0  # atno 7974 bound_to 7965
  156.0324  140.3328  155.7155 H   0  0  0  0  0  0  0  0  0  0  0  0  # atno 8008 bound_to 7997
  155.5864  140.0642  157.2787 H   0  0  0  0  0  0  0  0  0  0  0  0  # atno 8009 bound_to 7997
  154.4359  140.1835  156.1018 H   0  0  0  0  0  0  0  0  0  0  0  0  # atno 8010 bound_to 7997
  139.9754  143.5799  152.2397 H   0  0  0  0  0  0  0  0  0  0  0  0  # atno 10167 bound_to 10162
  157.3670  131.0973  151.0863 H   0  0  0  0  0  0  0  0  0  0  0  0  # atno 10718 bound_to 10713
  154.6048  135.5504  153.7411 H   0  0  0  0  0  0  0  0  0  0  0  0  # atno 10763 bound_to 10752
  153.0170  135.6375  154.1663 H   0  0  0  0  0  0  0  0  0  0  0  0  # atno 10764 bound_to 10752
  154.1602  135.2897  155.3091 H   0  0  0  0  0  0  0  0  0  0  0  0  # atno 10765 bound_to 10752
  139.8896  134.9499  156.6378 H   0  0  0  0  0  0  0  0  0  0  0  0  # atno 11005 bound_to 11000
  145.0967  139.2851  143.5707 LP  0  0  0  0  0  0  0  0  0  0  0  0  # atno 17320 bound_to 7965
  146.3530  140.0521  142.8635 LP  0  0  0  0  0  0  0  0  0  0  0  0  # atno 17321 bound_to 7965
  139.6449  144.7657  151.2264 LP  0  0  0  0  0  0  0  0  0  0  0  0  # atno 17342 bound_to 10162
  140.7507  143.6255  150.8472 LP  0  0  0  0  0  0  0  0  0  0  0  0  # atno 17343 bound_to 10162
  157.1982  130.6382  149.5729 LP  0  0  0  0  0  0  0  0  0  0  0  0  # atno 17370 bound_to 10713
  155.9748  130.4700  150.6413 LP  0  0  0  0  0  0  0  0  0  0  0  0  # atno 17371 bound_to 10713
  140.7617  133.8812  155.8423 LP  0  0  0  0  0  0  0  0  0  0  0  0  # atno 17394 bound_to 11000
  140.9916  134.1271  157.4402 LP  0  0  0  0  0  0  0  0  0  0  0  0  # atno 17395 bound_to 11000

$$$$
