#       Name:                AV-unprocessed.smi:3056
#       Creating user name   scv26
#       Creation time:       Fri Mar 27 17:05:39 2020


#       File generated by GOLD software.
#

@<TRIPOS>MOLECULE
AV-unprocessed.smi:3056
    53    54     1
SMALL
NO_CHARGES


@<TRIPOS>ATOM
      1 ****        -3.6423  -0.3537  -5.3832 C.3            1 S1                 0.0000
      2 ****        -3.5642  -0.2227  -3.8897 C.2            1 S1                 0.0000
      3 ****        -4.1134  -1.0920  -2.9061 C.2            1 S1                 0.0000
      4 ****        -3.8591  -0.6948  -1.6707 N.2            1 S1                 0.0000
      5 ****        -3.1531   0.4483  -1.8139 N.pl3          1 S1                 0.0000
      6 ****        -2.6774   1.1440  -0.6218 C.3            1 S1                 0.0000
      7 ****        -2.6370   2.6709  -0.8440 C.3            1 S1                 0.0000
      8 ****        -1.3399   0.5432  -0.1107 C.3            1 S1                 0.0000
      9 ****        -0.1562   0.7379  -1.0821 C.3            1 S1                 0.0000
     10 ****        -1.0733   1.0851   1.2233 N.3            1 S1                 0.0000
     11 ****        -0.0347   0.3904   2.0039 C.3            1 S1                 0.0000
     12 ****         1.3765   0.9930   1.8653 C.2            1 S1                 0.0000
     13 ****         1.5056   2.0840   1.3064 O.2            1 S1                 0.0000
     14 ****         2.4354   0.3118   2.3640 N.am           1 S1                 0.0000
     15 ****         3.8242   0.7364   2.1744 C.3            1 S1                 0.0000
     16 ****         4.5274  -0.3173   1.3000 C.3            1 S1                 0.0000
     17 ****         4.4336  -1.5996   1.9184 O.3            1 S1                 0.0000
     18 ****         3.0909  -2.0237   2.1542 C.3            1 S1                 0.0000
     19 ****         3.1331  -3.4118   2.8019 C.3            1 S1                 0.0000
     20 ****         2.3894  -0.9828   3.0491 C.3            1 S1                 0.0000
     21 ****        -2.9511   0.7469  -3.1483 C.2            1 S1                 0.0000
     22 ****        -3.8043  -1.3870  -5.6907 H              1 S1                 0.0000
     23 ****        -2.7257  -0.0154  -5.8667 H              1 S1                 0.0000
     24 ****        -4.4607   0.2368  -5.7950 H              1 S1                 0.0000
     25 ****        -4.6823  -1.9984  -3.0526 H              1 S1                 0.0000
     26 ****        -3.4291   0.9685   0.1509 H              1 S1                 0.0000
     27 ****        -2.3967   3.2010   0.0775 H              1 S1                 0.0000
     28 ****        -3.6058   3.0395  -1.1823 H              1 S1                 0.0000
     29 ****        -1.8963   2.9590  -1.5896 H              1 S1                 0.0000
     30 ****        -1.4994  -0.5300   0.0056 H              1 S1                 0.0000
     31 ****        -0.3945   0.3740  -2.0807 H              1 S1                 0.0000
     32 ****         0.7231   0.1818  -0.7581 H              1 S1                 0.0000
     33 ****         0.1277   1.7865  -1.1704 H              1 S1                 0.0000
     34 ****        -0.9270   2.0844   1.1964 H              1 S1                 0.0000
     35 ****        -0.3091   0.4540   3.0571 H              1 S1                 0.0000
     36 ****        -0.0326  -0.6681   1.7417 H              1 S1                 0.0000
     37 ****         3.9114   1.7189   1.7089 H              1 S1                 0.0000
     38 ****         4.3182   0.8153   3.1437 H              1 S1                 0.0000
     39 ****         4.0846  -0.3526   0.3034 H              1 S1                 0.0000
     40 ****         5.5796  -0.0623   1.1734 H              1 S1                 0.0000
     41 ****         2.5686  -2.0996   1.1986 H              1 S1                 0.0000
     42 ****         2.1272  -3.7873   2.9905 H              1 S1                 0.0000
     43 ****         3.6659  -3.3877   3.7528 H              1 S1                 0.0000
     44 ****         3.6389  -4.1282   2.1544 H              1 S1                 0.0000
     45 ****         2.9103  -0.8989   4.0039 H              1 S1                 0.0000
     46 ****         1.3824  -1.3122   3.2990 H              1 S1                 0.0000
     47 ****        -2.3911   1.6150  -3.4633 H              1 S1                 0.0000
     48 ****        -4.1297  -1.1420  -0.8182 LP             1 S1                 0.0000
     49 ****        -1.9119   0.8998   1.7355 LP             1 S1                 0.0000
     50 ****         0.7022   2.5625   0.9521 LP             1 S1                 0.0000
     51 ****         2.4138   2.4906   1.2073 LP             1 S1                 0.0000
     52 ****         4.9124  -1.5633   2.7956 LP             1 S1                 0.0000
     53 ****         4.8773  -2.2704   1.3241 LP             1 S1                 0.0000
@<TRIPOS>BOND
    1    1    2 1     
    2    1   22 1     
    3    1   23 1     
    4    1   24 1     
    5    2   21 2     
    6    2    3 1     
    7    3    4 2     
    8    3   25 1     
    9    4    5 1     
   10    5    6 1     
   11    5   21 1     
   12    6    7 1     
   13    6    8 1     
   14    6   26 1     
   15    7   27 1     
   16    7   28 1     
   17    7   29 1     
   18    8    9 1     
   19    8   10 1     
   20    8   30 1     
   21    9   31 1     
   22    9   32 1     
   23    9   33 1     
   24   10   11 1     
   25   10   34 1     
   26   11   12 1     
   27   11   35 1     
   28   11   36 1     
   29   12   13 2     
   30   12   14 am    
   31   14   20 1     
   32   14   15 1     
   33   15   16 1     
   34   15   37 1     
   35   15   38 1     
   36   16   17 1     
   37   16   39 1     
   38   16   40 1     
   39   17   18 1     
   40   18   19 1     
   41   18   20 1     
   42   18   41 1     
   43   19   42 1     
   44   19   43 1     
   45   19   44 1     
   46   20   45 1     
   47   20   46 1     
   48   21   47 1     
   49    4   48 1     
   50   10   49 1     
   51   13   50 1     
   52   13   51 1     
   53   17   52 1     
   54   17   53 1     
@<TRIPOS>SUBSTRUCTURE
      1 S1             1
@<TRIPOS>SET
LONE_PAIRS      STATIC     ATOMS    <user>   **** ""
6 48 49 50 51 52 53
DONOR_HYDROGENS      STATIC     ATOMS    <user>   **** ""
1 34
ATOM$BLUE        STATIC     ATOMS    COLORGROUP SYSTEM
6 48 49 50 51 52 53
ATOM$RED        STATIC     ATOMS    COLORGROUP SYSTEM
1 34
