AV-unprocessed.smi:2679|AV-procd|sdf|10370|dock7
  -GOLD-   2272014403D 1   1.00000     0.00000
 Structure written by MMmdl.
 39 40  0  0  0  0  0  0  0  0  1 V2000
  147.2012  141.3754  153.9769 C   0  0  0  0  0  0  0  0  0  0  0  0
  147.9870  140.9469  155.1740 C   0  0  0  0  0  0  0  0  0  0  0  0
  147.4401  140.3699  156.2462 N   0  0  0  0  0  0  0  0  0  0  0  0
  148.4869  140.1393  157.1111 N   0  0  0  0  0  0  0  0  0  0  0  0
  149.5740  140.5967  156.4857 C   0  0  0  0  0  0  0  0  0  0  0  0
  151.1913  140.5392  157.1787 S   0  0  0  0  0  0  0  0  0  0  0  0
  151.6429  142.2769  156.8969 C   0  0  2  0  0  0  0  0  0  0  0  0
  152.7722  142.3121  155.9523 C   0  0  0  0  0  0  0  0  0  0  0  0
  153.6593  142.3398  155.2098 N   0  0  0  0  0  0  0  0  0  0  0  0
  151.9390  143.0115  158.2242 C   0  0  0  0  0  0  0  0  0  0  0  0
  153.0605  142.3103  159.0256 C   0  0  0  0  0  0  0  0  0  0  0  0
  153.3606  143.0316  160.3493 C   0  0  0  0  0  0  0  0  0  0  0  0
  152.0968  143.1651  161.2101 C   0  0  0  0  0  0  0  0  0  0  0  0
  150.9765  143.8689  160.4320 C   0  0  0  0  0  0  0  0  0  0  0  0
  150.6773  143.1486  159.1071 C   0  0  0  0  0  0  0  0  0  0  0  0
  149.3232  141.1108  155.2642 N   0  0  0  0  0  0  0  0  0  0  0  0
  150.2506  141.6924  154.3023 C   0  0  0  0  0  0  0  0  0  0  0  0
  150.5728  140.7058  153.1782 C   0  0  0  0  0  0  0  0  0  0  0  0
  150.0712  140.9728  151.9697 N   0  0  0  0  0  0  0  0  0  0  0  0
  151.2624  139.7127  153.3988 O   0  0  0  0  0  0  0  0  0  0  0  0
  146.1373  141.1957  154.1351 H   0  0  0  0  0  0  0  0  0  0  0  0
  147.5187  140.8156  153.0971 H   0  0  0  0  0  0  0  0  0  0  0  0
  147.3461  142.4395  153.7904 H   0  0  0  0  0  0  0  0  0  0  0  0
  150.8088  142.7739  156.4004 H   0  0  0  0  0  0  0  0  0  0  0  0
  152.2760  144.0197  157.9781 H   0  0  0  0  0  0  0  0  0  0  0  0
  152.7724  141.2784  159.2313 H   0  0  0  0  0  0  0  0  0  0  0  0
  153.9780  142.2589  158.4398 H   0  0  0  0  0  0  0  0  0  0  0  0
  154.1298  142.4903  160.9010 H   0  0  0  0  0  0  0  0  0  0  0  0
  153.7684  144.0217  160.1413 H   0  0  0  0  0  0  0  0  0  0  0  0
  151.7596  142.1760  161.5233 H   0  0  0  0  0  0  0  0  0  0  0  0
  152.3227  143.7192  162.1216 H   0  0  0  0  0  0  0  0  0  0  0  0
  150.0736  143.9147  161.0415 H   0  0  0  0  0  0  0  0  0  0  0  0
  151.2647  144.9011  160.2291 H   0  0  0  0  0  0  0  0  0  0  0  0
  149.8993  143.7004  158.5797 H   0  0  0  0  0  0  0  0  0  0  0  0
  150.2664  142.1595  159.3140 H   0  0  0  0  0  0  0  0  0  0  0  0
  149.8226  142.6129  153.9029 H   0  0  0  0  0  0  0  0  0  0  0  0
  151.1725  141.9761  154.8102 H   0  0  0  0  0  0  0  0  0  0  0  0
  150.2595  140.3538  151.1947 H   0  0  0  0  0  0  0  0  0  0  0  0
  149.5064  141.7989  151.8341 H   0  0  0  0  0  0  0  0  0  0  0  0
  1  2  1  0  0  0  0
  1 21  1  0  0  0  0
  1 22  1  0  0  0  0
  1 23  1  0  0  0  0
  2 16  1  0  0  0  0
  2  3  2  0  0  0  0
  3  4  1  0  0  0  0
  4  5  2  0  0  0  0
  5  6  1  0  0  0  0
  5 16  1  0  0  0  0
  6  7  1  0  0  0  0
  7  8  1  0  0  0  0
  7 10  1  0  0  0  0
  7 24  1  0  0  0  0
  8  9  3  0  0  0  0
 10 15  1  0  0  0  0
 10 11  1  0  0  0  0
 10 25  1  0  0  0  0
 11 12  1  0  0  0  0
 11 26  1  0  0  0  0
 11 27  1  0  0  0  0
 12 13  1  0  0  0  0
 12 28  1  0  0  0  0
 12 29  1  0  0  0  0
 13 14  1  0  0  0  0
 13 30  1  0  0  0  0
 13 31  1  0  0  0  0
 14 15  1  0  0  0  0
 14 32  1  0  0  0  0
 14 33  1  0  0  0  0
 15 34  1  0  0  0  0
 15 35  1  0  0  0  0
 16 17  1  0  0  0  0
 17 18  1  0  0  0  0
 17 36  1  0  0  0  0
 17 37  1  0  0  0  0
 18 19  1  0  0  0  0
 18 20  2  0  0  0  0
 19 38  1  0  0  0  0
 19 39  1  0  0  0  0
M  END
> <s_m_source_file>
AV-unprocessed.smi

> <i_m_source_file_index>
2679

> <i_lp_mmshare_version>
43012

> <i_f3d_flags>
0

> <s_epik_input>
W0NIM11jMW5uYyhuMVtDSDJdQyg9TylbTkgyXSlTW0NASF0oQyNOKVtDSF0yW0NIMl1bQ0gyXVtDSDJdW0NIMl1bQ0gyXTI=

> <s_epik_cmdline>
J2VwaWtfcHl0aG9uJywgJy1waCcsICc3LjAnLCAnLXRuJywgJzgnLCAnLW1hJywgJzIwMCcsICctbWV0YWxfYmluZGluZycsICctaW1hZScsICc8aW5maWxlLm1hZT4nLCAnLW9tYWUnLCAnPG91dGZpbGUubWFlPic=

> <r_lp_tautomer_probability>
1

> <r_epik_Ionization_Penalty>
1.94949e-07

> <r_epik_Ionization_Penalty_Charging>
0

> <r_epik_Ionization_Penalty_Neutral>
1.94949e-07

> <r_epik_State_Penalty>
-0

> <r_epik_Charging_Adjusted_Penalty>
0

> <i_epik_Tot_Q>
0

> <i_epik_Tot_abs_Q>
0

> <r_epik_Metal_State_Penalty>
-0

> <b_epik_Metal_Only>
0

> <s_lp_Force_Field>
OPLS_2005

> <r_lp_Energy>
7.74931

> <b_lp_Chiralities_Consistent>
1

> <s_lp_Variant>
AV-unprocessed.smi:2679-1

> <Gold.Version>
5.8.1

> <Gold.Id.Protein>
6NUR|6NUR_protein|mol2

> <Gold.PLP.Fitness>
46.0202

> <Gold.PLP.PLP>
-39.3943

> <Gold.PLP.part.hbond>
-2.9389

> <Gold.PLP.part.metal>
0.0000

> <Gold.PLP.part.buried>
-5.4408

> <Gold.PLP.part.nonpolar>
-31.0493

> <Gold.PLP.part.repulsive>
0.5522

> <Gold.PLP.ligand.clash>
0.0000

> <Gold.PLP.ligand.torsion>
1.2256

> <Gold.PLP.Chemscore.Hbond>
3.0000

> <Gold.PLP.Chemscore.CHOScore>
0.0000

> <Gold.PLP.Chemscore.Metal>
0.0000

> <Gold.PLP.Chemscore.Internal.Correction>
0.0770

> <Gold.Rescore>
     Score         DG    S(hbond)    S(metal)    S(lipo)     H(rot)  DE(clash)    DE(int)     intcor
     17.70     -18.72       2.91        0.00      86.50       2.57       0.04       0.98       ----

> <Gold.Chemscore.Fitness>
17.6987

> <Gold.Chemscore.DG>
-18.7189

> <Gold.Chemscore.ZeroCoef>
-5.4800

> <Gold.Chemscore.Hbond>
2.9058

> <Gold.Chemscore.Metal>
0.0000

> <Gold.Chemscore.Lipo>
86.4952

> <Gold.Chemscore.Internal_Hbond>
0.0000

> <Gold.Chemscore.DEClash>
0.0423

> <Gold.Chemscore.DEInternal>
0.9779

> <Gold.Chemscore.Rot>
2.5728

> <Gold.Chemscore.Internal.Correction>
   9.000000E+99

> <Gold.Chemscore.Hbond.Weighted>
-9.7054

> <Gold.Chemscore.Metal.Weighted>
-0.0000

> <Gold.Chemscore.Lipo.Weighted>
-10.1199

> <Gold.Chemscore.Internal_Hbond.Weighted>
0.0000

> <Gold.Chemscore.DEClash.Weighted>
0.0423

> <Gold.Chemscore.DEInternal.Weighted>
0.9779

> <Gold.Chemscore.Rot.Weighted>
6.5865

> <Gold.Chemscore.Internal.Correction.Weighted>
   9.000000E+99

> <Gold.Protein.RotatedTorsions>
[ 6907 6896 6895 6894 ] final   31.08 input  -60.11 | X-H torsion
[ 7974 7965 7964 7962 ] final  154.66 input  175.53 | X-H torsion
[ 8008 7997 7996 7995 ] final   52.08 input   59.86 | X-H torsion
[ 10167 10162 10161 10158 ] final   97.54 input  -65.29 | X-H torsion
[ 10718 10713 10712 10709 ] final   41.13 input   66.30 | X-H torsion
[ 10763 10752 10751 10750 ] final  121.78 input  -60.55 | X-H torsion
[ 11005 11000 10999 10996 ] final  -30.50 input  -57.11 | X-H torsion

> <Gold.Protein.ActiveResidues>
 VAL166  LYS551  ARG553  GLY616  TRP617  ASP618  TYR619  PRO620  LYS621  CYS622 
 ASP623  PHE694  ASN695  SER759  ASP760  ASP761  ALA762  ILE779  LEU786  VAL792 
 PHE793  MET794  SER795  GLU796  ALA797  LYS798  CYS799  TRP800  GLU811  SER814 

> <Gold.Protein.RotatedAtoms>
  152.0552  134.9629  160.0574 H   0  0  0  0  0  0  0  0  0  0  0  0  # atno 6907 bound_to 6896
  152.1014  133.4247  159.4597 H   0  0  0  0  0  0  0  0  0  0  0  0  # atno 6908 bound_to 6896
  150.6839  134.2675  159.4618 H   0  0  0  0  0  0  0  0  0  0  0  0  # atno 6909 bound_to 6896
  144.8074  139.6964  143.6156 H   0  0  0  0  0  0  0  0  0  0  0  0  # atno 7974 bound_to 7965
  155.4459  140.3456  155.4295 H   0  0  0  0  0  0  0  0  0  0  0  0  # atno 8008 bound_to 7997
  156.1250  140.1498  156.9180 H   0  0  0  0  0  0  0  0  0  0  0  0  # atno 8009 bound_to 7997
  154.4851  140.0858  156.7448 H   0  0  0  0  0  0  0  0  0  0  0  0  # atno 8010 bound_to 7997
  139.7792  144.6895  151.0047 H   0  0  0  0  0  0  0  0  0  0  0  0  # atno 10167 bound_to 10162
  157.3901  130.7802  149.7262 H   0  0  0  0  0  0  0  0  0  0  0  0  # atno 10718 bound_to 10713
  153.6194  135.3416  155.3006 H   0  0  0  0  0  0  0  0  0  0  0  0  # atno 10763 bound_to 10752
  154.8603  135.4269  154.2223 H   0  0  0  0  0  0  0  0  0  0  0  0  # atno 10764 bound_to 10752
  153.3093  135.7030  153.7203 H   0  0  0  0  0  0  0  0  0  0  0  0  # atno 10765 bound_to 10752
  140.9388  133.7291  156.1045 H   0  0  0  0  0  0  0  0  0  0  0  0  # atno 11005 bound_to 11000
  146.2368  139.5921  142.9518 LP  0  0  0  0  0  0  0  0  0  0  0  0  # atno 17320 bound_to 7965
  145.5405  141.0421  143.2333 LP  0  0  0  0  0  0  0  0  0  0  0  0  # atno 17321 bound_to 7965
  140.7817  143.4502  151.0423 LP  0  0  0  0  0  0  0  0  0  0  0  0  # atno 17342 bound_to 10162
  139.8183  143.7855  152.3175 LP  0  0  0  0  0  0  0  0  0  0  0  0  # atno 17343 bound_to 10162
  155.9796  130.4038  150.3576 LP  0  0  0  0  0  0  0  0  0  0  0  0  # atno 17370 bound_to 10713
  157.1691  131.0364  151.2804 LP  0  0  0  0  0  0  0  0  0  0  0  0  # atno 17371 bound_to 10713
  140.7762  134.3777  157.5497 LP  0  0  0  0  0  0  0  0  0  0  0  0  # atno 17394 bound_to 11000
  139.8815  134.9053  156.2897 LP  0  0  0  0  0  0  0  0  0  0  0  0  # atno 17395 bound_to 11000

$$$$
