#       Name:                AV-unprocessed.smi:54
#       Creating user name   scv26
#       Creation time:       Thu Mar 26 16:44:02 2020


#       File generated by GOLD software.
#

@<TRIPOS>MOLECULE
AV-unprocessed.smi:54
    58    60     1
SMALL
NO_CHARGES


@<TRIPOS>ATOM
      1 ****        -1.2261   4.6168   1.2378 C.3            1 S1                 0.0000
      2 ****        -1.4302   3.9522  -0.1337 C.3            1 S1                 0.0000
      3 ****        -2.1912   4.8797  -1.0959 C.3            1 S1                 0.0000
      4 ****        -2.1572   2.6083   0.0173 C.2            1 S1                 0.0000
      5 ****        -3.3034   2.5933   0.4713 O.2            1 S1                 0.0000
      6 ****        -1.4466   1.5224  -0.3581 N.am           1 S1                 0.0000
      7 ****        -1.8183   0.1743  -0.3220 C.2            1 S1                 0.0000
      8 ****        -0.7933  -0.6412  -0.2934 N.2            1 S1                 0.0000
      9 ****        -1.1673  -1.9710  -0.2789 C.2            1 S1                 0.0000
     10 ****        -2.4375  -2.4795  -0.3025 C.2            1 S1                 0.0000
     11 ****        -2.4307  -3.8686  -0.2717 N.2            1 S1                 0.0000
     12 ****        -1.1278  -4.1391  -0.2283 C.2            1 S1                 0.0000
     13 ****        -0.3095  -3.0682  -0.2260 N.pl3          1 S1                 0.0000
     14 ****         1.1895  -3.1097  -0.1756 C.3            1 S1                 0.0000
     15 ****         1.7096  -2.1069  -1.0002 O.3            1 S1                 0.0000
     16 ****         2.5037  -1.1930  -0.2433 C.3            1 S1                 0.0000
     17 ****         3.6384  -0.6422  -1.1202 C.3            1 S1                 0.0000
     18 ****         3.1696   0.4355  -1.9022 O.3            1 S1                 0.0000
     19 ****         2.9925  -2.0576   0.9200 C.3            1 S1                 0.0000
     20 ****         3.4474  -1.3054   2.0282 O.3            1 S1                 0.0000
     21 ****         1.7636  -2.8969   1.2386 C.3            1 S1                 0.0000
     22 ****         0.8730  -2.2369   2.1259 O.3            1 S1                 0.0000
     23 ****        -3.5512  -1.5029  -0.3506 C.2            1 S1                 0.0000
     24 ****        -4.7088  -1.9164  -0.3781 O.2            1 S1                 0.0000
     25 ****        -3.1795  -0.1880  -0.3605 N.pl3          1 S1                -1.0000
     26 ****         1.4548  -4.0805  -0.5966 H              1 S1                 0.0000
     27 ****         1.8782  -0.3860   0.1413 H              1 S1                 0.0000
     28 ****         3.7973  -2.7099   0.5778 H              1 S1                 0.0000
     29 ****         2.0318  -3.8598   1.6742 H              1 S1                 0.0000
     30 ****        -0.6805   3.9614   1.9180 H              1 S1                 0.0000
     31 ****        -2.1775   4.8679   1.7085 H              1 S1                 0.0000
     32 ****        -0.6520   5.5386   1.1420 H              1 S1                 0.0000
     33 ****        -0.4446   3.7650  -0.5638 H              1 S1                 0.0000
     34 ****        -2.3471   4.4039  -2.0650 H              1 S1                 0.0000
     35 ****        -1.6341   5.8005  -1.2703 H              1 S1                 0.0000
     36 ****        -3.1691   5.1558  -0.6991 H              1 S1                 0.0000
     37 ****        -0.4933   1.7122  -0.6299 H              1 S1                 0.0000
     38 ****        -0.7544  -5.1520  -0.1931 H              1 S1                 0.0000
     39 ****         4.4467  -0.2630  -0.4943 H              1 S1                 0.0000
     40 ****         4.0599  -1.4199  -1.7576 H              1 S1                 0.0000
     41 ****         3.8830   0.7529  -2.4343 H              1 S1                 0.0000
     42 ****         2.7168  -0.8077   2.3638 H              1 S1                 0.0000
     43 ****         0.0738  -2.7383   2.1815 H              1 S1                 0.0000
     44 ****        -3.7477   3.4493   0.7357 LP             1 S1                 0.0000
     45 ****        -3.7887   1.7252   0.5751 LP             1 S1                 0.0000
     46 ****         0.1583  -0.3339  -0.2832 LP             1 S1                 0.0000
     47 ****        -3.2046  -4.5018  -0.2800 LP             1 S1                 0.0000
     48 ****         0.9550  -1.6096  -1.4283 LP             1 S1                 0.0000
     49 ****         2.2772  -2.5261  -1.7089 LP             1 S1                 0.0000
     50 ****         2.8423   1.1680  -1.3053 LP             1 S1                 0.0000
     51 ****         2.4224   0.1256  -2.4901 LP             1 S1                 0.0000
     52 ****         4.1771  -0.6850   1.7406 LP             1 S1                 0.0000
     53 ****         3.7930  -1.9205   2.7369 LP             1 S1                 0.0000
     54 ****         0.6719  -1.3202   1.7806 LP             1 S1                 0.0000
     55 ****         1.2905  -2.1676   3.0319 LP             1 S1                 0.0000
     56 ****        -4.8887  -2.9000  -0.3679 LP             1 S1                 0.0000
     57 ****        -5.4703  -1.2691  -0.4107 LP             1 S1                 0.0000
     58 ****        -3.8805   0.5243  -0.3954 LP             1 S1                 0.0000
@<TRIPOS>BOND
    1    1    2 1     
    2    1   30 1     
    3    1   31 1     
    4    1   32 1     
    5    2    3 1     
    6    2    4 1     
    7    2   33 1     
    8    3   34 1     
    9    3   35 1     
   10    3   36 1     
   11    4    5 2     
   12    4    6 am    
   13    6   37 1     
   14    6    7 1     
   15    7   25 1     
   16    7    8 2     
   17    8    9 1     
   18    9   13 1     
   19    9   10 2     
   20   10   11 1     
   21   10   23 1     
   22   11   12 2     
   23   12   13 1     
   24   12   38 1     
   25   13   14 1     
   26   14   26 1     
   27   14   21 1     
   28   14   15 1     
   29   15   16 1     
   30   16   27 1     
   31   16   17 1     
   32   16   19 1     
   33   17   18 1     
   34   17   39 1     
   35   17   40 1     
   36   18   41 1     
   37   19   28 1     
   38   19   20 1     
   39   19   21 1     
   40   20   42 1     
   41   21   29 1     
   42   21   22 1     
   43   22   43 1     
   44   23   24 2     
   45   23   25 1     
   46    5   44 1     
   47    5   45 1     
   48    8   46 1     
   49   11   47 1     
   50   15   48 1     
   51   15   49 1     
   52   18   50 1     
   53   18   51 1     
   54   20   52 1     
   55   20   53 1     
   56   22   54 1     
   57   22   55 1     
   58   24   56 1     
   59   24   57 1     
   60   25   58 1     
@<TRIPOS>SUBSTRUCTURE
      1 S1             1
@<TRIPOS>SET
LONE_PAIRS      STATIC     ATOMS    <user>   **** ""
15 44 45 46 47 48 49 50 51 52 53 54 55 56 57 58
DONOR_HYDROGENS      STATIC     ATOMS    <user>   **** ""
4 37 41 42 43
ATOM$BLUE        STATIC     ATOMS    COLORGROUP SYSTEM
15 44 45 46 47 48 49 50 51 52 53 54 55 56 57 58
ATOM$RED        STATIC     ATOMS    COLORGROUP SYSTEM
4 37 41 42 43
