AV-unprocessed.smi:1126|AV-procd|sdf|4838|dock1
  -GOLD-   22720 3403D 1   1.00000     0.00000
 Structure written by MMmdl.
 48 49  0  0  0  0  0  0  0  0  2 V2000
  152.6909  143.6129  158.8205 C   0  0  0  0  0  0  0  0  0  0  0  0
  151.7856  142.6585  158.2941 O   0  0  0  0  0  0  0  0  0  0  0  0
  151.2052  143.0755  157.0690 C   0  0  0  0  0  0  0  0  0  0  0  0
  150.7680  141.8321  156.2795 C   0  0  0  0  0  0  0  0  0  0  0  0
  149.4661  142.0274  155.5920 N   0  3  2  0  0  0  0  0  0  0  0  0
  148.3375  142.1528  156.5493 C   0  0  0  0  0  0  0  0  0  0  0  0
  147.0239  142.4946  155.8226 C   0  0  0  0  0  0  0  0  0  0  0  0
  146.6805  141.4706  154.7246 C   0  0  2  0  0  0  0  0  0  0  0  0
  146.1782  140.1330  155.3164 C   0  0  0  0  0  0  0  0  0  0  0  0
  145.4177  139.3480  154.3497 N   0  0  0  0  0  0  0  0  0  0  0  0
  145.4534  138.0118  154.2222 C   0  0  0  0  0  0  0  0  0  0  0  0
  146.1775  137.2836  154.9007 O   0  0  0  0  0  0  0  0  0  0  0  0
  144.5386  137.4039  153.1575 C   0  0  0  0  0  0  0  0  0  0  0  0
  143.1551  137.3855  153.5990 N   0  0  0  0  0  0  0  0  0  0  0  0
  142.1093  138.1770  153.1727 C   0  0  0  0  0  0  0  0  0  0  0  0
  140.9942  137.7916  153.8615 C   0  0  0  0  0  0  0  0  0  0  0  0
  139.5975  138.3345  153.7656 C   0  0  0  0  0  0  0  0  0  0  0  0
  141.4688  136.7424  154.6990 C   0  0  0  0  0  0  0  0  0  0  0  0
  142.7601  136.5011  154.5404 N   0  0  0  0  0  0  0  0  0  0  0  0
  147.8953  141.3349  153.7829 C   0  0  0  0  0  0  0  0  0  0  0  0
  149.1890  141.0052  154.5485 C   0  0  0  0  0  0  0  0  0  0  0  0
  153.1064  143.2451  159.7588 H   0  0  0  0  0  0  0  0  0  0  0  0
  152.1908  144.5609  159.0230 H   0  0  0  0  0  0  0  0  0  0  0  0
  153.5187  143.7928  158.1335 H   0  0  0  0  0  0  0  0  0  0  0  0
  150.3692  143.7518  157.2478 H   0  0  0  0  0  0  0  0  0  0  0  0
  151.9440  143.6307  156.4892 H   0  0  0  0  0  0  0  0  0  0  0  0
  151.5302  141.5531  155.5506 H   0  0  0  0  0  0  0  0  0  0  0  0
  150.6947  140.9988  156.9800 H   0  0  0  0  0  0  0  0  0  0  0  0
  148.2343  141.2282  157.1186 H   0  0  0  0  0  0  0  0  0  0  0  0
  148.5561  142.9414  157.2705 H   0  0  0  0  0  0  0  0  0  0  0  0
  146.2067  142.5684  156.5409 H   0  0  0  0  0  0  0  0  0  0  0  0
  147.1171  143.4838  155.3719 H   0  0  0  0  0  0  0  0  0  0  0  0
  145.8562  141.8841  154.1414 H   0  0  0  0  0  0  0  0  0  0  0  0
  147.0003  139.5477  155.7298 H   0  0  0  0  0  0  0  0  0  0  0  0
  145.5103  140.3366  156.1541 H   0  0  0  0  0  0  0  0  0  0  0  0
  144.7898  139.8581  153.7445 H   0  0  0  0  0  0  0  0  0  0  0  0
  144.6197  137.9718  152.2292 H   0  0  0  0  0  0  0  0  0  0  0  0
  144.8478  136.3814  152.9367 H   0  0  0  0  0  0  0  0  0  0  0  0
  142.2447  138.9395  152.4194 H   0  0  0  0  0  0  0  0  0  0  0  0
  139.0383  138.1776  154.6881 H   0  0  0  0  0  0  0  0  0  0  0  0
  139.0357  137.8564  152.9632 H   0  0  0  0  0  0  0  0  0  0  0  0
  139.5936  139.4065  153.5671 H   0  0  0  0  0  0  0  0  0  0  0  0
  140.9149  136.1507  155.4133 H   0  0  0  0  0  0  0  0  0  0  0  0
  147.7134  140.5864  153.0123 H   0  0  0  0  0  0  0  0  0  0  0  0
  148.0355  142.2755  153.2484 H   0  0  0  0  0  0  0  0  0  0  0  0
  150.0119  140.9595  153.8361 H   0  0  0  0  0  0  0  0  0  0  0  0
  149.1213  140.0185  155.0081 H   0  0  0  0  0  0  0  0  0  0  0  0
  149.5298  142.9183  155.1199 H   0  0  0  0  0  0  0  0  0  0  0  0
  1  2  1  0  0  0  0
  1 22  1  0  0  0  0
  1 23  1  0  0  0  0
  1 24  1  0  0  0  0
  2  3  1  0  0  0  0
  3  4  1  0  0  0  0
  3 25  1  0  0  0  0
  3 26  1  0  0  0  0
  4  5  1  0  0  0  0
  4 27  1  0  0  0  0
  4 28  1  0  0  0  0
  5 21  1  0  0  0  0
  5  6  1  0  0  0  0
  5 48  1  0  0  0  0
  6  7  1  0  0  0  0
  6 29  1  0  0  0  0
  6 30  1  0  0  0  0
  7  8  1  0  0  0  0
  7 31  1  0  0  0  0
  7 32  1  0  0  0  0
  8  9  1  0  0  0  0
  8 20  1  0  0  0  0
  8 33  1  0  0  0  0
  9 10  1  0  0  0  0
  9 34  1  0  0  0  0
  9 35  1  0  0  0  0
 10 11  1  0  0  0  0
 10 36  1  0  0  0  0
 11 12  2  0  0  0  0
 11 13  1  0  0  0  0
 13 14  1  0  0  0  0
 13 37  1  0  0  0  0
 13 38  1  0  0  0  0
 14 19  1  0  0  0  0
 14 15  1  0  0  0  0
 15 16  2  0  0  0  0
 15 39  1  0  0  0  0
 16 17  1  0  0  0  0
 16 18  1  0  0  0  0
 17 40  1  0  0  0  0
 17 41  1  0  0  0  0
 17 42  1  0  0  0  0
 18 19  2  0  0  0  0
 18 43  1  0  0  0  0
 20 21  1  0  0  0  0
 20 44  1  0  0  0  0
 20 45  1  0  0  0  0
 21 46  1  0  0  0  0
 21 47  1  0  0  0  0
M  CHG  1   5   1
M  END
> <s_m_source_file>
AV-unprocessed.smi

> <i_m_source_file_index>
1126

> <i_lp_mmshare_version>
43012

> <i_f3d_flags>
0

> <s_epik_input>
W0NIM11PW0NIMl1bQ0gyXU4xW0NIMl1bQ0gyXVtDSF0oW0NIMl1bQ0gyXTEpW0NIMl1bTkhdQyg9TylbQ0gyXW4yW2NIXWMoW0NIM10pW2NIXW4y

> <s_epik_cmdline>
J2VwaWtfcHl0aG9uJywgJy1waCcsICc3LjAnLCAnLXRuJywgJzgnLCAnLW1hJywgJzIwMCcsICctbWV0YWxfYmluZGluZycsICctaW1hZScsICc8aW5maWxlLm1hZT4nLCAnLW9tYWUnLCAnPG91dGZpbGUubWFlPic=

> <r_lp_tautomer_probability>
1

> <r_epik_Ionization_Penalty>
0.00992859

> <r_epik_Ionization_Penalty_Charging>
0.00990284

> <r_epik_Ionization_Penalty_Neutral>
2.57527e-05

> <r_epik_State_Penalty>
0.00754525

> <r_epik_Charging_Adjusted_Penalty>
0.0174481

> <i_epik_Tot_Q>
1

> <i_epik_Tot_abs_Q>
1

> <r_epik_Metal_State_Penalty>
0.00754529

> <b_epik_Metal_Only>
0

> <s_lp_Force_Field>
OPLS_2005

> <r_lp_Energy>
20.6922

> <b_lp_Chiralities_Consistent>
1

> <s_lp_Variant>
AV-unprocessed.smi:1126-2

> <Gold.Version>
5.8.1

> <Gold.Id.Protein>
6NUR|6NUR_protein|mol2

> <Gold.PLP.Fitness>
47.9256

> <Gold.PLP.PLP>
-34.6069

> <Gold.PLP.part.hbond>
-2.0000

> <Gold.PLP.part.metal>
0.0000

> <Gold.PLP.part.buried>
-4.6568

> <Gold.PLP.part.nonpolar>
-28.2835

> <Gold.PLP.part.repulsive>
0.2972

> <Gold.PLP.ligand.clash>
0.0000

> <Gold.PLP.ligand.torsion>
1.1552

> <Gold.PLP.Chemscore.Hbond>
3.0000

> <Gold.PLP.Chemscore.CHOScore>
2.1600

> <Gold.PLP.Chemscore.Metal>
0.0000

> <Gold.Chemscore.Hbonds>
donor molecule, donor type, donor heavy atom, donor atom, acceptor molecule, acceptor atom, score
      L1  H     5    48       P1  8028  1.25
      L1  H    10    36       P1 10175  1.00
      L1  C    15    39       P1 10160  0.29
      L1  C    15    39       P1 10175  0.91
      L1  C    18    43       P1 11000  0.99

> <Gold.PLP.Chemscore.Internal.Correction>
0.1489

> <Gold.Rescore>
     Score         DG    S(hbond)    S(metal)    S(lipo)     H(rot)  DE(clash)    DE(int)     intcor
     14.40     -15.83       1.84        0.00      81.79       2.10       0.29       1.14       ----

> <Gold.Chemscore.Fitness>
14.3977

> <Gold.Chemscore.DG>
-15.8255

> <Gold.Chemscore.ZeroCoef>
-5.4800

> <Gold.Chemscore.Hbond>
1.8424

> <Gold.Chemscore.Metal>
0.0000

> <Gold.Chemscore.Lipo>
81.7913

> <Gold.Chemscore.Internal_Hbond>
0.0000

> <Gold.Chemscore.DEClash>
0.2899

> <Gold.Chemscore.DEInternal>
1.1379

> <Gold.Chemscore.Rot>
2.1006

> <Gold.Chemscore.Internal.Correction>
   9.000000E+99

> <Gold.Chemscore.Hbonds>
donor molecule, donor type, donor heavy atom, donor atom, acceptor molecule, acceptor atom, score
      L1  H     5    48       P1  8028  0.63
      L1  H    10    36       P1 10175  1.00

> <Gold.Chemscore.Hbond.Weighted>
-6.1535

> <Gold.Chemscore.Metal.Weighted>
-0.0000

> <Gold.Chemscore.Lipo.Weighted>
-9.5696

> <Gold.Chemscore.Internal_Hbond.Weighted>
0.0000

> <Gold.Chemscore.DEClash.Weighted>
0.2899

> <Gold.Chemscore.DEInternal.Weighted>
1.1379

> <Gold.Chemscore.Rot.Weighted>
5.3775

> <Gold.Chemscore.Internal.Correction.Weighted>
   9.000000E+99

> <Gold.Protein.RotatedTorsions>
[ 6907 6896 6895 6894 ] final -145.06 input  -60.11 | X-H torsion
[ 7974 7965 7964 7962 ] final  166.02 input  175.53 | X-H torsion
[ 8008 7997 7996 7995 ] final  -87.00 input   59.86 | X-H torsion
[ 10167 10162 10161 10158 ] final  -75.53 input  -65.29 | X-H torsion
[ 10718 10713 10712 10709 ] final   30.71 input   66.30 | X-H torsion
[ 10763 10752 10751 10750 ] final  -46.89 input  -60.55 | X-H torsion
[ 11005 11000 10999 10996 ] final -140.77 input  -57.11 | X-H torsion

> <Gold.Protein.ActiveResidues>
 VAL166  LYS551  ARG553  GLY616  TRP617  ASP618  TYR619  PRO620  LYS621  CYS622 
 ASP623  PHE694  ASN695  SER759  ASP760  ASP761  ALA762  ILE779  LEU786  VAL792 
 PHE793  MET794  SER795  GLU796  ALA797  LYS798  CYS799  TRP800  GLU811  SER814 

> <Gold.Protein.RotatedAtoms>
  151.1226  133.5093  159.2601 H   0  0  0  0  0  0  0  0  0  0  0  0  # atno 6907 bound_to 6896
  151.1845  135.0375  159.8816 H   0  0  0  0  0  0  0  0  0  0  0  0  # atno 6908 bound_to 6896
  152.5456  134.1074  159.8397 H   0  0  0  0  0  0  0  0  0  0  0  0  # atno 6909 bound_to 6896
  144.7479  139.8555  143.6376 H   0  0  0  0  0  0  0  0  0  0  0  0  # atno 7974 bound_to 7965
  154.6582  140.0571  157.0033 H   0  0  0  0  0  0  0  0  0  0  0  0  # atno 8008 bound_to 7997
  155.1268  140.3252  155.4465 H   0  0  0  0  0  0  0  0  0  0  0  0  # atno 8009 bound_to 7997
  156.2607  140.1988  156.6388 H   0  0  0  0  0  0  0  0  0  0  0  0  # atno 8010 bound_to 7997
  140.4934  143.2375  151.7870 H   0  0  0  0  0  0  0  0  0  0  0  0  # atno 10167 bound_to 10162
  157.2630  130.7171  149.6464 H   0  0  0  0  0  0  0  0  0  0  0  0  # atno 10718 bound_to 10713
  154.0525  135.6629  153.4802 H   0  0  0  0  0  0  0  0  0  0  0  0  # atno 10763 bound_to 10752
  153.0458  135.5115  154.7737 H   0  0  0  0  0  0  0  0  0  0  0  0  # atno 10764 bound_to 10752
  154.6748  135.3035  154.9659 H   0  0  0  0  0  0  0  0  0  0  0  0  # atno 10765 bound_to 10752
  140.8390  134.2425  157.4820 H   0  0  0  0  0  0  0  0  0  0  0  0  # atno 11005 bound_to 11000
  146.1385  139.4437  143.0123 LP  0  0  0  0  0  0  0  0  0  0  0  0  # atno 17320 bound_to 7965
  145.7054  141.0123  143.1482 LP  0  0  0  0  0  0  0  0  0  0  0  0  # atno 17321 bound_to 7965
  139.4856  144.4618  151.9531 LP  0  0  0  0  0  0  0  0  0  0  0  0  # atno 17342 bound_to 10162
  140.3706  144.2860  150.5920 LP  0  0  0  0  0  0  0  0  0  0  0  0  # atno 17343 bound_to 10162
  155.9664  130.4391  150.5246 LP  0  0  0  0  0  0  0  0  0  0  0  0  # atno 17370 bound_to 10713
  157.3154  131.0672  151.1970 LP  0  0  0  0  0  0  0  0  0  0  0  0  # atno 17371 bound_to 10713
  139.8703  134.9625  156.4432 LP  0  0  0  0  0  0  0  0  0  0  0  0  # atno 17394 bound_to 11000
  140.8916  133.7844  155.9578 LP  0  0  0  0  0  0  0  0  0  0  0  0  # atno 17395 bound_to 11000

$$$$
