AV-unprocessed.smi:2478|AV-procd|sdf|9765|dock7
  -GOLD-   2272013413D 1   1.00000     0.00000
 Structure written by MMmdl.
 42 43  0  0  0  0  0  0  0  0  1 V2000
  153.4141  141.5841  160.3368 C   0  0  0  0  0  0  0  0  0  0  0  0
  153.1183  143.0763  160.1190 C   0  0  2  0  0  0  0  0  0  0  0  0
  152.0839  143.6068  161.1321 C   0  0  0  0  0  0  0  0  0  0  0  0
  151.8158  145.1069  160.9318 C   0  0  0  0  0  0  0  0  0  0  0  0
  151.3719  145.4065  159.4921 C   0  0  0  0  0  0  0  0  0  0  0  0
  152.3954  144.8805  158.4713 C   0  0  0  0  0  0  0  0  0  0  0  0
  152.6830  143.3805  158.6671 C   0  0  2  0  0  0  0  0  0  0  0  0
  151.4901  142.6641  158.3761 O   0  0  0  0  0  0  0  0  0  0  0  0
  150.9417  142.9239  157.0912 C   0  0  0  0  0  0  0  0  0  0  0  0
  150.2519  141.6618  156.5717 C   0  0  0  0  0  0  0  0  0  0  0  0
  150.3362  140.6185  157.2192 O   0  0  0  0  0  0  0  0  0  0  0  0
  149.5725  141.7962  155.4175 N   0  0  0  0  0  0  0  0  0  0  0  0
  148.8512  140.8160  154.6862 C   0  0  0  0  0  0  0  0  0  0  0  0
  149.2831  139.5400  154.5284 N   0  0  0  0  0  0  0  0  0  0  0  0
  148.5334  138.6731  153.8180 C   0  0  0  0  0  0  0  0  0  0  0  0
  147.3079  139.0236  153.2252 C   0  0  0  0  0  0  0  0  0  0  0  0
  146.8487  140.3428  153.3821 C   0  0  0  0  0  0  0  0  0  0  0  0
  147.6321  141.2628  154.1179 C   0  0  0  0  0  0  0  0  0  0  0  0
  147.2304  142.5649  154.3202 O   0  0  0  0  0  0  0  0  0  0  0  0
  145.9001  142.8424  154.3387 C   0  0  0  0  0  0  0  0  0  0  0  0
  145.5340  143.3256  155.5511 F   0  0  0  0  0  0  0  0  0  0  0  0
  145.6165  143.7913  153.4142 F   0  0  0  0  0  0  0  0  0  0  0  0
  152.5185  140.9760  160.2053 H   0  0  0  0  0  0  0  0  0  0  0  0
  153.7915  141.4031  161.3436 H   0  0  0  0  0  0  0  0  0  0  0  0
  154.1667  141.2261  159.6338 H   0  0  0  0  0  0  0  0  0  0  0  0
  154.0521  143.6122  160.2957 H   0  0  0  0  0  0  0  0  0  0  0  0
  151.1493  143.0531  161.0325 H   0  0  0  0  0  0  0  0  0  0  0  0
  152.4357  143.4334  162.1496 H   0  0  0  0  0  0  0  0  0  0  0  0
  151.0526  145.4446  161.6336 H   0  0  0  0  0  0  0  0  0  0  0  0
  152.7193  145.6735  161.1603 H   0  0  0  0  0  0  0  0  0  0  0  0
  150.3990  144.9491  159.3079 H   0  0  0  0  0  0  0  0  0  0  0  0
  151.2359  146.4804  159.3614 H   0  0  0  0  0  0  0  0  0  0  0  0
  152.0367  145.0623  157.4576 H   0  0  0  0  0  0  0  0  0  0  0  0
  153.3250  145.4419  158.5731 H   0  0  0  0  0  0  0  0  0  0  0  0
  153.4881  143.0930  157.9877 H   0  0  0  0  0  0  0  0  0  0  0  0
  150.2230  143.7429  157.1478 H   0  0  0  0  0  0  0  0  0  0  0  0
  151.7269  143.2096  156.3897 H   0  0  0  0  0  0  0  0  0  0  0  0
  149.6000  142.7140  154.9968 H   0  0  0  0  0  0  0  0  0  0  0  0
  148.9210  137.6698  153.7213 H   0  0  0  0  0  0  0  0  0  0  0  0
  146.7340  138.2986  152.6674 H   0  0  0  0  0  0  0  0  0  0  0  0
  145.9058  140.6361  152.9449 H   0  0  0  0  0  0  0  0  0  0  0  0
  145.3014  141.9608  154.1073 H   0  0  0  0  0  0  0  0  0  0  0  0
  1  2  1  0  0  0  0
  1 23  1  0  0  0  0
  1 24  1  0  0  0  0
  1 25  1  0  0  0  0
  2  7  1  0  0  0  0
  2  3  1  0  0  0  0
  2 26  1  0  0  0  0
  3  4  1  0  0  0  0
  3 27  1  0  0  0  0
  3 28  1  0  0  0  0
  4  5  1  0  0  0  0
  4 29  1  0  0  0  0
  4 30  1  0  0  0  0
  5  6  1  0  0  0  0
  5 31  1  0  0  0  0
  5 32  1  0  0  0  0
  6  7  1  0  0  0  0
  6 33  1  0  0  0  0
  6 34  1  0  0  0  0
  7  8  1  0  0  0  0
  7 35  1  0  0  0  0
  8  9  1  0  0  0  0
  9 10  1  0  0  0  0
  9 36  1  0  0  0  0
  9 37  1  0  0  0  0
 10 11  2  0  0  0  0
 10 12  1  0  0  0  0
 12 13  1  0  0  0  0
 12 38  1  0  0  0  0
 13 18  1  0  0  0  0
 13 14  2  0  0  0  0
 14 15  1  0  0  0  0
 15 16  2  0  0  0  0
 15 39  1  0  0  0  0
 16 17  1  0  0  0  0
 16 40  1  0  0  0  0
 17 18  2  0  0  0  0
 17 41  1  0  0  0  0
 18 19  1  0  0  0  0
 19 20  1  0  0  0  0
 20 21  1  0  0  0  0
 20 22  1  0  0  0  0
 20 42  1  0  0  0  0
M  END
> <s_m_source_file>
AV-unprocessed.smi

> <i_m_source_file_index>
2478

> <i_lp_mmshare_version>
43012

> <i_f3d_flags>
0

> <s_epik_input>
W0NIM11bQ0BASF0xW0NIMl1bQ0gyXVtDSDJdW0NIMl1bQ0BIXTFPW0NIMl1DKD1PKVtOSF1jMm5bY0hdW2NIXVtjSF1jMk9bQ0hdKEYpRg==

> <s_epik_cmdline>
J2VwaWtfcHl0aG9uJywgJy1waCcsICc3LjAnLCAnLXRuJywgJzgnLCAnLW1hJywgJzIwMCcsICctbWV0YWxfYmluZGluZycsICctaW1hZScsICc8aW5maWxlLm1hZT4nLCAnLW9tYWUnLCAnPG91dGZpbGUubWFlPic=

> <r_lp_tautomer_probability>
1

> <r_epik_Ionization_Penalty>
6.06012e-05

> <r_epik_Ionization_Penalty_Charging>
0

> <r_epik_Ionization_Penalty_Neutral>
6.06012e-05

> <r_epik_State_Penalty>
-0

> <r_epik_Charging_Adjusted_Penalty>
0

> <i_epik_Tot_Q>
0

> <i_epik_Tot_abs_Q>
0

> <r_epik_Metal_State_Penalty>
-0

> <b_epik_Metal_Only>
0

> <s_lp_Force_Field>
OPLS_2005

> <r_lp_Energy>
14.1885

> <b_lp_Chiralities_Consistent>
1

> <s_lp_Variant>
AV-unprocessed.smi:2478-3

> <Gold.Version>
5.8.1

> <Gold.Id.Protein>
6NUR|6NUR_protein|mol2

> <Gold.PLP.Fitness>
52.1477

> <Gold.PLP.PLP>
-51.2643

> <Gold.PLP.part.hbond>
-1.0000

> <Gold.PLP.part.metal>
0.0000

> <Gold.PLP.part.buried>
-3.5908

> <Gold.PLP.part.nonpolar>
-48.5431

> <Gold.PLP.part.repulsive>
1.5856

> <Gold.PLP.ligand.clash>
0.0000

> <Gold.PLP.ligand.torsion>
1.6767

> <Gold.PLP.Chemscore.Hbond>
0.3890

> <Gold.PLP.Chemscore.CHOScore>
1.0000

> <Gold.PLP.Chemscore.Metal>
0.0000

> <Gold.Chemscore.Hbonds>
donor molecule, donor type, donor heavy atom, donor atom, acceptor molecule, acceptor atom, score
      L1  H    12    38       P1  8028  0.36
      L1  C    15    39       P1  7948  1.00

> <Gold.PLP.Chemscore.Internal.Correction>
0.0699

> <Gold.Rescore>
     Score         DG    S(hbond)    S(metal)    S(lipo)     H(rot)  DE(clash)    DE(int)     intcor
     14.47     -16.80       0.33        0.00     127.79       1.85       0.64       1.68       ----

> <Gold.Chemscore.Fitness>
14.4719

> <Gold.Chemscore.DG>
-16.7968

> <Gold.Chemscore.ZeroCoef>
-5.4800

> <Gold.Chemscore.Hbond>
0.3281

> <Gold.Chemscore.Metal>
0.0000

> <Gold.Chemscore.Lipo>
127.7946

> <Gold.Chemscore.Internal_Hbond>
0.0000

> <Gold.Chemscore.DEClash>
0.6422

> <Gold.Chemscore.DEInternal>
1.6827

> <Gold.Chemscore.Rot>
1.8481

> <Gold.Chemscore.Internal.Correction>
   9.000000E+99

> <Gold.Chemscore.Hbonds>
donor molecule, donor type, donor heavy atom, donor atom, acceptor molecule, acceptor atom, score
      L1  H    12    38       P1  8028  0.35

> <Gold.Chemscore.Hbond.Weighted>
-1.0959

> <Gold.Chemscore.Metal.Weighted>
-0.0000

> <Gold.Chemscore.Lipo.Weighted>
-14.9520

> <Gold.Chemscore.Internal_Hbond.Weighted>
0.0000

> <Gold.Chemscore.DEClash.Weighted>
0.6422

> <Gold.Chemscore.DEInternal.Weighted>
1.6827

> <Gold.Chemscore.Rot.Weighted>
4.7311

> <Gold.Chemscore.Internal.Correction.Weighted>
   9.000000E+99

> <Gold.Protein.RotatedTorsions>
[ 6907 6896 6895 6894 ] final  -31.44 input  -60.11 | X-H torsion
[ 7974 7965 7964 7962 ] final   43.37 input  175.53 | X-H torsion
[ 8008 7997 7996 7995 ] final  174.58 input   59.86 | X-H torsion
[ 10167 10162 10161 10158 ] final   32.67 input  -65.29 | X-H torsion
[ 10718 10713 10712 10709 ] final  168.24 input   66.30 | X-H torsion
[ 10763 10752 10751 10750 ] final -158.77 input  -60.55 | X-H torsion
[ 11005 11000 10999 10996 ] final   44.93 input  -57.11 | X-H torsion

> <Gold.Protein.ActiveResidues>
 VAL166  LYS551  ARG553  GLY616  TRP617  ASP618  TYR619  PRO620  LYS621  CYS622 
 ASP623  PHE694  ASN695  SER759  ASP760  ASP761  ALA762  ILE779  LEU786  VAL792 
 PHE793  MET794  SER795  GLU796  ALA797  LYS798  CYS799  TRP800  GLU811  SER814 

> <Gold.Protein.RotatedAtoms>
  151.0921  134.9922  159.8407 H   0  0  0  0  0  0  0  0  0  0  0  0  # atno 6907 bound_to 6896
  152.5430  134.2053  159.8738 H   0  0  0  0  0  0  0  0  0  0  0  0  # atno 6908 bound_to 6896
  151.2090  133.4523  159.2631 H   0  0  0  0  0  0  0  0  0  0  0  0  # atno 6909 bound_to 6896
  146.0661  139.5194  142.9627 H   0  0  0  0  0  0  0  0  0  0  0  0  # atno 7974 bound_to 7965
  156.0959  140.1431  156.9531 H   0  0  0  0  0  0  0  0  0  0  0  0  # atno 8008 bound_to 7997
  154.4671  140.0922  156.7095 H   0  0  0  0  0  0  0  0  0  0  0  0  # atno 8009 bound_to 7997
  155.4841  140.3446  155.4346 H   0  0  0  0  0  0  0  0  0  0  0  0  # atno 8010 bound_to 7997
  140.4478  144.1094  150.6185 H   0  0  0  0  0  0  0  0  0  0  0  0  # atno 10167 bound_to 10162
  157.0399  131.0283  151.2717 H   0  0  0  0  0  0  0  0  0  0  0  0  # atno 10718 bound_to 10713
  154.7529  135.3097  154.8523 H   0  0  0  0  0  0  0  0  0  0  0  0  # atno 10763 bound_to 10752
  153.9306  135.6786  153.4750 H   0  0  0  0  0  0  0  0  0  0  0  0  # atno 10764 bound_to 10752
  153.1126  135.4859  154.8989 H   0  0  0  0  0  0  0  0  0  0  0  0  # atno 10765 bound_to 10752
  140.1506  134.4466  155.8384 H   0  0  0  0  0  0  0  0  0  0  0  0  # atno 11005 bound_to 11000
  145.6475  141.0271  143.1778 LP  0  0  0  0  0  0  0  0  0  0  0  0  # atno 17320 bound_to 7965
  144.7203  139.8053  143.7384 LP  0  0  0  0  0  0  0  0  0  0  0  0  # atno 17321 bound_to 7965
  140.4243  143.2597  151.9675 LP  0  0  0  0  0  0  0  0  0  0  0  0  # atno 17342 bound_to 10162
  139.4794  144.5802  151.7945 LP  0  0  0  0  0  0  0  0  0  0  0  0  # atno 17343 bound_to 10162
  157.5112  130.7940  149.7707 LP  0  0  0  0  0  0  0  0  0  0  0  0  # atno 17370 bound_to 10713
  156.0041  130.3864  150.2494 LP  0  0  0  0  0  0  0  0  0  0  0  0  # atno 17371 bound_to 10713
  141.2198  133.6871  156.7414 LP  0  0  0  0  0  0  0  0  0  0  0  0  # atno 17394 bound_to 11000
  140.2609  134.8467  157.3758 LP  0  0  0  0  0  0  0  0  0  0  0  0  # atno 17395 bound_to 11000

$$$$
