AV-unprocessed.smi:2317|AV-procd|sdf|9273|dock8
  -GOLD-   2272012493D 1   1.00000     0.00000
 Structure written by MMmdl.
 37 38  0  0  0  0  0  0  0  0  1 V2000
  144.3999  136.6520  152.0817 O   0  0  0  0  0  0  0  0  0  0  0  0
  145.6171  136.4698  152.0726 C   0  0  0  0  0  0  0  0  0  0  0  0
  146.4967  137.3529  152.5641 N   0  0  0  0  0  0  0  0  0  0  0  0
  146.1363  138.6283  153.1728 C   0  0  0  0  0  0  0  0  0  0  0  0
  147.3703  139.5294  153.3897 C   0  0  2  0  0  0  0  0  0  0  0  0
  148.4042  138.8496  154.3121 C   0  0  0  0  0  0  0  0  0  0  0  0
  149.6651  139.7109  154.4869 C   0  0  0  0  0  0  0  0  0  0  0  0
  149.3156  141.1092  155.0164 C   0  0  0  0  0  0  0  0  0  0  0  0
  148.2885  141.8068  154.1082 C   0  0  0  0  0  0  0  0  0  0  0  0
  147.0222  140.9539  153.8972 C   0  0  2  0  0  0  0  0  0  0  0  0
  146.2914  140.8988  155.1080 O   0  0  0  0  0  0  0  0  0  0  0  0
  146.2428  135.3927  151.5677 N   0  0  0  0  0  0  0  0  0  0  0  0
  145.6853  134.2433  150.9420 C   0  0  0  0  0  0  0  0  0  0  0  0
  144.4444  134.2275  150.2593 C   0  0  0  0  0  0  0  0  0  0  0  0
  143.9996  133.0149  149.6954 C   0  0  0  0  0  0  0  0  0  0  0  0
  144.6910  131.8583  149.7758 N   0  0  0  0  0  0  0  0  0  0  0  0
  145.8669  131.8738  150.4384 C   0  0  0  0  0  0  0  0  0  0  0  0
  146.4016  133.0312  151.0388 C   0  0  0  0  0  0  0  0  0  0  0  0
  147.5866  132.9758  151.6940 F   0  0  0  0  0  0  0  0  0  0  0  0
  147.4800  137.1292  152.5155 H   0  0  0  0  0  0  0  0  0  0  0  0
  145.4005  139.1444  152.5539 H   0  0  0  0  0  0  0  0  0  0  0  0
  145.6520  138.4253  154.1289 H   0  0  0  0  0  0  0  0  0  0  0  0
  147.8486  139.6477  152.4157 H   0  0  0  0  0  0  0  0  0  0  0  0
  147.9589  138.6529  155.2882 H   0  0  0  0  0  0  0  0  0  0  0  0
  148.6851  137.8784  153.9035 H   0  0  0  0  0  0  0  0  0  0  0  0
  150.3598  139.2188  155.1683 H   0  0  0  0  0  0  0  0  0  0  0  0
  150.1819  139.8013  153.5308 H   0  0  0  0  0  0  0  0  0  0  0  0
  148.9184  141.0277  156.0290 H   0  0  0  0  0  0  0  0  0  0  0  0
  150.2188  141.7153  155.0888 H   0  0  0  0  0  0  0  0  0  0  0  0
  148.0241  142.7808  154.5216 H   0  0  0  0  0  0  0  0  0  0  0  0
  148.7501  142.0044  153.1398 H   0  0  0  0  0  0  0  0  0  0  0  0
  146.3895  141.4589  153.1666 H   0  0  0  0  0  0  0  0  0  0  0  0
  145.6747  140.1847  155.0549 H   0  0  0  0  0  0  0  0  0  0  0  0
  147.2519  135.4228  151.5799 H   0  0  0  0  0  0  0  0  0  0  0  0
  143.8241  135.1051  150.1658 H   0  0  0  0  0  0  0  0  0  0  0  0
  143.0575  132.9721  149.1691 H   0  0  0  0  0  0  0  0  0  0  0  0
  146.3976  130.9350  150.4935 H   0  0  0  0  0  0  0  0  0  0  0  0
  1  2  2  0  0  0  0
  2  3  1  0  0  0  0
  2 12  1  0  0  0  0
  3  4  1  0  0  0  0
  3 20  1  0  0  0  0
  4  5  1  0  0  0  0
  4 21  1  0  0  0  0
  4 22  1  0  0  0  0
  5 10  1  0  0  0  0
  5  6  1  0  0  0  0
  5 23  1  0  0  0  0
  6  7  1  0  0  0  0
  6 24  1  0  0  0  0
  6 25  1  0  0  0  0
  7  8  1  0  0  0  0
  7 26  1  0  0  0  0
  7 27  1  0  0  0  0
  8  9  1  0  0  0  0
  8 28  1  0  0  0  0
  8 29  1  0  0  0  0
  9 10  1  0  0  0  0
  9 30  1  0  0  0  0
  9 31  1  0  0  0  0
 10 11  1  0  0  0  0
 10 32  1  0  0  0  0
 11 33  1  0  0  0  0
 12 13  1  0  0  0  0
 12 34  1  0  0  0  0
 13 18  1  0  0  0  0
 13 14  2  0  0  0  0
 14 15  1  0  0  0  0
 14 35  1  0  0  0  0
 15 16  2  0  0  0  0
 15 36  1  0  0  0  0
 16 17  1  0  0  0  0
 17 18  2  0  0  0  0
 17 37  1  0  0  0  0
 18 19  1  0  0  0  0
M  END
> <s_m_source_file>
AV-unprocessed.smi

> <i_m_source_file_index>
2317

> <i_lp_mmshare_version>
43012

> <i_f3d_flags>
0

> <s_epik_input>
RmMxW2NIXW5bY0hdW2NIXWMxW05IXUMoPU8pW05IXVtDSDJdW0NAQEhdMltDSDJdW0NIMl1bQ0gyXVtDSDJdW0NASF0yW09IXQ==

> <s_epik_cmdline>
J2VwaWtfcHl0aG9uJywgJy1waCcsICc3LjAnLCAnLXRuJywgJzgnLCAnLW1hJywgJzIwMCcsICctbWV0YWxfYmluZGluZycsICctaW1hZScsICc8aW5maWxlLm1hZT4nLCAnLW9tYWUnLCAnPG91dGZpbGUubWFlPic=

> <r_epik_Ionization_Penalty>
0.00317647

> <r_epik_Ionization_Penalty_Charging>
0

> <r_epik_Ionization_Penalty_Neutral>
0.00317647

> <r_epik_State_Penalty>
0.0022093

> <r_epik_Charging_Adjusted_Penalty>
0.0022093

> <i_epik_Tot_Q>
0

> <i_epik_Tot_abs_Q>
0

> <r_epik_Metal_State_Penalty>
-0

> <b_epik_Metal_Only>
0

> <s_lp_Force_Field>
OPLS_2005

> <r_lp_Energy>
20.2731

> <b_lp_Chiralities_Consistent>
1

> <s_lp_Variant>
AV-unprocessed.smi:2317-3

> <Gold.Version>
5.8.1

> <Gold.Id.Protein>
6NUR|6NUR_protein|mol2

> <Gold.PLP.Fitness>
44.3177

> <Gold.PLP.PLP>
-33.2043

> <Gold.PLP.part.hbond>
-2.5563

> <Gold.PLP.part.metal>
0.0000

> <Gold.PLP.part.buried>
-1.1469

> <Gold.PLP.part.nonpolar>
-29.8661

> <Gold.PLP.part.repulsive>
0.4274

> <Gold.PLP.ligand.clash>
0.0000

> <Gold.PLP.ligand.torsion>
0.2239

> <Gold.PLP.Chemscore.Hbond>
2.0000

> <Gold.PLP.Chemscore.CHOScore>
1.8501

> <Gold.PLP.Chemscore.Metal>
0.0000

> <Gold.Chemscore.Hbonds>
donor molecule, donor type, donor heavy atom, donor atom, acceptor molecule, acceptor atom, score
      L1  H     3    20       P1  7948  1.00
      L1  H    12    34       P1  7948  1.00
      L1  C    15    36       P1 10186  0.95
      L1  C    17    37       P1 10747  0.72

> <Gold.PLP.Chemscore.Internal.Correction>
0.0109

> <Gold.Rescore>
     Score         DG    S(hbond)    S(metal)    S(lipo)     H(rot)  DE(clash)    DE(int)     intcor
     16.37     -17.56       1.95        0.00      86.70       1.79       0.26       0.93       ----

> <Gold.Chemscore.Fitness>
16.3690

> <Gold.Chemscore.DG>
-17.5614

> <Gold.Chemscore.ZeroCoef>
-5.4800

> <Gold.Chemscore.Hbond>
1.9486

> <Gold.Chemscore.Metal>
0.0000

> <Gold.Chemscore.Lipo>
86.6951

> <Gold.Chemscore.Internal_Hbond>
0.0000

> <Gold.Chemscore.DEClash>
0.2640

> <Gold.Chemscore.DEInternal>
0.9284

> <Gold.Chemscore.Rot>
1.7853

> <Gold.Chemscore.Internal.Correction>
   9.000000E+99

> <Gold.Chemscore.Hbonds>
donor molecule, donor type, donor heavy atom, donor atom, acceptor molecule, acceptor atom, score
      L1  H     3    20       P1  7948  0.98
      L1  H    12    34       P1  7948  0.96
      P1  H 10785 10796       L1    16  0.01

> <Gold.Chemscore.Hbond.Weighted>
-6.5085

> <Gold.Chemscore.Metal.Weighted>
-0.0000

> <Gold.Chemscore.Lipo.Weighted>
-10.1433

> <Gold.Chemscore.Internal_Hbond.Weighted>
0.0000

> <Gold.Chemscore.DEClash.Weighted>
0.2640

> <Gold.Chemscore.DEInternal.Weighted>
0.9284

> <Gold.Chemscore.Rot.Weighted>
4.5704

> <Gold.Chemscore.Internal.Correction.Weighted>
   9.000000E+99

> <Gold.Protein.RotatedTorsions>
[ 6907 6896 6895 6894 ] final   79.49 input  -60.11 | X-H torsion
[ 7974 7965 7964 7962 ] final  173.05 input  175.53 | X-H torsion
[ 8008 7997 7996 7995 ] final  157.57 input   59.86 | X-H torsion
[ 10167 10162 10161 10158 ] final  -72.57 input  -65.29 | X-H torsion
[ 10718 10713 10712 10709 ] final   84.95 input   66.30 | X-H torsion
[ 10763 10752 10751 10750 ] final  103.65 input  -60.55 | X-H torsion
[ 11005 11000 10999 10996 ] final  -52.17 input  -57.11 | X-H torsion

> <Gold.Protein.ActiveResidues>
 VAL166  LYS551  ARG553  GLY616  TRP617  ASP618  TYR619  PRO620  LYS621  CYS622 
 ASP623  PHE694  ASN695  SER759  ASP760  ASP761  ALA762  ILE779  LEU786  VAL792 
 PHE793  MET794  SER795  GLU796  ALA797  LYS798  CYS799  TRP800  GLU811  SER814 

> <Gold.Protein.RotatedAtoms>
  152.5200  134.3504  159.9248 H   0  0  0  0  0  0  0  0  0  0  0  0  # atno 6907 bound_to 6896
  151.3454  133.3939  159.2683 H   0  0  0  0  0  0  0  0  0  0  0  0  # atno 6908 bound_to 6896
  150.9769  134.9150  159.7879 H   0  0  0  0  0  0  0  0  0  0  0  0  # atno 6909 bound_to 6896
  144.7253  139.9589  143.6434 H   0  0  0  0  0  0  0  0  0  0  0  0  # atno 7974 bound_to 7965
  156.2356  140.1881  156.7129 H   0  0  0  0  0  0  0  0  0  0  0  0  # atno 8008 bound_to 7997
  154.6100  140.0623  156.9508 H   0  0  0  0  0  0  0  0  0  0  0  0  # atno 8009 bound_to 7997
  155.2032  140.3294  155.4342 H   0  0  0  0  0  0  0  0  0  0  0  0  # atno 8010 bound_to 7997
  140.5181  143.2335  151.7477 H   0  0  0  0  0  0  0  0  0  0  0  0  # atno 10167 bound_to 10162
  157.6907  131.0155  150.2750 H   0  0  0  0  0  0  0  0  0  0  0  0  # atno 10718 bound_to 10713
  153.3555  135.3969  155.1679 H   0  0  0  0  0  0  0  0  0  0  0  0  # atno 10763 bound_to 10752
  154.8670  135.3667  154.5166 H   0  0  0  0  0  0  0  0  0  0  0  0  # atno 10764 bound_to 10752
  153.5621  135.7081  153.5602 H   0  0  0  0  0  0  0  0  0  0  0  0  # atno 10765 bound_to 10752
  141.0910  133.6633  156.3985 H   0  0  0  0  0  0  0  0  0  0  0  0  # atno 11005 bound_to 11000
  146.0652  139.3644  143.0556 LP  0  0  0  0  0  0  0  0  0  0  0  0  # atno 17320 bound_to 7965
  145.8040  140.9757  143.0984 LP  0  0  0  0  0  0  0  0  0  0  0  0  # atno 17321 bound_to 7965
  139.4915  144.4294  151.9889 LP  0  0  0  0  0  0  0  0  0  0  0  0  # atno 17342 bound_to 10162
  140.3389  144.3227  150.5971 LP  0  0  0  0  0  0  0  0  0  0  0  0  # atno 17343 bound_to 10162
  156.3306  130.3800  149.7494 LP  0  0  0  0  0  0  0  0  0  0  0  0  # atno 17370 bound_to 10713
  156.5035  130.8139  151.3141 LP  0  0  0  0  0  0  0  0  0  0  0  0  # atno 17371 bound_to 10713
  140.5251  134.6266  157.5331 LP  0  0  0  0  0  0  0  0  0  0  0  0  # atno 17394 bound_to 11000
  139.9736  134.7251  155.9992 LP  0  0  0  0  0  0  0  0  0  0  0  0  # atno 17395 bound_to 11000

$$$$
