AV-unprocessed.smi:1047|AV-procd|sdf|4587|dock6
  -GOLD-   22720 3 63D 1   1.00000     0.00000
 Structure written by MMmdl.
 58 60  0  0  0  0  0  0  0  0  4 V2000
  145.1920  134.1248  150.6093 C   0  0  0  0  0  0  0  0  0  0  0  0
  145.4261  135.6315  150.7867 C   0  0  0  0  0  0  0  0  0  0  0  0
  146.0855  135.9583  152.0760 N   0  3  2  0  0  0  0  0  0  0  0  0
  145.7831  134.9903  153.1590 C   0  0  0  0  0  0  0  0  0  0  0  0
  146.5144  135.3844  154.4529 C   0  0  0  0  0  0  0  0  0  0  0  0
  146.1612  136.7133  154.8186 O   0  0  0  0  0  0  0  0  0  0  0  0
  146.5419  137.6654  153.8306 C   0  0  2  0  0  0  0  0  0  0  0  0
  146.1954  139.0674  154.3556 C   0  0  0  0  0  0  0  0  0  0  0  0
  146.4597  140.1041  153.3376 N   0  3  0  0  0  0  0  0  0  0  0  0
  147.4294  141.1337  153.7632 C   0  0  0  0  0  0  0  0  0  0  0  0
  148.6073  140.5067  154.5334 C   0  0  1  0  0  0  0  0  0  0  0  0
  149.5165  139.9526  153.6045 O   0  0  0  0  0  0  0  0  0  0  0  0
  149.3899  141.5025  155.4128 C   0  0  0  0  0  0  0  0  0  0  0  0
  150.2865  140.8432  156.3728 N   0  0  0  0  0  0  0  0  0  0  0  0
  150.6993  139.5471  156.4197 C   0  0  0  0  0  0  0  0  0  0  0  0
  151.5345  139.4196  157.4873 N   0  3  0  0  0  0  0  0  0  0  0  0
  151.6621  140.6526  158.1295 C   0  0  0  0  0  0  0  0  0  0  0  0
  152.3962  141.0217  159.2501 C   0  0  0  0  0  0  0  0  0  0  0  0
  152.3151  142.3718  159.6586 C   0  0  0  0  0  0  0  0  0  0  0  0
  153.1074  142.8091  160.8789 C   0  0  0  0  0  0  0  0  0  0  0  0
  151.5142  143.3025  158.9476 C   0  0  0  0  0  0  0  0  0  0  0  0
  151.4334  144.7519  159.3967 C   0  0  0  0  0  0  0  0  0  0  0  0
  150.7751  142.9075  157.8094 C   0  0  0  0  0  0  0  0  0  0  0  0
  150.8663  141.5729  157.4189 C   0  0  0  0  0  0  0  0  0  0  0  0
  145.7911  137.3410  152.5236 C   0  0  0  0  0  0  0  0  0  0  0  0
  144.7962  133.9141  149.6155 H   0  0  0  0  0  0  0  0  0  0  0  0
  144.4747  133.7341  151.3302 H   0  0  0  0  0  0  0  0  0  0  0  0
  146.1212  133.5650  150.7188 H   0  0  0  0  0  0  0  0  0  0  0  0
  146.0618  135.9685  149.9670 H   0  0  0  0  0  0  0  0  0  0  0  0
  144.4874  136.1797  150.6951 H   0  0  0  0  0  0  0  0  0  0  0  0
  144.7066  134.9610  153.3348 H   0  0  0  0  0  0  0  0  0  0  0  0
  146.0871  133.9851  152.8683 H   0  0  0  0  0  0  0  0  0  0  0  0
  146.2342  134.7094  155.2619 H   0  0  0  0  0  0  0  0  0  0  0  0
  147.5956  135.3022  154.3304 H   0  0  0  0  0  0  0  0  0  0  0  0
  147.6181  137.6043  153.6555 H   0  0  0  0  0  0  0  0  0  0  0  0
  145.1387  139.1096  154.6233 H   0  0  0  0  0  0  0  0  0  0  0  0
  146.7645  139.2849  155.2606 H   0  0  0  0  0  0  0  0  0  0  0  0
  146.8126  139.6560  152.5037 H   0  0  0  0  0  0  0  0  0  0  0  0
  147.7924  141.6845  152.8942 H   0  0  0  0  0  0  0  0  0  0  0  0
  146.9005  141.8463  154.3965 H   0  0  0  0  0  0  0  0  0  0  0  0
  148.2353  139.6974  155.1634 H   0  0  0  0  0  0  0  0  0  0  0  0
  149.2354  140.1773  152.7301 H   0  0  0  0  0  0  0  0  0  0  0  0
  150.0154  142.1379  154.7841 H   0  0  0  0  0  0  0  0  0  0  0  0
  148.7178  142.1749  155.9461 H   0  0  0  0  0  0  0  0  0  0  0  0
  150.4179  138.7618  155.7326 H   0  0  0  0  0  0  0  0  0  0  0  0
  153.0044  140.3073  159.7861 H   0  0  0  0  0  0  0  0  0  0  0  0
  153.8235  143.5865  160.6120 H   0  0  0  0  0  0  0  0  0  0  0  0
  153.6647  141.9777  161.3118 H   0  0  0  0  0  0  0  0  0  0  0  0
  152.4415  143.2001  161.6485 H   0  0  0  0  0  0  0  0  0  0  0  0
  150.7826  145.3365  158.7455 H   0  0  0  0  0  0  0  0  0  0  0  0
  152.4210  145.2137  159.3810 H   0  0  0  0  0  0  0  0  0  0  0  0
  151.0362  144.8177  160.4101 H   0  0  0  0  0  0  0  0  0  0  0  0
  150.1677  143.6204  157.2721 H   0  0  0  0  0  0  0  0  0  0  0  0
  146.0871  138.0468  151.7460 H   0  0  0  0  0  0  0  0  0  0  0  0
  144.7154  137.4555  152.6677 H   0  0  0  0  0  0  0  0  0  0  0  0
  145.5906  140.5664  153.1094 H   0  0  0  0  0  0  0  0  0  0  0  0
  147.0809  135.9168  151.9091 H   0  0  0  0  0  0  0  0  0  0  0  0
  151.9877  138.5542  157.7527 H   0  0  0  0  0  0  0  0  0  0  0  0
  1  2  1  0  0  0  0
  1 26  1  0  0  0  0
  1 27  1  0  0  0  0
  1 28  1  0  0  0  0
  2  3  1  0  0  0  0
  2 29  1  0  0  0  0
  2 30  1  0  0  0  0
  3 25  1  0  0  0  0
  3  4  1  0  0  0  0
  3 57  1  0  0  0  0
  4  5  1  0  0  0  0
  4 31  1  0  0  0  0
  4 32  1  0  0  0  0
  5  6  1  0  0  0  0
  5 33  1  0  0  0  0
  5 34  1  0  0  0  0
  6  7  1  0  0  0  0
  7  8  1  0  0  0  0
  7 25  1  0  0  0  0
  7 35  1  0  0  0  0
  8  9  1  0  0  0  0
  8 36  1  0  0  0  0
  8 37  1  0  0  0  0
  9 10  1  0  0  0  0
  9 38  1  0  0  0  0
  9 56  1  0  0  0  0
 10 11  1  0  0  0  0
 10 39  1  0  0  0  0
 10 40  1  0  0  0  0
 11 12  1  0  0  0  0
 11 13  1  0  0  0  0
 11 41  1  0  0  0  0
 12 42  1  0  0  0  0
 13 14  1  0  0  0  0
 13 43  1  0  0  0  0
 13 44  1  0  0  0  0
 14 24  1  0  0  0  0
 14 15  1  0  0  0  0
 15 16  2  0  0  0  0
 15 45  1  0  0  0  0
 16 17  1  0  0  0  0
 16 58  1  0  0  0  0
 17 24  2  0  0  0  0
 17 18  1  0  0  0  0
 18 19  2  0  0  0  0
 18 46  1  0  0  0  0
 19 20  1  0  0  0  0
 19 21  1  0  0  0  0
 20 47  1  0  0  0  0
 20 48  1  0  0  0  0
 20 49  1  0  0  0  0
 21 22  1  0  0  0  0
 21 23  2  0  0  0  0
 22 50  1  0  0  0  0
 22 51  1  0  0  0  0
 22 52  1  0  0  0  0
 23 24  1  0  0  0  0
 23 53  1  0  0  0  0
 25 54  1  0  0  0  0
 25 55  1  0  0  0  0
M  CHG  1   3   1
M  CHG  1   9   1
M  CHG  1  16   1
M  END
> <s_m_source_file>
AV-unprocessed.smi

> <i_m_source_file_index>
1047

> <i_lp_mmshare_version>
43012

> <i_f3d_flags>
0

> <s_epik_input>
W0NIM11bQ0gyXU4xW0NIMl1bQ0gyXU9bQ0BIXShbQ0gyXTEpW0NIMl1bTkhdW0NIMl1bQ0BIXShbT0hdKVtDSDJdbihbY0hdbjIpYyhjMjMpW2NIXWMoW0NIM10pYyhbY0hdMylbQ0gzXQ==

> <s_epik_cmdline>
J2VwaWtfcHl0aG9uJywgJy1waCcsICc3LjAnLCAnLXRuJywgJzgnLCAnLW1hJywgJzIwMCcsICctbWV0YWxfYmluZGluZycsICctaW1hZScsICc8aW5maWxlLm1hZT4nLCAnLW9tYWUnLCAnPG91dGZpbGUubWFlPic=

> <r_epik_Ionization_Penalty>
1.6114

> <r_epik_Ionization_Penalty_Charging>
1.61139

> <r_epik_Ionization_Penalty_Neutral>
5.04732e-06

> <r_epik_State_Penalty>
1.63724

> <r_epik_Charging_Adjusted_Penalty>
3.24864

> <i_epik_Tot_Q>
3

> <i_epik_Tot_abs_Q>
3

> <r_epik_Metal_State_Penalty>
5.64594

> <b_epik_Metal_Only>
0

> <s_lp_Force_Field>
OPLS_2005

> <r_lp_Energy>
41.4775

> <b_lp_Chiralities_Consistent>
1

> <s_lp_Variant>
AV-unprocessed.smi:1047-28

> <Gold.Version>
5.8.1

> <Gold.Id.Protein>
6NUR|6NUR_protein|mol2

> <Gold.PLP.Fitness>
59.9169

> <Gold.PLP.PLP>
-47.0931

> <Gold.PLP.part.hbond>
-3.3682

> <Gold.PLP.part.metal>
0.0000

> <Gold.PLP.part.buried>
-7.8697

> <Gold.PLP.part.nonpolar>
-38.6885

> <Gold.PLP.part.repulsive>
0.1425

> <Gold.PLP.ligand.clash>
0.0000

> <Gold.PLP.ligand.torsion>
1.2318

> <Gold.PLP.Chemscore.Hbond>
5.0378

> <Gold.PLP.Chemscore.CHOScore>
0.0000

> <Gold.PLP.Chemscore.Metal>
0.0000

> <Gold.Chemscore.Hbonds>
donor molecule, donor type, donor heavy atom, donor atom, acceptor molecule, acceptor atom, score
      L1  H     3    57       P1  7948  2.00
      L1  H     9    56       P1 10175  2.00
      L1  H    12    42       P1  7957  0.88
      P1  H  7989  7998       L1    12  0.20

> <Gold.PLP.Chemscore.Internal.Correction>
0.1739

> <Gold.Rescore>
     Score         DG    S(hbond)    S(metal)    S(lipo)     H(rot)  DE(clash)    DE(int)     intcor
     21.24     -22.45       2.78        0.00     126.50       2.78       0.28       0.93       ----

> <Gold.Chemscore.Fitness>
21.2408

> <Gold.Chemscore.DG>
-22.4512

> <Gold.Chemscore.ZeroCoef>
-5.4800

> <Gold.Chemscore.Hbond>
2.7844

> <Gold.Chemscore.Metal>
0.0000

> <Gold.Chemscore.Lipo>
126.4999

> <Gold.Chemscore.Internal_Hbond>
0.0000

> <Gold.Chemscore.DEClash>
0.2845

> <Gold.Chemscore.DEInternal>
0.9259

> <Gold.Chemscore.Rot>
2.7848

> <Gold.Chemscore.Internal.Correction>
   9.000000E+99

> <Gold.Chemscore.Hbonds>
donor molecule, donor type, donor heavy atom, donor atom, acceptor molecule, acceptor atom, score
      L1  H     3    57       P1  7948  1.00
      L1  H     9    56       P1 10175  0.78
      L1  H    12    42       P1  7957  0.86
      P1  H  7989  7998       L1    12  0.03

> <Gold.Chemscore.Hbond.Weighted>
-9.2998

> <Gold.Chemscore.Metal.Weighted>
-0.0000

> <Gold.Chemscore.Lipo.Weighted>
-14.8005

> <Gold.Chemscore.Internal_Hbond.Weighted>
0.0000

> <Gold.Chemscore.DEClash.Weighted>
0.2845

> <Gold.Chemscore.DEInternal.Weighted>
0.9259

> <Gold.Chemscore.Rot.Weighted>
7.1291

> <Gold.Chemscore.Internal.Correction.Weighted>
   9.000000E+99

> <Gold.Protein.RotatedTorsions>
[ 6907 6896 6895 6894 ] final   17.68 input  -60.11 | X-H torsion
[ 7974 7965 7964 7962 ] final   34.86 input  175.53 | X-H torsion
[ 8008 7997 7996 7995 ] final  155.66 input   59.86 | X-H torsion
[ 10167 10162 10161 10158 ] final   -2.83 input  -65.29 | X-H torsion
[ 10718 10713 10712 10709 ] final -152.69 input   66.30 | X-H torsion
[ 10763 10752 10751 10750 ] final -154.39 input  -60.55 | X-H torsion
[ 11005 11000 10999 10996 ] final   21.09 input  -57.11 | X-H torsion

> <Gold.Protein.ActiveResidues>
 VAL166  LYS551  ARG553  GLY616  TRP617  ASP618  TYR619  PRO620  LYS621  CYS622 
 ASP623  PHE694  ASN695  SER759  ASP760  ASP761  ALA762  ILE779  LEU786  VAL792 
 PHE793  MET794  SER795  GLU796  ALA797  LYS798  CYS799  TRP800  GLU811  SER814 

> <Gold.Protein.RotatedAtoms>
  151.8534  135.0550  160.0461 H   0  0  0  0  0  0  0  0  0  0  0  0  # atno 6907 bound_to 6896
  152.2719  133.5386  159.5452 H   0  0  0  0  0  0  0  0  0  0  0  0  # atno 6908 bound_to 6896
  150.7155  134.0602  159.3871 H   0  0  0  0  0  0  0  0  0  0  0  0  # atno 6909 bound_to 6896
  146.1323  139.6215  142.9218 H   0  0  0  0  0  0  0  0  0  0  0  0  # atno 7974 bound_to 7965
  156.2466  140.1933  156.6836 H   0  0  0  0  0  0  0  0  0  0  0  0  # atno 8008 bound_to 7997
  154.6303  140.0596  156.9750 H   0  0  0  0  0  0  0  0  0  0  0  0  # atno 8009 bound_to 7997
  155.1721  140.3269  155.4393 H   0  0  0  0  0  0  0  0  0  0  0  0  # atno 8010 bound_to 7997
  140.6867  143.6610  150.8266 H   0  0  0  0  0  0  0  0  0  0  0  0  # atno 10167 bound_to 10162
  156.4758  130.8280  151.2508 H   0  0  0  0  0  0  0  0  0  0  0  0  # atno 10718 bound_to 10713
  154.7862  135.3191  154.7881 H   0  0  0  0  0  0  0  0  0  0  0  0  # atno 10763 bound_to 10752
  153.8580  135.6856  153.4790 H   0  0  0  0  0  0  0  0  0  0  0  0  # atno 10764 bound_to 10752
  153.1515  135.4697  154.9582 H   0  0  0  0  0  0  0  0  0  0  0  0  # atno 10765 bound_to 10752
  140.3954  134.1775  155.7663 H   0  0  0  0  0  0  0  0  0  0  0  0  # atno 11005 bound_to 11000
  145.5233  141.0431  143.2423 LP  0  0  0  0  0  0  0  0  0  0  0  0  # atno 17320 bound_to 7965
  144.7703  139.6749  143.7197 LP  0  0  0  0  0  0  0  0  0  0  0  0  # atno 17321 bound_to 7965
  140.0318  143.5435  152.2756 LP  0  0  0  0  0  0  0  0  0  0  0  0  # atno 17342 bound_to 10162
  139.6231  144.7632  151.2697 LP  0  0  0  0  0  0  0  0  0  0  0  0  # atno 17343 bound_to 10162
  157.7487  131.0061  150.3140 LP  0  0  0  0  0  0  0  0  0  0  0  0  # atno 17370 bound_to 10713
  156.3572  130.3841  149.7281 LP  0  0  0  0  0  0  0  0  0  0  0  0  # atno 17371 bound_to 10713
  141.1876  133.8278  157.1026 LP  0  0  0  0  0  0  0  0  0  0  0  0  # atno 17394 bound_to 11000
  140.0376  134.9870  157.0900 LP  0  0  0  0  0  0  0  0  0  0  0  0  # atno 17395 bound_to 11000

$$$$
