AV-unprocessed.smi:2114|AV-procd|sdf|8618|dock9
  -GOLD-   2272011363D 1   1.00000     0.00000
 Structure written by MMmdl.
 47 48  0  0  0  0  0  0  0  0  1 V2000
  156.8574  145.2966  169.1311 C   0  0  0  0  0  0  0  0  0  0  0  0
  156.0206  144.7939  168.1045 O   0  0  0  0  0  0  0  0  0  0  0  0
  155.2991  143.6402  168.5061 C   0  0  0  0  0  0  0  0  0  0  0  0
  155.8410  142.4134  167.7567 C   0  0  1  0  0  0  0  0  0  0  0  0
  155.4537  141.1048  168.4646 C   0  0  0  0  0  0  0  0  0  0  0  0
  155.3331  142.4179  166.3877 N   0  0  0  0  0  0  0  0  0  0  0  0
  155.5181  141.4416  165.4844 C   0  0  0  0  0  0  0  0  0  0  0  0
  156.1089  140.3893  165.7286 O   0  0  0  0  0  0  0  0  0  0  0  0
  154.8905  141.6776  164.1417 C   0  0  0  0  0  0  0  0  0  0  0  0
  153.9530  142.7150  163.9584 C   0  0  0  0  0  0  0  0  0  0  0  0
  153.3682  142.8950  162.6903 C   0  0  0  0  0  0  0  0  0  0  0  0
  153.7285  142.0257  161.6337 C   0  0  0  0  0  0  0  0  0  0  0  0
  153.1565  142.1913  160.3542 N   0  0  0  0  0  0  0  0  0  0  0  0
  152.4375  143.4336  160.0813 C   0  0  0  0  0  0  0  0  0  0  0  0
  152.1434  143.5652  158.5756 C   0  0  2  0  0  0  0  0  0  0  0  0
  151.2868  144.7962  158.2623 C   0  0  0  0  0  0  0  0  0  0  0  0
  151.4416  142.4064  158.1341 O   0  0  0  0  0  0  0  0  0  0  0  0
  152.2005  141.2125  158.3049 C   0  0  2  0  0  0  0  0  0  0  0  0
  151.4006  140.0471  157.7146 C   0  0  0  0  0  0  0  0  0  0  0  0
  152.4976  141.0109  159.8028 C   0  0  0  0  0  0  0  0  0  0  0  0
  154.6151  141.0165  161.8168 N   0  0  0  0  0  0  0  0  0  0  0  0
  155.1745  140.8488  163.0336 C   0  0  0  0  0  0  0  0  0  0  0  0
  157.3848  146.1809  168.7733 H   0  0  0  0  0  0  0  0  0  0  0  0
  157.6025  144.5581  169.4297 H   0  0  0  0  0  0  0  0  0  0  0  0
  156.2765  145.5832  170.0086 H   0  0  0  0  0  0  0  0  0  0  0  0
  155.4136  143.4985  169.5821 H   0  0  0  0  0  0  0  0  0  0  0  0
  154.2339  143.7696  168.3057 H   0  0  0  0  0  0  0  0  0  0  0  0
  156.9300  142.4851  167.7349 H   0  0  0  0  0  0  0  0  0  0  0  0
  155.8325  141.0864  169.4868 H   0  0  0  0  0  0  0  0  0  0  0  0
  155.8667  140.2374  167.9488 H   0  0  0  0  0  0  0  0  0  0  0  0
  154.3711  140.9820  168.5086 H   0  0  0  0  0  0  0  0  0  0  0  0
  154.8152  143.2359  166.1006 H   0  0  0  0  0  0  0  0  0  0  0  0
  153.6818  143.3703  164.7735 H   0  0  0  0  0  0  0  0  0  0  0  0
  152.6431  143.6824  162.5477 H   0  0  0  0  0  0  0  0  0  0  0  0
  151.5060  143.4418  160.6494 H   0  0  0  0  0  0  0  0  0  0  0  0
  153.0291  144.2888  160.4107 H   0  0  0  0  0  0  0  0  0  0  0  0
  153.0816  143.6465  158.0237 H   0  0  0  0  0  0  0  0  0  0  0  0
  151.7879  145.7126  158.5748 H   0  0  0  0  0  0  0  0  0  0  0  0
  150.3254  144.7485  158.7745 H   0  0  0  0  0  0  0  0  0  0  0  0
  151.0913  144.8729  157.1926 H   0  0  0  0  0  0  0  0  0  0  0  0
  153.1384  141.3024  157.7536 H   0  0  0  0  0  0  0  0  0  0  0  0
  151.9477  139.1086  157.8072 H   0  0  0  0  0  0  0  0  0  0  0  0
  151.1986  140.2110  156.6559 H   0  0  0  0  0  0  0  0  0  0  0  0
  150.4428  139.9286  158.2220 H   0  0  0  0  0  0  0  0  0  0  0  0
  153.1054  140.1161  159.9288 H   0  0  0  0  0  0  0  0  0  0  0  0
  151.5691  140.8424  160.3500 H   0  0  0  0  0  0  0  0  0  0  0  0
  155.8650  140.0221  163.1160 H   0  0  0  0  0  0  0  0  0  0  0  0
  1  2  1  0  0  0  0
  1 23  1  0  0  0  0
  1 24  1  0  0  0  0
  1 25  1  0  0  0  0
  2  3  1  0  0  0  0
  3  4  1  0  0  0  0
  3 26  1  0  0  0  0
  3 27  1  0  0  0  0
  4  5  1  0  0  0  0
  4  6  1  0  0  0  0
  4 28  1  0  0  0  0
  5 29  1  0  0  0  0
  5 30  1  0  0  0  0
  5 31  1  0  0  0  0
  6  7  1  0  0  0  0
  6 32  1  0  0  0  0
  7  8  2  0  0  0  0
  7  9  1  0  0  0  0
  9 22  1  0  0  0  0
  9 10  2  0  0  0  0
 10 11  1  0  0  0  0
 10 33  1  0  0  0  0
 11 12  2  0  0  0  0
 11 34  1  0  0  0  0
 12 13  1  0  0  0  0
 12 21  1  0  0  0  0
 13 20  1  0  0  0  0
 13 14  1  0  0  0  0
 14 15  1  0  0  0  0
 14 35  1  0  0  0  0
 14 36  1  0  0  0  0
 15 16  1  0  0  0  0
 15 17  1  0  0  0  0
 15 37  1  0  0  0  0
 16 38  1  0  0  0  0
 16 39  1  0  0  0  0
 16 40  1  0  0  0  0
 17 18  1  0  0  0  0
 18 19  1  0  0  0  0
 18 20  1  0  0  0  0
 18 41  1  0  0  0  0
 19 42  1  0  0  0  0
 19 43  1  0  0  0  0
 19 44  1  0  0  0  0
 20 45  1  0  0  0  0
 20 46  1  0  0  0  0
 21 22  2  0  0  0  0
 22 47  1  0  0  0  0
M  END
> <s_m_source_file>
AV-unprocessed.smi

> <i_m_source_file_index>
2114

> <i_lp_mmshare_version>
43012

> <i_f3d_flags>
0

> <s_epik_input>
W0NIM11PW0NIMl1bQ0BIXShbQ0gzXSlbTkhdQyg9TyljMVtjSF1bY0hdYyhuW2NIXTEpTjJbQ0gyXVtDQEBIXShbQ0gzXSlPW0NAQEhdKFtDSDNdKVtDSDJdMg==

> <s_epik_cmdline>
J2VwaWtfcHl0aG9uJywgJy1waCcsICc3LjAnLCAnLXRuJywgJzgnLCAnLW1hJywgJzIwMCcsICctbWV0YWxfYmluZGluZycsICctaW1hZScsICc8aW5maWxlLm1hZT4nLCAnLW9tYWUnLCAnPG91dGZpbGUubWFlPic=

> <r_lp_tautomer_probability>
1

> <r_epik_Ionization_Penalty>
1.92915e-05

> <r_epik_Ionization_Penalty_Charging>
0

> <r_epik_Ionization_Penalty_Neutral>
1.92915e-05

> <r_epik_State_Penalty>
-0

> <r_epik_Charging_Adjusted_Penalty>
0

> <i_epik_Tot_Q>
0

> <i_epik_Tot_abs_Q>
0

> <r_epik_Metal_State_Penalty>
-0

> <b_epik_Metal_Only>
0

> <s_lp_Force_Field>
OPLS_2005

> <r_lp_Energy>
18.3403

> <b_lp_Chiralities_Consistent>
1

> <s_lp_Variant>
AV-unprocessed.smi:2114-2

> <Gold.Version>
5.8.1

> <Gold.Id.Protein>
6NUR|6NUR_protein|mol2

> <Gold.PLP.Fitness>
45.2633

> <Gold.PLP.PLP>
-46.5411

> <Gold.PLP.part.hbond>
-1.8679

> <Gold.PLP.part.metal>
0.0000

> <Gold.PLP.part.buried>
-4.3300

> <Gold.PLP.part.nonpolar>
-39.4253

> <Gold.PLP.part.repulsive>
0.2190

> <Gold.PLP.ligand.clash>
0.0000

> <Gold.PLP.ligand.torsion>
0.8108

> <Gold.PLP.Chemscore.Hbond>
0.0000

> <Gold.PLP.Chemscore.CHOScore>
0.0000

> <Gold.PLP.Chemscore.Metal>
0.0000

> <Gold.PLP.Chemscore.Internal.Correction>
0.3438

> <Gold.Rescore>
     Score         DG    S(hbond)    S(metal)    S(lipo)     H(rot)  DE(clash)    DE(int)     intcor
     13.59     -15.60       0.00        0.00     119.78       1.52       0.05       1.96       ----

> <Gold.Chemscore.Fitness>
13.5852

> <Gold.Chemscore.DG>
-15.5961

> <Gold.Chemscore.ZeroCoef>
-5.4800

> <Gold.Chemscore.Hbond>
0.0000

> <Gold.Chemscore.Metal>
0.0000

> <Gold.Chemscore.Lipo>
119.7780

> <Gold.Chemscore.Internal_Hbond>
0.0000

> <Gold.Chemscore.DEClash>
0.0488

> <Gold.Chemscore.DEInternal>
1.9620

> <Gold.Chemscore.Rot>
1.5226

> <Gold.Chemscore.Internal.Correction>
   9.000000E+99

> <Gold.Chemscore.Hbond.Weighted>
-0.0000

> <Gold.Chemscore.Metal.Weighted>
-0.0000

> <Gold.Chemscore.Lipo.Weighted>
-14.0140

> <Gold.Chemscore.Internal_Hbond.Weighted>
0.0000

> <Gold.Chemscore.DEClash.Weighted>
0.0488

> <Gold.Chemscore.DEInternal.Weighted>
1.9620

> <Gold.Chemscore.Rot.Weighted>
3.8980

> <Gold.Chemscore.Internal.Correction.Weighted>
   9.000000E+99

> <Gold.Protein.RotatedTorsions>
[ 6907 6896 6895 6894 ] final -177.40 input  -60.11 | X-H torsion
[ 7974 7965 7964 7962 ] final  133.53 input  175.53 | X-H torsion
[ 8008 7997 7996 7995 ] final   39.83 input   59.86 | X-H torsion
[ 10167 10162 10161 10158 ] final   63.37 input  -65.29 | X-H torsion
[ 10718 10713 10712 10709 ] final  163.03 input   66.30 | X-H torsion
[ 10763 10752 10751 10750 ] final -101.09 input  -60.55 | X-H torsion
[ 11005 11000 10999 10996 ] final   38.18 input  -57.11 | X-H torsion

> <Gold.Protein.ActiveResidues>
 VAL166  LYS551  ARG553  GLY616  TRP617  ASP618  TYR619  PRO620  LYS621  CYS622 
 ASP623  PHE694  ASN695  SER759  ASP760  ASP761  ALA762  ILE779  LEU786  VAL792 
 PHE793  MET794  SER795  GLU796  ALA797  LYS798  CYS799  TRP800  GLU811  SER814 

> <Gold.Protein.RotatedAtoms>
  151.6203  133.3339  159.3086 H   0  0  0  0  0  0  0  0  0  0  0  0  # atno 6907 bound_to 6896
  150.8109  134.7267  159.6699 H   0  0  0  0  0  0  0  0  0  0  0  0  # atno 6908 bound_to 6896
  152.4206  134.5967  160.0040 H   0  0  0  0  0  0  0  0  0  0  0  0  # atno 6909 bound_to 6896
  144.9855  139.4460  143.5365 H   0  0  0  0  0  0  0  0  0  0  0  0  # atno 7974 bound_to 7965
  155.2430  140.3347  155.4290 H   0  0  0  0  0  0  0  0  0  0  0  0  # atno 8008 bound_to 7997
  156.2248  140.1824  156.7435 H   0  0  0  0  0  0  0  0  0  0  0  0  # atno 8009 bound_to 7997
  154.5881  140.0642  156.9185 H   0  0  0  0  0  0  0  0  0  0  0  0  # atno 8010 bound_to 7997
  140.1338  144.4618  150.6850 H   0  0  0  0  0  0  0  0  0  0  0  0  # atno 10167 bound_to 10162
  157.1142  131.0476  151.2443 H   0  0  0  0  0  0  0  0  0  0  0  0  # atno 10718 bound_to 10713
  154.7630  135.4911  153.9501 H   0  0  0  0  0  0  0  0  0  0  0  0  # atno 10763 bound_to 10752
  153.1274  135.6745  153.9242 H   0  0  0  0  0  0  0  0  0  0  0  0  # atno 10764 bound_to 10752
  153.8955  135.3116  155.3427 H   0  0  0  0  0  0  0  0  0  0  0  0  # atno 10765 bound_to 10752
  140.2152  134.3707  155.8030 H   0  0  0  0  0  0  0  0  0  0  0  0  # atno 11005 bound_to 11000
  146.3419  139.9155  142.8774 LP  0  0  0  0  0  0  0  0  0  0  0  0  # atno 17320 bound_to 7965
  145.2359  140.9991  143.3964 LP  0  0  0  0  0  0  0  0  0  0  0  0  # atno 17321 bound_to 7965
  140.6801  143.2323  151.5406 LP  0  0  0  0  0  0  0  0  0  0  0  0  # atno 17342 bound_to 10162
  139.5506  144.2405  152.1523 LP  0  0  0  0  0  0  0  0  0  0  0  0  # atno 17343 bound_to 10162
  157.4532  130.7610  149.7170 LP  0  0  0  0  0  0  0  0  0  0  0  0  # atno 17370 bound_to 10713
  155.9843  130.3992  150.3318 LP  0  0  0  0  0  0  0  0  0  0  0  0  # atno 17371 bound_to 10713
  141.2225  133.7164  156.8484 LP  0  0  0  0  0  0  0  0  0  0  0  0  # atno 17394 bound_to 11000
  140.1908  134.8967  157.3058 LP  0  0  0  0  0  0  0  0  0  0  0  0  # atno 17395 bound_to 11000

$$$$
