AV-unprocessed.smi:2562|AV-procd|sdf|10045|dock3
  -GOLD-   2272014 93D 1   1.00000     0.00000
 Structure written by MMmdl.
 31 32  0  0  0  0  0  0  0  0  2 V2000
  153.3794  141.7797  160.8916 C   0  0  0  0  0  0  0  0  0  0  0  0
  152.4289  142.1255  159.7403 C   0  0  0  0  0  0  0  0  0  0  0  0
  152.0524  140.8988  158.8968 C   0  0  0  0  0  0  0  0  0  0  0  0
  151.2651  141.2699  157.6838 C   0  0  0  0  0  0  0  0  0  0  0  0
  150.8699  142.5241  157.4740 N   0  0  0  0  0  0  0  0  0  0  0  0
  150.1681  142.4088  156.3272 N   0  0  0  0  0  0  0  0  0  0  0  0
  150.1666  141.1327  155.9323 C   0  0  0  0  0  0  0  0  0  0  0  0
  149.4595  140.6939  154.6851 C   0  0  1  0  0  0  0  0  0  0  0  0
  149.5348  139.1750  154.4177 C   0  0  0  0  0  0  0  0  0  0  0  0
  148.7436  138.8332  153.2197 N   0  3  0  0  0  0  0  0  0  0  0  0
  147.3509  139.3074  153.3396 C   0  0  0  0  0  0  0  0  0  0  0  0
  147.3289  140.8128  153.6583 C   0  0  0  0  0  0  0  0  0  0  0  0
  148.0922  141.0691  154.8333 O   0  0  0  0  0  0  0  0  0  0  0  0
  150.8513  140.3494  156.7614 N   0  0  0  0  0  0  0  0  0  0  0  0
  149.7188  143.1931  155.8763 H   0  0  0  0  0  0  0  0  0  0  0  0
  153.6252  142.6691  161.4722 H   0  0  0  0  0  0  0  0  0  0  0  0
  154.3127  141.3564  160.5192 H   0  0  0  0  0  0  0  0  0  0  0  0
  152.9284  141.0548  161.5697 H   0  0  0  0  0  0  0  0  0  0  0  0
  151.5254  142.5810  160.1474 H   0  0  0  0  0  0  0  0  0  0  0  0
  152.8946  142.8786  159.1035 H   0  0  0  0  0  0  0  0  0  0  0  0
  152.9532  140.3660  158.5890 H   0  0  0  0  0  0  0  0  0  0  0  0
  151.4691  140.1985  159.4960 H   0  0  0  0  0  0  0  0  0  0  0  0
  149.8968  141.2398  153.8470 H   0  0  0  0  0  0  0  0  0  0  0  0
  150.5671  138.8579  154.2674 H   0  0  0  0  0  0  0  0  0  0  0  0
  149.1442  138.6154  155.2692 H   0  0  0  0  0  0  0  0  0  0  0  0
  149.1682  139.2726  152.4153 H   0  0  0  0  0  0  0  0  0  0  0  0
  146.8176  139.1028  152.4112 H   0  0  0  0  0  0  0  0  0  0  0  0
  146.8488  138.7475  154.1297 H   0  0  0  0  0  0  0  0  0  0  0  0
  147.7232  141.3934  152.8226 H   0  0  0  0  0  0  0  0  0  0  0  0
  146.3042  141.1471  153.8221 H   0  0  0  0  0  0  0  0  0  0  0  0
  148.7486  137.8316  153.0876 H   0  0  0  0  0  0  0  0  0  0  0  0
  1  2  1  0  0  0  0
  1 16  1  0  0  0  0
  1 17  1  0  0  0  0
  1 18  1  0  0  0  0
  2  3  1  0  0  0  0
  2 19  1  0  0  0  0
  2 20  1  0  0  0  0
  3  4  1  0  0  0  0
  3 21  1  0  0  0  0
  3 22  1  0  0  0  0
  4 14  1  0  0  0  0
  4  5  2  0  0  0  0
  5  6  1  0  0  0  0
  6 15  1  0  0  0  0
  6  7  1  0  0  0  0
  7  8  1  0  0  0  0
  7 14  2  0  0  0  0
  8 13  1  0  0  0  0
  8  9  1  0  0  0  0
  8 23  1  0  0  0  0
  9 10  1  0  0  0  0
  9 24  1  0  0  0  0
  9 25  1  0  0  0  0
 10 11  1  0  0  0  0
 10 26  1  0  0  0  0
 10 31  1  0  0  0  0
 11 12  1  0  0  0  0
 11 27  1  0  0  0  0
 11 28  1  0  0  0  0
 12 13  1  0  0  0  0
 12 29  1  0  0  0  0
 12 30  1  0  0  0  0
M  CHG  1  10   1
M  END
> <s_m_source_file>
AV-unprocessed.smi

> <i_m_source_file_index>
2562

> <i_lp_mmshare_version>
43012

> <i_f3d_flags>
0

> <s_epik_input>
W0NIM11bQ0gyXVtDSDJdYzFuW25IXWMobjEpW0NAQEhdMltDSDJdW05IXVtDSDJdW0NIMl1PMg==

> <s_epik_cmdline>
J2VwaWtfcHl0aG9uJywgJy1waCcsICc3LjAnLCAnLXRuJywgJzgnLCAnLW1hJywgJzIwMCcsICctbWV0YWxfYmluZGluZycsICctaW1hZScsICc8aW5maWxlLm1hZT4nLCAnLW9tYWUnLCAnPG91dGZpbGUubWFlPic=

> <r_epik_Ionization_Penalty>
0.162344

> <r_epik_Ionization_Penalty_Charging>
0.125708

> <r_epik_Ionization_Penalty_Neutral>
0.0366364

> <r_epik_State_Penalty>
0.771409

> <r_epik_Charging_Adjusted_Penalty>
0.897117

> <i_epik_Tot_Q>
1

> <i_epik_Tot_abs_Q>
1

> <r_epik_Metal_State_Penalty>
0.893868

> <b_epik_Metal_Only>
0

> <s_lp_Force_Field>
OPLS_2005

> <r_lp_Energy>
12.5305

> <b_lp_Chiralities_Consistent>
1

> <s_lp_Variant>
AV-unprocessed.smi:2562-4

> <Gold.Version>
5.8.1

> <Gold.Id.Protein>
6NUR|6NUR_protein|mol2

> <Gold.PLP.Fitness>
40.5601

> <Gold.PLP.PLP>
-28.7970

> <Gold.PLP.part.hbond>
-3.0000

> <Gold.PLP.part.metal>
0.0000

> <Gold.PLP.part.buried>
-4.9709

> <Gold.PLP.part.nonpolar>
-22.4743

> <Gold.PLP.part.repulsive>
0.3904

> <Gold.PLP.ligand.clash>
0.0000

> <Gold.PLP.ligand.torsion>
0.0361

> <Gold.PLP.Chemscore.Hbond>
3.9433

> <Gold.PLP.Chemscore.CHOScore>
0.0000

> <Gold.PLP.Chemscore.Metal>
0.0000

> <Gold.Chemscore.Hbonds>
donor molecule, donor type, donor heavy atom, donor atom, acceptor molecule, acceptor atom, score
      L1  H     6    15       P1  8028  1.00
      L1  H    10    26       P1  7957  0.99
      L1  H    10    31       P1  7948  1.95

> <Gold.PLP.Chemscore.Internal.Correction>
0.0056

> <Gold.Rescore>
     Score         DG    S(hbond)    S(metal)    S(lipo)     H(rot)  DE(clash)    DE(int)     intcor
     17.89     -17.92       2.93        0.00      55.76       1.51       0.00       0.03       ----

> <Gold.Chemscore.Fitness>
17.8928

> <Gold.Chemscore.DG>
-17.9222

> <Gold.Chemscore.ZeroCoef>
-5.4800

> <Gold.Chemscore.Hbond>
2.9304

> <Gold.Chemscore.Metal>
0.0000

> <Gold.Chemscore.Lipo>
55.7604

> <Gold.Chemscore.Internal_Hbond>
0.0000

> <Gold.Chemscore.DEClash>
0.0038

> <Gold.Chemscore.DEInternal>
0.0256

> <Gold.Chemscore.Rot>
1.5115

> <Gold.Chemscore.Internal.Correction>
   9.000000E+99

> <Gold.Chemscore.Hbonds>
donor molecule, donor type, donor heavy atom, donor atom, acceptor molecule, acceptor atom, score
      L1  H     6    15       P1  8028  1.00
      L1  H    10    26       P1  7957  0.92
      L1  H    10    31       P1  7948  0.90

> <Gold.Chemscore.Hbond.Weighted>
-9.7877

> <Gold.Chemscore.Metal.Weighted>
-0.0000

> <Gold.Chemscore.Lipo.Weighted>
-6.5240

> <Gold.Chemscore.Internal_Hbond.Weighted>
0.0000

> <Gold.Chemscore.DEClash.Weighted>
0.0038

> <Gold.Chemscore.DEInternal.Weighted>
0.0256

> <Gold.Chemscore.Rot.Weighted>
3.8695

> <Gold.Chemscore.Internal.Correction.Weighted>
   9.000000E+99

> <Gold.Protein.RotatedTorsions>
[ 6907 6896 6895 6894 ] final  -57.65 input  -60.11 | X-H torsion
[ 7974 7965 7964 7962 ] final   -5.94 input  175.53 | X-H torsion
[ 8008 7997 7996 7995 ] final   83.53 input   59.86 | X-H torsion
[ 10167 10162 10161 10158 ] final  111.88 input  -65.29 | X-H torsion
[ 10718 10713 10712 10709 ] final   27.63 input   66.30 | X-H torsion
[ 10763 10752 10751 10750 ] final -111.39 input  -60.55 | X-H torsion
[ 11005 11000 10999 10996 ] final  -99.89 input  -57.11 | X-H torsion

> <Gold.Protein.ActiveResidues>
 VAL166  LYS551  ARG553  GLY616  TRP617  ASP618  TYR619  PRO620  LYS621  CYS622 
 ASP623  PHE694  ASN695  SER759  ASP760  ASP761  ALA762  ILE779  LEU786  VAL792 
 PHE793  MET794  SER795  GLU796  ALA797  LYS798  CYS799  TRP800  GLU811  SER814 

> <Gold.Protein.RotatedAtoms>
  150.8069  134.7199  159.6651 H   0  0  0  0  0  0  0  0  0  0  0  0  # atno 6907 bound_to 6896
  152.4188  134.5989  160.0004 H   0  0  0  0  0  0  0  0  0  0  0  0  # atno 6908 bound_to 6896
  151.6210  133.3302  159.3124 H   0  0  0  0  0  0  0  0  0  0  0  0  # atno 6909 bound_to 6896
  146.2342  140.2096  142.8335 H   0  0  0  0  0  0  0  0  0  0  0  0  # atno 7974 bound_to 7965
  155.9252  140.3418  155.6204 H   0  0  0  0  0  0  0  0  0  0  0  0  # atno 8008 bound_to 7997
  155.7225  140.0785  157.2343 H   0  0  0  0  0  0  0  0  0  0  0  0  # atno 8009 bound_to 7997
  154.4076  140.1603  156.2406 H   0  0  0  0  0  0  0  0  0  0  0  0  # atno 8010 bound_to 7997
  139.6578  144.7129  151.1924 H   0  0  0  0  0  0  0  0  0  0  0  0  # atno 10167 bound_to 10162
  157.2227  130.6986  149.6277 H   0  0  0  0  0  0  0  0  0  0  0  0  # atno 10718 bound_to 10713
  154.8297  135.4529  154.1031 H   0  0  0  0  0  0  0  0  0  0  0  0  # atno 10763 bound_to 10752
  153.2315  135.6906  153.7891 H   0  0  0  0  0  0  0  0  0  0  0  0  # atno 10764 bound_to 10752
  153.7272  135.3332  155.3255 H   0  0  0  0  0  0  0  0  0  0  0  0  # atno 10765 bound_to 10752
  141.1292  133.8356  157.1030 H   0  0  0  0  0  0  0  0  0  0  0  0  # atno 11005 bound_to 11000
  144.9717  140.8375  143.5451 LP  0  0  0  0  0  0  0  0  0  0  0  0  # atno 17320 bound_to 7965
  145.2078  139.2219  143.5159 LP  0  0  0  0  0  0  0  0  0  0  0  0  # atno 17321 bound_to 7965
  140.7567  143.6044  150.8668 LP  0  0  0  0  0  0  0  0  0  0  0  0  # atno 17342 bound_to 10162
  139.9698  143.6069  152.2977 LP  0  0  0  0  0  0  0  0  0  0  0  0  # atno 17343 bound_to 10162
  155.9681  130.4514  150.5736 LP  0  0  0  0  0  0  0  0  0  0  0  0  # atno 17370 bound_to 10713
  157.3559  131.0741  151.1675 LP  0  0  0  0  0  0  0  0  0  0  0  0  # atno 17371 bound_to 10713
  140.0321  134.9896  157.0801 LP  0  0  0  0  0  0  0  0  0  0  0  0  # atno 17394 bound_to 11000
  140.4268  134.1823  155.7166 LP  0  0  0  0  0  0  0  0  0  0  0  0  # atno 17395 bound_to 11000

$$$$
