AV-unprocessed.smi:2873|AV-procd|sdf|11037|dock2
  -GOLD-   2272015503D 1   1.00000     0.00000
 Structure written by MMmdl.
 40 42  0  0  0  0  0  0  0  0  1 V2000
  145.2935  135.7496  150.5019 C   0  0  0  0  0  0  0  0  0  0  0  0
  145.2129  134.8147  151.7266 C   0  0  2  0  0  0  0  0  0  0  0  0
  145.3508  135.6196  153.0413 C   0  0  0  0  0  0  0  0  0  0  0  0
  146.6467  136.2831  153.1695 N   0  0  0  0  0  0  0  0  0  0  0  0
  146.9470  137.2533  154.0440 C   0  0  0  0  0  0  0  0  0  0  0  0
  146.1372  137.7295  154.8383 O   0  0  0  0  0  0  0  0  0  0  0  0
  148.2314  137.6283  153.9229 N   0  0  0  0  0  0  0  0  0  0  0  0
  148.9564  138.5769  154.6930 C   0  0  0  0  0  0  0  0  0  0  0  0
  150.0686  139.2177  154.1082 C   0  0  0  0  0  0  0  0  0  0  0  0
  150.8155  140.1167  154.7836 N   0  0  0  0  0  0  0  0  0  0  0  0
  150.4500  140.3801  156.0411 C   0  0  0  0  0  0  0  0  0  0  0  0
  151.3042  141.3470  156.8009 C   0  0  0  0  0  0  0  0  0  0  0  0
  151.1338  141.5251  158.2958 C   0  0  0  0  0  0  0  0  0  0  0  0
  150.7178  142.6266  157.3613 C   0  0  0  0  0  0  0  0  0  0  0  0
  149.4349  139.8235  156.7078 N   0  0  0  0  0  0  0  0  0  0  0  0
  148.6818  138.9232  156.0395 C   0  0  0  0  0  0  0  0  0  0  0  0
  146.2728  133.6965  151.6237 C   0  0  0  0  0  0  0  0  0  0  0  0
  145.6965  132.5729  150.7608 C   0  0  0  0  0  0  0  0  0  0  0  0
  144.2672  132.3525  151.2498 C   0  0  0  0  0  0  0  0  0  0  0  0
  143.6002  133.9735  151.7021 S   0  0  0  0  0  0  0  0  0  0  0  0
  146.2696  136.2285  150.4225 H   0  0  0  0  0  0  0  0  0  0  0  0
  144.5429  136.5385  150.5594 H   0  0  0  0  0  0  0  0  0  0  0  0
  145.1231  135.2082  149.5711 H   0  0  0  0  0  0  0  0  0  0  0  0
  144.5856  136.3956  153.0761 H   0  0  0  0  0  0  0  0  0  0  0  0
  145.1587  134.9780  153.9031 H   0  0  0  0  0  0  0  0  0  0  0  0
  147.3781  135.9614  152.5525 H   0  0  0  0  0  0  0  0  0  0  0  0
  148.7510  137.1923  153.1753 H   0  0  0  0  0  0  0  0  0  0  0  0
  150.3645  139.0076  153.0907 H   0  0  0  0  0  0  0  0  0  0  0  0
  152.3138  141.3857  156.3960 H   0  0  0  0  0  0  0  0  0  0  0  0
  150.3432  140.9622  158.7883 H   0  0  0  0  0  0  0  0  0  0  0  0
  152.0335  141.6803  158.8876 H   0  0  0  0  0  0  0  0  0  0  0  0
  151.3392  143.5190  157.3267 H   0  0  0  0  0  0  0  0  0  0  0  0
  149.6507  142.7965  157.2313 H   0  0  0  0  0  0  0  0  0  0  0  0
  147.8801  138.4798  156.6083 H   0  0  0  0  0  0  0  0  0  0  0  0
  147.2223  134.0621  151.2313 H   0  0  0  0  0  0  0  0  0  0  0  0
  146.4796  133.2896  152.6144 H   0  0  0  0  0  0  0  0  0  0  0  0
  145.6880  132.8764  149.7135 H   0  0  0  0  0  0  0  0  0  0  0  0
  146.2915  131.6617  150.8284 H   0  0  0  0  0  0  0  0  0  0  0  0
  143.6444  131.8652  150.4993 H   0  0  0  0  0  0  0  0  0  0  0  0
  144.2699  131.7250  152.1416 H   0  0  0  0  0  0  0  0  0  0  0  0
  1  2  1  0  0  0  0
  1 21  1  0  0  0  0
  1 22  1  0  0  0  0
  1 23  1  0  0  0  0
  2 20  1  0  0  0  0
  2  3  1  0  0  0  0
  2 17  1  0  0  0  0
  3  4  1  0  0  0  0
  3 24  1  0  0  0  0
  3 25  1  0  0  0  0
  4  5  1  0  0  0  0
  4 26  1  0  0  0  0
  5  6  2  0  0  0  0
  5  7  1  0  0  0  0
  7  8  1  0  0  0  0
  7 27  1  0  0  0  0
  8 16  1  0  0  0  0
  8  9  2  0  0  0  0
  9 10  1  0  0  0  0
  9 28  1  0  0  0  0
 10 11  2  0  0  0  0
 11 12  1  0  0  0  0
 11 15  1  0  0  0  0
 12 14  1  0  0  0  0
 12 13  1  0  0  0  0
 12 29  1  0  0  0  0
 13 14  1  0  0  0  0
 13 30  1  0  0  0  0
 13 31  1  0  0  0  0
 14 32  1  0  0  0  0
 14 33  1  0  0  0  0
 15 16  2  0  0  0  0
 16 34  1  0  0  0  0
 17 18  1  0  0  0  0
 17 35  1  0  0  0  0
 17 36  1  0  0  0  0
 18 19  1  0  0  0  0
 18 37  1  0  0  0  0
 18 38  1  0  0  0  0
 19 20  1  0  0  0  0
 19 39  1  0  0  0  0
 19 40  1  0  0  0  0
M  END
> <s_m_source_file>
AV-unprocessed.smi

> <i_m_source_file_index>
2873

> <i_lp_mmshare_version>
43012

> <i_f3d_flags>
0

> <s_epik_input>
UzFbQ0gyXVtDSDJdW0NIMl1bQ0BAXTEoW0NIM10pW0NIMl1bTkhdQyg9TylbTkhdYzJbY0hdbmMobltjSF0yKVtDSF0zW0NIMl1bQ0gyXTM=

> <s_epik_cmdline>
J2VwaWtfcHl0aG9uJywgJy1waCcsICc3LjAnLCAnLXRuJywgJzgnLCAnLW1hJywgJzIwMCcsICctbWV0YWxfYmluZGluZycsICctaW1hZScsICc8aW5maWxlLm1hZT4nLCAnLW9tYWUnLCAnPG91dGZpbGUubWFlPic=

> <r_lp_tautomer_probability>
1

> <r_epik_Ionization_Penalty>
2.48741e-05

> <r_epik_Ionization_Penalty_Charging>
0

> <r_epik_Ionization_Penalty_Neutral>
2.48741e-05

> <r_epik_State_Penalty>
-0

> <r_epik_Charging_Adjusted_Penalty>
0

> <i_epik_Tot_Q>
0

> <i_epik_Tot_abs_Q>
0

> <r_epik_Metal_State_Penalty>
-0

> <b_epik_Metal_Only>
0

> <s_lp_Force_Field>
OPLS_2005

> <r_lp_Energy>
11.3468

> <b_lp_Chiralities_Consistent>
1

> <s_lp_Variant>
AV-unprocessed.smi:2873-2

> <Gold.Version>
5.8.1

> <Gold.Id.Protein>
6NUR|6NUR_protein|mol2

> <Gold.PLP.Fitness>
42.4066

> <Gold.PLP.PLP>
-30.9725

> <Gold.PLP.part.hbond>
-3.0000

> <Gold.PLP.part.metal>
0.0000

> <Gold.PLP.part.buried>
-3.0326

> <Gold.PLP.part.nonpolar>
-24.5552

> <Gold.PLP.part.repulsive>
0.1244

> <Gold.PLP.ligand.clash>
0.0000

> <Gold.PLP.ligand.torsion>
0.3360

> <Gold.PLP.Chemscore.Hbond>
2.9920

> <Gold.PLP.Chemscore.CHOScore>
0.9949

> <Gold.PLP.Chemscore.Metal>
0.0000

> <Gold.Chemscore.Hbonds>
donor molecule, donor type, donor heavy atom, donor atom, acceptor molecule, acceptor atom, score
      L1  H     4    26       P1  7948  0.99
      L1  H     7    27       P1  7948  1.00
      P1  H  7989  7998       L1    10  1.00
      L1  C     9    28       P1  7957  0.97

> <Gold.PLP.Chemscore.Internal.Correction>
0.1454

> <Gold.Rescore>
     Score         DG    S(hbond)    S(metal)    S(lipo)     H(rot)  DE(clash)    DE(int)     intcor
     17.43     -18.39       2.35        0.00      72.85       1.35       0.03       0.93       ----

> <Gold.Chemscore.Fitness>
17.4338

> <Gold.Chemscore.DG>
-18.3874

> <Gold.Chemscore.ZeroCoef>
-5.4800

> <Gold.Chemscore.Hbond>
2.3475

> <Gold.Chemscore.Metal>
0.0000

> <Gold.Chemscore.Lipo>
72.8470

> <Gold.Chemscore.Internal_Hbond>
0.0000

> <Gold.Chemscore.DEClash>
0.0262

> <Gold.Chemscore.DEInternal>
0.9274

> <Gold.Chemscore.Rot>
1.3501

> <Gold.Chemscore.Internal.Correction>
   9.000000E+99

> <Gold.Chemscore.Hbonds>
donor molecule, donor type, donor heavy atom, donor atom, acceptor molecule, acceptor atom, score
      L1  H     4    26       P1  7948  0.93
      L1  H     7    27       P1  7948  0.98
      P1  H  7989  7998       L1    10  0.30

> <Gold.Chemscore.Hbond.Weighted>
-7.8406

> <Gold.Chemscore.Metal.Weighted>
-0.0000

> <Gold.Chemscore.Lipo.Weighted>
-8.5231

> <Gold.Chemscore.Internal_Hbond.Weighted>
0.0000

> <Gold.Chemscore.DEClash.Weighted>
0.0262

> <Gold.Chemscore.DEInternal.Weighted>
0.9274

> <Gold.Chemscore.Rot.Weighted>
3.4563

> <Gold.Chemscore.Internal.Correction.Weighted>
   9.000000E+99

> <Gold.Protein.RotatedTorsions>
[ 6907 6896 6895 6894 ] final  -25.68 input  -60.11 | X-H torsion
[ 7974 7965 7964 7962 ] final -162.15 input  175.53 | X-H torsion
[ 8008 7997 7996 7995 ] final   29.72 input   59.86 | X-H torsion
[ 10167 10162 10161 10158 ] final  116.42 input  -65.29 | X-H torsion
[ 10718 10713 10712 10709 ] final   36.62 input   66.30 | X-H torsion
[ 10763 10752 10751 10750 ] final -145.55 input  -60.55 | X-H torsion
[ 11005 11000 10999 10996 ] final  -51.39 input  -57.11 | X-H torsion

> <Gold.Protein.ActiveResidues>
 VAL166  LYS551  ARG553  GLY616  TRP617  ASP618  TYR619  PRO620  LYS621  CYS622 
 ASP623  PHE694  ASN695  SER759  ASP760  ASP761  ALA762  ILE779  LEU786  VAL792 
 PHE793  MET794  SER795  GLU796  ALA797  LYS798  CYS799  TRP800  GLU811  SER814 

> <Gold.Protein.RotatedAtoms>
  151.1717  135.0321  159.8754 H   0  0  0  0  0  0  0  0  0  0  0  0  # atno 6907 bound_to 6896
  152.5448  134.1163  159.8390 H   0  0  0  0  0  0  0  0  0  0  0  0  # atno 6908 bound_to 6896
  151.1270  133.5017  159.2632 H   0  0  0  0  0  0  0  0  0  0  0  0  # atno 6909 bound_to 6896
  144.7367  140.3295  143.6156 H   0  0  0  0  0  0  0  0  0  0  0  0  # atno 7974 bound_to 7965
  155.0790  140.3208  155.4607 H   0  0  0  0  0  0  0  0  0  0  0  0  # atno 8008 bound_to 7997
  156.2772  140.2098  156.5864 H   0  0  0  0  0  0  0  0  0  0  0  0  # atno 8009 bound_to 7997
  154.6993  140.0508  157.0430 H   0  0  0  0  0  0  0  0  0  0  0  0  # atno 8010 bound_to 7997
  139.6248  144.7107  151.2556 H   0  0  0  0  0  0  0  0  0  0  0  0  # atno 10167 bound_to 10162
  157.3371  130.7528  149.6886 H   0  0  0  0  0  0  0  0  0  0  0  0  # atno 10718 bound_to 10713
  154.8378  135.3410  154.6521 H   0  0  0  0  0  0  0  0  0  0  0  0  # atno 10763 bound_to 10752
  153.7134  135.6962  153.5036 H   0  0  0  0  0  0  0  0  0  0  0  0  # atno 10764 bound_to 10752
  153.2434  135.4377  155.0676 H   0  0  0  0  0  0  0  0  0  0  0  0  # atno 10765 bound_to 10752
  141.0868  133.6641  156.3871 H   0  0  0  0  0  0  0  0  0  0  0  0  # atno 11005 bound_to 11000
  145.7486  139.1786  143.2334 LP  0  0  0  0  0  0  0  0  0  0  0  0  # atno 17320 bound_to 7965
  146.1078  140.7465  142.9518 LP  0  0  0  0  0  0  0  0  0  0  0  0  # atno 17321 bound_to 7965
  140.7404  143.6588  150.8183 LP  0  0  0  0  0  0  0  0  0  0  0  0  # atno 17342 bound_to 10162
  140.0204  143.5548  152.2803 LP  0  0  0  0  0  0  0  0  0  0  0  0  # atno 17343 bound_to 10162
  155.9703  130.4178  150.4298 LP  0  0  0  0  0  0  0  0  0  0  0  0  # atno 17370 bound_to 10713
  157.2339  131.0510  151.2476 LP  0  0  0  0  0  0  0  0  0  0  0  0  # atno 17371 bound_to 10713
  140.5343  134.6182  157.5360 LP  0  0  0  0  0  0  0  0  0  0  0  0  # atno 17394 bound_to 11000
  139.9688  134.7328  156.0083 LP  0  0  0  0  0  0  0  0  0  0  0  0  # atno 17395 bound_to 11000

$$$$
