AV-unprocessed.smi:3287|AV-procd|sdf|12596|dock8
  -GOLD-   2272018523D 1   1.00000     0.00000
 Structure written by MMmdl.
 43 44  0  0  0  0  0  0  0  0  2 V2000
  143.8452  132.9373  151.7054 C   0  0  0  0  0  0  0  0  0  0  0  0
  144.0253  134.4501  151.4870 C   0  0  2  0  0  0  0  0  0  0  0  0
  145.4599  134.7399  151.0011 C   0  0  0  0  0  0  0  0  0  0  0  0
  145.6941  136.2375  150.7534 C   0  0  0  0  0  0  0  0  0  0  0  0
  145.3866  137.0813  152.0059 C   0  0  2  0  0  0  0  0  0  0  0  0
  146.3658  136.8561  153.0943 N   0  3  0  0  0  0  0  0  0  0  0  0
  146.5762  137.9970  154.0114 C   0  0  0  0  0  0  0  0  0  0  0  0
  147.1598  139.2107  153.2676 C   0  0  1  0  0  0  0  0  0  0  0  0
  146.1486  140.1912  153.1360 O   0  0  0  0  0  0  0  0  0  0  0  0
  148.3849  139.7569  153.9834 C   0  0  0  0  0  0  0  0  0  0  0  0
  149.5016  138.9358  154.2526 C   0  0  0  0  0  0  0  0  0  0  0  0
  150.6097  139.5010  154.9149 C   0  0  0  0  0  0  0  0  0  0  0  0
  150.6603  140.7925  155.3051 N   0  0  0  0  0  0  0  0  0  0  0  0
  149.5911  141.5739  155.0432 C   0  0  0  0  0  0  0  0  0  0  0  0
  148.4342  141.1078  154.3868 C   0  0  0  0  0  0  0  0  0  0  0  0
  143.9581  136.7897  152.5009 C   0  0  0  0  0  0  0  0  0  0  0  0
  143.6935  135.2876  152.7506 C   0  0  1  0  0  0  0  0  0  0  0  0
  142.2464  135.0896  153.2362 C   0  0  0  0  0  0  0  0  0  0  0  0
  144.4486  132.5817  152.5412 H   0  0  0  0  0  0  0  0  0  0  0  0
  144.1445  132.3762  150.8198 H   0  0  0  0  0  0  0  0  0  0  0  0
  142.8062  132.6774  151.9061 H   0  0  0  0  0  0  0  0  0  0  0  0
  143.3409  134.7498  150.6916 H   0  0  0  0  0  0  0  0  0  0  0  0
  146.1807  134.3720  151.7326 H   0  0  0  0  0  0  0  0  0  0  0  0
  145.6561  134.1907  150.0795 H   0  0  0  0  0  0  0  0  0  0  0  0
  146.7116  136.4048  150.4020 H   0  0  0  0  0  0  0  0  0  0  0  0
  145.0459  136.5640  149.9391 H   0  0  0  0  0  0  0  0  0  0  0  0
  145.4342  138.1378  151.7383 H   0  0  0  0  0  0  0  0  0  0  0  0
  146.0348  136.0807  153.6502 H   0  0  0  0  0  0  0  0  0  0  0  0
  145.6391  138.2736  154.4945 H   0  0  0  0  0  0  0  0  0  0  0  0
  147.2630  137.6860  154.7998 H   0  0  0  0  0  0  0  0  0  0  0  0
  147.4542  138.9100  152.2609 H   0  0  0  0  0  0  0  0  0  0  0  0
  145.4163  139.8068  152.6772 H   0  0  0  0  0  0  0  0  0  0  0  0
  149.5140  137.8960  153.9599 H   0  0  0  0  0  0  0  0  0  0  0  0
  151.4790  138.8996  155.1357 H   0  0  0  0  0  0  0  0  0  0  0  0
  149.6590  142.6024  155.3658 H   0  0  0  0  0  0  0  0  0  0  0  0
  147.6072  141.7772  154.2009 H   0  0  0  0  0  0  0  0  0  0  0  0
  143.7610  137.3612  153.4091 H   0  0  0  0  0  0  0  0  0  0  0  0
  143.2476  137.1563  151.7583 H   0  0  0  0  0  0  0  0  0  0  0  0
  144.3518  134.9598  153.5563 H   0  0  0  0  0  0  0  0  0  0  0  0
  141.5282  135.3258  152.4504 H   0  0  0  0  0  0  0  0  0  0  0  0
  142.0276  135.7338  154.0883 H   0  0  0  0  0  0  0  0  0  0  0  0
  142.0638  134.0657  153.5610 H   0  0  0  0  0  0  0  0  0  0  0  0
  147.2527  136.5980  152.6849 H   0  0  0  0  0  0  0  0  0  0  0  0
  1  2  1  0  0  0  0
  1 19  1  0  0  0  0
  1 20  1  0  0  0  0
  1 21  1  0  0  0  0
  2 17  1  0  0  0  0
  2  3  1  0  0  0  0
  2 22  1  0  0  0  0
  3  4  1  0  0  0  0
  3 23  1  0  0  0  0
  3 24  1  0  0  0  0
  4  5  1  0  0  0  0
  4 25  1  0  0  0  0
  4 26  1  0  0  0  0
  5  6  1  0  0  0  0
  5 16  1  0  0  0  0
  5 27  1  0  0  0  0
  6  7  1  0  0  0  0
  6 28  1  0  0  0  0
  6 43  1  0  0  0  0
  7  8  1  0  0  0  0
  7 29  1  0  0  0  0
  7 30  1  0  0  0  0
  8  9  1  0  0  0  0
  8 10  1  0  0  0  0
  8 31  1  0  0  0  0
  9 32  1  0  0  0  0
 10 15  1  0  0  0  0
 10 11  2  0  0  0  0
 11 12  1  0  0  0  0
 11 33  1  0  0  0  0
 12 13  2  0  0  0  0
 12 34  1  0  0  0  0
 13 14  1  0  0  0  0
 14 15  2  0  0  0  0
 14 35  1  0  0  0  0
 15 36  1  0  0  0  0
 16 17  1  0  0  0  0
 16 37  1  0  0  0  0
 16 38  1  0  0  0  0
 17 18  1  0  0  0  0
 17 39  1  0  0  0  0
 18 40  1  0  0  0  0
 18 41  1  0  0  0  0
 18 42  1  0  0  0  0
M  CHG  1   6   1
M  END
> <s_m_source_file>
AV-unprocessed.smi

> <i_m_source_file_index>
3287

> <i_lp_mmshare_version>
43012

> <i_f3d_flags>
0

> <s_epik_input>
W0NIM11bQ0BASF0xW0NIMl1bQ0gyXVtDQEhdKFtDSDJdW0NASF0xW0NIM10pW05IXVtDSDJdW0NASF0oW09IXSljMltjSF1bY0hdbltjSF1bY0hdMg==

> <s_epik_cmdline>
J2VwaWtfcHl0aG9uJywgJy1waCcsICc3LjAnLCAnLXRuJywgJzgnLCAnLW1hJywgJzIwMCcsICctbWV0YWxfYmluZGluZycsICctaW1hZScsICc8aW5maWxlLm1hZT4nLCAnLW9tYWUnLCAnPG91dGZpbGUubWFlPic=

> <r_lp_tautomer_probability>
1

> <r_epik_Ionization_Penalty>
0.00537262

> <r_epik_Ionization_Penalty_Charging>
0.00321624

> <r_epik_Ionization_Penalty_Neutral>
0.00215638

> <r_epik_State_Penalty>
-0

> <r_epik_Charging_Adjusted_Penalty>
0.00321624

> <i_epik_Tot_Q>
1

> <i_epik_Tot_abs_Q>
1

> <r_epik_Metal_State_Penalty>
-0

> <b_epik_Metal_Only>
0

> <s_lp_Force_Field>
OPLS_2005

> <r_lp_Energy>
19.2096

> <b_lp_Chiralities_Consistent>
1

> <s_lp_Variant>
AV-unprocessed.smi:3287-7

> <Gold.Version>
5.8.1

> <Gold.Id.Protein>
6NUR|6NUR_protein|mol2

> <Gold.PLP.Fitness>
45.1198

> <Gold.PLP.PLP>
-35.7486

> <Gold.PLP.part.hbond>
-3.0000

> <Gold.PLP.part.metal>
0.0000

> <Gold.PLP.part.buried>
-0.2503

> <Gold.PLP.part.nonpolar>
-31.3560

> <Gold.PLP.part.repulsive>
0.0626

> <Gold.PLP.ligand.clash>
0.0000

> <Gold.PLP.ligand.torsion>
1.0172

> <Gold.PLP.Chemscore.Hbond>
2.7976

> <Gold.PLP.Chemscore.CHOScore>
1.0000

> <Gold.PLP.Chemscore.Metal>
0.0000

> <Gold.Chemscore.Hbonds>
donor molecule, donor type, donor heavy atom, donor atom, acceptor molecule, acceptor atom, score
      L1  H     6    43       P1  7948  2.00
      L1  H     9    32       P1 10175  0.58
      L1  C    14    35       P1  8028  1.00

> <Gold.PLP.Chemscore.Internal.Correction>
0.0129

> <Gold.Rescore>
     Score         DG    S(hbond)    S(metal)    S(lipo)     H(rot)  DE(clash)    DE(int)     intcor
     15.21     -16.53       1.59        0.00      90.79       1.90       0.27       1.04       ----

> <Gold.Chemscore.Fitness>
15.2139

> <Gold.Chemscore.DG>
-16.5307

> <Gold.Chemscore.ZeroCoef>
-5.4800

> <Gold.Chemscore.Hbond>
1.5871

> <Gold.Chemscore.Metal>
0.0000

> <Gold.Chemscore.Lipo>
90.7905

> <Gold.Chemscore.Internal_Hbond>
0.0000

> <Gold.Chemscore.DEClash>
0.2746

> <Gold.Chemscore.DEInternal>
1.0421

> <Gold.Chemscore.Rot>
1.9035

> <Gold.Chemscore.Internal.Correction>
   9.000000E+99

> <Gold.Chemscore.Hbonds>
donor molecule, donor type, donor heavy atom, donor atom, acceptor molecule, acceptor atom, score
      L1  H     6    43       P1  7948  1.00
      L1  H     9    32       P1 10175  0.58

> <Gold.Chemscore.Hbond.Weighted>
-5.3011

> <Gold.Chemscore.Metal.Weighted>
-0.0000

> <Gold.Chemscore.Lipo.Weighted>
-10.6225

> <Gold.Chemscore.Internal_Hbond.Weighted>
0.0000

> <Gold.Chemscore.DEClash.Weighted>
0.2746

> <Gold.Chemscore.DEInternal.Weighted>
1.0421

> <Gold.Chemscore.Rot.Weighted>
4.8729

> <Gold.Chemscore.Internal.Correction.Weighted>
   9.000000E+99

> <Gold.Protein.RotatedTorsions>
[ 6907 6896 6895 6894 ] final  -81.48 input  -60.11 | X-H torsion
[ 7974 7965 7964 7962 ] final   40.54 input  175.53 | X-H torsion
[ 8008 7997 7996 7995 ] final   55.46 input   59.86 | X-H torsion
[ 10167 10162 10161 10158 ] final   -1.18 input  -65.29 | X-H torsion
[ 10718 10713 10712 10709 ] final   -0.57 input   66.30 | X-H torsion
[ 10763 10752 10751 10750 ] final -167.65 input  -60.55 | X-H torsion
[ 11005 11000 10999 10996 ] final   72.10 input  -57.11 | X-H torsion

> <Gold.Protein.ActiveResidues>
 VAL166  LYS551  ARG553  GLY616  TRP617  ASP618  TYR619  PRO620  LYS621  CYS622 
 ASP623  PHE694  ASN695  SER759  ASP760  ASP761  ALA762  ILE779  LEU786  VAL792 
 PHE793  MET794  SER795  GLU796  ALA797  LYS798  CYS799  TRP800  GLU811  SER814 

> <Gold.Protein.RotatedAtoms>
  150.6911  134.3812  159.5034 H   0  0  0  0  0  0  0  0  0  0  0  0  # atno 6907 bound_to 6896
  152.1614  134.8906  160.0550 H   0  0  0  0  0  0  0  0  0  0  0  0  # atno 6908 bound_to 6896
  151.9967  133.3776  159.4202 H   0  0  0  0  0  0  0  0  0  0  0  0  # atno 6909 bound_to 6896
  146.0896  139.5521  142.9484 H   0  0  0  0  0  0  0  0  0  0  0  0  # atno 7974 bound_to 7965
  155.5015  140.3474  155.4372 H   0  0  0  0  0  0  0  0  0  0  0  0  # atno 8008 bound_to 7997
  156.0910  140.1411  156.9619 H   0  0  0  0  0  0  0  0  0  0  0  0  # atno 8009 bound_to 7997
  154.4635  140.0926  156.6935 H   0  0  0  0  0  0  0  0  0  0  0  0  # atno 8010 bound_to 7997
  140.6799  143.6806  150.8109 H   0  0  0  0  0  0  0  0  0  0  0  0  # atno 10167 bound_to 10162
  156.8185  130.5448  149.5700 H   0  0  0  0  0  0  0  0  0  0  0  0  # atno 10718 bound_to 10713
  154.6710  135.2939  154.9742 H   0  0  0  0  0  0  0  0  0  0  0  0  # atno 10763 bound_to 10752
  154.0769  135.6610  153.4836 H   0  0  0  0  0  0  0  0  0  0  0  0  # atno 10764 bound_to 10752
  153.0487  135.5188  154.7706 H   0  0  0  0  0  0  0  0  0  0  0  0  # atno 10765 bound_to 10752
  139.9508  134.7230  156.0867 H   0  0  0  0  0  0  0  0  0  0  0  0  # atno 11005 bound_to 11000
  145.6063  141.0347  143.1991 LP  0  0  0  0  0  0  0  0  0  0  0  0  # atno 17320 bound_to 7965
  144.7351  139.7610  143.7332 LP  0  0  0  0  0  0  0  0  0  0  0  0  # atno 17321 bound_to 7965
  140.0505  143.5255  152.2676 LP  0  0  0  0  0  0  0  0  0  0  0  0  # atno 17342 bound_to 10162
  139.6115  144.7609  151.2942 LP  0  0  0  0  0  0  0  0  0  0  0  0  # atno 17343 bound_to 10162
  156.1003  130.5963  150.9882 LP  0  0  0  0  0  0  0  0  0  0  0  0  # atno 17370 bound_to 10713
  157.6469  131.0902  150.8134 LP  0  0  0  0  0  0  0  0  0  0  0  0  # atno 17371 bound_to 10713
  141.1170  133.6624  156.3120 LP  0  0  0  0  0  0  0  0  0  0  0  0  # atno 17394 bound_to 11000
  140.5723  134.5828  157.5460 LP  0  0  0  0  0  0  0  0  0  0  0  0  # atno 17395 bound_to 11000

$$$$
