AV-unprocessed.smi:2252|AV-procd|sdf|9105|dock8
  -GOLD-   2272012303D 1   1.00000     0.00000
 Structure written by MMmdl.
 45 47  0  0  0  0  0  0  0  0  2 V2000
  151.7452  144.5602  158.4458 C   0  0  0  0  0  0  0  0  0  0  0  0
  152.2698  143.3299  159.0065 N   0  0  0  0  0  0  0  0  0  0  0  0
  153.1866  143.2328  160.0449 C   0  0  0  0  0  0  0  0  0  0  0  0
  153.4007  141.8924  160.2578 C   0  0  0  0  0  0  0  0  0  0  0  0
  152.6293  141.1551  159.3660 N   0  0  0  0  0  0  0  0  0  0  0  0
  151.9828  142.0649  158.6434 C   0  0  0  0  0  0  0  0  0  0  0  0
  151.0108  141.7213  157.5582 C   0  0  0  0  0  0  0  0  0  0  0  0
  149.5627  142.0745  157.9368 C   0  0  0  0  0  0  0  0  0  0  0  0
  148.6752  142.0339  156.7807 N   0  0  0  0  0  0  0  0  0  0  0  0
  147.7455  141.0924  156.5566 C   0  0  0  0  0  0  0  0  0  0  0  0
  147.5383  140.1511  157.3230 O   0  0  0  0  0  0  0  0  0  0  0  0
  146.9096  141.2397  155.2765 C   0  0  2  0  0  0  0  0  0  0  0  0
  147.7743  140.8147  154.0705 C   0  0  0  0  0  0  0  0  0  0  0  0
  147.1969  139.9858  152.9437 C   0  0  0  0  0  0  0  0  0  0  0  0
  148.1978  139.3724  153.8888 C   0  0  0  0  0  0  0  0  0  0  0  0
  146.3934  142.6290  155.1157 N   0  3  0  0  0  0  0  0  0  0  0  0
  145.8289  142.9434  153.7859 C   0  0  0  0  0  0  0  0  0  0  0  0
  144.9414  144.1771  153.9797 C   0  0  0  0  0  0  0  0  0  0  0  0
  144.6829  144.2665  155.4870 C   0  0  0  0  0  0  0  0  0  0  0  0
  145.3504  143.0278  156.0860 C   0  0  0  0  0  0  0  0  0  0  0  0
  152.0845  145.4154  159.0309 H   0  0  0  0  0  0  0  0  0  0  0  0
  150.6551  144.5382  158.4548 H   0  0  0  0  0  0  0  0  0  0  0  0
  152.0947  144.6748  157.4194 H   0  0  0  0  0  0  0  0  0  0  0  0
  153.5990  144.1022  160.5354 H   0  0  0  0  0  0  0  0  0  0  0  0
  154.0430  141.4059  160.9770 H   0  0  0  0  0  0  0  0  0  0  0  0
  151.2962  142.2271  156.6357 H   0  0  0  0  0  0  0  0  0  0  0  0
  151.0960  140.6531  157.3553 H   0  0  0  0  0  0  0  0  0  0  0  0
  149.1940  141.4012  158.7129 H   0  0  0  0  0  0  0  0  0  0  0  0
  149.5237  143.0806  158.3552 H   0  0  0  0  0  0  0  0  0  0  0  0
  148.7722  142.7797  156.1066 H   0  0  0  0  0  0  0  0  0  0  0  0
  146.0510  140.5687  155.3458 H   0  0  0  0  0  0  0  0  0  0  0  0
  148.5199  141.5552  153.7847 H   0  0  0  0  0  0  0  0  0  0  0  0
  146.1629  139.6576  153.0291 H   0  0  0  0  0  0  0  0  0  0  0  0
  147.5313  140.2130  151.9335 H   0  0  0  0  0  0  0  0  0  0  0  0
  149.2004  139.1871  153.5089 H   0  0  0  0  0  0  0  0  0  0  0  0
  147.8271  138.6378  154.6012 H   0  0  0  0  0  0  0  0  0  0  0  0
  146.6100  143.1129  153.0440 H   0  0  0  0  0  0  0  0  0  0  0  0
  145.2156  142.1079  153.4449 H   0  0  0  0  0  0  0  0  0  0  0  0
  145.4530  145.0765  153.6349 H   0  0  0  0  0  0  0  0  0  0  0  0
  144.0146  144.0884  153.4116 H   0  0  0  0  0  0  0  0  0  0  0  0
  145.1454  145.1698  155.8866 H   0  0  0  0  0  0  0  0  0  0  0  0
  143.6194  144.3090  155.7246 H   0  0  0  0  0  0  0  0  0  0  0  0
  144.6149  142.2271  156.1806 H   0  0  0  0  0  0  0  0  0  0  0  0
  145.7614  143.2249  157.0767 H   0  0  0  0  0  0  0  0  0  0  0  0
  147.1718  143.2578  155.2548 H   0  0  0  0  0  0  0  0  0  0  0  0
  1  2  1  0  0  0  0
  1 21  1  0  0  0  0
  1 22  1  0  0  0  0
  1 23  1  0  0  0  0
  2  6  1  0  0  0  0
  2  3  1  0  0  0  0
  3  4  2  0  0  0  0
  3 24  1  0  0  0  0
  4  5  1  0  0  0  0
  4 25  1  0  0  0  0
  5  6  2  0  0  0  0
  6  7  1  0  0  0  0
  7  8  1  0  0  0  0
  7 26  1  0  0  0  0
  7 27  1  0  0  0  0
  8  9  1  0  0  0  0
  8 28  1  0  0  0  0
  8 29  1  0  0  0  0
  9 10  1  0  0  0  0
  9 30  1  0  0  0  0
 10 11  2  0  0  0  0
 10 12  1  0  0  0  0
 12 13  1  0  0  0  0
 12 16  1  0  0  0  0
 12 31  1  0  0  0  0
 13 15  1  0  0  0  0
 13 14  1  0  0  0  0
 13 32  1  0  0  0  0
 14 15  1  0  0  0  0
 14 33  1  0  0  0  0
 14 34  1  0  0  0  0
 15 35  1  0  0  0  0
 15 36  1  0  0  0  0
 16 20  1  0  0  0  0
 16 17  1  0  0  0  0
 16 45  1  0  0  0  0
 17 18  1  0  0  0  0
 17 37  1  0  0  0  0
 17 38  1  0  0  0  0
 18 19  1  0  0  0  0
 18 39  1  0  0  0  0
 18 40  1  0  0  0  0
 19 20  1  0  0  0  0
 19 41  1  0  0  0  0
 19 42  1  0  0  0  0
 20 43  1  0  0  0  0
 20 44  1  0  0  0  0
M  CHG  1  16   1
M  END
> <s_m_source_file>
AV-unprocessed.smi

> <i_m_source_file_index>
2252

> <i_lp_mmshare_version>
43012

> <i_f3d_flags>
0

> <s_epik_input>
W0NIM11uMVtjSF1bY0hdbmMxW0NIMl1bQ0gyXVtOSF1DKD1PKVtDQEhdKFtDSF0yW0NIMl1bQ0gyXTIpTjNbQ0gyXVtDSDJdW0NIMl1bQ0gyXTM=

> <s_epik_cmdline>
J2VwaWtfcHl0aG9uJywgJy1waCcsICc3LjAnLCAnLXRuJywgJzgnLCAnLW1hJywgJzIwMCcsICctbWV0YWxfYmluZGluZycsICctaW1hZScsICc8aW5maWxlLm1hZT4nLCAnLW9tYWUnLCAnPG91dGZpbGUubWFlPic=

> <r_lp_tautomer_probability>
1

> <r_epik_Ionization_Penalty>
1.07437

> <r_epik_Ionization_Penalty_Charging>
1.07435

> <r_epik_Ionization_Penalty_Neutral>
2.35578e-05

> <r_epik_State_Penalty>
1.18204

> <r_epik_Charging_Adjusted_Penalty>
2.25639

> <i_epik_Tot_Q>
1

> <i_epik_Tot_abs_Q>
1

> <r_epik_Metal_State_Penalty>
0.433434

> <b_epik_Metal_Only>
0

> <s_lp_Force_Field>
OPLS_2005

> <r_lp_Energy>
33.5931

> <b_lp_Chiralities_Consistent>
1

> <s_lp_Variant>
AV-unprocessed.smi:2252-3

> <Gold.Version>
5.8.1

> <Gold.Id.Protein>
6NUR|6NUR_protein|mol2

> <Gold.PLP.Fitness>
44.4103

> <Gold.PLP.PLP>
-39.8631

> <Gold.PLP.part.hbond>
-1.7103

> <Gold.PLP.part.metal>
0.0000

> <Gold.PLP.part.buried>
-4.0711

> <Gold.PLP.part.nonpolar>
-33.7469

> <Gold.PLP.part.repulsive>
0.0735

> <Gold.PLP.ligand.clash>
0.0000

> <Gold.PLP.ligand.torsion>
1.2489

> <Gold.PLP.Chemscore.Hbond>
1.9750

> <Gold.PLP.Chemscore.CHOScore>
0.0000

> <Gold.PLP.Chemscore.Metal>
0.0000

> <Gold.Chemscore.Hbonds>
donor molecule, donor type, donor heavy atom, donor atom, acceptor molecule, acceptor atom, score
      L1  H     9    30       P1  8028  1.00
      L1  H    16    45       P1  8028  0.61

> <Gold.PLP.Chemscore.Internal.Correction>
1.1199

> <Gold.Rescore>
     Score         DG    S(hbond)    S(metal)    S(lipo)     H(rot)  DE(clash)    DE(int)     intcor
     13.08     -14.43       0.95        0.00      92.05       1.95       0.07       1.28       ----

> <Gold.Chemscore.Fitness>
13.0810

> <Gold.Chemscore.DG>
-14.4319

> <Gold.Chemscore.ZeroCoef>
-5.4800

> <Gold.Chemscore.Hbond>
0.9491

> <Gold.Chemscore.Metal>
0.0000

> <Gold.Chemscore.Lipo>
92.0519

> <Gold.Chemscore.Internal_Hbond>
0.0000

> <Gold.Chemscore.DEClash>
0.0665

> <Gold.Chemscore.DEInternal>
1.2844

> <Gold.Chemscore.Rot>
1.9485

> <Gold.Chemscore.Internal.Correction>
   9.000000E+99

> <Gold.Chemscore.Hbonds>
donor molecule, donor type, donor heavy atom, donor atom, acceptor molecule, acceptor atom, score
      L1  H     9    30       P1  8028  0.92
      L1  H    16    45       P1  8028  0.03

> <Gold.Chemscore.Hbond.Weighted>
-3.1699

> <Gold.Chemscore.Metal.Weighted>
-0.0000

> <Gold.Chemscore.Lipo.Weighted>
-10.7701

> <Gold.Chemscore.Internal_Hbond.Weighted>
0.0000

> <Gold.Chemscore.DEClash.Weighted>
0.0665

> <Gold.Chemscore.DEInternal.Weighted>
1.2844

> <Gold.Chemscore.Rot.Weighted>
4.9881

> <Gold.Chemscore.Internal.Correction.Weighted>
   9.000000E+99

> <Gold.Protein.RotatedTorsions>
[ 6907 6896 6895 6894 ] final -134.89 input  -60.11 | X-H torsion
[ 7974 7965 7964 7962 ] final -161.66 input  175.53 | X-H torsion
[ 8008 7997 7996 7995 ] final  151.01 input   59.86 | X-H torsion
[ 10167 10162 10161 10158 ] final  -87.69 input  -65.29 | X-H torsion
[ 10718 10713 10712 10709 ] final -164.13 input   66.30 | X-H torsion
[ 10763 10752 10751 10750 ] final -179.32 input  -60.55 | X-H torsion
[ 11005 11000 10999 10996 ] final   85.03 input  -57.11 | X-H torsion

> <Gold.Protein.ActiveResidues>
 VAL166  LYS551  ARG553  GLY616  TRP617  ASP618  TYR619  PRO620  LYS621  CYS622 
 ASP623  PHE694  ASN695  SER759  ASP760  ASP761  ALA762  ILE779  LEU786  VAL792 
 PHE793  MET794  SER795  GLU796  ALA797  LYS798  CYS799  TRP800  GLU811  SER814 

> <Gold.Protein.RotatedAtoms>
  150.9913  133.6147  159.2707 H   0  0  0  0  0  0  0  0  0  0  0  0  # atno 6907 bound_to 6896
  151.3366  135.0853  159.9366 H   0  0  0  0  0  0  0  0  0  0  0  0  # atno 6908 bound_to 6896
  152.5246  133.9532  159.7736 H   0  0  0  0  0  0  0  0  0  0  0  0  # atno 6909 bound_to 6896
  144.7383  140.3365  143.6143 H   0  0  0  0  0  0  0  0  0  0  0  0  # atno 7974 bound_to 7965
  156.2692  140.2059  156.6109 H   0  0  0  0  0  0  0  0  0  0  0  0  # atno 8008 bound_to 7997
  154.6832  140.0538  157.0312 H   0  0  0  0  0  0  0  0  0  0  0  0  # atno 8009 bound_to 7997
  155.0970  140.3202  155.4560 H   0  0  0  0  0  0  0  0  0  0  0  0  # atno 8010 bound_to 7997
  140.3820  143.2744  151.9371 H   0  0  0  0  0  0  0  0  0  0  0  0  # atno 10167 bound_to 10162
  156.6345  130.8943  151.2984 H   0  0  0  0  0  0  0  0  0  0  0  0  # atno 10718 bound_to 10713
  154.5365  135.2803  155.1133 H   0  0  0  0  0  0  0  0  0  0  0  0  # atno 10763 bound_to 10752
  154.2633  135.6317  153.5286 H   0  0  0  0  0  0  0  0  0  0  0  0  # atno 10764 bound_to 10752
  152.9969  135.5611  154.5893 H   0  0  0  0  0  0  0  0  0  0  0  0  # atno 10765 bound_to 10752
  139.8983  134.8258  156.2526 H   0  0  0  0  0  0  0  0  0  0  0  0  # atno 11005 bound_to 11000
  145.7418  139.1766  143.2371 LP  0  0  0  0  0  0  0  0  0  0  0  0  # atno 17320 bound_to 7965
  146.1128  140.7407  142.9495 LP  0  0  0  0  0  0  0  0  0  0  0  0  # atno 17321 bound_to 7965
  139.4794  144.5809  151.7934 LP  0  0  0  0  0  0  0  0  0  0  0  0  # atno 17342 bound_to 10162
  140.4927  144.1286  150.5954 LP  0  0  0  0  0  0  0  0  0  0  0  0  # atno 17343 bound_to 10162
  157.7190  130.9533  150.1363 LP  0  0  0  0  0  0  0  0  0  0  0  0  # atno 17370 bound_to 10713
  156.2208  130.3674  149.8559 LP  0  0  0  0  0  0  0  0  0  0  0  0  # atno 17371 bound_to 10713
  141.0214  133.7039  156.1274 LP  0  0  0  0  0  0  0  0  0  0  0  0  # atno 17394 bound_to 11000
  140.7228  134.4339  157.5573 LP  0  0  0  0  0  0  0  0  0  0  0  0  # atno 17395 bound_to 11000

$$$$
