AV-unprocessed.smi:3348|AV-procd|sdf|12926|dock3
  -GOLD-   2272019353D 1   1.00000     0.00000
 Structure written by MMmdl.
 46 47  0  0  0  0  0  0  0  0  1 V2000
  148.4585  142.0628  154.4845 C   0  0  0  0  0  0  0  0  0  0  0  0
  148.5547  140.5912  154.9399 C   0  0  1  0  0  0  0  0  0  0  0  0
  149.1050  139.6737  153.8284 C   0  0  0  0  0  0  0  0  0  0  0  0
  150.5202  139.3840  153.9816 N   0  0  0  0  0  0  0  0  0  0  0  0
  151.2040  138.2449  153.6114 C   0  0  0  0  0  0  0  0  0  0  0  0
  152.5120  138.4242  153.9600 C   0  0  0  0  0  0  0  0  0  0  0  0
  152.5298  139.7193  154.5495 C   0  0  0  0  0  0  0  0  0  0  0  0
  151.3361  140.2904  154.5631 N   0  0  0  0  0  0  0  0  0  0  0  0
  149.3920  140.4446  156.1340 N   0  0  0  0  0  0  0  0  0  0  0  0
  149.2864  141.5193  157.1200 C   0  0  0  0  0  0  0  0  0  0  0  0
  150.5548  142.3774  157.1222 C   0  0  0  0  0  0  0  0  0  0  0  0
  151.1991  142.2219  158.3778 O   0  0  0  0  0  0  0  0  0  0  0  0
  152.4747  142.8461  158.4754 C   0  0  1  0  0  0  0  0  0  0  0  0
  152.3606  144.3574  158.1793 C   0  0  0  0  0  0  0  0  0  0  0  0
  151.5041  145.0800  159.2322 C   0  0  0  0  0  0  0  0  0  0  0  0
  152.0466  144.8400  160.6492 C   0  0  0  0  0  0  0  0  0  0  0  0
  152.1660  143.3384  160.9551 C   0  0  0  0  0  0  0  0  0  0  0  0
  153.0252  142.6117  159.9003 C   0  0  1  0  0  0  0  0  0  0  0  0
  153.1804  141.1168  160.2206 C   0  0  0  0  0  0  0  0  0  0  0  0
  147.8521  142.1638  153.5847 H   0  0  0  0  0  0  0  0  0  0  0  0
  149.4442  142.4740  154.2649 H   0  0  0  0  0  0  0  0  0  0  0  0
  147.9912  142.6952  155.2383 H   0  0  0  0  0  0  0  0  0  0  0  0
  147.5468  140.2495  155.1790 H   0  0  0  0  0  0  0  0  0  0  0  0
  148.5493  138.7345  153.8025 H   0  0  0  0  0  0  0  0  0  0  0  0
  148.9663  140.1418  152.8530 H   0  0  0  0  0  0  0  0  0  0  0  0
  150.7080  137.4123  153.1343 H   0  0  0  0  0  0  0  0  0  0  0  0
  153.3307  137.7348  153.8172 H   0  0  0  0  0  0  0  0  0  0  0  0
  153.3687  140.2569  154.9664 H   0  0  0  0  0  0  0  0  0  0  0  0
  150.3635  140.3381  155.8589 H   0  0  0  0  0  0  0  0  0  0  0  0
  148.4261  142.1579  156.9228 H   0  0  0  0  0  0  0  0  0  0  0  0
  149.1412  141.0892  158.1115 H   0  0  0  0  0  0  0  0  0  0  0  0
  151.2252  142.0350  156.3329 H   0  0  0  0  0  0  0  0  0  0  0  0
  150.3117  143.4193  156.9129 H   0  0  0  0  0  0  0  0  0  0  0  0
  153.1624  142.3877  157.7623 H   0  0  0  0  0  0  0  0  0  0  0  0
  153.3593  144.7956  158.1702 H   0  0  0  0  0  0  0  0  0  0  0  0
  151.9513  144.5320  157.1849 H   0  0  0  0  0  0  0  0  0  0  0  0
  151.4794  146.1492  159.0208 H   0  0  0  0  0  0  0  0  0  0  0  0
  150.4730  144.7295  159.1700 H   0  0  0  0  0  0  0  0  0  0  0  0
  153.0247  145.3117  160.7501 H   0  0  0  0  0  0  0  0  0  0  0  0
  151.3962  145.3179  161.3823 H   0  0  0  0  0  0  0  0  0  0  0  0
  152.5998  143.2030  161.9464 H   0  0  0  0  0  0  0  0  0  0  0  0
  151.1703  142.8944  160.9930 H   0  0  0  0  0  0  0  0  0  0  0  0
  154.0248  143.0476  159.9384 H   0  0  0  0  0  0  0  0  0  0  0  0
  152.2162  140.6077  160.2281 H   0  0  0  0  0  0  0  0  0  0  0  0
  153.6385  140.9719  161.1994 H   0  0  0  0  0  0  0  0  0  0  0  0
  153.8132  140.6210  159.4840 H   0  0  0  0  0  0  0  0  0  0  0  0
  1  2  1  0  0  0  0
  1 20  1  0  0  0  0
  1 21  1  0  0  0  0
  1 22  1  0  0  0  0
  2  3  1  0  0  0  0
  2  9  1  0  0  0  0
  2 23  1  0  0  0  0
  3  4  1  0  0  0  0
  3 24  1  0  0  0  0
  3 25  1  0  0  0  0
  4  8  1  0  0  0  0
  4  5  1  0  0  0  0
  5  6  2  0  0  0  0
  5 26  1  0  0  0  0
  6  7  1  0  0  0  0
  6 27  1  0  0  0  0
  7  8  2  0  0  0  0
  7 28  1  0  0  0  0
  9 10  1  0  0  0  0
  9 29  1  0  0  0  0
 10 11  1  0  0  0  0
 10 30  1  0  0  0  0
 10 31  1  0  0  0  0
 11 12  1  0  0  0  0
 11 32  1  0  0  0  0
 11 33  1  0  0  0  0
 12 13  1  0  0  0  0
 13 18  1  0  0  0  0
 13 14  1  0  0  0  0
 13 34  1  0  0  0  0
 14 15  1  0  0  0  0
 14 35  1  0  0  0  0
 14 36  1  0  0  0  0
 15 16  1  0  0  0  0
 15 37  1  0  0  0  0
 15 38  1  0  0  0  0
 16 17  1  0  0  0  0
 16 39  1  0  0  0  0
 16 40  1  0  0  0  0
 17 18  1  0  0  0  0
 17 41  1  0  0  0  0
 17 42  1  0  0  0  0
 18 19  1  0  0  0  0
 18 43  1  0  0  0  0
 19 44  1  0  0  0  0
 19 45  1  0  0  0  0
 19 46  1  0  0  0  0
M  END
> <s_m_source_file>
AV-unprocessed.smi

> <i_m_source_file_index>
3348

> <i_lp_mmshare_version>
43012

> <i_f3d_flags>
0

> <s_epik_input>
bjFbY0hdW2NIXVtjSF1uMVtDSDJdW0NAQEhdKFtDSDNdKVtOSF1bQ0gyXVtDSDJdT1tDQEBIXTJbQ0gyXVtDSDJdW0NIMl1bQ0gyXVtDQEhdMltDSDNd

> <s_epik_cmdline>
J2VwaWtfcHl0aG9uJywgJy1waCcsICc3LjAnLCAnLXRuJywgJzgnLCAnLW1hJywgJzIwMCcsICctbWV0YWxfYmluZGluZycsICctaW1hZScsICc8aW5maWxlLm1hZT4nLCAnLW9tYWUnLCAnPG91dGZpbGUubWFlPic=

> <r_lp_tautomer_probability>
1

> <r_epik_Ionization_Penalty>
2.46945

> <r_epik_Ionization_Penalty_Charging>
0

> <r_epik_Ionization_Penalty_Neutral>
2.46945

> <r_epik_State_Penalty>
2.6322

> <r_epik_Charging_Adjusted_Penalty>
2.6322

> <i_epik_Tot_Q>
0

> <i_epik_Tot_abs_Q>
0

> <r_epik_Metal_State_Penalty>
2.63217

> <b_epik_Metal_Only>
0

> <s_lp_Force_Field>
OPLS_2005

> <r_lp_Energy>
17.8462

> <b_lp_Chiralities_Consistent>
1

> <s_lp_Variant>
AV-unprocessed.smi:3348-12

> <Gold.Version>
5.8.1

> <Gold.Id.Protein>
6NUR|6NUR_protein|mol2

> <Gold.PLP.Fitness>
52.0756

> <Gold.PLP.PLP>
-49.5651

> <Gold.PLP.part.hbond>
-1.0000

> <Gold.PLP.part.metal>
0.0000

> <Gold.PLP.part.buried>
-0.2062

> <Gold.PLP.part.nonpolar>
-47.1385

> <Gold.PLP.part.repulsive>
0.0909

> <Gold.PLP.ligand.clash>
0.0000

> <Gold.PLP.ligand.torsion>
1.8051

> <Gold.PLP.Chemscore.Hbond>
1.0000

> <Gold.PLP.Chemscore.CHOScore>
0.9864

> <Gold.PLP.Chemscore.Metal>
0.0000

> <Gold.Chemscore.Hbonds>
donor molecule, donor type, donor heavy atom, donor atom, acceptor molecule, acceptor atom, score
      P1  H  7989  7998       L1     8  0.09
      L1  C     5    26       P1  7948  0.27
      L1  C     5    26       P1  7949  0.69

> <Gold.PLP.Chemscore.Internal.Correction>
0.1615

> <Gold.Rescore>
     Score         DG    S(hbond)    S(metal)    S(lipo)     H(rot)  DE(clash)    DE(int)     intcor
     17.19     -20.48       0.90        0.00     140.12       1.72       1.65       1.64       ----

> <Gold.Chemscore.Fitness>
17.1909

> <Gold.Chemscore.DG>
-20.4757

> <Gold.Chemscore.ZeroCoef>
-5.4800

> <Gold.Chemscore.Hbond>
0.9024

> <Gold.Chemscore.Metal>
0.0000

> <Gold.Chemscore.Lipo>
140.1227

> <Gold.Chemscore.Internal_Hbond>
0.0000

> <Gold.Chemscore.DEClash>
1.6467

> <Gold.Chemscore.DEInternal>
1.6381

> <Gold.Chemscore.Rot>
1.7237

> <Gold.Chemscore.Internal.Correction>
   9.000000E+99

> <Gold.Chemscore.Hbond.Weighted>
-3.0140

> <Gold.Chemscore.Metal.Weighted>
-0.0000

> <Gold.Chemscore.Lipo.Weighted>
-16.3944

> <Gold.Chemscore.Internal_Hbond.Weighted>
0.0000

> <Gold.Chemscore.DEClash.Weighted>
1.6467

> <Gold.Chemscore.DEInternal.Weighted>
1.6381

> <Gold.Chemscore.Rot.Weighted>
4.4126

> <Gold.Chemscore.Internal.Correction.Weighted>
   9.000000E+99

> <Gold.Protein.RotatedTorsions>
[ 6907 6896 6895 6894 ] final  -21.49 input  -60.11 | X-H torsion
[ 7974 7965 7964 7962 ] final  124.00 input  175.53 | X-H torsion
[ 8008 7997 7996 7995 ] final -170.93 input   59.86 | X-H torsion
[ 10167 10162 10161 10158 ] final  172.58 input  -65.29 | X-H torsion
[ 10718 10713 10712 10709 ] final   70.93 input   66.30 | X-H torsion
[ 10763 10752 10751 10750 ] final   96.95 input  -60.55 | X-H torsion
[ 11005 11000 10999 10996 ] final  -80.74 input  -57.11 | X-H torsion

> <Gold.Protein.ActiveResidues>
 VAL166  LYS551  ARG553  GLY616  TRP617  ASP618  TYR619  PRO620  LYS621  CYS622 
 ASP623  PHE694  ASN695  SER759  ASP760  ASP761  ALA762  ILE779  LEU786  VAL792 
 PHE793  MET794  SER795  GLU796  ALA797  LYS798  CYS799  TRP800  GLU811  SER814 

> <Gold.Protein.RotatedAtoms>
  151.2326  135.0560  159.8993 H   0  0  0  0  0  0  0  0  0  0  0  0  # atno 6907 bound_to 6896
  152.5403  134.0521  159.8125 H   0  0  0  0  0  0  0  0  0  0  0  0  # atno 6908 bound_to 6896
  151.0703  133.5423  159.2659 H   0  0  0  0  0  0  0  0  0  0  0  0  # atno 6909 bound_to 6896
  145.0895  139.3597  143.4868 H   0  0  0  0  0  0  0  0  0  0  0  0  # atno 7974 bound_to 7965
  155.9249  140.1081  157.1178 H   0  0  0  0  0  0  0  0  0  0  0  0  # atno 8008 bound_to 7997
  154.4060  140.1249  156.4792 H   0  0  0  0  0  0  0  0  0  0  0  0  # atno 8009 bound_to 7997
  155.7151  140.3470  155.4993 H   0  0  0  0  0  0  0  0  0  0  0  0  # atno 8010 bound_to 7997
  139.5081  144.3358  152.0067 H   0  0  0  0  0  0  0  0  0  0  0  0  # atno 10167 bound_to 10162
  157.6425  130.9502  150.0719 H   0  0  0  0  0  0  0  0  0  0  0  0  # atno 10718 bound_to 10713
  153.2710  135.4200  155.0988 H   0  0  0  0  0  0  0  0  0  0  0  0  # atno 10763 bound_to 10752
  154.8456  135.3472  154.6244 H   0  0  0  0  0  0  0  0  0  0  0  0  # atno 10764 bound_to 10752
  153.6664  135.7046  153.5218 H   0  0  0  0  0  0  0  0  0  0  0  0  # atno 10765 bound_to 10752
  141.1667  133.7164  156.8317 H   0  0  0  0  0  0  0  0  0  0  0  0  # atno 11005 bound_to 11000
  146.3531  140.0722  142.8622 LP  0  0  0  0  0  0  0  0  0  0  0  0  # atno 17320 bound_to 7965
  145.1083  140.9389  143.4672 LP  0  0  0  0  0  0  0  0  0  0  0  0  # atno 17321 bound_to 7965
  140.2797  144.3874  150.6123 LP  0  0  0  0  0  0  0  0  0  0  0  0  # atno 17342 bound_to 10162
  140.6028  143.2167  151.7040 LP  0  0  0  0  0  0  0  0  0  0  0  0  # atno 17343 bound_to 10162
  156.1720  130.3647  149.9152 LP  0  0  0  0  0  0  0  0  0  0  0  0  # atno 17370 bound_to 10713
  156.7125  130.8975  151.3610 LP  0  0  0  0  0  0  0  0  0  0  0  0  # atno 17371 bound_to 10713
  140.2046  134.8872  157.3207 LP  0  0  0  0  0  0  0  0  0  0  0  0  # atno 17394 bound_to 11000
  140.2151  134.4091  155.7593 LP  0  0  0  0  0  0  0  0  0  0  0  0  # atno 17395 bound_to 11000

$$$$
