AV-unprocessed.smi:2488|AV-procd|sdf|9794|dock5
  -GOLD-   2272013433D 1   1.00000     0.00000
 Structure written by MMmdl.
 33 34  0  0  0  0  0  0  0  0  1 V2000
  152.4256  143.4863  159.9477 C   0  0  0  0  0  0  0  0  0  0  0  0
  152.6939  142.0118  159.6260 C   0  0  0  0  0  0  0  0  0  0  0  0
  151.6643  141.4338  158.6727 C   0  0  0  0  0  0  0  0  0  0  0  0
  150.6720  142.2613  158.2755 N   0  0  0  0  0  0  0  0  0  0  0  0
  149.7602  141.7515  157.4446 C   0  0  0  0  0  0  0  0  0  0  0  0
  149.7246  140.5059  156.9654 N   0  0  0  0  0  0  0  0  0  0  0  0
  150.7130  139.6616  157.3501 C   0  0  0  0  0  0  0  0  0  0  0  0
  150.7068  138.3319  156.8801 N   0  0  0  0  0  0  0  0  0  0  0  0
  150.4244  137.4109  157.9790 C   0  0  0  0  0  0  0  0  0  0  0  0
  150.5687  135.9535  157.5211 C   0  0  0  0  0  0  0  0  0  0  0  0
  149.7104  135.7314  156.4114 O   0  0  0  0  0  0  0  0  0  0  0  0
  150.0753  136.5405  155.3003 C   0  0  0  0  0  0  0  0  0  0  0  0
  149.9498  138.0435  155.6482 C   0  0  2  0  0  0  0  0  0  0  0  0
  150.3517  138.8495  154.3946 C   0  0  0  0  0  0  0  0  0  0  0  0
  149.7595  138.5607  153.2308 N   0  0  0  0  0  0  0  0  0  0  0  0
  151.2070  139.7278  154.4806 O   0  0  0  0  0  0  0  0  0  0  0  0
  151.7298  140.0941  158.2324 C   0  0  0  0  0  0  0  0  0  0  0  0
  152.7232  139.2632  158.6327 F   0  0  0  0  0  0  0  0  0  0  0  0
  153.1754  143.8765  160.6361 H   0  0  0  0  0  0  0  0  0  0  0  0
  151.4474  143.6147  160.4123 H   0  0  0  0  0  0  0  0  0  0  0  0
  152.4516  144.0979  159.0454 H   0  0  0  0  0  0  0  0  0  0  0  0
  153.6859  141.9052  159.1855 H   0  0  0  0  0  0  0  0  0  0  0  0
  152.7068  141.4292  160.5476 H   0  0  0  0  0  0  0  0  0  0  0  0
  148.9680  142.4141  157.1290 H   0  0  0  0  0  0  0  0  0  0  0  0
  151.0991  137.5907  158.8172 H   0  0  0  0  0  0  0  0  0  0  0  0
  149.4105  137.5838  158.3448 H   0  0  0  0  0  0  0  0  0  0  0  0
  151.6023  135.7247  157.2560 H   0  0  0  0  0  0  0  0  0  0  0  0
  150.2883  135.2763  158.3277 H   0  0  0  0  0  0  0  0  0  0  0  0
  151.0915  136.2917  154.9876 H   0  0  0  0  0  0  0  0  0  0  0  0
  149.4200  136.2849  154.4665 H   0  0  0  0  0  0  0  0  0  0  0  0
  148.8954  138.2475  155.8450 H   0  0  0  0  0  0  0  0  0  0  0  0
  150.0109  139.0734  152.3980 H   0  0  0  0  0  0  0  0  0  0  0  0
  149.0662  137.8282  153.1896 H   0  0  0  0  0  0  0  0  0  0  0  0
  1  2  1  0  0  0  0
  1 19  1  0  0  0  0
  1 20  1  0  0  0  0
  1 21  1  0  0  0  0
  2  3  1  0  0  0  0
  2 22  1  0  0  0  0
  2 23  1  0  0  0  0
  3 17  1  0  0  0  0
  3  4  2  0  0  0  0
  4  5  1  0  0  0  0
  5  6  2  0  0  0  0
  5 24  1  0  0  0  0
  6  7  1  0  0  0  0
  7  8  1  0  0  0  0
  7 17  2  0  0  0  0
  8 13  1  0  0  0  0
  8  9  1  0  0  0  0
  9 10  1  0  0  0  0
  9 25  1  0  0  0  0
  9 26  1  0  0  0  0
 10 11  1  0  0  0  0
 10 27  1  0  0  0  0
 10 28  1  0  0  0  0
 11 12  1  0  0  0  0
 12 13  1  0  0  0  0
 12 29  1  0  0  0  0
 12 30  1  0  0  0  0
 13 14  1  0  0  0  0
 13 31  1  0  0  0  0
 14 15  1  0  0  0  0
 14 16  2  0  0  0  0
 15 32  1  0  0  0  0
 15 33  1  0  0  0  0
 17 18  1  0  0  0  0
M  END
> <s_m_source_file>
AV-unprocessed.smi

> <i_m_source_file_index>
2488

> <i_lp_mmshare_version>
43012

> <i_f3d_flags>
0

> <s_epik_input>
W0NIM11bQ0gyXWMxbltjSF1uYyhjMUYpTjJbQ0gyXVtDSDJdT1tDSDJdW0NASF0yQyg9TylbTkgyXQ==

> <s_epik_cmdline>
J2VwaWtfcHl0aG9uJywgJy1waCcsICc3LjAnLCAnLXRuJywgJzgnLCAnLW1hJywgJzIwMCcsICctbWV0YWxfYmluZGluZycsICctaW1hZScsICc8aW5maWxlLm1hZT4nLCAnLW9tYWUnLCAnPG91dGZpbGUubWFlPic=

> <r_lp_tautomer_probability>
1

> <r_epik_Ionization_Penalty>
2.73136e-05

> <r_epik_Ionization_Penalty_Charging>
0

> <r_epik_Ionization_Penalty_Neutral>
2.73136e-05

> <r_epik_State_Penalty>
-0

> <r_epik_Charging_Adjusted_Penalty>
0

> <i_epik_Tot_Q>
0

> <i_epik_Tot_abs_Q>
0

> <r_epik_Metal_State_Penalty>
-0

> <b_epik_Metal_Only>
0

> <s_lp_Force_Field>
OPLS_2005

> <r_lp_Energy>
13.0675

> <b_lp_Chiralities_Consistent>
1

> <s_lp_Variant>
AV-unprocessed.smi:2488-2

> <Gold.Version>
5.8.1

> <Gold.Id.Protein>
6NUR|6NUR_protein|mol2

> <Gold.PLP.Fitness>
34.3828

> <Gold.PLP.PLP>
-25.5555

> <Gold.PLP.part.hbond>
-2.9219

> <Gold.PLP.part.metal>
0.0000

> <Gold.PLP.part.buried>
-5.2530

> <Gold.PLP.part.nonpolar>
-18.2249

> <Gold.PLP.part.repulsive>
0.3290

> <Gold.PLP.ligand.clash>
0.0000

> <Gold.PLP.ligand.torsion>
0.4438

> <Gold.PLP.Chemscore.Hbond>
2.1774

> <Gold.PLP.Chemscore.CHOScore>
1.0000

> <Gold.PLP.Chemscore.Metal>
0.0000

> <Gold.Chemscore.Hbonds>
donor molecule, donor type, donor heavy atom, donor atom, acceptor molecule, acceptor atom, score
      L1  H    15    32       P1  7957  1.00
      L1  H    15    33       P1  7948  0.51
      P1  H  7989  7998       L1    16  1.00
      L1  C     5    24       P1  8028  0.50

> <Gold.PLP.Chemscore.Internal.Correction>
0.1827

> <Gold.Rescore>
     Score         DG    S(hbond)    S(metal)    S(lipo)     H(rot)  DE(clash)    DE(int)     intcor
     11.60     -13.07       2.00        0.00      48.46       1.86       0.00       1.47       ----

> <Gold.Chemscore.Fitness>
11.5990

> <Gold.Chemscore.DG>
-13.0720

> <Gold.Chemscore.ZeroCoef>
-5.4800

> <Gold.Chemscore.Hbond>
1.9998

> <Gold.Chemscore.Metal>
0.0000

> <Gold.Chemscore.Lipo>
48.4578

> <Gold.Chemscore.Internal_Hbond>
0.0000

> <Gold.Chemscore.DEClash>
0.0000

> <Gold.Chemscore.DEInternal>
1.4730

> <Gold.Chemscore.Rot>
1.8582

> <Gold.Chemscore.Internal.Correction>
   9.000000E+99

> <Gold.Chemscore.Hbonds>
donor molecule, donor type, donor heavy atom, donor atom, acceptor molecule, acceptor atom, score
      L1  H    15    32       P1  7957  0.47
      L1  H    15    33       P1  7948  0.48
      P1  H  7989  7998       L1    16  0.96

> <Gold.Chemscore.Hbond.Weighted>
-6.6795

> <Gold.Chemscore.Metal.Weighted>
-0.0000

> <Gold.Chemscore.Lipo.Weighted>
-5.6696

> <Gold.Chemscore.Internal_Hbond.Weighted>
0.0000

> <Gold.Chemscore.DEClash.Weighted>
0.0000

> <Gold.Chemscore.DEInternal.Weighted>
1.4730

> <Gold.Chemscore.Rot.Weighted>
4.7570

> <Gold.Chemscore.Internal.Correction.Weighted>
   9.000000E+99

> <Gold.Protein.RotatedTorsions>
[ 6907 6896 6895 6894 ] final -116.31 input  -60.11 | X-H torsion
[ 7974 7965 7964 7962 ] final -130.84 input  175.53 | X-H torsion
[ 8008 7997 7996 7995 ] final -114.04 input   59.86 | X-H torsion
[ 10167 10162 10161 10158 ] final   50.69 input  -65.29 | X-H torsion
[ 10718 10713 10712 10709 ] final  138.95 input   66.30 | X-H torsion
[ 10763 10752 10751 10750 ] final  149.72 input  -60.55 | X-H torsion
[ 11005 11000 10999 10996 ] final  -38.43 input  -57.11 | X-H torsion

> <Gold.Protein.ActiveResidues>
 VAL166  LYS551  ARG553  GLY616  TRP617  ASP618  TYR619  PRO620  LYS621  CYS622 
 ASP623  PHE694  ASN695  SER759  ASP760  ASP761  ALA762  ILE779  LEU786  VAL792 
 PHE793  MET794  SER795  GLU796  ALA797  LYS798  CYS799  TRP800  GLU811  SER814 

> <Gold.Protein.RotatedAtoms>
  150.8046  133.8535  159.3211 H   0  0  0  0  0  0  0  0  0  0  0  0  # atno 6907 bound_to 6896
  151.6338  135.1018  160.0136 H   0  0  0  0  0  0  0  0  0  0  0  0  # atno 6908 bound_to 6896
  152.4135  133.6962  159.6454 H   0  0  0  0  0  0  0  0  0  0  0  0  # atno 6909 bound_to 6896
  144.9436  140.7267  143.4831 H   0  0  0  0  0  0  0  0  0  0  0  0  # atno 7974 bound_to 7965
  155.0300  140.0393  157.2470 H   0  0  0  0  0  0  0  0  0  0  0  0  # atno 8008 bound_to 7997
  154.7304  140.2729  155.6437 H   0  0  0  0  0  0  0  0  0  0  0  0  # atno 8009 bound_to 7997
  156.2840  140.2685  156.2003 H   0  0  0  0  0  0  0  0  0  0  0  0  # atno 8010 bound_to 7997
  140.2698  144.3278  150.6293 H   0  0  0  0  0  0  0  0  0  0  0  0  # atno 10167 bound_to 10162
  157.4198  131.1037  151.0366 H   0  0  0  0  0  0  0  0  0  0  0  0  # atno 10718 bound_to 10713
  154.0758  135.2863  155.3299 H   0  0  0  0  0  0  0  0  0  0  0  0  # atno 10763 bound_to 10752
  154.6716  135.5297  153.8149 H   0  0  0  0  0  0  0  0  0  0  0  0  # atno 10764 bound_to 10752
  153.0467  135.6559  154.0937 H   0  0  0  0  0  0  0  0  0  0  0  0  # atno 10765 bound_to 10752
  141.0027  133.6947  156.2052 H   0  0  0  0  0  0  0  0  0  0  0  0  # atno 11005 bound_to 11000
  145.2952  139.1869  143.4719 LP  0  0  0  0  0  0  0  0  0  0  0  0  # atno 17320 bound_to 7965
  146.3295  140.2935  142.8616 LP  0  0  0  0  0  0  0  0  0  0  0  0  # atno 17321 bound_to 7965
  140.5899  143.2168  151.7273 LP  0  0  0  0  0  0  0  0  0  0  0  0  # atno 17342 bound_to 10162
  139.4992  144.3955  152.0236 LP  0  0  0  0  0  0  0  0  0  0  0  0  # atno 17343 bound_to 10162
  157.1300  130.6098  149.5527 LP  0  0  0  0  0  0  0  0  0  0  0  0  # atno 17370 bound_to 10713
  155.9877  130.4917  150.7136 LP  0  0  0  0  0  0  0  0  0  0  0  0  # atno 17371 bound_to 10713
  140.6863  134.4713  157.5589 LP  0  0  0  0  0  0  0  0  0  0  0  0  # atno 17394 bound_to 11000
  139.9047  134.8476  156.1754 LP  0  0  0  0  0  0  0  0  0  0  0  0  # atno 17395 bound_to 11000

$$$$
