#       Name:                AV-unprocessed.smi:699
#       Creating user name   scv26
#       Creation time:       Fri Mar 27 00:38:11 2020


#       File generated by GOLD software.
#

@<TRIPOS>MOLECULE
AV-unprocessed.smi:699
    39    40     1
SMALL
NO_CHARGES


@<TRIPOS>ATOM
      1 ****        -0.9848  -0.9954  -2.8302 N.am           1 S1                 0.0000
      2 ****        -1.3437  -1.5770  -1.6831 C.2            1 S1                 0.0000
      3 ****        -0.9394  -2.6949  -1.3677 O.2            1 S1                 0.0000
      4 ****        -2.2871  -0.7767  -0.7589 C.3            1 S1                 0.0000
      5 ****        -3.5886  -1.5496  -0.4984 C.3            1 S1                 0.0000
      6 ****        -3.3179  -2.4301   0.7257 C.3            1 S1                 0.0000
      7 ****        -2.2184  -1.7193   1.5262 C.3            1 S1                 0.0000
      8 ****        -1.7468  -0.5268   0.6736 C.3            1 S1                 0.0000
      9 ****        -0.2957  -0.3527   0.7604 N.am           1 S1                 0.0000
     10 ****         0.3623   0.7753   0.4563 C.2            1 S1                 0.0000
     11 ****        -0.1992   1.8008   0.0719 O.2            1 S1                 0.0000
     12 ****         1.6866   0.6255   0.6341 N.am           1 S1                 0.0000
     13 ****         2.7333   1.5678   0.4354 C.ar           1 S1                 0.0000
     14 ****         3.9949   1.2644   0.9881 C.ar           1 S1                 0.0000
     15 ****         5.0567   2.1716   0.8005 C.ar           1 S1                 0.0000
     16 ****         4.9340   3.3236   0.1086 N.ar           1 S1                 0.0000
     17 ****         3.7296   3.6079  -0.4300 C.ar           1 S1                 0.0000
     18 ****         2.6037   2.7697  -0.3024 C.ar           1 S1                 0.0000
     19 ****        -0.3677  -1.4801  -3.4655 H              1 S1                 0.0000
     20 ****        -1.3290  -0.0740  -3.0581 H              1 S1                 0.0000
     21 ****        -2.5107   0.1769  -1.2405 H              1 S1                 0.0000
     22 ****        -4.3853  -0.8409  -0.2679 H              1 S1                 0.0000
     23 ****        -3.9230  -2.1353  -1.3561 H              1 S1                 0.0000
     24 ****        -4.2201  -2.5878   1.3172 H              1 S1                 0.0000
     25 ****        -2.9644  -3.4115   0.4074 H              1 S1                 0.0000
     26 ****        -2.5891  -1.3779   2.4931 H              1 S1                 0.0000
     27 ****        -1.4043  -2.4182   1.7237 H              1 S1                 0.0000
     28 ****        -2.2311   0.3705   1.0644 H              1 S1                 0.0000
     29 ****         0.2405  -1.1521   1.0649 H              1 S1                 0.0000
     30 ****         1.9800  -0.2667   1.0039 H              1 S1                 0.0000
     31 ****         4.1508   0.3553   1.5505 H              1 S1                 0.0000
     32 ****         6.0315   1.9649   1.2167 H              1 S1                 0.0000
     33 ****         3.6613   4.5309  -0.9863 H              1 S1                 0.0000
     34 ****         1.6811   3.0629  -0.7778 H              1 S1                 0.0000
     35 ****        -0.3240  -3.1945  -1.9774 LP             1 S1                 0.0000
     36 ****        -1.2260  -3.1043  -0.5015 LP             1 S1                 0.0000
     37 ****        -1.1942   1.8191  -0.0266 LP             1 S1                 0.0000
     38 ****         0.3395   2.6157  -0.1419 LP             1 S1                 0.0000
     39 ****         5.7092   3.9456  -0.0013 LP             1 S1                 0.0000
@<TRIPOS>BOND
    1    1    2 am    
    2    1   19 1     
    3    1   20 1     
    4    2    3 2     
    5    2    4 1     
    6    4    8 1     
    7    4    5 1     
    8    4   21 1     
    9    5    6 1     
   10    5   22 1     
   11    5   23 1     
   12    6    7 1     
   13    6   24 1     
   14    6   25 1     
   15    7    8 1     
   16    7   26 1     
   17    7   27 1     
   18    8    9 1     
   19    8   28 1     
   20    9   10 am    
   21    9   29 1     
   22   10   11 2     
   23   10   12 am    
   24   12   13 1     
   25   12   30 1     
   26   13   18 ar    
   27   13   14 ar    
   28   14   15 ar    
   29   14   31 1     
   30   15   16 ar    
   31   15   32 1     
   32   16   17 ar    
   33   17   18 ar    
   34   17   33 1     
   35   18   34 1     
   36    3   35 1     
   37    3   36 1     
   38   11   37 1     
   39   11   38 1     
   40   16   39 1     
@<TRIPOS>SUBSTRUCTURE
      1 S1             1
@<TRIPOS>SET
LONE_PAIRS      STATIC     ATOMS    <user>   **** ""
5 35 36 37 38 39
DONOR_HYDROGENS      STATIC     ATOMS    <user>   **** ""
4 19 20 29 30
ATOM$BLUE        STATIC     ATOMS    COLORGROUP SYSTEM
5 35 36 37 38 39
ATOM$RED        STATIC     ATOMS    COLORGROUP SYSTEM
4 19 20 29 30
