AV-unprocessed.smi:153|AV-procd|sdf|1258|dock7
  -GOLD-   2262018503D 1   1.00000     0.00000
 Structure written by MMmdl.
 59 62  0  0  0  0  0  0  0  0  1 V2000
  153.0370  144.1025  158.4832 C   0  0  0  0  0  0  0  0  0  0  0  0
  151.5753  144.1725  158.0157 C   0  0  2  0  0  0  0  0  0  0  0  0
  150.8009  144.7695  159.0513 O   0  0  0  0  0  0  0  0  0  0  0  0
  149.4653  144.3164  158.9250 C   0  0  0  0  0  0  0  0  0  0  0  0
  149.6570  142.8384  158.6228 C   0  0  0  0  0  0  0  0  0  0  0  0
  150.8698  142.8243  157.6926 C   0  0  1  0  0  0  0  0  0  0  0  0
  150.3946  142.8991  156.3591 O   0  0  0  0  0  0  0  0  0  0  0  0
  151.7337  141.5418  157.8265 C   0  0  0  0  0  0  0  0  0  0  0  0
  151.0500  140.3367  157.3802 N   0  0  0  0  0  0  0  0  0  0  0  0
  149.6906  140.1406  157.3114 C   0  0  0  0  0  0  0  0  0  0  0  0
  149.3215  138.9721  156.8657 N   0  0  0  0  0  0  0  0  0  0  0  0
  150.5136  138.2999  156.6116 C   0  0  0  0  0  0  0  0  0  0  0  0
  150.8503  137.0026  156.1127 C   0  0  0  0  0  0  0  0  0  0  0  0
  149.9424  136.0620  155.7148 N   0  0  0  0  0  0  0  0  0  0  0  0
  150.4045  134.9282  154.9226 C   0  0  0  0  0  0  0  0  0  0  0  0
  148.6814  135.9048  156.4442 C   0  0  0  0  0  0  0  0  0  0  0  0
  148.8938  135.5556  157.9346 C   0  0  2  0  0  0  0  0  0  0  0  0
  149.6415  134.3580  158.0091 O   0  0  0  0  0  0  0  0  0  0  0  0
  147.5519  135.3132  158.6584 C   0  0  0  0  0  0  0  0  0  0  0  0
  147.6483  135.0926  160.1021 N   0  0  0  0  0  0  0  0  0  0  0  0
  146.7184  134.0540  160.5331 C   0  0  0  0  0  0  0  0  0  0  0  0
  146.7947  133.8050  162.0494 C   0  0  0  0  0  0  0  0  0  0  0  0
  146.5393  135.0211  162.7441 O   0  0  0  0  0  0  0  0  0  0  0  0
  147.4504  136.0558  162.3890 C   0  0  0  0  0  0  0  0  0  0  0  0
  147.3826  136.3084  160.8728 C   0  0  0  0  0  0  0  0  0  0  0  0
  152.1772  136.7061  156.0369 N   0  0  0  0  0  0  0  0  0  0  0  0
  153.1048  137.5971  156.3942 C   0  0  0  0  0  0  0  0  0  0  0  0
  152.9339  138.8354  156.8544 N   0  0  0  0  0  0  0  0  0  0  0  0
  151.6107  139.1468  156.9494 C   0  0  0  0  0  0  0  0  0  0  0  0
  153.6765  143.6574  157.7212 H   0  0  0  0  0  0  0  0  0  0  0  0
  153.1393  143.5218  159.3997 H   0  0  0  0  0  0  0  0  0  0  0  0
  153.4214  145.1020  158.6878 H   0  0  0  0  0  0  0  0  0  0  0  0
  151.5250  144.8406  157.1535 H   0  0  0  0  0  0  0  0  0  0  0  0
  148.8911  144.4921  159.8347 H   0  0  0  0  0  0  0  0  0  0  0  0
  148.9740  144.8293  158.0964 H   0  0  0  0  0  0  0  0  0  0  0  0
  149.8932  142.3239  159.5549 H   0  0  0  0  0  0  0  0  0  0  0  0
  148.7683  142.3673  158.2002 H   0  0  0  0  0  0  0  0  0  0  0  0
  149.9109  143.7046  156.2571 H   0  0  0  0  0  0  0  0  0  0  0  0
  152.6602  141.6410  157.2591 H   0  0  0  0  0  0  0  0  0  0  0  0
  152.0231  141.3857  158.8660 H   0  0  0  0  0  0  0  0  0  0  0  0
  148.9754  140.8981  157.5982 H   0  0  0  0  0  0  0  0  0  0  0  0
  150.5693  135.2268  153.8872 H   0  0  0  0  0  0  0  0  0  0  0  0
  149.6667  134.1253  154.9187 H   0  0  0  0  0  0  0  0  0  0  0  0
  151.3321  134.5205  155.3260 H   0  0  0  0  0  0  0  0  0  0  0  0
  148.1072  136.8267  156.3440 H   0  0  0  0  0  0  0  0  0  0  0  0
  148.0679  135.1467  155.9550 H   0  0  0  0  0  0  0  0  0  0  0  0
  149.4595  136.3486  158.4210 H   0  0  0  0  0  0  0  0  0  0  0  0
  149.4695  133.8473  157.2331 H   0  0  0  0  0  0  0  0  0  0  0  0
  146.8917  136.1650  158.4868 H   0  0  0  0  0  0  0  0  0  0  0  0
  147.0554  134.4637  158.1863 H   0  0  0  0  0  0  0  0  0  0  0  0
  145.6986  134.3350  160.2655 H   0  0  0  0  0  0  0  0  0  0  0  0
  146.9341  133.1234  160.0069 H   0  0  0  0  0  0  0  0  0  0  0  0
  146.0563  133.0612  162.3491 H   0  0  0  0  0  0  0  0  0  0  0  0
  147.7750  133.4157  162.3290 H   0  0  0  0  0  0  0  0  0  0  0  0
  147.1908  136.9621  162.9360 H   0  0  0  0  0  0  0  0  0  0  0  0
  148.4620  135.7780  162.6888 H   0  0  0  0  0  0  0  0  0  0  0  0
  148.0990  137.0891  160.6226 H   0  0  0  0  0  0  0  0  0  0  0  0
  146.3961  136.6998  160.6187 H   0  0  0  0  0  0  0  0  0  0  0  0
  154.1299  137.2716  156.2938 H   0  0  0  0  0  0  0  0  0  0  0  0
  1  2  1  0  0  0  0
  1 30  1  0  0  0  0
  1 31  1  0  0  0  0
  1 32  1  0  0  0  0
  2  6  1  0  0  0  0
  2  3  1  0  0  0  0
  2 33  1  0  0  0  0
  3  4  1  0  0  0  0
  4  5  1  0  0  0  0
  4 34  1  0  0  0  0
  4 35  1  0  0  0  0
  5  6  1  0  0  0  0
  5 36  1  0  0  0  0
  5 37  1  0  0  0  0
  6  7  1  0  0  0  0
  6  8  1  0  0  0  0
  7 38  1  0  0  0  0
  8  9  1  0  0  0  0
  8 39  1  0  0  0  0
  8 40  1  0  0  0  0
  9 29  1  0  0  0  0
  9 10  1  0  0  0  0
 10 11  2  0  0  0  0
 10 41  1  0  0  0  0
 11 12  1  0  0  0  0
 12 29  2  0  0  0  0
 12 13  1  0  0  0  0
 13 14  1  0  0  0  0
 13 26  2  0  0  0  0
 14 15  1  0  0  0  0
 14 16  1  0  0  0  0
 15 42  1  0  0  0  0
 15 43  1  0  0  0  0
 15 44  1  0  0  0  0
 16 17  1  0  0  0  0
 16 45  1  0  0  0  0
 16 46  1  0  0  0  0
 17 18  1  0  0  0  0
 17 19  1  0  0  0  0
 17 47  1  0  0  0  0
 18 48  1  0  0  0  0
 19 20  1  0  0  0  0
 19 49  1  0  0  0  0
 19 50  1  0  0  0  0
 20 25  1  0  0  0  0
 20 21  1  0  0  0  0
 21 22  1  0  0  0  0
 21 51  1  0  0  0  0
 21 52  1  0  0  0  0
 22 23  1  0  0  0  0
 22 53  1  0  0  0  0
 22 54  1  0  0  0  0
 23 24  1  0  0  0  0
 24 25  1  0  0  0  0
 24 55  1  0  0  0  0
 24 56  1  0  0  0  0
 25 57  1  0  0  0  0
 25 58  1  0  0  0  0
 26 27  1  0  0  0  0
 27 28  2  0  0  0  0
 27 59  1  0  0  0  0
 28 29  1  0  0  0  0
M  END
> <s_m_source_file>
AV-unprocessed.smi

> <i_m_source_file_index>
153

> <i_lp_mmshare_version>
43012

> <i_f3d_flags>
0

> <s_epik_input>
W0NIMl0xW0NIMl1PW0NAQEhdKFtDSDNdKVtDQEBdMShbT0hdKVtDSDJdbihbY0hdbjIpYyhjMjMpbltjSF1uYzNOKFtDSDNdKVtDSDJdW0NASF0oW09IXSlbQ0gyXU40W0NIMl1bQ0gyXU9bQ0gyXVtDSDJdNA==

> <s_epik_cmdline>
J2VwaWtfcHl0aG9uJywgJy1waCcsICc3LjAnLCAnLXRuJywgJzgnLCAnLW1hJywgJzIwMCcsICctbWV0YWxfYmluZGluZycsICctaW1hZScsICc8aW5maWxlLm1hZT4nLCAnLW9tYWUnLCAnPG91dGZpbGUubWFlPic=

> <r_lp_tautomer_probability>
1

> <r_epik_Ionization_Penalty>
0.424123

> <r_epik_Ionization_Penalty_Charging>
0

> <r_epik_Ionization_Penalty_Neutral>
0.424123

> <r_epik_State_Penalty>
0.421495

> <r_epik_Charging_Adjusted_Penalty>
0.421495

> <i_epik_Tot_Q>
0

> <i_epik_Tot_abs_Q>
0

> <r_epik_Metal_State_Penalty>
0.421223

> <b_epik_Metal_Only>
0

> <s_lp_Force_Field>
OPLS_2005

> <r_lp_Energy>
56.4475

> <b_lp_Chiralities_Consistent>
1

> <s_lp_Variant>
AV-unprocessed.smi:153-9

> <Gold.Version>
5.8.1

> <Gold.Id.Protein>
6NUR|6NUR_protein|mol2

> <Gold.PLP.Fitness>
50.6303

> <Gold.PLP.PLP>
-40.9942

> <Gold.PLP.part.hbond>
-3.8240

> <Gold.PLP.part.metal>
0.0000

> <Gold.PLP.part.buried>
-6.2010

> <Gold.PLP.part.nonpolar>
-32.3952

> <Gold.PLP.part.repulsive>
0.1520

> <Gold.PLP.ligand.clash>
0.0068

> <Gold.PLP.ligand.torsion>
1.4025

> <Gold.PLP.Chemscore.Hbond>
4.0000

> <Gold.PLP.Chemscore.CHOScore>
0.0000

> <Gold.PLP.Chemscore.Metal>
0.0000

> <Gold.Chemscore.Hbonds>
donor molecule, donor type, donor heavy atom, donor atom, acceptor molecule, acceptor atom, score
      L1  H     7    38       P1  8028  1.00
      P1  H  6896  6907       L1    18  1.00
      P1  H  7997  8008       L1    28  1.00
      P1  H 10752 10764       L1    26  1.00

> <Gold.PLP.Chemscore.Internal.Correction>
0.4478

> <Gold.Rescore>
     Score         DG    S(hbond)    S(metal)    S(lipo)     H(rot)  DE(clash)    DE(int)     intcor
     17.34     -19.63       3.55        0.00      96.52       3.52       0.13       2.16       ----

> <Gold.Chemscore.Fitness>
17.3400

> <Gold.Chemscore.DG>
-19.6321

> <Gold.Chemscore.ZeroCoef>
-5.4800

> <Gold.Chemscore.Hbond>
3.5519

> <Gold.Chemscore.Metal>
0.0000

> <Gold.Chemscore.Lipo>
96.5156

> <Gold.Chemscore.Internal_Hbond>
0.0000

> <Gold.Chemscore.DEClash>
0.1334

> <Gold.Chemscore.DEInternal>
2.1587

> <Gold.Chemscore.Rot>
3.5170

> <Gold.Chemscore.Internal.Correction>
   9.000000E+99

> <Gold.Chemscore.Hbonds>
donor molecule, donor type, donor heavy atom, donor atom, acceptor molecule, acceptor atom, score
      L1  H     7    38       P1  8028  0.96
      P1  H  6896  6907       L1    18  0.98
      P1  H  7997  8008       L1    28  0.94
      P1  H 10752 10764       L1    26  0.34

> <Gold.Chemscore.Hbond.Weighted>
-11.8634

> <Gold.Chemscore.Metal.Weighted>
-0.0000

> <Gold.Chemscore.Lipo.Weighted>
-11.2923

> <Gold.Chemscore.Internal_Hbond.Weighted>
0.0000

> <Gold.Chemscore.DEClash.Weighted>
0.1334

> <Gold.Chemscore.DEInternal.Weighted>
2.1587

> <Gold.Chemscore.Rot.Weighted>
9.0036

> <Gold.Chemscore.Internal.Correction.Weighted>
   9.000000E+99

> <Gold.Protein.RotatedTorsions>
[ 6907 6896 6895 6894 ] final -105.60 input  -60.11 | X-H torsion
[ 7974 7965 7964 7962 ] final   10.32 input  175.53 | X-H torsion
[ 8008 7997 7996 7995 ] final  -62.77 input   59.86 | X-H torsion
[ 10167 10162 10161 10158 ] final   86.29 input  -65.29 | X-H torsion
[ 10718 10713 10712 10709 ] final   17.26 input   66.30 | X-H torsion
[ 10763 10752 10751 10750 ] final  -29.33 input  -60.55 | X-H torsion
[ 11005 11000 10999 10996 ] final  139.80 input  -57.11 | X-H torsion

> <Gold.Protein.ActiveResidues>
 VAL166  LYS551  ARG553  GLY616  TRP617  ASP618  TYR619  PRO620  LYS621  CYS622 
 ASP623  PHE694  ASN695  SER759  ASP760  ASP761  ALA762  ILE779  LEU786  VAL792 
 PHE793  MET794  SER795  GLU796  ALA797  LYS798  CYS799  TRP800  GLU811  SER814 

> <Gold.Protein.RotatedAtoms>
  150.7345  134.0101  159.3666 H   0  0  0  0  0  0  0  0  0  0  0  0  # atno 6907 bound_to 6896
  151.8061  135.0692  160.0416 H   0  0  0  0  0  0  0  0  0  0  0  0  # atno 6908 bound_to 6896
  152.3106  133.5713  159.5715 H   0  0  0  0  0  0  0  0  0  0  0  0  # atno 6909 bound_to 6896
  146.2390  139.9652  142.8453 H   0  0  0  0  0  0  0  0  0  0  0  0  # atno 7974 bound_to 7965
  154.4517  140.0989  156.6638 H   0  0  0  0  0  0  0  0  0  0  0  0  # atno 8008 bound_to 7997
  155.5264  140.3480  155.4398 H   0  0  0  0  0  0  0  0  0  0  0  0  # atno 8009 bound_to 7997
  156.0695  140.1346  156.9835 H   0  0  0  0  0  0  0  0  0  0  0  0  # atno 8010 bound_to 7997
  139.8890  144.6396  150.8759 H   0  0  0  0  0  0  0  0  0  0  0  0  # atno 10167 bound_to 10162
  157.0796  130.6382  149.5823 H   0  0  0  0  0  0  0  0  0  0  0  0  # atno 10718 bound_to 10713
  153.7628  135.6918  153.4922 H   0  0  0  0  0  0  0  0  0  0  0  0  # atno 10763 bound_to 10752
  153.1926  135.4465  155.0167 H   0  0  0  0  0  0  0  0  0  0  0  0  # atno 10764 bound_to 10752
  154.8146  135.3393  154.7143 H   0  0  0  0  0  0  0  0  0  0  0  0  # atno 10765 bound_to 10752
  140.0280  134.9365  157.0607 H   0  0  0  0  0  0  0  0  0  0  0  0  # atno 11005 bound_to 11000
  145.1733  140.9732  143.4309 LP  0  0  0  0  0  0  0  0  0  0  0  0  # atno 17320 bound_to 7965
  145.0008  139.3600  143.6168 LP  0  0  0  0  0  0  0  0  0  0  0  0  # atno 17321 bound_to 7965
  140.7730  143.3525  151.1986 LP  0  0  0  0  0  0  0  0  0  0  0  0  # atno 17342 bound_to 10162
  139.7127  143.9351  152.2954 LP  0  0  0  0  0  0  0  0  0  0  0  0  # atno 17343 bound_to 10162
  155.9927  130.4986  150.7352 LP  0  0  0  0  0  0  0  0  0  0  0  0  # atno 17370 bound_to 10713
  157.4811  131.0902  151.0535 LP  0  0  0  0  0  0  0  0  0  0  0  0  # atno 17371 bound_to 10713
  140.4273  134.1818  155.7166 LP  0  0  0  0  0  0  0  0  0  0  0  0  # atno 17394 bound_to 11000
  141.1814  133.8405  157.1243 LP  0  0  0  0  0  0  0  0  0  0  0  0  # atno 17395 bound_to 11000

$$$$
