AV-unprocessed.smi:3329|AV-procd|sdf|12797|dock4
  -GOLD-   2272019153D 1   1.00000     0.00000
 Structure written by MMmdl.
 41 42  0  0  0  0  0  0  0  0  1 V2000
  152.6298  142.9147  160.2850 C   0  0  0  0  0  0  0  0  0  0  0  0
  153.1168  141.5683  159.8324 C   0  0  0  0  0  0  0  0  0  0  0  0
  154.4474  141.1842  159.5007 C   0  0  0  0  0  0  0  0  0  0  0  0
  154.5419  139.9149  159.1387 N   0  0  0  0  0  0  0  0  0  0  0  0
  153.2789  139.4462  159.2243 N   0  0  0  0  0  0  0  0  0  0  0  0
  153.0002  138.0613  158.8988 C   0  0  0  0  0  0  0  0  0  0  0  0
  151.5616  137.6716  159.2686 C   0  0  0  0  0  0  0  0  0  0  0  0
  151.0336  136.7654  158.2608 N   0  0  0  0  0  0  0  0  0  0  0  0
  149.6125  137.0291  158.0193 C   0  0  0  0  0  0  0  0  0  0  0  0
  148.7323  135.9983  158.7226 C   0  0  0  0  0  0  0  0  0  0  0  0
  149.0113  134.8027  158.6459 O   0  0  0  0  0  0  0  0  0  0  0  0
  147.6834  136.4811  159.4104 N   0  0  0  0  0  0  0  0  0  0  0  0
  146.6903  135.7341  160.1872 C   0  0  1  0  0  0  0  0  0  0  0  0
  145.6688  136.7150  160.7969 C   0  0  0  0  0  0  0  0  0  0  0  0
  145.9621  134.8658  159.2434 C   0  0  0  0  0  0  0  0  0  0  0  0
  145.3888  134.1871  158.5014 N   0  0  0  0  0  0  0  0  0  0  0  0
  147.3054  134.8760  161.2987 C   0  0  0  0  0  0  0  0  0  0  0  0
  146.5413  134.4738  162.5400 C   0  0  0  0  0  0  0  0  0  0  0  0
  147.6934  135.4492  162.6437 C   0  0  0  0  0  0  0  0  0  0  0  0
  152.3986  140.4222  159.6391 C   0  0  0  0  0  0  0  0  0  0  0  0
  153.4551  143.5830  160.5313 H   0  0  0  0  0  0  0  0  0  0  0  0
  152.0032  142.8385  161.1738 H   0  0  0  0  0  0  0  0  0  0  0  0
  152.0369  143.4070  159.5140 H   0  0  0  0  0  0  0  0  0  0  0  0
  155.3434  141.7874  159.5140 H   0  0  0  0  0  0  0  0  0  0  0  0
  153.1706  137.9177  157.8309 H   0  0  0  0  0  0  0  0  0  0  0  0
  153.7184  137.4282  159.4224 H   0  0  0  0  0  0  0  0  0  0  0  0
  151.5425  137.1885  160.2468 H   0  0  0  0  0  0  0  0  0  0  0  0
  150.9369  138.5641  159.3297 H   0  0  0  0  0  0  0  0  0  0  0  0
  151.1863  135.8127  158.5599 H   0  0  0  0  0  0  0  0  0  0  0  0
  149.3592  138.0347  158.3605 H   0  0  0  0  0  0  0  0  0  0  0  0
  149.4037  136.9895  156.9491 H   0  0  0  0  0  0  0  0  0  0  0  0
  147.5580  137.4830  159.3980 H   0  0  0  0  0  0  0  0  0  0  0  0
  144.8598  136.1778  161.2931 H   0  0  0  0  0  0  0  0  0  0  0  0
  145.2176  137.3456  160.0300 H   0  0  0  0  0  0  0  0  0  0  0  0
  146.1222  137.3706  161.5407 H   0  0  0  0  0  0  0  0  0  0  0  0
  147.9994  134.1265  160.9242 H   0  0  0  0  0  0  0  0  0  0  0  0
  145.5359  134.8657  162.6784 H   0  0  0  0  0  0  0  0  0  0  0  0
  146.7008  133.4665  162.9193 H   0  0  0  0  0  0  0  0  0  0  0  0
  148.6181  135.0894  163.0903 H   0  0  0  0  0  0  0  0  0  0  0  0
  147.4543  136.4898  162.8524 H   0  0  0  0  0  0  0  0  0  0  0  0
  151.3446  140.2220  159.7631 H   0  0  0  0  0  0  0  0  0  0  0  0
  1  2  1  0  0  0  0
  1 21  1  0  0  0  0
  1 22  1  0  0  0  0
  1 23  1  0  0  0  0
  2 20  2  0  0  0  0
  2  3  1  0  0  0  0
  3  4  2  0  0  0  0
  3 24  1  0  0  0  0
  4  5  1  0  0  0  0
  5  6  1  0  0  0  0
  5 20  1  0  0  0  0
  6  7  1  0  0  0  0
  6 25  1  0  0  0  0
  6 26  1  0  0  0  0
  7  8  1  0  0  0  0
  7 27  1  0  0  0  0
  7 28  1  0  0  0  0
  8  9  1  0  0  0  0
  8 29  1  0  0  0  0
  9 10  1  0  0  0  0
  9 30  1  0  0  0  0
  9 31  1  0  0  0  0
 10 11  2  0  0  0  0
 10 12  1  0  0  0  0
 12 13  1  0  0  0  0
 12 32  1  0  0  0  0
 13 14  1  0  0  0  0
 13 15  1  0  0  0  0
 13 17  1  0  0  0  0
 14 33  1  0  0  0  0
 14 34  1  0  0  0  0
 14 35  1  0  0  0  0
 15 16  3  0  0  0  0
 17 19  1  0  0  0  0
 17 18  1  0  0  0  0
 17 36  1  0  0  0  0
 18 19  1  0  0  0  0
 18 37  1  0  0  0  0
 18 38  1  0  0  0  0
 19 39  1  0  0  0  0
 19 40  1  0  0  0  0
 20 41  1  0  0  0  0
M  END
> <s_m_source_file>
AV-unprocessed.smi

> <i_m_source_file_index>
3329

> <i_lp_mmshare_version>
43012

> <i_f3d_flags>
0

> <s_epik_input>
W0NIM11jMVtjSF1ubihbY0hdMSlbQ0gyXVtDSDJdW05IXVtDSDJdQyg9TylbTkhdW0NAQF0oW0NIM10pKEMjTilbQ0hdMltDSDJdW0NIMl0y

> <s_epik_cmdline>
J2VwaWtfcHl0aG9uJywgJy1waCcsICc3LjAnLCAnLXRuJywgJzgnLCAnLW1hJywgJzIwMCcsICctbWV0YWxfYmluZGluZycsICctaW1hZScsICc8aW5maWxlLm1hZT4nLCAnLW9tYWUnLCAnPG91dGZpbGUubWFlPic=

> <r_lp_tautomer_probability>
1

> <r_epik_Ionization_Penalty>
0.481866

> <r_epik_Ionization_Penalty_Charging>
0

> <r_epik_Ionization_Penalty_Neutral>
0.481866

> <r_epik_State_Penalty>
0.48398

> <r_epik_Charging_Adjusted_Penalty>
0.48398

> <i_epik_Tot_Q>
0

> <i_epik_Tot_abs_Q>
0

> <r_epik_Metal_State_Penalty>
0.5042

> <b_epik_Metal_Only>
0

> <s_lp_Force_Field>
OPLS_2005

> <r_lp_Energy>
12.8497

> <b_lp_Chiralities_Consistent>
1

> <s_lp_Variant>
AV-unprocessed.smi:3329-3

> <Gold.Version>
5.8.1

> <Gold.Id.Protein>
6NUR|6NUR_protein|mol2

> <Gold.PLP.Fitness>
38.9369

> <Gold.PLP.PLP>
-34.9712

> <Gold.PLP.part.hbond>
-2.4038

> <Gold.PLP.part.metal>
0.0000

> <Gold.PLP.part.buried>
-4.9899

> <Gold.PLP.part.nonpolar>
-27.5050

> <Gold.PLP.part.repulsive>
0.1632

> <Gold.PLP.ligand.clash>
0.0000

> <Gold.PLP.ligand.torsion>
1.8159

> <Gold.PLP.Chemscore.Hbond>
1.9913

> <Gold.PLP.Chemscore.CHOScore>
0.0000

> <Gold.PLP.Chemscore.Metal>
0.0000

> <Gold.Chemscore.Hbonds>
donor molecule, donor type, donor heavy atom, donor atom, acceptor molecule, acceptor atom, score
      P1  H  6896  6907       L1    11  1.00
      P1  H  7997  8009       L1     4  1.00

> <Gold.PLP.Chemscore.Internal.Correction>
1.6238

> <Gold.Rescore>
     Score         DG    S(hbond)    S(metal)    S(lipo)     H(rot)  DE(clash)    DE(int)     intcor
     13.69     -15.51       1.61        0.00      90.38       2.31       0.03       1.78       ----

> <Gold.Chemscore.Fitness>
13.6923

> <Gold.Chemscore.DG>
-15.5087

> <Gold.Chemscore.ZeroCoef>
-5.4800

> <Gold.Chemscore.Hbond>
1.6095

> <Gold.Chemscore.Metal>
0.0000

> <Gold.Chemscore.Lipo>
90.3755

> <Gold.Chemscore.Internal_Hbond>
0.0000

> <Gold.Chemscore.DEClash>
0.0323

> <Gold.Chemscore.DEInternal>
1.7842

> <Gold.Chemscore.Rot>
2.3129

> <Gold.Chemscore.Internal.Correction>
   9.000000E+99

> <Gold.Chemscore.Hbonds>
donor molecule, donor type, donor heavy atom, donor atom, acceptor molecule, acceptor atom, score
      P1  H  6896  6907       L1    11  0.78
      P1  H  7997  8009       L1     4  0.33

> <Gold.Chemscore.Hbond.Weighted>
-5.3759

> <Gold.Chemscore.Metal.Weighted>
-0.0000

> <Gold.Chemscore.Lipo.Weighted>
-10.5739

> <Gold.Chemscore.Internal_Hbond.Weighted>
0.0000

> <Gold.Chemscore.DEClash.Weighted>
0.0323

> <Gold.Chemscore.DEInternal.Weighted>
1.7842

> <Gold.Chemscore.Rot.Weighted>
5.9211

> <Gold.Chemscore.Internal.Correction.Weighted>
   9.000000E+99

> <Gold.Protein.RotatedTorsions>
[ 6907 6896 6895 6894 ] final  -77.73 input  -60.11 | X-H torsion
[ 7974 7965 7964 7962 ] final -125.90 input  175.53 | X-H torsion
[ 8008 7997 7996 7995 ] final  117.20 input   59.86 | X-H torsion
[ 10167 10162 10161 10158 ] final  -55.48 input  -65.29 | X-H torsion
[ 10718 10713 10712 10709 ] final  -90.03 input   66.30 | X-H torsion
[ 10763 10752 10751 10750 ] final -125.34 input  -60.55 | X-H torsion
[ 11005 11000 10999 10996 ] final  -15.72 input  -57.11 | X-H torsion

> <Gold.Protein.ActiveResidues>
 VAL166  LYS551  ARG553  GLY616  TRP617  ASP618  TYR619  PRO620  LYS621  CYS622 
 ASP623  PHE694  ASN695  SER759  ASP760  ASP761  ALA762  ILE779  LEU786  VAL792 
 PHE793  MET794  SER795  GLU796  ALA797  LYS798  CYS799  TRP800  GLU811  SER814 

> <Gold.Protein.RotatedAtoms>
  150.6991  134.4378  159.5278 H   0  0  0  0  0  0  0  0  0  0  0  0  # atno 6907 bound_to 6896
  152.2094  134.8513  160.0508 H   0  0  0  0  0  0  0  0  0  0  0  0  # atno 6908 bound_to 6896
  151.9404  133.3601  159.4000 H   0  0  0  0  0  0  0  0  0  0  0  0  # atno 6909 bound_to 6896
  144.9928  140.7748  143.4544 H   0  0  0  0  0  0  0  0  0  0  0  0  # atno 7974 bound_to 7965
  156.2481  140.2901  156.0641 H   0  0  0  0  0  0  0  0  0  0  0  0  # atno 8008 bound_to 7997
  155.1743  140.0402  157.2886 H   0  0  0  0  0  0  0  0  0  0  0  0  # atno 8009 bound_to 7997
  154.6304  140.2498  155.7448 H   0  0  0  0  0  0  0  0  0  0  0  0  # atno 8010 bound_to 7997
  140.6372  143.2488  151.5085 H   0  0  0  0  0  0  0  0  0  0  0  0  # atno 10167 bound_to 10162
  155.9986  130.4894  150.5260 H   0  0  0  0  0  0  0  0  0  0  0  0  # atno 10718 bound_to 10713
  154.8734  135.4033  154.3253 H   0  0  0  0  0  0  0  0  0  0  0  0  # atno 10763 bound_to 10752
  153.4075  135.7020  153.6388 H   0  0  0  0  0  0  0  0  0  0  0  0  # atno 10764 bound_to 10752
  153.5105  135.3708  155.2555 H   0  0  0  0  0  0  0  0  0  0  0  0  # atno 10765 bound_to 10752
  140.7995  133.8225  155.9456 H   0  0  0  0  0  0  0  0  0  0  0  0  # atno 11005 bound_to 11000
  145.2262  139.2136  143.5067 LP  0  0  0  0  0  0  0  0  0  0  0  0  # atno 17320 bound_to 7965
  146.3435  140.2130  142.8590 LP  0  0  0  0  0  0  0  0  0  0  0  0  # atno 17321 bound_to 7965
  139.5582  144.2222  152.1648 LP  0  0  0  0  0  0  0  0  0  0  0  0  # atno 17342 bound_to 10162
  140.1482  144.5139  150.6703 LP  0  0  0  0  0  0  0  0  0  0  0  0  # atno 17343 bound_to 10162
  157.3216  131.0683  151.1928 LP  0  0  0  0  0  0  0  0  0  0  0  0  # atno 17370 bound_to 10713
  157.2839  130.6763  149.6080 LP  0  0  0  0  0  0  0  0  0  0  0  0  # atno 17371 bound_to 10713
  140.9309  134.2023  157.4864 LP  0  0  0  0  0  0  0  0  0  0  0  0  # atno 17394 bound_to 11000
  139.8723  134.9832  156.5189 LP  0  0  0  0  0  0  0  0  0  0  0  0  # atno 17395 bound_to 11000

$$$$
