AV-unprocessed.smi:47|AV-procd|sdf|424|dock3
  -GOLD-   2262016303D 1   1.00000     0.00000
 Structure written by MMmdl.
 32 34  0  0  0  0  0  0  0  0  2 V2000
  145.3435  141.5019  154.2951 O   0  0  0  0  0  0  0  0  0  0  0  0
  146.6595  141.7051  153.8259 C   0  0  2  0  0  0  0  0  0  0  0  0
  147.2444  140.4467  153.1752 C   0  0  0  0  0  0  0  0  0  0  0  0
  148.6968  140.4815  153.4411 N   0  3  0  0  0  0  0  0  0  0  0  0
  148.9824  141.6159  154.3437 C   0  0  2  0  0  0  0  0  0  0  0  0
  150.0315  141.2898  155.3592 C   0  0  0  0  0  0  0  0  0  0  0  0
  150.8594  140.2665  155.1805 N   0  0  0  0  0  0  0  0  0  0  0  0
  151.6460  140.3528  156.2728 N   0  0  0  0  0  0  0  0  0  0  0  0
  151.2820  141.3974  157.0277 C   0  0  0  0  0  0  0  0  0  0  0  0
  151.9284  141.7854  158.2833 C   0  0  0  0  0  0  0  0  0  0  0  0
  152.7020  140.8504  159.0102 C   0  0  0  0  0  0  0  0  0  0  0  0
  153.3246  141.2229  160.2174 C   0  0  0  0  0  0  0  0  0  0  0  0
  153.1817  142.5336  160.7098 C   0  0  0  0  0  0  0  0  0  0  0  0
  152.4150  143.4718  159.9940 C   0  0  0  0  0  0  0  0  0  0  0  0
  151.7913  143.1001  158.7870 C   0  0  0  0  0  0  0  0  0  0  0  0
  150.2500  142.0412  156.4801 N   0  0  0  0  0  0  0  0  0  0  0  0
  147.6350  141.9993  154.9608 C   0  0  0  0  0  0  0  0  0  0  0  0
  146.6685  142.5296  153.1115 H   0  0  0  0  0  0  0  0  0  0  0  0
  149.3312  142.4402  153.7189 H   0  0  0  0  0  0  0  0  0  0  0  0
  152.4003  139.7063  156.4565 H   0  0  0  0  0  0  0  0  0  0  0  0
  144.8154  141.1699  153.5847 H   0  0  0  0  0  0  0  0  0  0  0  0
  146.8430  139.5452  153.6404 H   0  0  0  0  0  0  0  0  0  0  0  0
  147.0328  140.3962  152.1068 H   0  0  0  0  0  0  0  0  0  0  0  0
  148.9613  139.6224  153.9028 H   0  0  0  0  0  0  0  0  0  0  0  0
  152.8252  139.8388  158.6524 H   0  0  0  0  0  0  0  0  0  0  0  0
  153.9123  140.5018  160.7664 H   0  0  0  0  0  0  0  0  0  0  0  0
  153.6600  142.8188  161.6354 H   0  0  0  0  0  0  0  0  0  0  0  0
  152.3051  144.4781  160.3706 H   0  0  0  0  0  0  0  0  0  0  0  0
  151.2082  143.8367  158.2539 H   0  0  0  0  0  0  0  0  0  0  0  0
  147.6015  143.0319  155.3100 H   0  0  0  0  0  0  0  0  0  0  0  0
  147.4164  141.3491  155.8103 H   0  0  0  0  0  0  0  0  0  0  0  0
  149.2210  140.5821  152.5840 H   0  0  0  0  0  0  0  0  0  0  0  0
  1  2  1  0  0  0  0
  1 21  1  0  0  0  0
  2 18  1  0  0  0  0
  2 17  1  0  0  0  0
  2  3  1  0  0  0  0
  3  4  1  0  0  0  0
  3 22  1  0  0  0  0
  3 23  1  0  0  0  0
  4  5  1  0  0  0  0
  4 24  1  0  0  0  0
  4 32  1  0  0  0  0
  5 19  1  0  0  0  0
  5  6  1  0  0  0  0
  5 17  1  0  0  0  0
  6 16  1  0  0  0  0
  6  7  2  0  0  0  0
  7  8  1  0  0  0  0
  8 20  1  0  0  0  0
  8  9  1  0  0  0  0
  9 10  1  0  0  0  0
  9 16  2  0  0  0  0
 10 15  1  0  0  0  0
 10 11  2  0  0  0  0
 11 12  1  0  0  0  0
 11 25  1  0  0  0  0
 12 13  2  0  0  0  0
 12 26  1  0  0  0  0
 13 14  1  0  0  0  0
 13 27  1  0  0  0  0
 14 15  2  0  0  0  0
 14 28  1  0  0  0  0
 15 29  1  0  0  0  0
 17 30  1  0  0  0  0
 17 31  1  0  0  0  0
M  CHG  1   4   1
M  END
> <s_m_source_file>
AV-unprocessed.smi

> <i_m_source_file_index>
47

> <i_lp_mmshare_version>
43012

> <i_f3d_flags>
0

> <s_epik_input>
W09IXVtDQEhdMVtDSDJdW05IXVtDQEBIXShbQ0gyXTEpYzJuW25IXWMobjIpLWMzW2NIXVtjSF1bY0hdW2NIXVtjSF0z

> <s_epik_cmdline>
J2VwaWtfcHl0aG9uJywgJy1waCcsICc3LjAnLCAnLXRuJywgJzgnLCAnLW1hJywgJzIwMCcsICctbWV0YWxfYmluZGluZycsICctaW1hZScsICc8aW5maWxlLm1hZT4nLCAnLW9tYWUnLCAnPG91dGZpbGUubWFlPic=

> <r_lp_tautomer_probability>
0.948284

> <r_epik_Ionization_Penalty>
0.163822

> <r_epik_Ionization_Penalty_Charging>
0.0371552

> <r_epik_Ionization_Penalty_Neutral>
0.126667

> <r_epik_State_Penalty>
0.318338

> <r_epik_Charging_Adjusted_Penalty>
0.355493

> <i_epik_Tot_Q>
1

> <i_epik_Tot_abs_Q>
1

> <r_epik_Metal_State_Penalty>
0.81572

> <b_epik_Metal_Only>
0

> <s_lp_Force_Field>
OPLS_2005

> <r_lp_Energy>
24.6025

> <b_lp_Chiralities_Consistent>
1

> <s_lp_Variant>
AV-unprocessed.smi:47-2

> <Gold.Version>
5.8.1

> <Gold.Id.Protein>
6NUR|6NUR_protein|mol2

> <Gold.PLP.Fitness>
44.6569

> <Gold.PLP.PLP>
-36.9538

> <Gold.PLP.part.hbond>
-3.0000

> <Gold.PLP.part.metal>
0.0000

> <Gold.PLP.part.buried>
-2.8330

> <Gold.PLP.part.nonpolar>
-31.7593

> <Gold.PLP.part.repulsive>
0.6444

> <Gold.PLP.ligand.clash>
0.0000

> <Gold.PLP.ligand.torsion>
0.6422

> <Gold.PLP.Chemscore.Hbond>
2.9920

> <Gold.PLP.Chemscore.CHOScore>
0.0000

> <Gold.PLP.Chemscore.Metal>
0.0000

> <Gold.Chemscore.Hbonds>
donor molecule, donor type, donor heavy atom, donor atom, acceptor molecule, acceptor atom, score
      L1  H     1    21       P1 10175  1.00
      L1  H     4    32       P1  7957  1.00
      P1  H  7989  7998       L1     7  0.85

> <Gold.PLP.Chemscore.Internal.Correction>
0.0115

> <Gold.Rescore>
     Score         DG    S(hbond)    S(metal)    S(lipo)     H(rot)  DE(clash)    DE(int)     intcor
     19.47     -20.17       2.45        0.00      88.25       1.50       0.03       0.67       ----

> <Gold.Chemscore.Fitness>
19.4719

> <Gold.Chemscore.DG>
-20.1672

> <Gold.Chemscore.ZeroCoef>
-5.4800

> <Gold.Chemscore.Hbond>
2.4530

> <Gold.Chemscore.Metal>
0.0000

> <Gold.Chemscore.Lipo>
88.2515

> <Gold.Chemscore.Internal_Hbond>
0.0000

> <Gold.Chemscore.DEClash>
0.0270

> <Gold.Chemscore.DEInternal>
0.6682

> <Gold.Chemscore.Rot>
1.4966

> <Gold.Chemscore.Internal.Correction>
   9.000000E+99

> <Gold.Chemscore.Hbonds>
donor molecule, donor type, donor heavy atom, donor atom, acceptor molecule, acceptor atom, score
      L1  H     1    21       P1 10175  0.45
      L1  H     4    32       P1  7957  0.91
      P1  H  7989  7998       L1     7  0.13

> <Gold.Chemscore.Hbond.Weighted>
-8.1930

> <Gold.Chemscore.Metal.Weighted>
-0.0000

> <Gold.Chemscore.Lipo.Weighted>
-10.3254

> <Gold.Chemscore.Internal_Hbond.Weighted>
0.0000

> <Gold.Chemscore.DEClash.Weighted>
0.0270

> <Gold.Chemscore.DEInternal.Weighted>
0.6682

> <Gold.Chemscore.Rot.Weighted>
3.8312

> <Gold.Chemscore.Internal.Correction.Weighted>
   9.000000E+99

> <Gold.Protein.RotatedTorsions>
[ 6907 6896 6895 6894 ] final  156.44 input  -60.11 | X-H torsion
[ 7974 7965 7964 7962 ] final  133.26 input  175.53 | X-H torsion
[ 8008 7997 7996 7995 ] final  143.19 input   59.86 | X-H torsion
[ 10167 10162 10161 10158 ] final -136.27 input  -65.29 | X-H torsion
[ 10718 10713 10712 10709 ] final  -73.58 input   66.30 | X-H torsion
[ 10763 10752 10751 10750 ] final  -64.92 input  -60.55 | X-H torsion
[ 11005 11000 10999 10996 ] final -132.62 input  -57.11 | X-H torsion

> <Gold.Protein.ActiveResidues>
 VAL166  LYS551  ARG553  GLY616  TRP617  ASP618  TYR619  PRO620  LYS621  CYS622 
 ASP623  PHE694  ASN695  SER759  ASP760  ASP761  ALA762  ILE779  LEU786  VAL792 
 PHE793  MET794  SER795  GLU796  ALA797  LYS798  CYS799  TRP800  GLU811  SER814 

> <Gold.Protein.RotatedAtoms>
  152.0296  133.3932  159.4291 H   0  0  0  0  0  0  0  0  0  0  0  0  # atno 6907 bound_to 6896
  150.6883  134.3535  159.4928 H   0  0  0  0  0  0  0  0  0  0  0  0  # atno 6908 bound_to 6896
  152.1320  134.9127  160.0609 H   0  0  0  0  0  0  0  0  0  0  0  0  # atno 6909 bound_to 6896
  144.9884  139.4432  143.5352 H   0  0  0  0  0  0  0  0  0  0  0  0  # atno 7974 bound_to 7965
  156.2935  140.2269  156.4850 H   0  0  0  0  0  0  0  0  0  0  0  0  # atno 8008 bound_to 7997
  154.7820  140.0459  157.1156 H   0  0  0  0  0  0  0  0  0  0  0  0  # atno 8009 bound_to 7997
  154.9747  140.3071  155.4976 H   0  0  0  0  0  0  0  0  0  0  0  0  # atno 8010 bound_to 7997
  139.8695  143.6975  152.2641 H   0  0  0  0  0  0  0  0  0  0  0  0  # atno 10167 bound_to 10162
  156.0275  130.4397  150.2763 H   0  0  0  0  0  0  0  0  0  0  0  0  # atno 10718 bound_to 10713
  154.3373  135.6164  153.5580 H   0  0  0  0  0  0  0  0  0  0  0  0  # atno 10763 bound_to 10752
  152.9807  135.5761  154.4893 H   0  0  0  0  0  0  0  0  0  0  0  0  # atno 10764 bound_to 10752
  154.4590  135.2855  155.1703 H   0  0  0  0  0  0  0  0  0  0  0  0  # atno 10765 bound_to 10752
  140.9154  134.1514  157.4357 H   0  0  0  0  0  0  0  0  0  0  0  0  # atno 11005 bound_to 11000
  146.3425  139.9200  142.8768 LP  0  0  0  0  0  0  0  0  0  0  0  0  # atno 17320 bound_to 7965
  145.2321  140.9977  143.3984 LP  0  0  0  0  0  0  0  0  0  0  0  0  # atno 17321 bound_to 7965
  139.7297  144.7585  151.0821 LP  0  0  0  0  0  0  0  0  0  0  0  0  # atno 17342 bound_to 10162
  140.7763  143.5103  150.9661 LP  0  0  0  0  0  0  0  0  0  0  0  0  # atno 17343 bound_to 10162
  157.0867  131.0158  151.3137 LP  0  0  0  0  0  0  0  0  0  0  0  0  # atno 17370 bound_to 10713
  157.4886  130.7808  149.7485 LP  0  0  0  0  0  0  0  0  0  0  0  0  # atno 17371 bound_to 10713
  139.8765  134.9951  156.5729 LP  0  0  0  0  0  0  0  0  0  0  0  0  # atno 17394 bound_to 11000
  140.8057  133.8469  155.8765 LP  0  0  0  0  0  0  0  0  0  0  0  0  # atno 17395 bound_to 11000

$$$$
