#       Name:                AV-unprocessed.smi:2378
#       Creating user name   scv26
#       Creation time:       Fri Mar 27 13:08:03 2020


#       File generated by GOLD software.
#

@<TRIPOS>MOLECULE
AV-unprocessed.smi:2378
    45    46     1
SMALL
NO_CHARGES


@<TRIPOS>ATOM
      1 ****        -7.2145   0.9729   0.8682 C.3            1 S1                 0.0000
      2 ****        -5.8194   1.5603   0.8249 C.ar           1 S1                 0.0000
      3 ****        -5.6218   2.9515   0.7376 C.ar           1 S1                 0.0000
      4 ****        -4.3002   3.4330   0.6992 C.ar           1 S1                 0.0000
      5 ****        -3.2183   2.6273   0.7422 N.ar           1 S1                 0.0000
      6 ****        -3.3958   1.2852   0.8271 C.ar           1 S1                 0.0000
      7 ****        -2.3282   0.3498   0.8835 N.am           1 S1                 0.0000
      8 ****        -1.0060   0.5924   0.8444 C.2            1 S1                 0.0000
      9 ****        -0.4878   1.7035   0.7272 O.2            1 S1                 0.0000
     10 ****        -0.3016  -0.5442   0.9459 N.am           1 S1                 0.0000
     11 ****         1.1541  -0.6325   0.9343 C.3            1 S1                 0.0000
     12 ****         1.7084  -0.6285  -0.5006 C.3            1 S1                 0.0000
     13 ****         3.2398  -0.7469  -0.5505 C.3            1 S1                 0.0000
     14 ****         3.7811  -0.6164  -1.9876 C.3            1 S1                 0.0000
     15 ****         5.3013  -0.8126  -2.0109 C.3            1 S1                 0.0000
     16 ****         5.6637  -2.1317  -1.3209 C.3            1 S1                 0.0000
     17 ****         5.0253  -2.1963   0.0756 C.3            1 S1                 0.0000
     18 ****         3.6156  -2.0199  -0.0271 O.3            1 S1                 0.0000
     19 ****        -4.6898   0.7186   0.8708 C.ar           1 S1                 0.0000
     20 ****        -7.9739   1.7552   0.8848 H              1 S1                 0.0000
     21 ****        -7.3387   0.3583   1.7602 H              1 S1                 0.0000
     22 ****        -7.3874   0.3473  -0.0078 H              1 S1                 0.0000
     23 ****        -6.4570   3.6355   0.7008 H              1 S1                 0.0000
     24 ****        -4.1059   4.4932   0.6328 H              1 S1                 0.0000
     25 ****        -2.6035  -0.6171   0.9704 H              1 S1                 0.0000
     26 ****        -0.8079  -1.4127   1.0384 H              1 S1                 0.0000
     27 ****         1.5867   0.1844   1.5144 H              1 S1                 0.0000
     28 ****         1.4365  -1.5554   1.4414 H              1 S1                 0.0000
     29 ****         1.2594  -1.4420  -1.0720 H              1 S1                 0.0000
     30 ****         1.4086   0.2962  -0.9958 H              1 S1                 0.0000
     31 ****         3.6726   0.0391   0.0710 H              1 S1                 0.0000
     32 ****         3.3081  -1.3620  -2.6282 H              1 S1                 0.0000
     33 ****         3.5256   0.3592  -2.4024 H              1 S1                 0.0000
     34 ****         5.6714  -0.8046  -3.0365 H              1 S1                 0.0000
     35 ****         5.7860   0.0170  -1.4949 H              1 S1                 0.0000
     36 ****         5.3086  -2.9698  -1.9217 H              1 S1                 0.0000
     37 ****         6.7467  -2.2348  -1.2473 H              1 S1                 0.0000
     38 ****         5.2268  -3.1641   0.5352 H              1 S1                 0.0000
     39 ****         5.4502  -1.4370   0.7338 H              1 S1                 0.0000
     40 ****        -4.8179  -0.3523   0.9387 H              1 S1                 0.0000
     41 ****        -2.2970   3.0151   0.7119 LP             1 S1                 0.0000
     42 ****        -1.0630   2.5181   0.6520 LP             1 S1                 0.0000
     43 ****         0.5081   1.7911   0.7073 LP             1 S1                 0.0000
     44 ****         3.2504  -2.7302  -0.6288 LP             1 S1                 0.0000
     45 ****         3.2167  -2.1179   0.8847 LP             1 S1                 0.0000
@<TRIPOS>BOND
    1    1    2 1     
    2    1   20 1     
    3    1   21 1     
    4    1   22 1     
    5    2   19 ar    
    6    2    3 ar    
    7    3    4 ar    
    8    3   23 1     
    9    4    5 ar    
   10    4   24 1     
   11    5    6 ar    
   12    6    7 1     
   13    6   19 ar    
   14    7    8 am    
   15    7   25 1     
   16    8    9 2     
   17    8   10 am    
   18   10   11 1     
   19   10   26 1     
   20   11   12 1     
   21   11   27 1     
   22   11   28 1     
   23   12   13 1     
   24   12   29 1     
   25   12   30 1     
   26   13   18 1     
   27   13   14 1     
   28   13   31 1     
   29   14   15 1     
   30   14   32 1     
   31   14   33 1     
   32   15   16 1     
   33   15   34 1     
   34   15   35 1     
   35   16   17 1     
   36   16   36 1     
   37   16   37 1     
   38   17   18 1     
   39   17   38 1     
   40   17   39 1     
   41   19   40 1     
   42    5   41 1     
   43    9   42 1     
   44    9   43 1     
   45   18   44 1     
   46   18   45 1     
@<TRIPOS>SUBSTRUCTURE
      1 S1             1
@<TRIPOS>SET
LONE_PAIRS      STATIC     ATOMS    <user>   **** ""
5 41 42 43 44 45
DONOR_HYDROGENS      STATIC     ATOMS    <user>   **** ""
2 25 26
ATOM$BLUE        STATIC     ATOMS    COLORGROUP SYSTEM
5 41 42 43 44 45
ATOM$RED        STATIC     ATOMS    COLORGROUP SYSTEM
2 25 26
