AV-unprocessed.smi:1868|AV-procd|sdf|7586|dock9
  -GOLD-   22720 9293D 1   1.00000     0.00000
 Structure written by MMmdl.
 47 49  0  0  0  0  0  0  0  0  2 V2000
  151.7670  138.9263  155.3821 C   0  0  0  0  0  0  0  0  0  0  0  0
  151.8316  140.0387  156.3801 C   0  0  0  0  0  0  0  0  0  0  0  0
  152.5545  139.9503  157.4963 N   0  0  0  0  0  0  0  0  0  0  0  0
  152.3407  141.1768  158.0948 C   0  0  0  0  0  0  0  0  0  0  0  0
  152.8306  141.7036  159.3111 C   0  0  0  0  0  0  0  0  0  0  0  0
  152.4670  143.0020  159.7247 C   0  0  0  0  0  0  0  0  0  0  0  0
  151.6105  143.7908  158.9297 C   0  0  0  0  0  0  0  0  0  0  0  0
  151.1106  143.2852  157.7145 C   0  0  0  0  0  0  0  0  0  0  0  0
  151.4755  141.9879  157.3068 C   0  0  0  0  0  0  0  0  0  0  0  0
  151.1583  141.2021  156.2021 N   0  0  0  0  0  0  0  0  0  0  0  0
  150.2865  141.5725  155.0960 C   0  0  0  0  0  0  0  0  0  0  0  0
  149.0071  140.7123  155.0231 C   0  0  2  0  0  0  0  0  0  0  0  0
  149.2126  139.7388  154.0191 O   0  0  0  0  0  0  0  0  0  0  0  0
  147.7358  141.5255  154.6866 C   0  0  0  0  0  0  0  0  0  0  0  0
  147.2771  142.3862  155.8069 N   0  3  2  0  0  0  0  0  0  0  0  0
  147.4884  141.7382  157.1272 C   0  0  0  0  0  0  0  0  0  0  0  0
  147.1347  142.6918  158.2821 C   0  0  0  0  0  0  0  0  0  0  0  0
  145.6976  143.2318  158.1719 C   0  0  2  0  0  0  0  0  0  0  0  0
  144.6358  142.1781  158.5329 C   0  0  0  0  0  0  0  0  0  0  0  0
  145.4858  143.8361  156.7720 C   0  0  0  0  0  0  0  0  0  0  0  0
  145.8754  142.8583  155.6487 C   0  0  0  0  0  0  0  0  0  0  0  0
  152.3533  138.0727  155.7238 H   0  0  0  0  0  0  0  0  0  0  0  0
  152.1700  139.2554  154.4243 H   0  0  0  0  0  0  0  0  0  0  0  0
  150.7381  138.5980  155.2406 H   0  0  0  0  0  0  0  0  0  0  0  0
  153.4878  141.1078  159.9273 H   0  0  0  0  0  0  0  0  0  0  0  0
  152.8476  143.3947  160.6561 H   0  0  0  0  0  0  0  0  0  0  0  0
  151.3379  144.7846  159.2537 H   0  0  0  0  0  0  0  0  0  0  0  0
  150.4533  143.8877  157.1057 H   0  0  0  0  0  0  0  0  0  0  0  0
  150.0258  142.6263  155.2026 H   0  0  0  0  0  0  0  0  0  0  0  0
  150.8499  141.4965  154.1651 H   0  0  0  0  0  0  0  0  0  0  0  0
  148.8888  140.1922  155.9719 H   0  0  0  0  0  0  0  0  0  0  0  0
  149.2451  140.1659  153.1771 H   0  0  0  0  0  0  0  0  0  0  0  0
  147.8942  142.1623  153.8160 H   0  0  0  0  0  0  0  0  0  0  0  0
  146.9464  140.8249  154.4089 H   0  0  0  0  0  0  0  0  0  0  0  0
  146.8944  140.8251  157.1875 H   0  0  0  0  0  0  0  0  0  0  0  0
  148.5326  141.4386  157.2255 H   0  0  0  0  0  0  0  0  0  0  0  0
  147.2776  142.1897  159.2395 H   0  0  0  0  0  0  0  0  0  0  0  0
  147.8329  143.5299  158.2747 H   0  0  0  0  0  0  0  0  0  0  0  0
  145.5914  144.0380  158.8990 H   0  0  0  0  0  0  0  0  0  0  0  0
  144.6511  141.3258  157.8542 H   0  0  0  0  0  0  0  0  0  0  0  0
  143.6344  142.6077  158.4991 H   0  0  0  0  0  0  0  0  0  0  0  0
  144.7926  141.7972  159.5425 H   0  0  0  0  0  0  0  0  0  0  0  0
  144.4491  144.1522  156.6500 H   0  0  0  0  0  0  0  0  0  0  0  0
  146.0895  144.7398  156.6782 H   0  0  0  0  0  0  0  0  0  0  0  0
  145.7502  143.3630  154.6920 H   0  0  0  0  0  0  0  0  0  0  0  0
  145.1986  142.0029  155.6370 H   0  0  0  0  0  0  0  0  0  0  0  0
  147.8687  143.2045  155.8001 H   0  0  0  0  0  0  0  0  0  0  0  0
  1  2  1  0  0  0  0
  1 22  1  0  0  0  0
  1 23  1  0  0  0  0
  1 24  1  0  0  0  0
  2 10  1  0  0  0  0
  2  3  2  0  0  0  0
  3  4  1  0  0  0  0
  4  9  2  0  0  0  0
  4  5  1  0  0  0  0
  5  6  2  0  0  0  0
  5 25  1  0  0  0  0
  6  7  1  0  0  0  0
  6 26  1  0  0  0  0
  7  8  2  0  0  0  0
  7 27  1  0  0  0  0
  8  9  1  0  0  0  0
  8 28  1  0  0  0  0
  9 10  1  0  0  0  0
 10 11  1  0  0  0  0
 11 12  1  0  0  0  0
 11 29  1  0  0  0  0
 11 30  1  0  0  0  0
 12 13  1  0  0  0  0
 12 14  1  0  0  0  0
 12 31  1  0  0  0  0
 13 32  1  0  0  0  0
 14 15  1  0  0  0  0
 14 33  1  0  0  0  0
 14 34  1  0  0  0  0
 15 21  1  0  0  0  0
 15 16  1  0  0  0  0
 15 47  1  0  0  0  0
 16 17  1  0  0  0  0
 16 35  1  0  0  0  0
 16 36  1  0  0  0  0
 17 18  1  0  0  0  0
 17 37  1  0  0  0  0
 17 38  1  0  0  0  0
 18 19  1  0  0  0  0
 18 20  1  0  0  0  0
 18 39  1  0  0  0  0
 19 40  1  0  0  0  0
 19 41  1  0  0  0  0
 19 42  1  0  0  0  0
 20 21  1  0  0  0  0
 20 43  1  0  0  0  0
 20 44  1  0  0  0  0
 21 45  1  0  0  0  0
 21 46  1  0  0  0  0
M  CHG  1  15   1
M  END
> <s_m_source_file>
AV-unprocessed.smi

> <i_m_source_file_index>
1868

> <i_lp_mmshare_version>
43012

> <i_f3d_flags>
0

> <s_epik_input>
W2NIXTFbY0hdW2NIXVtjSF1jKGMxMiluKGMobjIpW0NIM10pW0NIMl1bQ0BIXShbT0hdKVtDSDJdTjNbQ0gyXVtDSDJdW0NIXShbQ0gzXSlbQ0gyXVtDSDJdMw==

> <s_epik_cmdline>
J2VwaWtfcHl0aG9uJywgJy1waCcsICc3LjAnLCAnLXRuJywgJzgnLCAnLW1hJywgJzIwMCcsICctbWV0YWxfYmluZGluZycsICctaW1hZScsICc8aW5maWxlLm1hZT4nLCAnLW9tYWUnLCAnPG91dGZpbGUubWFlPic=

> <r_epik_Ionization_Penalty>
0.101157

> <r_epik_Ionization_Penalty_Charging>
0.00181365

> <r_epik_Ionization_Penalty_Neutral>
0.0993436

> <r_epik_State_Penalty>
0.0871902

> <r_epik_Charging_Adjusted_Penalty>
0.0890039

> <i_epik_Tot_Q>
1

> <i_epik_Tot_abs_Q>
1

> <r_epik_Metal_State_Penalty>
9.24346e-05

> <b_epik_Metal_Only>
0

> <s_lp_Force_Field>
OPLS_2005

> <r_lp_Energy>
25.8314

> <b_lp_Chiralities_Consistent>
1

> <s_lp_Variant>
AV-unprocessed.smi:1868-3

> <Gold.Version>
5.8.1

> <Gold.Id.Protein>
6NUR|6NUR_protein|mol2

> <Gold.PLP.Fitness>
46.7842

> <Gold.PLP.PLP>
-36.9118

> <Gold.PLP.part.hbond>
-3.0000

> <Gold.PLP.part.metal>
0.0000

> <Gold.PLP.part.buried>
-4.2823

> <Gold.PLP.part.nonpolar>
-29.7153

> <Gold.PLP.part.repulsive>
0.0339

> <Gold.PLP.ligand.clash>
0.0000

> <Gold.PLP.ligand.torsion>
0.8685

> <Gold.PLP.Chemscore.Hbond>
3.8640

> <Gold.PLP.Chemscore.CHOScore>
0.0000

> <Gold.PLP.Chemscore.Metal>
0.0000

> <Gold.Chemscore.Hbonds>
donor molecule, donor type, donor heavy atom, donor atom, acceptor molecule, acceptor atom, score
      L1  H    13    32       P1  7957  0.92
      L1  H    15    47       P1  8028  2.00
      P1  H  7997  8010       L1     3  0.95

> <Gold.PLP.Chemscore.Internal.Correction>
0.0173

> <Gold.Rescore>
     Score         DG    S(hbond)    S(metal)    S(lipo)     H(rot)  DE(clash)    DE(int)     intcor
     14.02     -18.09       1.76        0.00      99.70       1.92       2.27       1.81       ----

> <Gold.Chemscore.Fitness>
14.0190

> <Gold.Chemscore.DG>
-18.0923

> <Gold.Chemscore.ZeroCoef>
-5.4800

> <Gold.Chemscore.Hbond>
1.7552

> <Gold.Chemscore.Metal>
0.0000

> <Gold.Chemscore.Lipo>
99.6980

> <Gold.Chemscore.Internal_Hbond>
0.0000

> <Gold.Chemscore.DEClash>
2.2665

> <Gold.Chemscore.DEInternal>
1.8067

> <Gold.Chemscore.Rot>
1.9198

> <Gold.Chemscore.Internal.Correction>
   9.000000E+99

> <Gold.Chemscore.Hbonds>
donor molecule, donor type, donor heavy atom, donor atom, acceptor molecule, acceptor atom, score
      L1  H    13    32       P1  7957  0.84
      L1  H    15    47       P1  8028  0.40
      P1  H  7997  8010       L1     3  0.10

> <Gold.Chemscore.Hbond.Weighted>
-5.8623

> <Gold.Chemscore.Metal.Weighted>
-0.0000

> <Gold.Chemscore.Lipo.Weighted>
-11.6647

> <Gold.Chemscore.Internal_Hbond.Weighted>
0.0000

> <Gold.Chemscore.DEClash.Weighted>
2.2665

> <Gold.Chemscore.DEInternal.Weighted>
1.8067

> <Gold.Chemscore.Rot.Weighted>
4.9147

> <Gold.Chemscore.Internal.Correction.Weighted>
   9.000000E+99

> <Gold.Protein.RotatedTorsions>
[ 6907 6896 6895 6894 ] final  -98.99 input  -60.11 | X-H torsion
[ 7974 7965 7964 7962 ] final  -99.48 input  175.53 | X-H torsion
[ 8008 7997 7996 7995 ] final   57.03 input   59.86 | X-H torsion
[ 10167 10162 10161 10158 ] final  -35.84 input  -65.29 | X-H torsion
[ 10718 10713 10712 10709 ] final   41.40 input   66.30 | X-H torsion
[ 10763 10752 10751 10750 ] final   18.26 input  -60.55 | X-H torsion
[ 11005 11000 10999 10996 ] final  -86.53 input  -57.11 | X-H torsion

> <Gold.Protein.ActiveResidues>
 VAL166  LYS551  ARG553  GLY616  TRP617  ASP618  TYR619  PRO620  LYS621  CYS622 
 ASP623  PHE694  ASN695  SER759  ASP760  ASP761  ALA762  ILE779  LEU786  VAL792 
 PHE793  MET794  SER795  GLU796  ALA797  LYS798  CYS799  TRP800  GLU811  SER814 

> <Gold.Protein.RotatedAtoms>
  150.7065  134.1109  159.3999 H   0  0  0  0  0  0  0  0  0  0  0  0  # atno 6907 bound_to 6896
  151.9096  135.0342  160.0522 H   0  0  0  0  0  0  0  0  0  0  0  0  # atno 6908 bound_to 6896
  152.2347  133.5051  159.5272 H   0  0  0  0  0  0  0  0  0  0  0  0  # atno 6909 bound_to 6896
  145.3070  140.9391  143.2791 H   0  0  0  0  0  0  0  0  0  0  0  0  # atno 7974 bound_to 7965
  155.5272  140.3481  155.4419 H   0  0  0  0  0  0  0  0  0  0  0  0  # atno 8008 bound_to 7997
  156.0744  140.1371  156.9817 H   0  0  0  0  0  0  0  0  0  0  0  0  # atno 8009 bound_to 7997
  154.4545  140.0959  156.6692 H   0  0  0  0  0  0  0  0  0  0  0  0  # atno 8010 bound_to 7997
  140.7156  143.3450  151.2277 H   0  0  0  0  0  0  0  0  0  0  0  0  # atno 10167 bound_to 10162
  157.3931  130.7818  149.7286 H   0  0  0  0  0  0  0  0  0  0  0  0  # atno 10718 bound_to 10713
  153.1265  135.6731  153.9248 H   0  0  0  0  0  0  0  0  0  0  0  0  # atno 10763 bound_to 10752
  153.8748  135.3065  155.3444 H   0  0  0  0  0  0  0  0  0  0  0  0  # atno 10764 bound_to 10752
  154.7669  135.4959  153.9653 H   0  0  0  0  0  0  0  0  0  0  0  0  # atno 10765 bound_to 10752
  141.1629  133.7459  156.9174 H   0  0  0  0  0  0  0  0  0  0  0  0  # atno 11005 bound_to 11000
  144.9046  139.4605  143.6616 LP  0  0  0  0  0  0  0  0  0  0  0  0  # atno 17320 bound_to 7965
  146.3131  139.7820  142.9004 LP  0  0  0  0  0  0  0  0  0  0  0  0  # atno 17321 bound_to 7965
  139.6967  143.9602  152.2886 LP  0  0  0  0  0  0  0  0  0  0  0  0  # atno 17342 bound_to 10162
  139.9281  144.6758  150.8391 LP  0  0  0  0  0  0  0  0  0  0  0  0  # atno 17343 bound_to 10162
  155.9803  130.4030  150.3534 LP  0  0  0  0  0  0  0  0  0  0  0  0  # atno 17370 bound_to 10713
  157.1652  131.0355  151.2822 LP  0  0  0  0  0  0  0  0  0  0  0  0  # atno 17371 bound_to 10713
  140.1475  134.9252  157.2548 LP  0  0  0  0  0  0  0  0  0  0  0  0  # atno 17394 bound_to 11000
  140.2763  134.3402  155.7357 LP  0  0  0  0  0  0  0  0  0  0  0  0  # atno 17395 bound_to 11000

$$$$
