#       Name:                AV-unprocessed.smi:1285
#       Creating user name   scv26
#       Creation time:       Fri Mar 27 04:51:04 2020


#       File generated by GOLD software.
#

@<TRIPOS>MOLECULE
AV-unprocessed.smi:1285
    53    54     1
SMALL
NO_CHARGES


@<TRIPOS>ATOM
      1 ****        -2.7654  -0.9136  -0.6835 C.3            1 S1                 0.0000
      2 ****        -1.2275  -0.9473  -0.7451 C.3            1 S1                 0.0000
      3 ****        -0.4889  -0.5076   0.5598 C.3            1 S1                 0.0000
      4 ****        -0.7840   1.0067   0.7361 C.3            1 S1                 0.0000
      5 ****         1.0486  -0.6954   0.3417 C.3            1 S1                 0.0000
      6 ****         1.5604   0.0182  -0.8265 N.am           1 S1                 0.0000
      7 ****         2.2391   1.1767  -0.8119 C.2            1 S1                 0.0000
      8 ****         2.6017   1.7329   0.2254 O.2            1 S1                 0.0000
      9 ****         2.5209   1.8058  -2.1865 C.3            1 S1                 0.0000
     10 ****         3.4990   2.9963  -2.1197 C.3            1 S1                 0.0000
     11 ****         1.2660   2.1679  -2.8362 N.pl3          1 S1                 0.0000
     12 ****         0.5793   1.5355  -3.7905 C.2            1 S1                 0.0000
     13 ****        -0.5673   2.1203  -4.1070 N.2            1 S1                 0.0000
     14 ****        -0.5275   3.1804  -3.2464 C.2            1 S1                 0.0000
     15 ****         0.5440   3.2521  -2.4572 N.2            1 S1                 0.0000
     16 ****        -0.9828  -1.2722   1.7401 N.3            1 S1                 0.0000
     17 ****        -0.4537  -0.8316   3.0367 C.3            1 S1                 0.0000
     18 ****        -1.1172  -1.5709   4.2113 C.3            1 S1                 0.0000
     19 ****        -0.9494  -2.9744   4.0519 O.3            1 S1                 0.0000
     20 ****        -1.5011  -3.4517   2.8307 C.3            1 S1                 0.0000
     21 ****        -0.8368  -2.7299   1.6465 C.3            1 S1                 0.0000
     22 ****        -3.1916  -1.2461  -1.6300 H              1 S1                 0.0000
     23 ****        -3.1409   0.0919  -0.4964 H              1 S1                 0.0000
     24 ****        -3.1556  -1.5684   0.0955 H              1 S1                 0.0000
     25 ****        -0.9098  -1.9472  -1.0406 H              1 S1                 0.0000
     26 ****        -0.9264  -0.3103  -1.5776 H              1 S1                 0.0000
     27 ****        -0.6703   1.5592  -0.1970 H              1 S1                 0.0000
     28 ****        -0.1077   1.4724   1.4532 H              1 S1                 0.0000
     29 ****        -1.8010   1.1813   1.0876 H              1 S1                 0.0000
     30 ****         1.6107  -0.4012   1.2282 H              1 S1                 0.0000
     31 ****         1.2849  -1.7460   0.1777 H              1 S1                 0.0000
     32 ****         1.3145  -0.3670  -1.7266 H              1 S1                 0.0000
     33 ****         2.9891   1.0335  -2.7991 H              1 S1                 0.0000
     34 ****         4.4554   2.6963  -1.6903 H              1 S1                 0.0000
     35 ****         3.1068   3.8147  -1.5145 H              1 S1                 0.0000
     36 ****         3.6996   3.3902  -3.1164 H              1 S1                 0.0000
     37 ****         0.9199   0.6222  -4.2560 H              1 S1                 0.0000
     38 ****        -1.3152   3.9175  -3.1951 H              1 S1                 0.0000
     39 ****         0.6224  -0.9981   3.0839 H              1 S1                 0.0000
     40 ****        -0.6156   0.2350   3.1826 H              1 S1                 0.0000
     41 ****        -0.6666  -1.2637   5.1552 H              1 S1                 0.0000
     42 ****        -2.1795  -1.3283   4.2695 H              1 S1                 0.0000
     43 ****        -1.3339  -4.5266   2.7612 H              1 S1                 0.0000
     44 ****        -2.5809  -3.2939   2.8227 H              1 S1                 0.0000
     45 ****        -1.2853  -3.1105   0.7308 H              1 S1                 0.0000
     46 ****         0.2177  -3.0041   1.6208 H              1 S1                 0.0000
     47 ****         2.3927   1.3217   1.1127 LP             1 S1                 0.0000
     48 ****         3.1052   2.5957   0.1804 LP             1 S1                 0.0000
     49 ****        -1.2599   1.8609  -4.7800 LP             1 S1                 0.0000
     50 ****         0.7616   3.9348  -1.7596 LP             1 S1                 0.0000
     51 ****        -1.9573  -1.0506   1.7062 LP             1 S1                 0.0000
     52 ****        -1.4018  -3.4403   4.8124 LP             1 S1                 0.0000
     53 ****         0.0282  -3.1846   4.0664 LP             1 S1                 0.0000
@<TRIPOS>BOND
    1    1    2 1     
    2    1   22 1     
    3    1   23 1     
    4    1   24 1     
    5    2    3 1     
    6    2   25 1     
    7    2   26 1     
    8    3    4 1     
    9    3    5 1     
   10    3   16 1     
   11    4   27 1     
   12    4   28 1     
   13    4   29 1     
   14    5    6 1     
   15    5   30 1     
   16    5   31 1     
   17    6    7 am    
   18    6   32 1     
   19    7    8 2     
   20    7    9 1     
   21    9   10 1     
   22    9   11 1     
   23    9   33 1     
   24   10   34 1     
   25   10   35 1     
   26   10   36 1     
   27   11   15 1     
   28   11   12 1     
   29   12   13 2     
   30   12   37 1     
   31   13   14 1     
   32   14   15 2     
   33   14   38 1     
   34   16   21 1     
   35   16   17 1     
   36   17   18 1     
   37   17   39 1     
   38   17   40 1     
   39   18   19 1     
   40   18   41 1     
   41   18   42 1     
   42   19   20 1     
   43   20   21 1     
   44   20   43 1     
   45   20   44 1     
   46   21   45 1     
   47   21   46 1     
   48    8   47 1     
   49    8   48 1     
   50   13   49 1     
   51   15   50 1     
   52   16   51 1     
   53   19   52 1     
   54   19   53 1     
@<TRIPOS>SUBSTRUCTURE
      1 S1             1
@<TRIPOS>SET
LONE_PAIRS      STATIC     ATOMS    <user>   **** ""
7 47 48 49 50 51 52 53
DONOR_HYDROGENS      STATIC     ATOMS    <user>   **** ""
1 32
ATOM$BLUE        STATIC     ATOMS    COLORGROUP SYSTEM
7 47 48 49 50 51 52 53
ATOM$RED        STATIC     ATOMS    COLORGROUP SYSTEM
1 32
