AV-unprocessed.smi:104|AV-procd|sdf|997|dock6
  -GOLD-   2262017583D 1   1.00000     0.00000
 Structure written by MMmdl.
 47 49  0  0  0  0  0  0  0  0  1 V2000
  151.1211  141.0673  157.2268 C   0  0  0  0  0  0  0  0  0  0  0  0
  151.6270  139.6567  157.5013 C   0  0  0  0  0  0  0  0  0  0  0  0
  152.8310  139.4099  157.5720 O   0  0  0  0  0  0  0  0  0  0  0  0
  150.6304  138.7705  157.6477 O   0  0  0  0  0  0  0  0  0  0  0  0
  150.9312  137.4342  158.0129 C   0  0  0  0  0  0  0  0  0  0  0  0
  149.6370  136.6109  158.0539 C   0  0  2  0  0  0  0  0  0  0  0  0
  149.0094  136.6505  156.7752 O   0  0  0  0  0  0  0  0  0  0  0  0
  147.9611  137.5564  156.8242 C   0  0  1  0  0  0  0  0  0  0  0  0
  146.9512  137.1969  155.7869 N   0  0  0  0  0  0  0  0  0  0  0  0
  146.0896  136.1250  155.7488 C   0  0  0  0  0  0  0  0  0  0  0  0
  146.0452  134.8056  157.1217 Br  0  0  0  0  0  0  0  0  0  0  0  0
  145.3040  136.0300  154.7127 N   0  0  0  0  0  0  0  0  0  0  0  0
  145.6617  137.1389  153.9551 C   0  0  0  0  0  0  0  0  0  0  0  0
  145.2319  137.6616  152.7095 C   0  0  0  0  0  0  0  0  0  0  0  0
  144.2759  137.0872  151.9663 N   0  0  0  0  0  0  0  0  0  0  0  0
  145.8155  138.7915  152.2459 N   0  0  0  0  0  0  0  0  0  0  0  0
  146.7748  139.3821  152.9663 C   0  0  0  0  0  0  0  0  0  0  0  0
  147.2822  139.0129  154.1457 N   0  0  0  0  0  0  0  0  0  0  0  0
  146.6904  137.8745  154.6135 C   0  0  0  0  0  0  0  0  0  0  0  0
  147.3647  137.4379  158.2166 C   0  0  2  0  0  0  0  0  0  0  0  0
  146.7156  138.6512  158.5681 O   0  0  0  0  0  0  0  0  0  0  0  0
  145.6207  139.0465  157.8996 C   0  0  0  0  0  0  0  0  0  0  0  0
  145.0828  140.3789  158.4040 C   0  0  0  0  0  0  0  0  0  0  0  0
  145.0747  138.4396  156.9782 O   0  0  0  0  0  0  0  0  0  0  0  0
  148.6118  137.1877  159.0514 C   0  0  1  0  0  0  0  0  0  0  0  0
  148.3039  136.2561  160.0801 O   0  0  0  0  0  0  0  0  0  0  0  0
  147.4133  136.5715  161.0348 C   0  0  0  0  0  0  0  0  0  0  0  0
  147.4425  135.5937  162.2018 C   0  0  0  0  0  0  0  0  0  0  0  0
  146.6419  137.5306  161.0185 O   0  0  0  0  0  0  0  0  0  0  0  0
  150.0698  141.0547  156.9375 H   0  0  0  0  0  0  0  0  0  0  0  0
  151.6946  141.5230  156.4197 H   0  0  0  0  0  0  0  0  0  0  0  0
  151.2274  141.6856  158.1183 H   0  0  0  0  0  0  0  0  0  0  0  0
  151.6114  137.0138  157.2709 H   0  0  0  0  0  0  0  0  0  0  0  0
  151.4389  137.4024  158.9781 H   0  0  0  0  0  0  0  0  0  0  0  0
  149.8662  135.5714  158.2936 H   0  0  0  0  0  0  0  0  0  0  0  0
  148.3201  138.5567  156.5797 H   0  0  0  0  0  0  0  0  0  0  0  0
  143.8272  136.2421  152.2895 H   0  0  0  0  0  0  0  0  0  0  0  0
  144.0075  137.4989  151.0843 H   0  0  0  0  0  0  0  0  0  0  0  0
  147.1975  140.2779  152.5357 H   0  0  0  0  0  0  0  0  0  0  0  0
  146.6956  136.5756  158.2390 H   0  0  0  0  0  0  0  0  0  0  0  0
  145.6999  141.1979  158.0343 H   0  0  0  0  0  0  0  0  0  0  0  0
  145.0871  140.4053  159.4938 H   0  0  0  0  0  0  0  0  0  0  0  0
  144.0602  140.5330  158.0596 H   0  0  0  0  0  0  0  0  0  0  0  0
  148.9694  138.1349  159.4600 H   0  0  0  0  0  0  0  0  0  0  0  0
  146.8934  134.6868  161.9482 H   0  0  0  0  0  0  0  0  0  0  0  0
  146.9859  136.0400  163.0854 H   0  0  0  0  0  0  0  0  0  0  0  0
  148.4695  135.3209  162.4458 H   0  0  0  0  0  0  0  0  0  0  0  0
  1  2  1  0  0  0  0
  1 30  1  0  0  0  0
  1 31  1  0  0  0  0
  1 32  1  0  0  0  0
  2  3  2  0  0  0  0
  2  4  1  0  0  0  0
  4  5  1  0  0  0  0
  5  6  1  0  0  0  0
  5 33  1  0  0  0  0
  5 34  1  0  0  0  0
  6 25  1  0  0  0  0
  6  7  1  0  0  0  0
  6 35  1  0  0  0  0
  7  8  1  0  0  0  0
  8  9  1  0  0  0  0
  8 20  1  0  0  0  0
  8 36  1  0  0  0  0
  9 19  1  0  0  0  0
  9 10  1  0  0  0  0
 10 11  1  0  0  0  0
 10 12  2  0  0  0  0
 12 13  1  0  0  0  0
 13 19  2  0  0  0  0
 13 14  1  0  0  0  0
 14 15  1  0  0  0  0
 14 16  2  0  0  0  0
 15 37  1  0  0  0  0
 15 38  1  0  0  0  0
 16 17  1  0  0  0  0
 17 18  2  0  0  0  0
 17 39  1  0  0  0  0
 18 19  1  0  0  0  0
 20 21  1  0  0  0  0
 20 25  1  0  0  0  0
 20 40  1  0  0  0  0
 21 22  1  0  0  0  0
 22 23  1  0  0  0  0
 22 24  2  0  0  0  0
 23 41  1  0  0  0  0
 23 42  1  0  0  0  0
 23 43  1  0  0  0  0
 25 26  1  0  0  0  0
 25 44  1  0  0  0  0
 26 27  1  0  0  0  0
 27 28  1  0  0  0  0
 27 29  2  0  0  0  0
 28 45  1  0  0  0  0
 28 46  1  0  0  0  0
 28 47  1  0  0  0  0
M  END
> <s_m_source_file>
AV-unprocessed.smi

> <i_m_source_file_index>
104

> <i_lp_mmshare_version>
43012

> <i_f3d_flags>
0

> <s_epik_input>
W0NIM11DKD1PKU9bQ0gyXVtDQEBIXTFPW0NASF0oW0NAQEhdKE9DKD1PKVtDSDNdKVtDQEhdMU9DKD1PKVtDSDNdKW4oYyhCciluMiljKGMyMyluW2NIXW5jM1tOSDJd

> <s_epik_cmdline>
J2VwaWtfcHl0aG9uJywgJy1waCcsICc3LjAnLCAnLXRuJywgJzgnLCAnLW1hJywgJzIwMCcsICctbWV0YWxfYmluZGluZycsICctaW1hZScsICc8aW5maWxlLm1hZT4nLCAnLW9tYWUnLCAnPG91dGZpbGUubWFlPic=

> <r_lp_tautomer_probability>
1

> <r_epik_Ionization_Penalty>
7.36622e-05

> <r_epik_Ionization_Penalty_Charging>
0

> <r_epik_Ionization_Penalty_Neutral>
7.36622e-05

> <r_epik_State_Penalty>
-0

> <r_epik_Charging_Adjusted_Penalty>
0

> <i_epik_Tot_Q>
0

> <i_epik_Tot_abs_Q>
0

> <r_epik_Metal_State_Penalty>
-0

> <b_epik_Metal_Only>
0

> <s_epik_Chemistry_Notes>
This compound has an ester and may undergo hydrolysis at high or low pH. This compound contains an acetal/aminal-like group ( X-CH(R)-Y where X, Y are N, S, or O) that may be acid/base labile, releasing an aldehyde.

> <s_lp_Force_Field>
OPLS_2005

> <r_lp_Energy>
16.3368

> <b_lp_Chiralities_Consistent>
1

> <s_lp_Variant>
AV-unprocessed.smi:104-5

> <Gold.Version>
5.8.1

> <Gold.Id.Protein>
6NUR|6NUR_protein|mol2

> <Gold.PLP.Fitness>
36.6579

> <Gold.PLP.PLP>
-25.8741

> <Gold.PLP.part.hbond>
-4.0000

> <Gold.PLP.part.metal>
0.0000

> <Gold.PLP.part.buried>
-5.6890

> <Gold.PLP.part.nonpolar>
-17.2801

> <Gold.PLP.part.repulsive>
0.5104

> <Gold.PLP.ligand.clash>
0.0000

> <Gold.PLP.ligand.torsion>
0.4753

> <Gold.PLP.Chemscore.Hbond>
3.0000

> <Gold.PLP.Chemscore.CHOScore>
0.8508

> <Gold.PLP.Chemscore.Metal>
0.0000

> <Gold.Chemscore.Hbonds>
donor molecule, donor type, donor heavy atom, donor atom, acceptor molecule, acceptor atom, score
      L1  H    15    38       P1 10171  1.00
      P1  H  6934  6947       L1    29  1.00
      P1  H  7997  8008       L1     3  1.00
      L1  C    17    39       P1  7957  0.32

> <Gold.PLP.Chemscore.Internal.Correction>
0.1822

> <Gold.Rescore>
     Score         DG    S(hbond)    S(metal)    S(lipo)     H(rot)  DE(clash)    DE(int)     intcor
      5.73      -7.87       3.00        0.00      29.11       4.31       0.02       2.12       ----

> <Gold.Chemscore.Fitness>
5.7319

> <Gold.Chemscore.DG>
-7.8703

> <Gold.Chemscore.ZeroCoef>
-5.4800

> <Gold.Chemscore.Hbond>
2.9972

> <Gold.Chemscore.Metal>
0.0000

> <Gold.Chemscore.Lipo>
29.1072

> <Gold.Chemscore.Internal_Hbond>
0.0000

> <Gold.Chemscore.DEClash>
0.0155

> <Gold.Chemscore.DEInternal>
2.1228

> <Gold.Chemscore.Rot>
4.3070

> <Gold.Chemscore.Internal.Correction>
   9.000000E+99

> <Gold.Chemscore.Hbonds>
donor molecule, donor type, donor heavy atom, donor atom, acceptor molecule, acceptor atom, score
      L1  H    15    38       P1 10171  1.00
      P1  H  6934  6947       L1    29  0.97
      P1  H  7997  8008       L1     3  0.99

> <Gold.Chemscore.Hbond.Weighted>
-10.0106

> <Gold.Chemscore.Metal.Weighted>
-0.0000

> <Gold.Chemscore.Lipo.Weighted>
-3.4055

> <Gold.Chemscore.Internal_Hbond.Weighted>
0.0000

> <Gold.Chemscore.DEClash.Weighted>
0.0155

> <Gold.Chemscore.DEInternal.Weighted>
2.1228

> <Gold.Chemscore.Rot.Weighted>
11.0259

> <Gold.Chemscore.Internal.Correction.Weighted>
   9.000000E+99

> <Gold.Protein.RotatedTorsions>
[ 6907 6896 6895 6894 ] final  140.43 input  -60.11 | X-H torsion
[ 7974 7965 7964 7962 ] final  -44.14 input  175.53 | X-H torsion
[ 8008 7997 7996 7995 ] final  -84.97 input   59.86 | X-H torsion
[ 10167 10162 10161 10158 ] final  112.47 input  -65.29 | X-H torsion
[ 10718 10713 10712 10709 ] final -155.36 input   66.30 | X-H torsion
[ 10763 10752 10751 10750 ] final -169.41 input  -60.55 | X-H torsion
[ 11005 11000 10999 10996 ] final  -88.25 input  -57.11 | X-H torsion

> <Gold.Protein.ActiveResidues>
 VAL166  LYS551  ARG553  GLY616  TRP617  ASP618  TYR619  PRO620  LYS621  CYS622 
 ASP623  PHE694  ASN695  SER759  ASP760  ASP761  ALA762  ILE779  LEU786  VAL792 
 PHE793  MET794  SER795  GLU796  ALA797  LYS798  CYS799  TRP800  GLU811  SER814 

> <Gold.Protein.RotatedAtoms>
  152.2431  133.5152  159.5281 H   0  0  0  0  0  0  0  0  0  0  0  0  # atno 6907 bound_to 6896
  150.7070  134.1062  159.3992 H   0  0  0  0  0  0  0  0  0  0  0  0  # atno 6908 bound_to 6896
  151.8982  135.0389  160.0555 H   0  0  0  0  0  0  0  0  0  0  0  0  # atno 6909 bound_to 6896
  145.9950  140.7138  142.9298 H   0  0  0  0  0  0  0  0  0  0  0  0  # atno 7974 bound_to 7965
  154.6356  140.0598  156.9785 H   0  0  0  0  0  0  0  0  0  0  0  0  # atno 8008 bound_to 7997
  155.1596  140.3281  155.4395 H   0  0  0  0  0  0  0  0  0  0  0  0  # atno 8009 bound_to 7997
  156.2505  140.1933  156.6704 H   0  0  0  0  0  0  0  0  0  0  0  0  # atno 8010 bound_to 7997
  139.6533  144.7129  151.2005 H   0  0  0  0  0  0  0  0  0  0  0  0  # atno 10167 bound_to 10162
  156.5118  130.8438  151.2649 H   0  0  0  0  0  0  0  0  0  0  0  0  # atno 10718 bound_to 10713
  154.6525  135.2913  154.9969 H   0  0  0  0  0  0  0  0  0  0  0  0  # atno 10763 bound_to 10752
  154.1056  135.6570  153.4880 H   0  0  0  0  0  0  0  0  0  0  0  0  # atno 10764 bound_to 10752
  153.0384  135.5253  154.7440 H   0  0  0  0  0  0  0  0  0  0  0  0  # atno 10765 bound_to 10752
  141.1604  133.7559  156.9424 H   0  0  0  0  0  0  0  0  0  0  0  0  # atno 11005 bound_to 11000
  144.6901  140.3135  143.7244 LP  0  0  0  0  0  0  0  0  0  0  0  0  # atno 17320 bound_to 7965
  145.7573  139.1813  143.2287 LP  0  0  0  0  0  0  0  0  0  0  0  0  # atno 17321 bound_to 7965
  140.7548  143.6113  150.8603 LP  0  0  0  0  0  0  0  0  0  0  0  0  # atno 17342 bound_to 10162
  139.9763  143.6000  152.2957 LP  0  0  0  0  0  0  0  0  0  0  0  0  # atno 17343 bound_to 10162
  157.7449  130.9947  150.2716 LP  0  0  0  0  0  0  0  0  0  0  0  0  # atno 17370 bound_to 10713
  156.3233  130.3789  149.7556 LP  0  0  0  0  0  0  0  0  0  0  0  0  # atno 17371 bound_to 10713
  140.1312  134.9354  157.2340 LP  0  0  0  0  0  0  0  0  0  0  0  0  # atno 17394 bound_to 11000
  140.2950  134.3197  155.7305 LP  0  0  0  0  0  0  0  0  0  0  0  0  # atno 17395 bound_to 11000

$$$$
