AV-unprocessed.smi:2567|AV-procd|sdf|10085|dock1
  -GOLD-   2272014113D 1   1.00000     0.00000
 Structure written by MMmdl.
 33 34  0  0  0  0  0  0  0  0  3 V2000
  152.7204  142.7168  159.5101 C   0  0  0  0  0  0  0  0  0  0  0  0
  151.6884  143.2570  158.5031 C   0  0  0  0  0  0  0  0  0  0  0  0
  150.4305  143.6913  159.2849 C   0  0  0  0  0  0  0  0  0  0  0  0
  152.2421  144.4864  157.7601 C   0  0  0  0  0  0  0  0  0  0  0  0
  151.3402  142.1671  157.4934 C   0  0  0  0  0  0  0  0  0  0  0  0
  151.8810  140.9340  157.4571 N   0  5  0  0  0  0  0  0  0  0  0  0
  151.3640  140.2402  156.4647 N   0  0  0  0  0  0  0  0  0  0  0  0
  150.4924  141.0676  155.8709 C   0  0  0  0  0  0  0  0  0  0  0  0
  149.6202  140.6908  154.6919 C   0  0  1  0  0  0  0  0  0  0  0  0
  149.8304  139.2159  154.2971 C   0  0  0  0  0  0  0  0  0  0  0  0
  148.9622  138.8635  153.1572 N   0  3  0  0  0  0  0  0  0  0  0  0
  147.5461  139.1685  153.4387 C   0  0  0  0  0  0  0  0  0  0  0  0
  147.3988  140.6397  153.8611 C   0  0  0  0  0  0  0  0  0  0  0  0
  148.2387  140.9010  154.9795 O   0  0  0  0  0  0  0  0  0  0  0  0
  150.4568  142.2502  156.5003 N   0  0  0  0  0  0  0  0  0  0  0  0
  152.9847  143.4711  160.2515 H   0  0  0  0  0  0  0  0  0  0  0  0
  153.6411  142.4129  159.0108 H   0  0  0  0  0  0  0  0  0  0  0  0
  152.3347  141.8479  160.0446 H   0  0  0  0  0  0  0  0  0  0  0  0
  149.9940  142.8562  159.8340 H   0  0  0  0  0  0  0  0  0  0  0  0
  149.6621  144.0842  158.6177 H   0  0  0  0  0  0  0  0  0  0  0  0
  150.6627  144.4723  160.0097 H   0  0  0  0  0  0  0  0  0  0  0  0
  152.4925  145.2908  158.4524 H   0  0  0  0  0  0  0  0  0  0  0  0
  151.5157  144.8774  157.0469 H   0  0  0  0  0  0  0  0  0  0  0  0
  153.1476  144.2397  157.2046 H   0  0  0  0  0  0  0  0  0  0  0  0
  149.9052  141.3367  153.8593 H   0  0  0  0  0  0  0  0  0  0  0  0
  150.8704  139.0350  154.0234 H   0  0  0  0  0  0  0  0  0  0  0  0
  149.6003  138.5611  155.1391 H   0  0  0  0  0  0  0  0  0  0  0  0
  149.2552  139.4011  152.3539 H   0  0  0  0  0  0  0  0  0  0  0  0
  146.9470  138.9603  152.5522 H   0  0  0  0  0  0  0  0  0  0  0  0
  147.1885  138.5111  154.2322 H   0  0  0  0  0  0  0  0  0  0  0  0
  147.6509  141.3100  153.0379 H   0  0  0  0  0  0  0  0  0  0  0  0
  146.3656  140.8498  154.1382 H   0  0  0  0  0  0  0  0  0  0  0  0
  149.0616  137.8799  152.9508 H   0  0  0  0  0  0  0  0  0  0  0  0
  1  2  1  0  0  0  0
  1 16  1  0  0  0  0
  1 17  1  0  0  0  0
  1 18  1  0  0  0  0
  2  3  1  0  0  0  0
  2  4  1  0  0  0  0
  2  5  1  0  0  0  0
  3 19  1  0  0  0  0
  3 20  1  0  0  0  0
  3 21  1  0  0  0  0
  4 22  1  0  0  0  0
  4 23  1  0  0  0  0
  4 24  1  0  0  0  0
  5 15  2  0  0  0  0
  5  6  1  0  0  0  0
  6  7  1  0  0  0  0
  7  8  2  0  0  0  0
  8  9  1  0  0  0  0
  8 15  1  0  0  0  0
  9 14  1  0  0  0  0
  9 10  1  0  0  0  0
  9 25  1  0  0  0  0
 10 11  1  0  0  0  0
 10 26  1  0  0  0  0
 10 27  1  0  0  0  0
 11 12  1  0  0  0  0
 11 28  1  0  0  0  0
 11 33  1  0  0  0  0
 12 13  1  0  0  0  0
 12 29  1  0  0  0  0
 12 30  1  0  0  0  0
 13 14  1  0  0  0  0
 13 31  1  0  0  0  0
 13 32  1  0  0  0  0
M  CHG  1   6  -1
M  CHG  1  11   1
M  END
> <s_m_source_file>
AV-unprocessed.smi

> <i_m_source_file_index>
2567

> <i_lp_mmshare_version>
43012

> <i_f3d_flags>
0

> <s_epik_input>
W0NIM11DKFtDSDNdKShbQ0gzXSljMW5bbkhdYyhuMSlbQ0BASF0yW0NIMl1bTkhdW0NIMl1bQ0gyXU8y

> <s_epik_cmdline>
J2VwaWtfcHl0aG9uJywgJy1waCcsICc3LjAnLCAnLXRuJywgJzgnLCAnLW1hJywgJzIwMCcsICctbWV0YWxfYmluZGluZycsICctaW1hZScsICc8aW5maWxlLm1hZT4nLCAnLW9tYWUnLCAnPG91dGZpbGUubWFlPic=

> <r_lp_tautomer_probability>
0.948284

> <r_epik_Ionization_Penalty>
5.01189

> <r_epik_Ionization_Penalty_Charging>
5.01189

> <r_epik_Ionization_Penalty_Neutral>
8.99859e-14

> <r_epik_State_Penalty>
2.75157

> <r_epik_Charging_Adjusted_Penalty>
7.76346

> <i_epik_Tot_Q>
0

> <i_epik_Tot_abs_Q>
2

> <r_epik_Metal_State_Penalty>
0.54282

> <b_epik_Metal_Only>
1

> <s_lp_Force_Field>
OPLS_2005

> <r_lp_Energy>
6.85935

> <b_lp_Chiralities_Consistent>
1

> <s_lp_Variant>
AV-unprocessed.smi:2567-10

> <Gold.Version>
5.8.1

> <Gold.Id.Protein>
6NUR|6NUR_protein|mol2

> <Gold.PLP.Fitness>
39.1178

> <Gold.PLP.PLP>
-30.2740

> <Gold.PLP.part.hbond>
-1.9952

> <Gold.PLP.part.metal>
0.0000

> <Gold.PLP.part.buried>
-5.0220

> <Gold.PLP.part.nonpolar>
-24.8380

> <Gold.PLP.part.repulsive>
0.9818

> <Gold.PLP.ligand.clash>
0.0000

> <Gold.PLP.ligand.torsion>
0.0491

> <Gold.PLP.Chemscore.Hbond>
2.9753

> <Gold.PLP.Chemscore.CHOScore>
0.0000

> <Gold.PLP.Chemscore.Metal>
0.0000

> <Gold.Chemscore.Hbonds>
donor molecule, donor type, donor heavy atom, donor atom, acceptor molecule, acceptor atom, score
      L1  H    11    28       P1  7957  0.65
      L1  H    11    33       P1  7948  2.00

> <Gold.PLP.Chemscore.Internal.Correction>
0.0163

> <Gold.Rescore>
     Score         DG    S(hbond)    S(metal)    S(lipo)     H(rot)  DE(clash)    DE(int)     intcor
     17.13     -17.17       1.97        0.00      71.11       1.25       0.03       0.01       ----

> <Gold.Chemscore.Fitness>
17.1319

> <Gold.Chemscore.DG>
-17.1721

> <Gold.Chemscore.ZeroCoef>
-5.4800

> <Gold.Chemscore.Hbond>
1.9666

> <Gold.Chemscore.Metal>
0.0000

> <Gold.Chemscore.Lipo>
71.1109

> <Gold.Chemscore.Internal_Hbond>
0.0000

> <Gold.Chemscore.DEClash>
0.0300

> <Gold.Chemscore.DEInternal>
0.0102

> <Gold.Chemscore.Rot>
1.2486

> <Gold.Chemscore.Internal.Correction>
   9.000000E+99

> <Gold.Chemscore.Hbonds>
donor molecule, donor type, donor heavy atom, donor atom, acceptor molecule, acceptor atom, score
      L1  H    11    28       P1  7957  0.65
      L1  H    11    33       P1  7948  0.97

> <Gold.Chemscore.Hbond.Weighted>
-6.5686

> <Gold.Chemscore.Metal.Weighted>
-0.0000

> <Gold.Chemscore.Lipo.Weighted>
-8.3200

> <Gold.Chemscore.Internal_Hbond.Weighted>
0.0000

> <Gold.Chemscore.DEClash.Weighted>
0.0300

> <Gold.Chemscore.DEInternal.Weighted>
0.0102

> <Gold.Chemscore.Rot.Weighted>
3.1964

> <Gold.Chemscore.Internal.Correction.Weighted>
   9.000000E+99

> <Gold.Protein.RotatedTorsions>
[ 6907 6896 6895 6894 ] final  160.73 input  -60.11 | X-H torsion
[ 7974 7965 7964 7962 ] final  135.08 input  175.53 | X-H torsion
[ 8008 7997 7996 7995 ] final  179.02 input   59.86 | X-H torsion
[ 10167 10162 10161 10158 ] final  135.82 input  -65.29 | X-H torsion
[ 10718 10713 10712 10709 ] final  -83.24 input   66.30 | X-H torsion
[ 10763 10752 10751 10750 ] final -178.36 input  -60.55 | X-H torsion
[ 11005 11000 10999 10996 ] final  -22.37 input  -57.11 | X-H torsion

> <Gold.Protein.ActiveResidues>
 VAL166  LYS551  ARG553  GLY616  TRP617  ASP618  TYR619  PRO620  LYS621  CYS622 
 ASP623  PHE694  ASN695  SER759  ASP760  ASP761  ALA762  ILE779  LEU786  VAL792 
 PHE793  MET794  SER795  GLU796  ALA797  LYS798  CYS799  TRP800  GLU811  SER814 

> <Gold.Protein.RotatedAtoms>
  151.9663  133.3711  159.4053 H   0  0  0  0  0  0  0  0  0  0  0  0  # atno 6907 bound_to 6896
  150.6956  134.4188  159.5204 H   0  0  0  0  0  0  0  0  0  0  0  0  # atno 6908 bound_to 6896
  152.1884  134.8693  160.0570 H   0  0  0  0  0  0  0  0  0  0  0  0  # atno 6909 bound_to 6896
  144.9699  139.4616  143.5438 H   0  0  0  0  0  0  0  0  0  0  0  0  # atno 7974 bound_to 7965
  156.0481  140.1319  157.0081 H   0  0  0  0  0  0  0  0  0  0  0  0  # atno 8008 bound_to 7997
  154.4422  140.1016  156.6407 H   0  0  0  0  0  0  0  0  0  0  0  0  # atno 8009 bound_to 7997
  155.5565  140.3464  155.4483 H   0  0  0  0  0  0  0  0  0  0  0  0  # atno 8010 bound_to 7997
  139.5202  144.6497  151.5339 H   0  0  0  0  0  0  0  0  0  0  0  0  # atno 10167 bound_to 10162
  156.0021  130.4659  150.4228 H   0  0  0  0  0  0  0  0  0  0  0  0  # atno 10718 bound_to 10713
  154.5486  135.2811  155.1029 H   0  0  0  0  0  0  0  0  0  0  0  0  # atno 10763 bound_to 10752
  154.2484  135.6344  153.5235 H   0  0  0  0  0  0  0  0  0  0  0  0  # atno 10764 bound_to 10752
  152.9997  135.5576  154.6046 H   0  0  0  0  0  0  0  0  0  0  0  0  # atno 10765 bound_to 10752
  140.8651  133.7760  156.0120 H   0  0  0  0  0  0  0  0  0  0  0  0  # atno 11005 bound_to 11000
  146.3379  139.8905  142.8810 LP  0  0  0  0  0  0  0  0  0  0  0  0  # atno 17320 bound_to 7965
  145.2574  141.0065  143.3846 LP  0  0  0  0  0  0  0  0  0  0  0  0  # atno 17321 bound_to 7965
  140.6296  143.9101  150.6594 LP  0  0  0  0  0  0  0  0  0  0  0  0  # atno 17342 bound_to 10162
  140.2401  143.3670  152.1493 LP  0  0  0  0  0  0  0  0  0  0  0  0  # atno 17343 bound_to 10162
  157.2283  131.0498  151.2507 LP  0  0  0  0  0  0  0  0  0  0  0  0  # atno 17370 bound_to 10713
  157.3736  130.7194  149.6581 LP  0  0  0  0  0  0  0  0  0  0  0  0  # atno 17371 bound_to 10713
  140.8638  134.2808  157.5222 LP  0  0  0  0  0  0  0  0  0  0  0  0  # atno 17394 bound_to 11000
  139.8709  134.9532  156.4138 LP  0  0  0  0  0  0  0  0  0  0  0  0  # atno 17395 bound_to 11000

$$$$
