AV-unprocessed.smi:159|AV-procd|sdf|1340|dock8
  -GOLD-   2262019 33D 1   1.00000     0.00000
 Structure written by MMmdl.
 28 29  0  0  0  0  0  0  0  0  1 V2000
  148.8293  138.8037  153.2651 N   0  0  0  0  0  0  0  0  0  0  0  0
  149.5284  139.5590  154.1237 C   0  0  0  0  0  0  0  0  0  0  0  0
  149.0050  140.8292  154.5714 C   0  0  0  0  0  0  0  0  0  0  0  0
  149.7656  141.5322  155.4394 C   0  0  0  0  0  0  0  0  0  0  0  0
  150.9914  141.0642  155.8982 N   0  0  0  0  0  0  0  0  0  0  0  0
  151.8577  141.8549  156.8609 C   0  0  2  0  0  0  0  0  0  0  0  0
  152.0817  141.0718  158.1689 C   0  0  0  0  0  0  0  0  0  0  0  0
  151.6514  142.0664  159.2289 C   0  0  0  0  0  0  0  0  0  0  0  0
  150.5997  142.8864  158.4901 C   0  0  1  0  0  0  0  0  0  0  0  0
  150.3256  144.2552  159.1279 C   0  0  0  0  0  0  0  0  0  0  0  0
  148.9339  144.4654  159.2346 O   0  0  0  0  0  0  0  0  0  0  0  0
  151.2154  143.0451  157.2173 O   0  0  0  0  0  0  0  0  0  0  0  0
  151.4831  139.8228  155.4264 C   0  0  0  0  0  0  0  0  0  0  0  0
  152.5734  139.3805  155.7867 O   0  0  0  0  0  0  0  0  0  0  0  0
  150.6985  139.1242  154.5486 N   0  0  0  0  0  0  0  0  0  0  0  0
  152.7728  142.0847  156.3118 H   0  0  0  0  0  0  0  0  0  0  0  0
  149.6819  142.3014  158.4030 H   0  0  0  0  0  0  0  0  0  0  0  0
  149.1980  137.9171  152.9525 H   0  0  0  0  0  0  0  0  0  0  0  0
  147.9316  139.1244  152.9323 H   0  0  0  0  0  0  0  0  0  0  0  0
  148.0540  141.2270  154.2473 H   0  0  0  0  0  0  0  0  0  0  0  0
  149.3767  142.4840  155.7682 H   0  0  0  0  0  0  0  0  0  0  0  0
  151.4441  140.1867  158.1968 H   0  0  0  0  0  0  0  0  0  0  0  0
  153.1227  140.7632  158.2679 H   0  0  0  0  0  0  0  0  0  0  0  0
  151.2643  141.5877  160.1288 H   0  0  0  0  0  0  0  0  0  0  0  0
  152.4958  142.6967  159.5122 H   0  0  0  0  0  0  0  0  0  0  0  0
  150.7406  144.2894  160.1356 H   0  0  0  0  0  0  0  0  0  0  0  0
  150.7901  145.0597  158.5570 H   0  0  0  0  0  0  0  0  0  0  0  0
  148.6317  144.8863  158.4444 H   0  0  0  0  0  0  0  0  0  0  0  0
  1  2  1  0  0  0  0
  1 18  1  0  0  0  0
  1 19  1  0  0  0  0
  2 15  2  0  0  0  0
  2  3  1  0  0  0  0
  3  4  2  0  0  0  0
  3 20  1  0  0  0  0
  4  5  1  0  0  0  0
  4 21  1  0  0  0  0
  5  6  1  0  0  0  0
  5 13  1  0  0  0  0
  6 16  1  0  0  0  0
  6 12  1  0  0  0  0
  6  7  1  0  0  0  0
  7  8  1  0  0  0  0
  7 22  1  0  0  0  0
  7 23  1  0  0  0  0
  8  9  1  0  0  0  0
  8 24  1  0  0  0  0
  8 25  1  0  0  0  0
  9 17  1  0  0  0  0
  9 10  1  0  0  0  0
  9 12  1  0  0  0  0
 10 11  1  0  0  0  0
 10 26  1  0  0  0  0
 10 27  1  0  0  0  0
 11 28  1  0  0  0  0
 13 14  2  0  0  0  0
 13 15  1  0  0  0  0
M  END
> <s_m_source_file>
AV-unprocessed.smi

> <i_m_source_file_index>
159

> <i_lp_mmshare_version>
43012

> <i_f3d_flags>
0

> <s_epik_input>
W05IMl1jMVtjSF1bY0hdbihjKD1PKW4xKVtDQEhdMltDSDJdW0NIMl1bQ0BIXShPMilbQ0gyXVtPSF0=

> <s_epik_cmdline>
J2VwaWtfcHl0aG9uJywgJy1waCcsICc3LjAnLCAnLXRuJywgJzgnLCAnLW1hJywgJzIwMCcsICctbWV0YWxfYmluZGluZycsICctaW1hZScsICc8aW5maWxlLm1hZT4nLCAnLW9tYWUnLCAnPG91dGZpbGUubWFlPic=

> <r_lp_tautomer_probability>
0.99996

> <r_epik_Ionization_Penalty>
0.00126102

> <r_epik_Ionization_Penalty_Charging>
4.46248e-08

> <r_epik_Ionization_Penalty_Neutral>
0.00126097

> <r_epik_State_Penalty>
1.15523e-05

> <r_epik_Charging_Adjusted_Penalty>
1.1597e-05

> <i_epik_Tot_Q>
0

> <i_epik_Tot_abs_Q>
0

> <r_epik_Metal_State_Penalty>
-0

> <b_epik_Metal_Only>
0

> <s_epik_Chemistry_Notes>
This compound contains an acetal/aminal-like group ( X-CH(R)-Y where X, Y are N, S, or O) that may be acid/base labile, releasing an aldehyde.

> <s_lp_Force_Field>
OPLS_2005

> <r_lp_Energy>
23.8013

> <b_lp_Chiralities_Consistent>
1

> <s_lp_Variant>
AV-unprocessed.smi:159-2

> <Gold.Version>
5.8.1

> <Gold.Id.Protein>
6NUR|6NUR_protein|mol2

> <Gold.PLP.Fitness>
36.2221

> <Gold.PLP.PLP>
-25.6064

> <Gold.PLP.part.hbond>
-4.2061

> <Gold.PLP.part.metal>
0.0000

> <Gold.PLP.part.buried>
-2.9652

> <Gold.PLP.part.nonpolar>
-18.1199

> <Gold.PLP.part.repulsive>
0.3407

> <Gold.PLP.ligand.clash>
0.0000

> <Gold.PLP.ligand.torsion>
0.7036

> <Gold.PLP.Chemscore.Hbond>
3.0000

> <Gold.PLP.Chemscore.CHOScore>
1.0000

> <Gold.PLP.Chemscore.Metal>
0.0000

> <Gold.Chemscore.Hbonds>
donor molecule, donor type, donor heavy atom, donor atom, acceptor molecule, acceptor atom, score
      L1  H     1    18       P1  7948  0.99
      L1  H    11    28       P1  8029  1.00
      P1  H  7997  8008       L1    14  1.00
      L1  C     4    21       P1  8028  1.00

> <Gold.PLP.Chemscore.Internal.Correction>
0.0230

> <Gold.Rescore>
     Score         DG    S(hbond)    S(metal)    S(lipo)     H(rot)  DE(clash)    DE(int)     intcor
     11.87     -15.27       2.89        0.00      46.98       2.09       1.77       1.63       ----

> <Gold.Chemscore.Fitness>
11.8708

> <Gold.Chemscore.DG>
-15.2729

> <Gold.Chemscore.ZeroCoef>
-5.4800

> <Gold.Chemscore.Hbond>
2.8908

> <Gold.Chemscore.Metal>
0.0000

> <Gold.Chemscore.Lipo>
46.9839

> <Gold.Chemscore.Internal_Hbond>
0.0000

> <Gold.Chemscore.DEClash>
1.7740

> <Gold.Chemscore.DEInternal>
1.6281

> <Gold.Chemscore.Rot>
2.0935

> <Gold.Chemscore.Internal.Correction>
   9.000000E+99

> <Gold.Chemscore.Hbonds>
donor molecule, donor type, donor heavy atom, donor atom, acceptor molecule, acceptor atom, score
      L1  H     1    18       P1  7948  0.89
      L1  H    11    28       P1  8029  0.91
      P1  H  7997  8008       L1    14  0.98

> <Gold.Chemscore.Hbond.Weighted>
-9.6552

> <Gold.Chemscore.Metal.Weighted>
-0.0000

> <Gold.Chemscore.Lipo.Weighted>
-5.4971

> <Gold.Chemscore.Internal_Hbond.Weighted>
0.0000

> <Gold.Chemscore.DEClash.Weighted>
1.7740

> <Gold.Chemscore.DEInternal.Weighted>
1.6281

> <Gold.Chemscore.Rot.Weighted>
5.3594

> <Gold.Chemscore.Internal.Correction.Weighted>
   9.000000E+99

> <Gold.Protein.RotatedTorsions>
[ 6907 6896 6895 6894 ] final -111.73 input  -60.11 | X-H torsion
[ 7974 7965 7964 7962 ] final  109.27 input  175.53 | X-H torsion
[ 8008 7997 7996 7995 ] final  -30.81 input   59.86 | X-H torsion
[ 10167 10162 10161 10158 ] final  119.80 input  -65.29 | X-H torsion
[ 10718 10713 10712 10709 ] final   13.99 input   66.30 | X-H torsion
[ 10763 10752 10751 10750 ] final  136.02 input  -60.55 | X-H torsion
[ 11005 11000 10999 10996 ] final  160.18 input  -57.11 | X-H torsion

> <Gold.Protein.ActiveResidues>
 VAL166  LYS551  ARG553  GLY616  TRP617  ASP618  TYR619  PRO620  LYS621  CYS622 
 ASP623  PHE694  ASN695  SER759  ASP760  ASP761  ALA762  ILE779  LEU786  VAL792 
 PHE793  MET794  SER795  GLU796  ALA797  LYS798  CYS799  TRP800  GLU811  SER814 

> <Gold.Protein.RotatedAtoms>
  150.7710  133.9192  159.3392 H   0  0  0  0  0  0  0  0  0  0  0  0  # atno 6907 bound_to 6896
  151.7079  135.0916  160.0272 H   0  0  0  0  0  0  0  0  0  0  0  0  # atno 6908 bound_to 6896
  152.3727  133.6403  159.6135 H   0  0  0  0  0  0  0  0  0  0  0  0  # atno 6909 bound_to 6896
  145.2699  139.2670  143.3972 H   0  0  0  0  0  0  0  0  0  0  0  0  # atno 7974 bound_to 7965
  154.4237  140.1781  156.1466 H   0  0  0  0  0  0  0  0  0  0  0  0  # atno 8008 bound_to 7997
  155.9949  140.3365  155.6764 H   0  0  0  0  0  0  0  0  0  0  0  0  # atno 8009 bound_to 7997
  155.6322  140.0671  157.2636 H   0  0  0  0  0  0  0  0  0  0  0  0  # atno 8010 bound_to 7997
  139.6023  144.7060  151.3035 H   0  0  0  0  0  0  0  0  0  0  0  0  # atno 10167 bound_to 10162
  157.0327  130.6199  149.5738 H   0  0  0  0  0  0  0  0  0  0  0  0  # atno 10718 bound_to 10713
  153.8497  135.3081  155.3431 H   0  0  0  0  0  0  0  0  0  0  0  0  # atno 10763 bound_to 10752
  154.7897  135.4790  154.0027 H   0  0  0  0  0  0  0  0  0  0  0  0  # atno 10764 bound_to 10752
  153.1526  135.6846  153.8953 H   0  0  0  0  0  0  0  0  0  0  0  0  # atno 10765 bound_to 10752
  140.2034  134.8321  157.3043 H   0  0  0  0  0  0  0  0  0  0  0  0  # atno 11005 bound_to 11000
  146.3249  140.3139  142.8628 LP  0  0  0  0  0  0  0  0  0  0  0  0  # atno 17320 bound_to 7965
  144.9344  140.8010  143.5669 LP  0  0  0  0  0  0  0  0  0  0  0  0  # atno 17321 bound_to 7965
  140.7258  143.7006  150.7848 LP  0  0  0  0  0  0  0  0  0  0  0  0  # atno 17342 bound_to 10162
  140.0585  143.5179  152.2639 LP  0  0  0  0  0  0  0  0  0  0  0  0  # atno 17343 bound_to 10162
  156.0064  130.5151  150.7844 LP  0  0  0  0  0  0  0  0  0  0  0  0  # atno 17370 bound_to 10713
  157.5165  131.0929  151.0132 LP  0  0  0  0  0  0  0  0  0  0  0  0  # atno 17371 bound_to 10713
  140.2029  134.4233  155.7653 LP  0  0  0  0  0  0  0  0  0  0  0  0  # atno 17394 bound_to 11000
  141.2227  133.7080  156.8213 LP  0  0  0  0  0  0  0  0  0  0  0  0  # atno 17395 bound_to 11000

$$$$
