AV-unprocessed.smi:2282|AV-procd|sdf|9195|dock3
  -GOLD-   2272012413D 1   1.00000     0.00000
 Structure written by MMmdl.
 32 33  0  0  0  0  0  0  0  0  1 V2000
  152.5975  143.2928  161.3946 C   0  0  0  0  0  0  0  0  0  0  0  0
  152.0387  143.0475  160.0054 C   0  0  0  0  0  0  0  0  0  0  0  0
  151.2471  144.0250  159.5126 N   0  0  0  0  0  0  0  0  0  0  0  0
  150.7176  143.8538  158.2842 C   0  0  0  0  0  0  0  0  0  0  0  0
  150.9529  142.7148  157.4909 C   0  0  0  0  0  0  0  0  0  0  0  0
  151.7956  141.6963  157.9967 C   0  0  0  0  0  0  0  0  0  0  0  0
  152.0824  140.4960  157.2890 N   0  0  0  0  0  0  0  0  0  0  0  0
  151.6787  140.1227  156.0609 C   0  0  0  0  0  0  0  0  0  0  0  0
  150.9643  140.8039  155.3246 O   0  0  0  0  0  0  0  0  0  0  0  0
  152.1795  138.7450  155.5958 C   0  0  2  0  0  0  0  0  0  0  0  0
  151.6421  138.3054  154.2183 C   0  0  0  0  0  0  0  0  0  0  0  0
  150.8626  137.0328  154.5063 C   0  0  0  0  0  0  0  0  0  0  0  0
  150.5410  137.1521  155.9919 C   0  0  1  0  0  0  0  0  0  0  0  0
  150.2681  135.8134  156.6853 C   0  0  0  0  0  0  0  0  0  0  0  0
  151.7163  137.7557  156.5128 O   0  0  0  0  0  0  0  0  0  0  0  0
  152.3398  141.8635  159.2918 C   0  0  0  0  0  0  0  0  0  0  0  0
  153.3594  140.6483  159.9880 Cl  0  0  0  0  0  0  0  0  0  0  0  0
  153.6874  143.3030  161.3684 H   0  0  0  0  0  0  0  0  0  0  0  0
  152.2761  142.5058  162.0771 H   0  0  0  0  0  0  0  0  0  0  0  0
  152.2611  144.2480  161.8000 H   0  0  0  0  0  0  0  0  0  0  0  0
  150.0800  144.6471  157.9237 H   0  0  0  0  0  0  0  0  0  0  0  0
  150.4754  142.6405  156.5263 H   0  0  0  0  0  0  0  0  0  0  0  0
  152.7334  139.8733  157.7450 H   0  0  0  0  0  0  0  0  0  0  0  0
  153.2706  138.7304  155.5968 H   0  0  0  0  0  0  0  0  0  0  0  0
  150.9910  139.0540  153.7648 H   0  0  0  0  0  0  0  0  0  0  0  0
  152.4515  138.1178  153.5118 H   0  0  0  0  0  0  0  0  0  0  0  0
  149.9713  136.9295  153.8868 H   0  0  0  0  0  0  0  0  0  0  0  0
  151.5004  136.1661  154.3274 H   0  0  0  0  0  0  0  0  0  0  0  0
  149.6963  137.8271  156.1384 H   0  0  0  0  0  0  0  0  0  0  0  0
  149.3882  135.3273  156.2630 H   0  0  0  0  0  0  0  0  0  0  0  0
  150.0901  135.9578  157.7512 H   0  0  0  0  0  0  0  0  0  0  0  0
  151.1124  135.1320  156.5782 H   0  0  0  0  0  0  0  0  0  0  0  0
  1  2  1  0  0  0  0
  1 18  1  0  0  0  0
  1 19  1  0  0  0  0
  1 20  1  0  0  0  0
  2 16  1  0  0  0  0
  2  3  2  0  0  0  0
  3  4  1  0  0  0  0
  4  5  2  0  0  0  0
  4 21  1  0  0  0  0
  5  6  1  0  0  0  0
  5 22  1  0  0  0  0
  6  7  1  0  0  0  0
  6 16  2  0  0  0  0
  7  8  1  0  0  0  0
  7 23  1  0  0  0  0
  8  9  2  0  0  0  0
  8 10  1  0  0  0  0
 10 15  1  0  0  0  0
 10 11  1  0  0  0  0
 10 24  1  0  0  0  0
 11 12  1  0  0  0  0
 11 25  1  0  0  0  0
 11 26  1  0  0  0  0
 12 13  1  0  0  0  0
 12 27  1  0  0  0  0
 12 28  1  0  0  0  0
 13 14  1  0  0  0  0
 13 15  1  0  0  0  0
 13 29  1  0  0  0  0
 14 30  1  0  0  0  0
 14 31  1  0  0  0  0
 14 32  1  0  0  0  0
 16 17  1  0  0  0  0
M  END
> <s_m_source_file>
AV-unprocessed.smi

> <i_m_source_file_index>
2282

> <i_lp_mmshare_version>
43012

> <i_f3d_flags>
0

> <s_epik_input>
W0NIM11jMW5bY0hdW2NIXWMoYzFDbClbTkhdQyg9TylbQ0BASF0yW0NIMl1bQ0gyXVtDQEhdKE8yKVtDSDNd

> <s_epik_cmdline>
J2VwaWtfcHl0aG9uJywgJy1waCcsICc3LjAnLCAnLXRuJywgJzgnLCAnLW1hJywgJzIwMCcsICctbWV0YWxfYmluZGluZycsICctaW1hZScsICc8aW5maWxlLm1hZT4nLCAnLW9tYWUnLCAnPG91dGZpbGUubWFlPic=

> <r_epik_Ionization_Penalty>
0.00037231

> <r_epik_Ionization_Penalty_Charging>
0

> <r_epik_Ionization_Penalty_Neutral>
0.00037231

> <r_epik_State_Penalty>
0.000225113

> <r_epik_Charging_Adjusted_Penalty>
0.000225113

> <i_epik_Tot_Q>
0

> <i_epik_Tot_abs_Q>
0

> <r_epik_Metal_State_Penalty>
-0

> <b_epik_Metal_Only>
0

> <s_lp_Force_Field>
OPLS_2005

> <r_lp_Energy>
24.6828

> <b_lp_Chiralities_Consistent>
1

> <s_lp_Variant>
AV-unprocessed.smi:2282-1

> <Gold.Version>
5.8.1

> <Gold.Id.Protein>
6NUR|6NUR_protein|mol2

> <Gold.PLP.Fitness>
38.7785

> <Gold.PLP.PLP>
-33.0395

> <Gold.PLP.part.hbond>
-1.0000

> <Gold.PLP.part.metal>
0.0000

> <Gold.PLP.part.buried>
-5.0808

> <Gold.PLP.part.nonpolar>
-27.9472

> <Gold.PLP.part.repulsive>
0.2206

> <Gold.PLP.ligand.clash>
0.0000

> <Gold.PLP.ligand.torsion>
0.0125

> <Gold.PLP.Chemscore.Hbond>
0.8320

> <Gold.PLP.Chemscore.CHOScore>
1.0866

> <Gold.PLP.Chemscore.Metal>
0.0000

> <Gold.Chemscore.Hbonds>
donor molecule, donor type, donor heavy atom, donor atom, acceptor molecule, acceptor atom, score
      P1  H  7989  7998       L1     9  0.80
      L1  C     4    21       P1  8028  0.66
      L1  C     4    21       P1  8029  0.40

> <Gold.PLP.Chemscore.Internal.Correction>
0.0083

> <Gold.Rescore>
     Score         DG    S(hbond)    S(metal)    S(lipo)     H(rot)  DE(clash)    DE(int)     intcor
     15.80     -17.15       0.93        0.00      95.01       1.00       0.08       1.28       ----

> <Gold.Chemscore.Fitness>
15.8005

> <Gold.Chemscore.DG>
-17.1528

> <Gold.Chemscore.ZeroCoef>
-5.4800

> <Gold.Chemscore.Hbond>
0.9330

> <Gold.Chemscore.Metal>
0.0000

> <Gold.Chemscore.Lipo>
95.0138

> <Gold.Chemscore.Internal_Hbond>
0.0000

> <Gold.Chemscore.DEClash>
0.0757

> <Gold.Chemscore.DEInternal>
1.2766

> <Gold.Chemscore.Rot>
1.0000

> <Gold.Chemscore.Internal.Correction>
   9.000000E+99

> <Gold.Chemscore.Hbonds>
donor molecule, donor type, donor heavy atom, donor atom, acceptor molecule, acceptor atom, score
      P1  H  7989  7998       L1     9  0.67

> <Gold.Chemscore.Hbond.Weighted>
-3.1162

> <Gold.Chemscore.Metal.Weighted>
-0.0000

> <Gold.Chemscore.Lipo.Weighted>
-11.1166

> <Gold.Chemscore.Internal_Hbond.Weighted>
0.0000

> <Gold.Chemscore.DEClash.Weighted>
0.0757

> <Gold.Chemscore.DEInternal.Weighted>
1.2766

> <Gold.Chemscore.Rot.Weighted>
2.5600

> <Gold.Chemscore.Internal.Correction.Weighted>
   9.000000E+99

> <Gold.Protein.RotatedTorsions>
[ 6907 6896 6895 6894 ] final   60.08 input  -60.11 | X-H torsion
[ 7974 7965 7964 7962 ] final -118.34 input  175.53 | X-H torsion
[ 8008 7997 7996 7995 ] final  -66.28 input   59.86 | X-H torsion
[ 10167 10162 10161 10158 ] final   50.26 input  -65.29 | X-H torsion
[ 10718 10713 10712 10709 ] final  165.16 input   66.30 | X-H torsion
[ 10763 10752 10751 10750 ] final   72.83 input  -60.55 | X-H torsion
[ 11005 11000 10999 10996 ] final  -38.97 input  -57.11 | X-H torsion

> <Gold.Protein.ActiveResidues>
 VAL166  LYS551  ARG553  GLY616  TRP617  ASP618  TYR619  PRO620  LYS621  CYS622 
 ASP623  PHE694  ASN695  SER759  ASP760  ASP761  ALA762  ILE779  LEU786  VAL792 
 PHE793  MET794  SER795  GLU796  ALA797  LYS798  CYS799  TRP800  GLU811  SER814 

> <Gold.Protein.RotatedAtoms>
  152.3971  134.6347  160.0084 H   0  0  0  0  0  0  0  0  0  0  0  0  # atno 6907 bound_to 6896
  151.6563  133.3313  159.3171 H   0  0  0  0  0  0  0  0  0  0  0  0  # atno 6908 bound_to 6896
  150.7877  134.6919  159.6546 H   0  0  0  0  0  0  0  0  0  0  0  0  # atno 6909 bound_to 6896
  145.0750  140.8386  143.4073 H   0  0  0  0  0  0  0  0  0  0  0  0  # atno 7974 bound_to 7965
  154.4724  140.0916  156.7178 H   0  0  0  0  0  0  0  0  0  0  0  0  # atno 8008 bound_to 7997
  155.4687  140.3463  155.4304 H   0  0  0  0  0  0  0  0  0  0  0  0  # atno 8009 bound_to 7997
  156.1061  140.1435  156.9390 H   0  0  0  0  0  0  0  0  0  0  0  0  # atno 8010 bound_to 7997
  140.2743  144.3230  150.6281 H   0  0  0  0  0  0  0  0  0  0  0  0  # atno 10167 bound_to 10162
  157.0842  131.0400  151.2563 H   0  0  0  0  0  0  0  0  0  0  0  0  # atno 10718 bound_to 10713
  153.0483  135.5085  154.7803 H   0  0  0  0  0  0  0  0  0  0  0  0  # atno 10763 bound_to 10752
  154.6685  135.2949  154.9776 H   0  0  0  0  0  0  0  0  0  0  0  0  # atno 10764 bound_to 10752
  154.0602  135.6692  153.4863 H   0  0  0  0  0  0  0  0  0  0  0  0  # atno 10765 bound_to 10752
  141.0067  133.6928  156.2124 H   0  0  0  0  0  0  0  0  0  0  0  0  # atno 11005 bound_to 11000
  145.1247  139.2671  143.5570 LP  0  0  0  0  0  0  0  0  0  0  0  0  # atno 17320 bound_to 7965
  146.3530  140.0881  142.8614 LP  0  0  0  0  0  0  0  0  0  0  0  0  # atno 17321 bound_to 7965
  140.5864  143.2170  151.7333 LP  0  0  0  0  0  0  0  0  0  0  0  0  # atno 17342 bound_to 10162
  139.4980  144.4004  152.0187 LP  0  0  0  0  0  0  0  0  0  0  0  0  # atno 17343 bound_to 10162
  157.4775  130.7745  149.7382 LP  0  0  0  0  0  0  0  0  0  0  0  0  # atno 17370 bound_to 10713
  155.9915  130.3937  150.2981 LP  0  0  0  0  0  0  0  0  0  0  0  0  # atno 17371 bound_to 10713
  140.6800  134.4777  157.5589 LP  0  0  0  0  0  0  0  0  0  0  0  0  # atno 17394 bound_to 11000
  139.9067  134.8433  156.1678 LP  0  0  0  0  0  0  0  0  0  0  0  0  # atno 17395 bound_to 11000

$$$$
