AV-unprocessed.smi:651|AV-procd|sdf|3190|dock8
  -GOLD-   22720 0113D 1   1.00000     0.00000
 Structure written by MMmdl.
 39 40  0  0  0  0  0  0  0  0  2 V2000
  143.7044  132.1549  150.1837 C   0  0  0  0  0  0  0  0  0  0  0  0
  144.3160  133.4191  150.7495 C   0  0  0  0  0  0  0  0  0  0  0  0
  145.6571  133.4749  151.1850 C   0  0  0  0  0  0  0  0  0  0  0  0
  146.1651  134.6872  151.6967 C   0  0  0  0  0  0  0  0  0  0  0  0
  145.3231  135.8194  151.7620 C   0  0  0  0  0  0  0  0  0  0  0  0
  145.8442  137.1419  152.3016 C   0  0  0  0  0  0  0  0  0  0  0  0
  146.2776  137.0425  153.7693 C   0  0  0  0  0  0  0  0  0  0  0  0
  145.4630  136.7982  154.6607 O   0  0  0  0  0  0  0  0  0  0  0  0
  147.5855  137.2267  154.0032 N   0  0  0  0  0  0  0  0  0  0  0  0
  148.2235  137.1645  155.3199 C   0  0  2  0  0  0  0  0  0  0  0  0
  147.4351  137.9887  156.3567 C   0  0  0  0  0  0  0  0  0  0  0  0
  148.4611  138.7972  157.1594 C   0  0  0  0  0  0  0  0  0  0  0  0
  149.8257  138.2036  156.8035 C   0  0  0  0  0  0  0  0  0  0  0  0
  149.6888  137.6801  155.3658 C   0  0  2  0  0  0  0  0  0  0  0  0
  150.0322  138.7862  154.3443 C   0  0  0  0  0  0  0  0  0  0  0  0
  149.7174  138.5487  153.0685 N   0  0  0  0  0  0  0  0  0  0  0  0
  150.5628  139.8382  154.6973 O   0  0  0  0  0  0  0  0  0  0  0  0
  143.9900  135.7034  151.3122 C   0  0  0  0  0  0  0  0  0  0  0  0
  143.5416  134.5247  150.8281 N   0  3  0  0  0  0  0  0  0  0  0  0
  144.1963  131.2710  150.5907 H   0  0  0  0  0  0  0  0  0  0  0  0
  143.8108  132.1380  149.0988 H   0  0  0  0  0  0  0  0  0  0  0  0
  142.6429  132.0931  150.4265 H   0  0  0  0  0  0  0  0  0  0  0  0
  146.2910  132.6021  151.1265 H   0  0  0  0  0  0  0  0  0  0  0  0
  147.1909  134.7469  152.0306 H   0  0  0  0  0  0  0  0  0  0  0  0
  146.6921  137.4714  151.6994 H   0  0  0  0  0  0  0  0  0  0  0  0
  145.0710  137.9055  152.2048 H   0  0  0  0  0  0  0  0  0  0  0  0
  148.1890  137.4152  153.2156 H   0  0  0  0  0  0  0  0  0  0  0  0
  148.2215  136.1257  155.6561 H   0  0  0  0  0  0  0  0  0  0  0  0
  146.7174  138.6633  155.8872 H   0  0  0  0  0  0  0  0  0  0  0  0
  146.8683  137.3251  157.0107 H   0  0  0  0  0  0  0  0  0  0  0  0
  148.4223  139.8440  156.8560 H   0  0  0  0  0  0  0  0  0  0  0  0
  148.2668  138.7636  158.2318 H   0  0  0  0  0  0  0  0  0  0  0  0
  150.6309  138.9300  156.9253 H   0  0  0  0  0  0  0  0  0  0  0  0
  150.0457  137.3691  157.4706 H   0  0  0  0  0  0  0  0  0  0  0  0
  150.3758  136.8465  155.2088 H   0  0  0  0  0  0  0  0  0  0  0  0
  149.9115  139.2445  152.3629 H   0  0  0  0  0  0  0  0  0  0  0  0
  149.2760  137.6764  152.8156 H   0  0  0  0  0  0  0  0  0  0  0  0
  143.2752  136.5137  151.3189 H   0  0  0  0  0  0  0  0  0  0  0  0
  142.5754  134.4666  150.5059 H   0  0  0  0  0  0  0  0  0  0  0  0
  1  2  1  0  0  0  0
  1 20  1  0  0  0  0
  1 21  1  0  0  0  0
  1 22  1  0  0  0  0
  2 19  1  0  0  0  0
  2  3  2  0  0  0  0
  3  4  1  0  0  0  0
  3 23  1  0  0  0  0
  4  5  2  0  0  0  0
  4 24  1  0  0  0  0
  5  6  1  0  0  0  0
  5 18  1  0  0  0  0
  6  7  1  0  0  0  0
  6 25  1  0  0  0  0
  6 26  1  0  0  0  0
  7  8  2  0  0  0  0
  7  9  1  0  0  0  0
  9 10  1  0  0  0  0
  9 27  1  0  0  0  0
 10 14  1  0  0  0  0
 10 11  1  0  0  0  0
 10 28  1  0  0  0  0
 11 12  1  0  0  0  0
 11 29  1  0  0  0  0
 11 30  1  0  0  0  0
 12 13  1  0  0  0  0
 12 31  1  0  0  0  0
 12 32  1  0  0  0  0
 13 14  1  0  0  0  0
 13 33  1  0  0  0  0
 13 34  1  0  0  0  0
 14 15  1  0  0  0  0
 14 35  1  0  0  0  0
 15 16  1  0  0  0  0
 15 17  2  0  0  0  0
 16 36  1  0  0  0  0
 16 37  1  0  0  0  0
 18 19  2  0  0  0  0
 18 38  1  0  0  0  0
 19 39  1  0  0  0  0
M  CHG  1  19   1
M  END
> <s_m_source_file>
AV-unprocessed.smi

> <i_m_source_file_index>
651

> <i_lp_mmshare_version>
43012

> <i_f3d_flags>
0

> <s_epik_input>
W0NIM11jMVtjSF1bY0hdYyhbY0hdbjEpW0NIMl1DKD1PKVtOSF1bQ0BASF0yW0NIMl1bQ0gyXVtDSDJdW0NASF0yQyg9TylbTkgyXQ==

> <s_epik_cmdline>
J2VwaWtfcHl0aG9uJywgJy1waCcsICc3LjAnLCAnLXRuJywgJzgnLCAnLW1hJywgJzIwMCcsICctbWV0YWxfYmluZGluZycsICctaW1hZScsICc8aW5maWxlLm1hZT4nLCAnLW9tYWUnLCAnPG91dGZpbGUubWFlPic=

> <r_epik_Ionization_Penalty>
2.14971

> <r_epik_Ionization_Penalty_Charging>
2.14971

> <r_epik_Ionization_Penalty_Neutral>
1.65229e-07

> <r_epik_State_Penalty>
2.28946

> <r_epik_Charging_Adjusted_Penalty>
4.43917

> <i_epik_Tot_Q>
1

> <i_epik_Tot_abs_Q>
1

> <r_epik_Metal_State_Penalty>
2.30508

> <b_epik_Metal_Only>
0

> <s_lp_Force_Field>
OPLS_2005

> <r_lp_Energy>
19.6238

> <b_lp_Chiralities_Consistent>
1

> <s_lp_Variant>
AV-unprocessed.smi:651-7

> <Gold.Version>
5.8.1

> <Gold.Id.Protein>
6NUR|6NUR_protein|mol2

> <Gold.PLP.Fitness>
43.1722

> <Gold.PLP.PLP>
-26.7114

> <Gold.PLP.part.hbond>
-4.9827

> <Gold.PLP.part.metal>
0.0000

> <Gold.PLP.part.buried>
-2.6976

> <Gold.PLP.part.nonpolar>
-18.6610

> <Gold.PLP.part.repulsive>
0.2383

> <Gold.PLP.ligand.clash>
0.0000

> <Gold.PLP.ligand.torsion>
0.3465

> <Gold.PLP.Chemscore.Hbond>
5.7120

> <Gold.PLP.Chemscore.CHOScore>
0.0000

> <Gold.PLP.Chemscore.Metal>
0.0000

> <Gold.Chemscore.Hbonds>
donor molecule, donor type, donor heavy atom, donor atom, acceptor molecule, acceptor atom, score
      L1  H     9    27       P1  7948  0.64
      L1  H    16    36       P1  7957  0.81
      L1  H    16    37       P1  7948  1.00
      L1  H    19    39       P1 10186  2.00
      P1  H  7989  7998       L1    17  1.00

> <Gold.PLP.Chemscore.Internal.Correction>
0.0178

> <Gold.Rescore>
     Score         DG    S(hbond)    S(metal)    S(lipo)     H(rot)  DE(clash)    DE(int)     intcor
     16.48     -20.53       4.16        0.00      54.56       2.04       0.42       3.63       ----

> <Gold.Chemscore.Fitness>
16.4760

> <Gold.Chemscore.DG>
-20.5321

> <Gold.Chemscore.ZeroCoef>
-5.4800

> <Gold.Chemscore.Hbond>
4.1580

> <Gold.Chemscore.Metal>
0.0000

> <Gold.Chemscore.Lipo>
54.5579

> <Gold.Chemscore.Internal_Hbond>
0.0000

> <Gold.Chemscore.DEClash>
0.4239

> <Gold.Chemscore.DEInternal>
3.6322

> <Gold.Chemscore.Rot>
2.0386

> <Gold.Chemscore.Internal.Correction>
   9.000000E+99

> <Gold.Chemscore.Hbonds>
donor molecule, donor type, donor heavy atom, donor atom, acceptor molecule, acceptor atom, score
      L1  H     9    27       P1  7948  0.63
      L1  H    16    36       P1  7957  0.59
      L1  H    16    37       P1  7948  0.94
      L1  H    19    39       P1 10186  0.40
      P1  H  7989  7998       L1    17  0.98

> <Gold.Chemscore.Hbond.Weighted>
-13.8876

> <Gold.Chemscore.Metal.Weighted>
-0.0000

> <Gold.Chemscore.Lipo.Weighted>
-6.3833

> <Gold.Chemscore.Internal_Hbond.Weighted>
0.0000

> <Gold.Chemscore.DEClash.Weighted>
0.4239

> <Gold.Chemscore.DEInternal.Weighted>
3.6322

> <Gold.Chemscore.Rot.Weighted>
5.2188

> <Gold.Chemscore.Internal.Correction.Weighted>
   9.000000E+99

> <Gold.Protein.RotatedTorsions>
[ 6907 6896 6895 6894 ] final  107.09 input  -60.11 | X-H torsion
[ 7974 7965 7964 7962 ] final -122.35 input  175.53 | X-H torsion
[ 8008 7997 7996 7995 ] final  -66.56 input   59.86 | X-H torsion
[ 10167 10162 10161 10158 ] final -151.22 input  -65.29 | X-H torsion
[ 10718 10713 10712 10709 ] final  -77.34 input   66.30 | X-H torsion
[ 10763 10752 10751 10750 ] final   69.83 input  -60.55 | X-H torsion
[ 11005 11000 10999 10996 ] final  -73.00 input  -57.11 | X-H torsion

> <Gold.Protein.ActiveResidues>
 VAL166  LYS551  ARG553  GLY616  TRP617  ASP618  TYR619  PRO620  LYS621  CYS622 
 ASP623  PHE694  ASN695  SER759  ASP760  ASP761  ALA762  ILE779  LEU786  VAL792 
 PHE793  MET794  SER795  GLU796  ALA797  LYS798  CYS799  TRP800  GLU811  SER814 

> <Gold.Protein.RotatedAtoms>
  152.5168  133.9286  159.7568 H   0  0  0  0  0  0  0  0  0  0  0  0  # atno 6907 bound_to 6896
  150.9641  133.6405  159.2756 H   0  0  0  0  0  0  0  0  0  0  0  0  # atno 6908 bound_to 6896
  151.3639  135.0915  159.9496 H   0  0  0  0  0  0  0  0  0  0  0  0  # atno 6909 bound_to 6896
  145.0304  140.8063  143.4327 H   0  0  0  0  0  0  0  0  0  0  0  0  # atno 7974 bound_to 7965
  154.4742  140.0910  156.7221 H   0  0  0  0  0  0  0  0  0  0  0  0  # atno 8008 bound_to 7997
  155.4640  140.3462  155.4298 H   0  0  0  0  0  0  0  0  0  0  0  0  # atno 8009 bound_to 7997
  156.1090  140.1442  156.9353 H   0  0  0  0  0  0  0  0  0  0  0  0  # atno 8010 bound_to 7997
  139.7286  143.8844  152.2527 H   0  0  0  0  0  0  0  0  0  0  0  0  # atno 10167 bound_to 10162
  156.0148  130.4489  150.3329 H   0  0  0  0  0  0  0  0  0  0  0  0  # atno 10718 bound_to 10713
  153.0308  135.5196  154.7348 H   0  0  0  0  0  0  0  0  0  0  0  0  # atno 10763 bound_to 10752
  154.6365  135.2907  155.0157 H   0  0  0  0  0  0  0  0  0  0  0  0  # atno 10764 bound_to 10752
  154.1090  135.6625  153.4934 H   0  0  0  0  0  0  0  0  0  0  0  0  # atno 10765 bound_to 10752
  141.1617  133.6864  156.7145 H   0  0  0  0  0  0  0  0  0  0  0  0  # atno 11005 bound_to 11000
  145.1778  139.2369  143.5308 LP  0  0  0  0  0  0  0  0  0  0  0  0  # atno 17320 bound_to 7965
  146.3498  140.1544  142.8592 LP  0  0  0  0  0  0  0  0  0  0  0  0  # atno 17321 bound_to 7965
  139.8760  144.7043  150.8932 LP  0  0  0  0  0  0  0  0  0  0  0  0  # atno 17342 bound_to 10162
  140.7767  143.3699  151.1669 LP  0  0  0  0  0  0  0  0  0  0  0  0  # atno 17343 bound_to 10162
  157.1427  131.0300  151.2920 LP  0  0  0  0  0  0  0  0  0  0  0  0  # atno 17370 bound_to 10713
  157.4458  130.7570  149.7108 LP  0  0  0  0  0  0  0  0  0  0  0  0  # atno 17371 bound_to 10713
  140.2862  134.8277  157.3977 LP  0  0  0  0  0  0  0  0  0  0  0  0  # atno 17394 bound_to 11000
  140.1388  134.4999  155.8048 LP  0  0  0  0  0  0  0  0  0  0  0  0  # atno 17395 bound_to 11000

$$$$
