AV-unprocessed.smi:263|AV-procd|sdf|2004|dock9
  -GOLD-   2262021203D 1   1.00000     0.00000
 Structure written by MMmdl.
 57 61  0  0  0  0  0  0  0  0  1 V2000
  149.6757  133.1978  158.2116 O   0  0  0  0  0  0  0  0  0  0  0  0
  149.0434  134.1260  157.3477 C   0  0  0  0  0  0  0  0  0  0  0  0
  148.2163  135.1029  158.2203 C   0  0  0  0  0  0  0  0  0  0  0  0
  148.7811  136.4401  158.3135 N   0  0  0  0  0  0  0  0  0  0  0  0
  149.9101  136.8099  159.0093 C   0  0  0  0  0  0  0  0  0  0  0  0
  150.2166  138.0763  158.9398 N   0  0  0  0  0  0  0  0  0  0  0  0
  149.2146  138.6256  158.1481 C   0  0  0  0  0  0  0  0  0  0  0  0
  148.9332  139.9384  157.6752 C   0  0  0  0  0  0  0  0  0  0  0  0
  149.7024  141.0108  157.9911 N   0  0  0  0  0  0  0  0  0  0  0  0
  149.0092  142.2954  157.9219 C   0  0  0  0  0  0  0  0  0  0  0  0
  149.7868  143.3825  158.6836 C   0  0  0  0  0  0  0  0  0  0  0  0
  151.2619  143.4754  158.2258 C   0  0  1  0  0  0  0  0  0  0  0  0
  151.2630  143.9593  156.8944 O   0  0  0  0  0  0  0  0  0  0  0  0
  152.0749  144.5014  159.0501 C   0  0  0  0  0  0  0  0  0  0  0  0
  152.3905  144.0130  160.4732 C   0  0  0  0  0  0  0  0  0  0  0  0
  153.0997  142.6527  160.4424 C   0  0  0  0  0  0  0  0  0  0  0  0
  152.2645  141.6120  159.6831 C   0  0  0  0  0  0  0  0  0  0  0  0
  151.9370  142.0751  158.2458 C   0  0  1  0  0  0  0  0  0  0  0  0
  151.0826  141.0253  157.5028 C   0  0  0  0  0  0  0  0  0  0  0  0
  147.8399  140.0956  156.8814 N   0  0  0  0  0  0  0  0  0  0  0  0
  147.0667  139.0479  156.5810 C   0  0  0  0  0  0  0  0  0  0  0  0
  147.2021  137.7754  156.9588 N   0  0  0  0  0  0  0  0  0  0  0  0
  148.3046  137.6080  157.7440 C   0  0  0  0  0  0  0  0  0  0  0  0
  150.1340  134.8937  156.5737 C   0  0  0  0  0  0  0  0  0  0  0  0
  150.8717  133.9957  155.5650 C   0  0  0  0  0  0  0  0  0  0  0  0
  149.9368  133.3938  154.6782 O   0  0  0  0  0  0  0  0  0  0  0  0
  149.0242  132.5324  155.3475 C   0  0  0  0  0  0  0  0  0  0  0  0
  148.1725  133.3360  156.3467 C   0  0  0  0  0  0  0  0  0  0  0  0
  149.0747  132.4894  158.3849 H   0  0  0  0  0  0  0  0  0  0  0  0
  147.1981  135.1862  157.8377 H   0  0  0  0  0  0  0  0  0  0  0  0
  148.1256  134.7089  159.2334 H   0  0  0  0  0  0  0  0  0  0  0  0
  150.5072  136.1044  159.5688 H   0  0  0  0  0  0  0  0  0  0  0  0
  148.9018  142.5774  156.8737 H   0  0  0  0  0  0  0  0  0  0  0  0
  148.0002  142.2279  158.3269 H   0  0  0  0  0  0  0  0  0  0  0  0
  149.2888  144.3453  158.5618 H   0  0  0  0  0  0  0  0  0  0  0  0
  149.7378  143.1537  159.7478 H   0  0  0  0  0  0  0  0  0  0  0  0
  150.3672  144.0503  156.6076 H   0  0  0  0  0  0  0  0  0  0  0  0
  153.0205  144.7043  158.5447 H   0  0  0  0  0  0  0  0  0  0  0  0
  151.5474  145.4552  159.0946 H   0  0  0  0  0  0  0  0  0  0  0  0
  153.0186  144.7447  160.9822 H   0  0  0  0  0  0  0  0  0  0  0  0
  151.4742  143.9393  161.0590 H   0  0  0  0  0  0  0  0  0  0  0  0
  154.0751  142.7584  159.9654 H   0  0  0  0  0  0  0  0  0  0  0  0
  153.2873  142.3082  161.4596 H   0  0  0  0  0  0  0  0  0  0  0  0
  152.8063  140.6663  159.6516 H   0  0  0  0  0  0  0  0  0  0  0  0
  151.3457  141.4146  160.2364 H   0  0  0  0  0  0  0  0  0  0  0  0
  152.8908  142.1500  157.7207 H   0  0  0  0  0  0  0  0  0  0  0  0
  151.5345  140.0391  157.6182 H   0  0  0  0  0  0  0  0  0  0  0  0
  151.0741  141.2453  156.4343 H   0  0  0  0  0  0  0  0  0  0  0  0
  146.2163  139.2605  155.9502 H   0  0  0  0  0  0  0  0  0  0  0  0
  149.6738  135.7171  156.0257 H   0  0  0  0  0  0  0  0  0  0  0  0
  150.8472  135.3468  157.2634 H   0  0  0  0  0  0  0  0  0  0  0  0
  151.5738  134.5910  154.9811 H   0  0  0  0  0  0  0  0  0  0  0  0
  151.4568  133.2281  156.0738 H   0  0  0  0  0  0  0  0  0  0  0  0
  148.3798  132.0602  154.6061 H   0  0  0  0  0  0  0  0  0  0  0  0
  149.5665  131.7295  155.8490 H   0  0  0  0  0  0  0  0  0  0  0  0
  147.4927  132.6619  156.8694 H   0  0  0  0  0  0  0  0  0  0  0  0
  147.5455  134.0319  155.7881 H   0  0  0  0  0  0  0  0  0  0  0  0
  1  2  1  0  0  0  0
  1 29  1  0  0  0  0
  2 28  1  0  0  0  0
  2  3  1  0  0  0  0
  2 24  1  0  0  0  0
  3  4  1  0  0  0  0
  3 30  1  0  0  0  0
  3 31  1  0  0  0  0
  4 23  1  0  0  0  0
  4  5  1  0  0  0  0
  5  6  2  0  0  0  0
  5 32  1  0  0  0  0
  6  7  1  0  0  0  0
  7 23  2  0  0  0  0
  7  8  1  0  0  0  0
  8  9  1  0  0  0  0
  8 20  2  0  0  0  0
  9 19  1  0  0  0  0
  9 10  1  0  0  0  0
 10 11  1  0  0  0  0
 10 33  1  0  0  0  0
 10 34  1  0  0  0  0
 11 12  1  0  0  0  0
 11 35  1  0  0  0  0
 11 36  1  0  0  0  0
 12 18  1  0  0  0  0
 12 13  1  0  0  0  0
 12 14  1  0  0  0  0
 13 37  1  0  0  0  0
 14 15  1  0  0  0  0
 14 38  1  0  0  0  0
 14 39  1  0  0  0  0
 15 16  1  0  0  0  0
 15 40  1  0  0  0  0
 15 41  1  0  0  0  0
 16 17  1  0  0  0  0
 16 42  1  0  0  0  0
 16 43  1  0  0  0  0
 17 18  1  0  0  0  0
 17 44  1  0  0  0  0
 17 45  1  0  0  0  0
 18 19  1  0  0  0  0
 18 46  1  0  0  0  0
 19 47  1  0  0  0  0
 19 48  1  0  0  0  0
 20 21  1  0  0  0  0
 21 22  2  0  0  0  0
 21 49  1  0  0  0  0
 22 23  1  0  0  0  0
 24 25  1  0  0  0  0
 24 50  1  0  0  0  0
 24 51  1  0  0  0  0
 25 26  1  0  0  0  0
 25 52  1  0  0  0  0
 25 53  1  0  0  0  0
 26 27  1  0  0  0  0
 27 28  1  0  0  0  0
 27 54  1  0  0  0  0
 27 55  1  0  0  0  0
 28 56  1  0  0  0  0
 28 57  1  0  0  0  0
M  END
> <s_m_source_file>
AV-unprocessed.smi

> <i_m_source_file_index>
263

> <i_lp_mmshare_version>
43012

> <i_f3d_flags>
0

> <s_epik_input>
W0NIMl0xW0NIMl1PW0NIMl1bQ0gyXUMxKFtPSF0pW0NIMl1uKFtjSF1uMiljKGMyMyluW2NIXW5jM04oW0NIMl1bQ0gyXTQpW0NIMl1bQ0BASF0oW0NAXTQ1W09IXSlbQ0gyXVtDSDJdW0NIMl1bQ0gyXTU=

> <s_epik_cmdline>
J2VwaWtfcHl0aG9uJywgJy1waCcsICc3LjAnLCAnLXRuJywgJzgnLCAnLW1hJywgJzIwMCcsICctbWV0YWxfYmluZGluZycsICctaW1hZScsICc8aW5maWxlLm1hZT4nLCAnLW9tYWUnLCAnPG91dGZpbGUubWFlPic=

> <r_lp_tautomer_probability>
1

> <r_epik_Ionization_Penalty>
0.00747493

> <r_epik_Ionization_Penalty_Charging>
0

> <r_epik_Ionization_Penalty_Neutral>
0.00747493

> <r_epik_State_Penalty>
0.00549307

> <r_epik_Charging_Adjusted_Penalty>
0.00549307

> <i_epik_Tot_Q>
0

> <i_epik_Tot_abs_Q>
0

> <r_epik_Metal_State_Penalty>
-0

> <b_epik_Metal_Only>
0

> <s_lp_Force_Field>
OPLS_2005

> <r_lp_Energy>
40.0531

> <b_lp_Chiralities_Consistent>
1

> <s_lp_Variant>
AV-unprocessed.smi:263-2

> <Gold.Version>
5.8.1

> <Gold.Id.Protein>
6NUR|6NUR_protein|mol2

> <Gold.PLP.Fitness>
40.9886

> <Gold.PLP.PLP>
-37.6245

> <Gold.PLP.part.hbond>
-2.3290

> <Gold.PLP.part.metal>
0.0000

> <Gold.PLP.part.buried>
-7.1152

> <Gold.PLP.part.nonpolar>
-28.1379

> <Gold.PLP.part.repulsive>
0.1331

> <Gold.PLP.ligand.clash>
0.0000

> <Gold.PLP.ligand.torsion>
1.5034

> <Gold.PLP.Chemscore.Hbond>
2.0000

> <Gold.PLP.Chemscore.CHOScore>
0.0000

> <Gold.PLP.Chemscore.Metal>
0.0000

> <Gold.Chemscore.Hbonds>
donor molecule, donor type, donor heavy atom, donor atom, acceptor molecule, acceptor atom, score
      L1  H    13    37       P1  8028  1.00
      P1  H  6896  6907       L1     1  1.00

> <Gold.PLP.Chemscore.Internal.Correction>
0.3709

> <Gold.Rescore>
     Score         DG    S(hbond)    S(metal)    S(lipo)     H(rot)  DE(clash)    DE(int)     intcor
     16.21     -17.75       1.97        0.00     105.96       2.62       0.04       1.49       ----

> <Gold.Chemscore.Fitness>
16.2125

> <Gold.Chemscore.DG>
-17.7475

> <Gold.Chemscore.ZeroCoef>
-5.4800

> <Gold.Chemscore.Hbond>
1.9718

> <Gold.Chemscore.Metal>
0.0000

> <Gold.Chemscore.Lipo>
105.9589

> <Gold.Chemscore.Internal_Hbond>
0.0000

> <Gold.Chemscore.DEClash>
0.0410

> <Gold.Chemscore.DEInternal>
1.4940

> <Gold.Chemscore.Rot>
2.6232

> <Gold.Chemscore.Internal.Correction>
   9.000000E+99

> <Gold.Chemscore.Hbonds>
donor molecule, donor type, donor heavy atom, donor atom, acceptor molecule, acceptor atom, score
      L1  H    13    37       P1  8028  0.99
      P1  H  6896  6907       L1     1  0.96

> <Gold.Chemscore.Hbond.Weighted>
-6.5858

> <Gold.Chemscore.Metal.Weighted>
-0.0000

> <Gold.Chemscore.Lipo.Weighted>
-12.3972

> <Gold.Chemscore.Internal_Hbond.Weighted>
0.0000

> <Gold.Chemscore.DEClash.Weighted>
0.0410

> <Gold.Chemscore.DEInternal.Weighted>
1.4940

> <Gold.Chemscore.Rot.Weighted>
6.7155

> <Gold.Chemscore.Internal.Correction.Weighted>
   9.000000E+99

> <Gold.Protein.RotatedTorsions>
[ 6907 6896 6895 6894 ] final -124.40 input  -60.11 | X-H torsion
[ 7974 7965 7964 7962 ] final -115.46 input  175.53 | X-H torsion
[ 8008 7997 7996 7995 ] final  -36.01 input   59.86 | X-H torsion
[ 10167 10162 10161 10158 ] final   14.23 input  -65.29 | X-H torsion
[ 10718 10713 10712 10709 ] final  108.28 input   66.30 | X-H torsion
[ 10763 10752 10751 10750 ] final   19.89 input  -60.55 | X-H torsion
[ 11005 11000 10999 10996 ] final  -48.52 input  -57.11 | X-H torsion

> <Gold.Protein.ActiveResidues>
 VAL166  LYS551  ARG553  GLY616  TRP617  ASP618  TYR619  PRO620  LYS621  CYS622 
 ASP623  PHE694  ASN695  SER759  ASP760  ASP761  ALA762  ILE779  LEU786  VAL792 
 PHE793  MET794  SER795  GLU796  ALA797  LYS798  CYS799  TRP800  GLU811  SER814 

> <Gold.Protein.RotatedAtoms>
  150.8764  133.7432  159.2945 H   0  0  0  0  0  0  0  0  0  0  0  0  # atno 6907 bound_to 6896
  151.5028  135.1061  159.9843 H   0  0  0  0  0  0  0  0  0  0  0  0  # atno 6908 bound_to 6896
  152.4731  133.8029  159.7018 H   0  0  0  0  0  0  0  0  0  0  0  0  # atno 6909 bound_to 6896
  145.1082  140.8595  143.3886 H   0  0  0  0  0  0  0  0  0  0  0  0  # atno 7974 bound_to 7965
  154.4082  140.1642  156.2304 H   0  0  0  0  0  0  0  0  0  0  0  0  # atno 8008 bound_to 7997
  155.9288  140.3416  155.6209 H   0  0  0  0  0  0  0  0  0  0  0  0  # atno 8009 bound_to 7997
  155.7132  140.0759  157.2353 H   0  0  0  0  0  0  0  0  0  0  0  0  # atno 8010 bound_to 7997
  140.5949  143.8721  150.6909 H   0  0  0  0  0  0  0  0  0  0  0  0  # atno 10167 bound_to 10162
  157.6593  131.0890  150.6282 H   0  0  0  0  0  0  0  0  0  0  0  0  # atno 10718 bound_to 10713
  153.1124  135.6700  153.9478 H   0  0  0  0  0  0  0  0  0  0  0  0  # atno 10763 bound_to 10752
  153.9017  135.3035  155.3450 H   0  0  0  0  0  0  0  0  0  0  0  0  # atno 10764 bound_to 10752
  154.7542  135.5020  153.9422 H   0  0  0  0  0  0  0  0  0  0  0  0  # atno 10765 bound_to 10752
  141.0705  133.6680  156.3452 H   0  0  0  0  0  0  0  0  0  0  0  0  # atno 11005 bound_to 11000
  145.0877  139.2912  143.5751 LP  0  0  0  0  0  0  0  0  0  0  0  0  # atno 17320 bound_to 7965
  146.3527  140.0405  142.8643 LP  0  0  0  0  0  0  0  0  0  0  0  0  # atno 17321 bound_to 7965
  140.2253  143.3777  152.1610 LP  0  0  0  0  0  0  0  0  0  0  0  0  # atno 17342 bound_to 10162
  139.5252  144.7093  151.5257 LP  0  0  0  0  0  0  0  0  0  0  0  0  # atno 17343 bound_to 10162
  156.6586  130.4505  149.5695 LP  0  0  0  0  0  0  0  0  0  0  0  0  # atno 17370 bound_to 10713
  156.2084  130.6663  151.1243 LP  0  0  0  0  0  0  0  0  0  0  0  0  # atno 17371 bound_to 10713
  140.5683  134.5866  157.5451 LP  0  0  0  0  0  0  0  0  0  0  0  0  # atno 17394 bound_to 11000
  139.9519  134.7602  156.0429 LP  0  0  0  0  0  0  0  0  0  0  0  0  # atno 17395 bound_to 11000

$$$$
