AV-unprocessed.smi:1419|AV-procd|sdf|5777|dock6
  -GOLD-   22720 5423D 1   1.00000     0.00000
 Structure written by MMmdl.
 42 43  0  0  0  0  0  0  0  0  2 V2000
  146.3053  138.2807  151.0041 C   0  0  0  0  0  0  0  0  0  0  0  0
  146.3190  138.3403  152.5400 C   0  0  1  0  0  0  0  0  0  0  0  0
  145.5998  137.1418  153.1967 C   0  0  0  0  0  0  0  0  0  0  0  0
  145.1403  136.1489  152.2220 N   0  0  0  0  0  0  0  0  0  0  0  0
  145.9098  135.3337  151.4319 C   0  0  0  0  0  0  0  0  0  0  0  0
  145.0407  134.5760  150.6898 C   0  0  0  0  0  0  0  0  0  0  0  0
  143.7791  134.9586  151.0600 N   0  3  0  0  0  0  0  0  0  0  0  0
  143.8420  135.9136  151.9936 C   0  0  0  0  0  0  0  0  0  0  0  0
  147.7008  138.4136  153.0045 N   0  0  0  0  0  0  0  0  0  0  0  0
  148.1992  139.3525  153.8277 C   0  0  0  0  0  0  0  0  0  0  0  0
  147.5087  140.2760  154.2607 O   0  0  0  0  0  0  0  0  0  0  0  0
  149.5122  139.2004  154.1297 N   0  0  0  0  0  0  0  0  0  0  0  0
  150.3049  137.9677  154.0232 C   0  0  0  0  0  0  0  0  0  0  0  0
  150.6201  137.4493  155.4419 C   0  0  2  0  0  0  0  0  0  0  0  0
  149.3981  136.8806  156.1857 C   0  0  0  0  0  0  0  0  0  0  0  0
  151.2615  138.4797  156.2006 O   0  0  0  0  0  0  0  0  0  0  0  0
  150.5718  139.7315  156.2578 C   0  0  1  0  0  0  0  0  0  0  0  0
  151.4416  140.7149  157.0480 C   0  0  0  0  0  0  0  0  0  0  0  0
  150.2860  140.2289  154.8272 C   0  0  0  0  0  0  0  0  0  0  0  0
  145.2892  138.3175  150.6115 H   0  0  0  0  0  0  0  0  0  0  0  0
  146.7713  137.3650  150.6387 H   0  0  0  0  0  0  0  0  0  0  0  0
  146.8478  139.1238  150.5746 H   0  0  0  0  0  0  0  0  0  0  0  0
  145.8098  139.2601  152.8348 H   0  0  0  0  0  0  0  0  0  0  0  0
  146.2610  136.6376  153.9031 H   0  0  0  0  0  0  0  0  0  0  0  0
  144.7276  137.4717  153.7632 H   0  0  0  0  0  0  0  0  0  0  0  0
  146.9899  135.3547  151.4543 H   0  0  0  0  0  0  0  0  0  0  0  0
  145.2206  133.8129  149.9464 H   0  0  0  0  0  0  0  0  0  0  0  0
  143.0085  136.4001  152.4688 H   0  0  0  0  0  0  0  0  0  0  0  0
  148.3288  137.6917  152.6816 H   0  0  0  0  0  0  0  0  0  0  0  0
  149.8329  137.1812  153.4345 H   0  0  0  0  0  0  0  0  0  0  0  0
  151.2361  138.1947  153.5019 H   0  0  0  0  0  0  0  0  0  0  0  0
  151.3445  136.6396  155.3495 H   0  0  0  0  0  0  0  0  0  0  0  0
  148.9674  136.0430  155.6370 H   0  0  0  0  0  0  0  0  0  0  0  0
  148.6097  137.6205  156.3202 H   0  0  0  0  0  0  0  0  0  0  0  0
  149.6821  136.5166  157.1733 H   0  0  0  0  0  0  0  0  0  0  0  0
  149.6312  139.6041  156.7946 H   0  0  0  0  0  0  0  0  0  0  0  0
  150.9566  141.6874  157.1338 H   0  0  0  0  0  0  0  0  0  0  0  0
  152.4079  140.8640  156.5651 H   0  0  0  0  0  0  0  0  0  0  0  0
  151.6270  140.3462  158.0571 H   0  0  0  0  0  0  0  0  0  0  0  0
  151.2200  140.4071  154.2920 H   0  0  0  0  0  0  0  0  0  0  0  0
  149.7724  141.1908  154.8599 H   0  0  0  0  0  0  0  0  0  0  0  0
  142.9207  134.5752  150.6842 H   0  0  0  0  0  0  0  0  0  0  0  0
  1  2  1  0  0  0  0
  1 20  1  0  0  0  0
  1 21  1  0  0  0  0
  1 22  1  0  0  0  0
  2  3  1  0  0  0  0
  2  9  1  0  0  0  0
  2 23  1  0  0  0  0
  3  4  1  0  0  0  0
  3 24  1  0  0  0  0
  3 25  1  0  0  0  0
  4  8  1  0  0  0  0
  4  5  1  0  0  0  0
  5  6  2  0  0  0  0
  5 26  1  0  0  0  0
  6  7  1  0  0  0  0
  6 27  1  0  0  0  0
  7  8  2  0  0  0  0
  7 42  1  0  0  0  0
  8 28  1  0  0  0  0
  9 10  1  0  0  0  0
  9 29  1  0  0  0  0
 10 11  2  0  0  0  0
 10 12  1  0  0  0  0
 12 19  1  0  0  0  0
 12 13  1  0  0  0  0
 13 14  1  0  0  0  0
 13 30  1  0  0  0  0
 13 31  1  0  0  0  0
 14 15  1  0  0  0  0
 14 16  1  0  0  0  0
 14 32  1  0  0  0  0
 15 33  1  0  0  0  0
 15 34  1  0  0  0  0
 15 35  1  0  0  0  0
 16 17  1  0  0  0  0
 17 18  1  0  0  0  0
 17 19  1  0  0  0  0
 17 36  1  0  0  0  0
 18 37  1  0  0  0  0
 18 38  1  0  0  0  0
 18 39  1  0  0  0  0
 19 40  1  0  0  0  0
 19 41  1  0  0  0  0
M  CHG  1   7   1
M  END
> <s_m_source_file>
AV-unprocessed.smi

> <i_m_source_file_index>
1419

> <i_lp_mmshare_version>
43012

> <i_f3d_flags>
0

> <s_epik_input>
W2NIXTFuW2NIXVtjSF1uMVtDSDJdW0NAQEhdKFtDSDNdKVtOSF1DKD1PKU4yW0NIMl1bQ0BASF0oW0NIM10pT1tDQEBIXShbQ0gzXSlbQ0gyXTI=

> <s_epik_cmdline>
J2VwaWtfcHl0aG9uJywgJy1waCcsICc3LjAnLCAnLXRuJywgJzgnLCAnLW1hJywgJzIwMCcsICctbWV0YWxfYmluZGluZycsICctaW1hZScsICc8aW5maWxlLm1hZT4nLCAnLW9tYWUnLCAnPG91dGZpbGUubWFlPic=

> <r_lp_tautomer_probability>
1

> <r_epik_Ionization_Penalty>
0.253607

> <r_epik_Ionization_Penalty_Charging>
0

> <r_epik_Ionization_Penalty_Neutral>
0.253607

> <r_epik_State_Penalty>
0.245018

> <r_epik_Charging_Adjusted_Penalty>
0.245018

> <i_epik_Tot_Q>
1

> <i_epik_Tot_abs_Q>
1

> <r_epik_Metal_State_Penalty>
0.535379

> <b_epik_Metal_Only>
0

> <s_lp_Force_Field>
OPLS_2005

> <r_lp_Energy>
32.5002

> <b_lp_Chiralities_Consistent>
1

> <s_lp_Variant>
AV-unprocessed.smi:1419-4

> <Gold.Version>
5.8.1

> <Gold.Id.Protein>
6NUR|6NUR_protein|mol2

> <Gold.PLP.Fitness>
34.6133

> <Gold.PLP.PLP>
-25.2548

> <Gold.PLP.part.hbond>
-2.4892

> <Gold.PLP.part.metal>
0.0000

> <Gold.PLP.part.buried>
5.7356

> <Gold.PLP.part.nonpolar>
-29.0454

> <Gold.PLP.part.repulsive>
0.1823

> <Gold.PLP.ligand.clash>
0.0000

> <Gold.PLP.ligand.torsion>
0.9766

> <Gold.PLP.Chemscore.Hbond>
2.7550

> <Gold.PLP.Chemscore.CHOScore>
1.0000

> <Gold.PLP.Chemscore.Metal>
0.0000

> <Gold.Chemscore.Hbonds>
donor molecule, donor type, donor heavy atom, donor atom, acceptor molecule, acceptor atom, score
      L1  H     7    42       P1 10186  1.07
      L1  H     9    29       P1  7948  1.00
      L1  C     5    26       P1  7948  1.00

> <Gold.PLP.Chemscore.Internal.Correction>
0.0466

> <Gold.Rescore>
     Score         DG    S(hbond)    S(metal)    S(lipo)     H(rot)  DE(clash)    DE(int)     intcor
      9.77     -12.43       1.16        0.00      61.95       1.63       1.61       1.05       ----

> <Gold.Chemscore.Fitness>
9.7688

> <Gold.Chemscore.DG>
-12.4321

> <Gold.Chemscore.ZeroCoef>
-5.4800

> <Gold.Chemscore.Hbond>
1.1587

> <Gold.Chemscore.Metal>
0.0000

> <Gold.Chemscore.Lipo>
61.9480

> <Gold.Chemscore.Internal_Hbond>
0.0000

> <Gold.Chemscore.DEClash>
1.6114

> <Gold.Chemscore.DEInternal>
1.0519

> <Gold.Chemscore.Rot>
1.6273

> <Gold.Chemscore.Internal.Correction>
   9.000000E+99

> <Gold.Chemscore.Hbonds>
donor molecule, donor type, donor heavy atom, donor atom, acceptor molecule, acceptor atom, score
      L1  H     7    42       P1 10186  0.16
      L1  H     9    29       P1  7948  1.00

> <Gold.Chemscore.Hbond.Weighted>
-3.8700

> <Gold.Chemscore.Metal.Weighted>
-0.0000

> <Gold.Chemscore.Lipo.Weighted>
-7.2479

> <Gold.Chemscore.Internal_Hbond.Weighted>
0.0000

> <Gold.Chemscore.DEClash.Weighted>
1.6114

> <Gold.Chemscore.DEInternal.Weighted>
1.0519

> <Gold.Chemscore.Rot.Weighted>
4.1658

> <Gold.Chemscore.Internal.Correction.Weighted>
   9.000000E+99

> <Gold.Protein.RotatedTorsions>
[ 6907 6896 6895 6894 ] final  -34.54 input  -60.11 | X-H torsion
[ 7974 7965 7964 7962 ] final   40.79 input  175.53 | X-H torsion
[ 8008 7997 7996 7995 ] final   14.28 input   59.86 | X-H torsion
[ 10167 10162 10161 10158 ] final  165.51 input  -65.29 | X-H torsion
[ 10718 10713 10712 10709 ] final    8.01 input   66.30 | X-H torsion
[ 10763 10752 10751 10750 ] final   -1.06 input  -60.55 | X-H torsion
[ 11005 11000 10999 10996 ] final  -76.91 input  -57.11 | X-H torsion

> <Gold.Protein.ActiveResidues>
 VAL166  LYS551  ARG553  GLY616  TRP617  ASP618  TYR619  PRO620  LYS621  CYS622 
 ASP623  PHE694  ASN695  SER759  ASP760  ASP761  ALA762  ILE779  LEU786  VAL792 
 PHE793  MET794  SER795  GLU796  ALA797  LYS798  CYS799  TRP800  GLU811  SER814 

> <Gold.Protein.RotatedAtoms>
  151.0513  134.9674  159.8212 H   0  0  0  0  0  0  0  0  0  0  0  0  # atno 6907 bound_to 6896
  152.5381  134.2534  159.8917 H   0  0  0  0  0  0  0  0  0  0  0  0  # atno 6908 bound_to 6896
  151.2550  133.4288  159.2647 H   0  0  0  0  0  0  0  0  0  0  0  0  # atno 6909 bound_to 6896
  146.0876  139.5492  142.9496 H   0  0  0  0  0  0  0  0  0  0  0  0  # atno 7974 bound_to 7965
  154.8463  140.2922  155.5627 H   0  0  0  0  0  0  0  0  0  0  0  0  # atno 8008 bound_to 7997
  156.3014  140.2504  156.3345 H   0  0  0  0  0  0  0  0  0  0  0  0  # atno 8009 bound_to 7997
  154.9070  140.0389  157.1914 H   0  0  0  0  0  0  0  0  0  0  0  0  # atno 8010 bound_to 7997
  139.4907  144.4125  151.9283 H   0  0  0  0  0  0  0  0  0  0  0  0  # atno 10167 bound_to 10162
  156.9453  130.5876  149.5654 H   0  0  0  0  0  0  0  0  0  0  0  0  # atno 10718 bound_to 10713
  153.3400  135.6980  153.6875 H   0  0  0  0  0  0  0  0  0  0  0  0  # atno 10763 bound_to 10752
  153.5644  135.3528  155.2813 H   0  0  0  0  0  0  0  0  0  0  0  0  # atno 10764 bound_to 10752
  154.8635  135.4257  154.2610 H   0  0  0  0  0  0  0  0  0  0  0  0  # atno 10765 bound_to 10752
  141.1657  133.7001  156.7740 H   0  0  0  0  0  0  0  0  0  0  0  0  # atno 11005 bound_to 11000
  145.6100  141.0341  143.1972 LP  0  0  0  0  0  0  0  0  0  0  0  0  # atno 17320 bound_to 7965
  144.7337  139.7649  143.7337 LP  0  0  0  0  0  0  0  0  0  0  0  0  # atno 17321 bound_to 7965
  140.3566  144.3023  150.5940 LP  0  0  0  0  0  0  0  0  0  0  0  0  # atno 17342 bound_to 10162
  140.5439  143.2218  151.8040 LP  0  0  0  0  0  0  0  0  0  0  0  0  # atno 17343 bound_to 10162
  156.0386  130.5471  150.8716 LP  0  0  0  0  0  0  0  0  0  0  0  0  # atno 17370 bound_to 10713
  157.5758  131.0946  150.9348 LP  0  0  0  0  0  0  0  0  0  0  0  0  # atno 17371 bound_to 10713
  140.2443  134.8589  157.3605 LP  0  0  0  0  0  0  0  0  0  0  0  0  # atno 17394 bound_to 11000
  140.1765  134.4543  155.7799 LP  0  0  0  0  0  0  0  0  0  0  0  0  # atno 17395 bound_to 11000

$$$$
