AV-unprocessed.smi:2511|AV-procd|sdf|9888|dock5
  -GOLD-   2272013523D 1   1.00000     0.00000
 Structure written by MMmdl.
 40 41  0  0  0  0  0  0  0  0  1 V2000
  154.7529  133.5806  165.9397 N   0  0  0  0  0  0  0  0  0  0  0  0
  154.9616  133.3750  164.6348 C   0  0  0  0  0  0  0  0  0  0  0  0
  155.3397  132.2899  164.1955 O   0  0  0  0  0  0  0  0  0  0  0  0
  154.7532  134.5598  163.7298 C   0  0  0  0  0  0  0  0  0  0  0  0
  154.9987  134.4388  162.3430 C   0  0  0  0  0  0  0  0  0  0  0  0
  154.7901  135.5541  161.5092 C   0  0  0  0  0  0  0  0  0  0  0  0
  154.3424  136.7653  162.0867 C   0  0  0  0  0  0  0  0  0  0  0  0
  154.0793  137.9556  161.3570 N   0  0  0  0  0  0  0  0  0  0  0  0
  154.1380  139.2357  161.7746 C   0  0  0  0  0  0  0  0  0  0  0  0
  154.4595  139.5900  162.9066 O   0  0  0  0  0  0  0  0  0  0  0  0
  153.7871  140.1377  160.8395 N   0  0  0  0  0  0  0  0  0  0  0  0
  153.7381  141.5974  160.9523 C   0  0  2  0  0  0  0  0  0  0  0  0
  153.2197  141.9831  162.3493 C   0  0  0  0  0  0  0  0  0  0  0  0
  153.0917  143.5064  162.4973 C   0  0  0  0  0  0  0  0  0  0  0  0
  152.1983  144.1008  161.3976 C   0  0  0  0  0  0  0  0  0  0  0  0
  152.7106  143.7343  159.9889 C   0  0  2  0  0  0  0  0  0  0  0  0
  151.8310  144.3417  158.8765 C   0  0  0  0  0  0  0  0  0  0  0  0
  150.7099  143.6372  158.7195 F   0  0  0  0  0  0  0  0  0  0  0  0
  151.5108  145.5988  159.1836 F   0  0  0  0  0  0  0  0  0  0  0  0
  152.4980  144.3535  157.7223 F   0  0  0  0  0  0  0  0  0  0  0  0
  152.8375  142.2017  159.8532 C   0  0  0  0  0  0  0  0  0  0  0  0
  154.1069  136.7799  163.4761 C   0  0  0  0  0  0  0  0  0  0  0  0
  154.3070  135.7150  164.2805 N   0  0  0  0  0  0  0  0  0  0  0  0
  154.8744  132.8229  166.5954 H   0  0  0  0  0  0  0  0  0  0  0  0
  154.4716  134.4965  166.2590 H   0  0  0  0  0  0  0  0  0  0  0  0
  155.3416  133.5074  161.9159 H   0  0  0  0  0  0  0  0  0  0  0  0
  154.9644  135.4511  160.4498 H   0  0  0  0  0  0  0  0  0  0  0  0
  153.7351  137.8173  160.4181 H   0  0  0  0  0  0  0  0  0  0  0  0
  153.5179  139.7630  159.9410 H   0  0  0  0  0  0  0  0  0  0  0  0
  154.7464  142.0034  160.8523 H   0  0  0  0  0  0  0  0  0  0  0  0
  152.2473  141.5207  162.5257 H   0  0  0  0  0  0  0  0  0  0  0  0
  153.8903  141.5957  163.1176 H   0  0  0  0  0  0  0  0  0  0  0  0
  152.6835  143.7506  163.4786 H   0  0  0  0  0  0  0  0  0  0  0  0
  154.0811  143.9631  162.4518 H   0  0  0  0  0  0  0  0  0  0  0  0
  151.1772  143.7397  161.5259 H   0  0  0  0  0  0  0  0  0  0  0  0
  152.1576  145.1843  161.5124 H   0  0  0  0  0  0  0  0  0  0  0  0
  153.7102  144.1588  159.8797 H   0  0  0  0  0  0  0  0  0  0  0  0
  153.2374  141.9550  158.8696 H   0  0  0  0  0  0  0  0  0  0  0  0
  151.8468  141.7473  159.9015 H   0  0  0  0  0  0  0  0  0  0  0  0
  153.7503  137.6769  163.9615 H   0  0  0  0  0  0  0  0  0  0  0  0
  1  2  1  0  0  0  0
  1 24  1  0  0  0  0
  1 25  1  0  0  0  0
  2  3  2  0  0  0  0
  2  4  1  0  0  0  0
  4 23  1  0  0  0  0
  4  5  2  0  0  0  0
  5  6  1  0  0  0  0
  5 26  1  0  0  0  0
  6  7  2  0  0  0  0
  6 27  1  0  0  0  0
  7  8  1  0  0  0  0
  7 22  1  0  0  0  0
  8  9  1  0  0  0  0
  8 28  1  0  0  0  0
  9 10  2  0  0  0  0
  9 11  1  0  0  0  0
 11 12  1  0  0  0  0
 11 29  1  0  0  0  0
 12 21  1  0  0  0  0
 12 13  1  0  0  0  0
 12 30  1  0  0  0  0
 13 14  1  0  0  0  0
 13 31  1  0  0  0  0
 13 32  1  0  0  0  0
 14 15  1  0  0  0  0
 14 33  1  0  0  0  0
 14 34  1  0  0  0  0
 15 16  1  0  0  0  0
 15 35  1  0  0  0  0
 15 36  1  0  0  0  0
 16 17  1  0  0  0  0
 16 21  1  0  0  0  0
 16 37  1  0  0  0  0
 17 18  1  0  0  0  0
 17 19  1  0  0  0  0
 17 20  1  0  0  0  0
 21 38  1  0  0  0  0
 21 39  1  0  0  0  0
 22 23  2  0  0  0  0
 22 40  1  0  0  0  0
M  END
> <s_m_source_file>
AV-unprocessed.smi

> <i_m_source_file_index>
2511

> <i_lp_mmshare_version>
43012

> <i_f3d_flags>
0

> <s_epik_input>
W05IMl1DKD1PKWMxW2NIXVtjSF1jKFtjSF1uMSlbTkhdQyg9TylbTkhdW0NAQEhdMltDSDJdW0NIMl1bQ0gyXVtDQEBIXShDKEYpKEYpRilbQ0gyXTI=

> <s_epik_cmdline>
J2VwaWtfcHl0aG9uJywgJy1waCcsICc3LjAnLCAnLXRuJywgJzgnLCAnLW1hJywgJzIwMCcsICctbWV0YWxfYmluZGluZycsICctaW1hZScsICc8aW5maWxlLm1hZT4nLCAnLW9tYWUnLCAnPG91dGZpbGUubWFlPic=

> <r_lp_tautomer_probability>
1

> <r_epik_Ionization_Penalty>
4.28758e-05

> <r_epik_Ionization_Penalty_Charging>
0

> <r_epik_Ionization_Penalty_Neutral>
4.28758e-05

> <r_epik_State_Penalty>
-0

> <r_epik_Charging_Adjusted_Penalty>
0

> <i_epik_Tot_Q>
0

> <i_epik_Tot_abs_Q>
0

> <r_epik_Metal_State_Penalty>
-0

> <b_epik_Metal_Only>
0

> <s_lp_Force_Field>
OPLS_2005

> <r_lp_Energy>
28.5247

> <b_lp_Chiralities_Consistent>
1

> <s_lp_Variant>
AV-unprocessed.smi:2511-3

> <Gold.Version>
5.8.1

> <Gold.Id.Protein>
6NUR|6NUR_protein|mol2

> <Gold.PLP.Fitness>
47.0192

> <Gold.PLP.PLP>
-48.6697

> <Gold.PLP.part.hbond>
-1.0000

> <Gold.PLP.part.metal>
0.0000

> <Gold.PLP.part.buried>
-3.7862

> <Gold.PLP.part.nonpolar>
-44.0479

> <Gold.PLP.part.repulsive>
0.1750

> <Gold.PLP.ligand.clash>
0.0000

> <Gold.PLP.ligand.torsion>
0.8365

> <Gold.PLP.Chemscore.Hbond>
0.0000

> <Gold.PLP.Chemscore.CHOScore>
0.0000

> <Gold.PLP.Chemscore.Metal>
0.0000

> <Gold.PLP.Chemscore.Internal.Correction>
0.0225

> <Gold.Rescore>
     Score         DG    S(hbond)    S(metal)    S(lipo)     H(rot)  DE(clash)    DE(int)     intcor
     11.74     -15.04       0.00        0.00     103.57       1.00       0.01       3.29       ----

> <Gold.Chemscore.Fitness>
11.7432

> <Gold.Chemscore.DG>
-15.0375

> <Gold.Chemscore.ZeroCoef>
-5.4800

> <Gold.Chemscore.Hbond>
0.0000

> <Gold.Chemscore.Metal>
0.0000

> <Gold.Chemscore.Lipo>
103.5682

> <Gold.Chemscore.Internal_Hbond>
0.0000

> <Gold.Chemscore.DEClash>
0.0093

> <Gold.Chemscore.DEInternal>
3.2850

> <Gold.Chemscore.Rot>
1.0000

> <Gold.Chemscore.Internal.Correction>
   9.000000E+99

> <Gold.Chemscore.Hbond.Weighted>
-0.0000

> <Gold.Chemscore.Metal.Weighted>
-0.0000

> <Gold.Chemscore.Lipo.Weighted>
-12.1175

> <Gold.Chemscore.Internal_Hbond.Weighted>
0.0000

> <Gold.Chemscore.DEClash.Weighted>
0.0093

> <Gold.Chemscore.DEInternal.Weighted>
3.2850

> <Gold.Chemscore.Rot.Weighted>
2.5600

> <Gold.Chemscore.Internal.Correction.Weighted>
   9.000000E+99

> <Gold.Protein.RotatedTorsions>
[ 6907 6896 6895 6894 ] final   23.29 input  -60.11 | X-H torsion
[ 7974 7965 7964 7962 ] final -111.39 input  175.53 | X-H torsion
[ 8008 7997 7996 7995 ] final  -36.37 input   59.86 | X-H torsion
[ 10167 10162 10161 10158 ] final  -14.73 input  -65.29 | X-H torsion
[ 10718 10713 10712 10709 ] final  142.32 input   66.30 | X-H torsion
[ 10763 10752 10751 10750 ] final  127.06 input  -60.55 | X-H torsion
[ 11005 11000 10999 10996 ] final  -41.65 input  -57.11 | X-H torsion

> <Gold.Protein.ActiveResidues>
 VAL166  LYS551  ARG553  GLY616  TRP617  ASP618  TYR619  PRO620  LYS621  CYS622 
 ASP623  PHE694  ASN695  SER759  ASP760  ASP761  ALA762  ILE779  LEU786  VAL792 
 PHE793  MET794  SER795  GLU796  ALA797  LYS798  CYS799  TRP800  GLU811  SER814 

> <Gold.Protein.RotatedAtoms>
  151.9401  135.0217  160.0534 H   0  0  0  0  0  0  0  0  0  0  0  0  # atno 6907 bound_to 6896
  152.2044  133.4860  159.5084 H   0  0  0  0  0  0  0  0  0  0  0  0  # atno 6908 bound_to 6896
  150.6962  134.1466  159.4167 H   0  0  0  0  0  0  0  0  0  0  0  0  # atno 6909 bound_to 6896
  145.1566  140.8857  143.3615 H   0  0  0  0  0  0  0  0  0  0  0  0  # atno 7974 bound_to 7965
  154.4074  140.1632  156.2363 H   0  0  0  0  0  0  0  0  0  0  0  0  # atno 8008 bound_to 7997
  155.9239  140.3419  155.6172 H   0  0  0  0  0  0  0  0  0  0  0  0  # atno 8009 bound_to 7997
  155.7188  140.0766  157.2330 H   0  0  0  0  0  0  0  0  0  0  0  0  # atno 8010 bound_to 7997
  140.7206  143.5291  150.9541 H   0  0  0  0  0  0  0  0  0  0  0  0  # atno 10167 bound_to 10162
  157.3818  131.0993  151.0731 H   0  0  0  0  0  0  0  0  0  0  0  0  # atno 10718 bound_to 10713
  153.7033  135.3280  155.3230 H   0  0  0  0  0  0  0  0  0  0  0  0  # atno 10763 bound_to 10752
  154.8406  135.4459  154.1388 H   0  0  0  0  0  0  0  0  0  0  0  0  # atno 10764 bound_to 10752
  153.2462  135.6976  153.7807 H   0  0  0  0  0  0  0  0  0  0  0  0  # atno 10765 bound_to 10752
  141.0261  133.6841  156.2486 H   0  0  0  0  0  0  0  0  0  0  0  0  # atno 11005 bound_to 11000
  145.0375  139.3288  143.5993 LP  0  0  0  0  0  0  0  0  0  0  0  0  # atno 17320 bound_to 7965
  146.3488  139.9735  142.8703 LP  0  0  0  0  0  0  0  0  0  0  0  0  # atno 17321 bound_to 7965
  139.9011  143.6835  152.3131 LP  0  0  0  0  0  0  0  0  0  0  0  0  # atno 17342 bound_to 10162
  139.7185  144.7607  151.0995 LP  0  0  0  0  0  0  0  0  0  0  0  0  # atno 17343 bound_to 10162
  157.1797  130.6304  149.5667 LP  0  0  0  0  0  0  0  0  0  0  0  0  # atno 17370 bound_to 10713
  155.9777  130.4758  150.6613 LP  0  0  0  0  0  0  0  0  0  0  0  0  # atno 17371 bound_to 10713
  140.6489  134.5087  157.5576 LP  0  0  0  0  0  0  0  0  0  0  0  0  # atno 17394 bound_to 11000
  139.9177  134.8213  156.1313 LP  0  0  0  0  0  0  0  0  0  0  0  0  # atno 17395 bound_to 11000

$$$$
