AV-unprocessed.smi:247|AV-procd|sdf|1893|dock1
  -GOLD-   2262020553D 1   1.00000     0.00000
 Structure written by MMmdl.
 61 65  0  0  0  0  0  0  0  0  1 V2000
  145.3499  140.1570  153.9105 O   0  0  0  0  0  0  0  0  0  0  0  0
  145.8454  140.1412  155.2351 C   0  0  0  0  0  0  0  0  0  0  0  0
  147.3933  140.0244  155.3159 C   0  0  0  0  0  0  0  0  0  0  0  0
  147.8111  139.9855  156.8203 C   0  0  0  0  0  0  0  0  0  0  0  0
  147.4196  138.7812  157.5394 N   0  0  0  0  0  0  0  0  0  0  0  0
  146.1363  138.3711  157.8249 C   0  0  0  0  0  0  0  0  0  0  0  0
  146.0424  137.2501  158.4857 N   0  0  0  0  0  0  0  0  0  0  0  0
  147.3602  136.8423  158.6482 C   0  0  0  0  0  0  0  0  0  0  0  0
  147.9793  135.7282  159.2793 C   0  0  0  0  0  0  0  0  0  0  0  0
  147.2570  134.7652  159.9035 N   0  0  0  0  0  0  0  0  0  0  0  0
  146.6387  133.8174  158.9879 C   0  0  0  0  0  0  0  0  0  0  0  0
  146.2470  132.6195  159.8420 C   0  0  0  0  0  0  0  0  0  0  0  0
  147.3337  132.5923  160.9134 C   0  0  0  0  0  0  0  0  0  0  0  0
  147.7773  134.0602  161.0825 C   0  0  2  0  0  0  0  0  0  0  0  0
  147.3324  134.6765  162.4488 C   0  0  2  0  0  0  0  0  0  0  0  0
  145.8371  134.4708  162.7831 C   0  0  0  0  0  0  0  0  0  0  0  0
  145.0245  135.3878  162.0570 O   0  0  0  0  0  0  0  0  0  0  0  0
  145.2565  136.7421  162.4289 C   0  0  0  0  0  0  0  0  0  0  0  0
  146.7017  137.1488  162.1022 C   0  0  0  0  0  0  0  0  0  0  0  0
  147.7020  136.1575  162.7183 C   0  0  2  0  0  0  0  0  0  0  0  0
  149.0237  136.4647  162.3240 O   0  0  0  0  0  0  0  0  0  0  0  0
  149.3361  135.6621  159.2419 N   0  0  0  0  0  0  0  0  0  0  0  0
  150.0421  136.6208  158.6360 C   0  0  0  0  0  0  0  0  0  0  0  0
  149.6003  137.7162  158.0155 N   0  0  0  0  0  0  0  0  0  0  0  0
  148.2388  137.7891  158.0510 C   0  0  0  0  0  0  0  0  0  0  0  0
  147.8645  138.7619  154.5484 C   0  0  0  0  0  0  0  0  0  0  0  0
  149.3946  138.7094  154.3926 C   0  0  0  0  0  0  0  0  0  0  0  0
  149.8521  139.8820  153.7297 O   0  0  0  0  0  0  0  0  0  0  0  0
  149.5797  141.0755  154.4546 C   0  0  0  0  0  0  0  0  0  0  0  0
  148.0599  141.2509  154.6402 C   0  0  0  0  0  0  0  0  0  0  0  0
  144.4364  140.3982  153.9349 H   0  0  0  0  0  0  0  0  0  0  0  0
  145.5073  141.0516  155.7313 H   0  0  0  0  0  0  0  0  0  0  0  0
  145.3666  139.3056  155.7454 H   0  0  0  0  0  0  0  0  0  0  0  0
  148.8883  140.0913  156.9380 H   0  0  0  0  0  0  0  0  0  0  0  0
  147.3809  140.8405  157.3434 H   0  0  0  0  0  0  0  0  0  0  0  0
  145.2643  138.9384  157.5343 H   0  0  0  0  0  0  0  0  0  0  0  0
  145.7687  134.2458  158.4901 H   0  0  0  0  0  0  0  0  0  0  0  0
  147.3573  133.5193  158.2226 H   0  0  0  0  0  0  0  0  0  0  0  0
  145.2708  132.7912  160.2957 H   0  0  0  0  0  0  0  0  0  0  0  0
  146.1903  131.6939  159.2689 H   0  0  0  0  0  0  0  0  0  0  0  0
  146.9943  132.1251  161.8383 H   0  0  0  0  0  0  0  0  0  0  0  0
  148.1770  132.0044  160.5480 H   0  0  0  0  0  0  0  0  0  0  0  0
  148.8662  134.0381  161.0699 H   0  0  0  0  0  0  0  0  0  0  0  0
  147.8916  134.1111  163.1956 H   0  0  0  0  0  0  0  0  0  0  0  0
  145.5181  133.4543  162.5616 H   0  0  0  0  0  0  0  0  0  0  0  0
  145.6671  134.6094  163.8520 H   0  0  0  0  0  0  0  0  0  0  0  0
  144.5584  137.3804  161.8869 H   0  0  0  0  0  0  0  0  0  0  0  0
  145.0479  136.8764  163.4915 H   0  0  0  0  0  0  0  0  0  0  0  0
  146.8259  137.2148  161.0257 H   0  0  0  0  0  0  0  0  0  0  0  0
  146.8942  138.1534  162.4798 H   0  0  0  0  0  0  0  0  0  0  0  0
  147.6674  136.3067  163.7985 H   0  0  0  0  0  0  0  0  0  0  0  0
  149.5937  136.3558  163.0697 H   0  0  0  0  0  0  0  0  0  0  0  0
  151.1143  136.4931  158.6552 H   0  0  0  0  0  0  0  0  0  0  0  0
  147.4994  137.8514  155.0223 H   0  0  0  0  0  0  0  0  0  0  0  0
  147.4353  138.7576  153.5460 H   0  0  0  0  0  0  0  0  0  0  0  0
  149.8953  138.5993  155.3548 H   0  0  0  0  0  0  0  0  0  0  0  0
  149.6756  137.8420  153.7952 H   0  0  0  0  0  0  0  0  0  0  0  0
  150.1068  141.0648  155.4085 H   0  0  0  0  0  0  0  0  0  0  0  0
  149.9808  141.9188  153.8924 H   0  0  0  0  0  0  0  0  0  0  0  0
  147.6312  141.4163  153.6514 H   0  0  0  0  0  0  0  0  0  0  0  0
  147.8557  142.1581  155.2101 H   0  0  0  0  0  0  0  0  0  0  0  0
  1  2  1  0  0  0  0
  1 31  1  0  0  0  0
  2  3  1  0  0  0  0
  2 32  1  0  0  0  0
  2 33  1  0  0  0  0
  3 30  1  0  0  0  0
  3  4  1  0  0  0  0
  3 26  1  0  0  0  0
  4  5  1  0  0  0  0
  4 34  1  0  0  0  0
  4 35  1  0  0  0  0
  5 25  1  0  0  0  0
  5  6  1  0  0  0  0
  6  7  2  0  0  0  0
  6 36  1  0  0  0  0
  7  8  1  0  0  0  0
  8 25  2  0  0  0  0
  8  9  1  0  0  0  0
  9 10  1  0  0  0  0
  9 22  2  0  0  0  0
 10 14  1  0  0  0  0
 10 11  1  0  0  0  0
 11 12  1  0  0  0  0
 11 37  1  0  0  0  0
 11 38  1  0  0  0  0
 12 13  1  0  0  0  0
 12 39  1  0  0  0  0
 12 40  1  0  0  0  0
 13 14  1  0  0  0  0
 13 41  1  0  0  0  0
 13 42  1  0  0  0  0
 14 15  1  0  0  0  0
 14 43  1  0  0  0  0
 15 20  1  0  0  0  0
 15 16  1  0  0  0  0
 15 44  1  0  0  0  0
 16 17  1  0  0  0  0
 16 45  1  0  0  0  0
 16 46  1  0  0  0  0
 17 18  1  0  0  0  0
 18 19  1  0  0  0  0
 18 47  1  0  0  0  0
 18 48  1  0  0  0  0
 19 20  1  0  0  0  0
 19 49  1  0  0  0  0
 19 50  1  0  0  0  0
 20 21  1  0  0  0  0
 20 51  1  0  0  0  0
 21 52  1  0  0  0  0
 22 23  1  0  0  0  0
 23 24  2  0  0  0  0
 23 53  1  0  0  0  0
 24 25  1  0  0  0  0
 26 27  1  0  0  0  0
 26 54  1  0  0  0  0
 26 55  1  0  0  0  0
 27 28  1  0  0  0  0
 27 56  1  0  0  0  0
 27 57  1  0  0  0  0
 28 29  1  0  0  0  0
 29 30  1  0  0  0  0
 29 58  1  0  0  0  0
 29 59  1  0  0  0  0
 30 60  1  0  0  0  0
 30 61  1  0  0  0  0
M  END
> <s_m_source_file>
AV-unprocessed.smi

> <i_m_source_file_index>
247

> <i_lp_mmshare_version>
43012

> <i_f3d_flags>
0

> <s_epik_input>
W0NIMl0xW0NIMl1PW0NIMl1bQ0gyXUMxKFtDSDJdW09IXSlbQ0gyXW4oW2NIXW4yKWMoYzIzKW5bY0hdbmMzTjRbQ0gyXVtDSDJdW0NIMl1bQ0BIXTRbQ0BASF01W0NIMl1PW0NIMl1bQ0gyXVtDQEhdNVtPSF0=

> <s_epik_cmdline>
J2VwaWtfcHl0aG9uJywgJy1waCcsICc3LjAnLCAnLXRuJywgJzgnLCAnLW1hJywgJzIwMCcsICctbWV0YWxfYmluZGluZycsICctaW1hZScsICc8aW5maWxlLm1hZT4nLCAnLW9tYWUnLCAnPG91dGZpbGUubWFlPic=

> <r_lp_tautomer_probability>
1

> <r_epik_Ionization_Penalty>
0.00362597

> <r_epik_Ionization_Penalty_Charging>
0

> <r_epik_Ionization_Penalty_Neutral>
0.00362597

> <r_epik_State_Penalty>
0.00241433

> <r_epik_Charging_Adjusted_Penalty>
0.00241433

> <i_epik_Tot_Q>
0

> <i_epik_Tot_abs_Q>
0

> <r_epik_Metal_State_Penalty>
-0

> <b_epik_Metal_Only>
0

> <s_lp_Force_Field>
OPLS_2005

> <r_lp_Energy>
64.0337

> <b_lp_Chiralities_Consistent>
1

> <s_lp_Variant>
AV-unprocessed.smi:247-6

> <Gold.Version>
5.8.1

> <Gold.Id.Protein>
6NUR|6NUR_protein|mol2

> <Gold.PLP.Fitness>
49.7689

> <Gold.PLP.PLP>
-38.9608

> <Gold.PLP.part.hbond>
-4.0000

> <Gold.PLP.part.metal>
0.0000

> <Gold.PLP.part.buried>
-6.6187

> <Gold.PLP.part.nonpolar>
-29.6152

> <Gold.PLP.part.repulsive>
0.1274

> <Gold.PLP.ligand.clash>
0.0000

> <Gold.PLP.ligand.torsion>
0.7622

> <Gold.PLP.Chemscore.Hbond>
3.9920

> <Gold.PLP.Chemscore.CHOScore>
0.0000

> <Gold.PLP.Chemscore.Metal>
0.0000

> <Gold.Chemscore.Hbonds>
donor molecule, donor type, donor heavy atom, donor atom, acceptor molecule, acceptor atom, score
      L1  H     1    31       P1 10175  0.34
      P1  H  6896  6908       L1    22  0.75
      P1  H  6931  6943       L1    21  1.00

> <Gold.PLP.Chemscore.Internal.Correction>
0.3565

> <Gold.Rescore>
     Score         DG    S(hbond)    S(metal)    S(lipo)     H(rot)  DE(clash)    DE(int)     intcor
     14.47     -16.74       2.85        0.00      85.38       3.23       0.59       1.68       ----

> <Gold.Chemscore.Fitness>
14.4667

> <Gold.Chemscore.DG>
-16.7361

> <Gold.Chemscore.ZeroCoef>
-5.4800

> <Gold.Chemscore.Hbond>
2.8534

> <Gold.Chemscore.Metal>
0.0000

> <Gold.Chemscore.Lipo>
85.3752

> <Gold.Chemscore.Internal_Hbond>
0.0000

> <Gold.Chemscore.DEClash>
0.5860

> <Gold.Chemscore.DEInternal>
1.6834

> <Gold.Chemscore.Rot>
3.2278

> <Gold.Chemscore.Internal.Correction>
   9.000000E+99

> <Gold.Chemscore.Hbonds>
donor molecule, donor type, donor heavy atom, donor atom, acceptor molecule, acceptor atom, score
      L1  H     1    31       P1 10175  0.34
      P1  H  6896  6908       L1    22  0.09
      P1  H  6931  6943       L1    21  0.29

> <Gold.Chemscore.Hbond.Weighted>
-9.5305

> <Gold.Chemscore.Metal.Weighted>
-0.0000

> <Gold.Chemscore.Lipo.Weighted>
-9.9889

> <Gold.Chemscore.Internal_Hbond.Weighted>
0.0000

> <Gold.Chemscore.DEClash.Weighted>
0.5860

> <Gold.Chemscore.DEInternal.Weighted>
1.6834

> <Gold.Chemscore.Rot.Weighted>
8.2633

> <Gold.Chemscore.Internal.Correction.Weighted>
   9.000000E+99

> <Gold.Protein.RotatedTorsions>
[ 6907 6896 6895 6894 ] final  176.25 input  -60.11 | X-H torsion
[ 7974 7965 7964 7962 ] final -146.98 input  175.53 | X-H torsion
[ 8008 7997 7996 7995 ] final   87.51 input   59.86 | X-H torsion
[ 10167 10162 10161 10158 ] final  -74.40 input  -65.29 | X-H torsion
[ 10718 10713 10712 10709 ] final  151.62 input   66.30 | X-H torsion
[ 10763 10752 10751 10750 ] final  -90.33 input  -60.55 | X-H torsion
[ 11005 11000 10999 10996 ] final  152.86 input  -57.11 | X-H torsion

> <Gold.Protein.ActiveResidues>
 VAL166  LYS551  ARG553  GLY616  TRP617  ASP618  TYR619  PRO620  LYS621  CYS622 
 ASP623  PHE694  ASN695  SER759  ASP760  ASP761  ALA762  ILE779  LEU786  VAL792 
 PHE793  MET794  SER795  GLU796  ALA797  LYS798  CYS799  TRP800  GLU811  SER814 

> <Gold.Protein.RotatedAtoms>
  151.7231  133.3315  159.3320 H   0  0  0  0  0  0  0  0  0  0  0  0  # atno 6907 bound_to 6896
  150.7644  134.6430  159.6257 H   0  0  0  0  0  0  0  0  0  0  0  0  # atno 6908 bound_to 6896
  152.3639  134.6834  160.0250 H   0  0  0  0  0  0  0  0  0  0  0  0  # atno 6909 bound_to 6896
  144.8123  140.5386  143.5634 H   0  0  0  0  0  0  0  0  0  0  0  0  # atno 7974 bound_to 7965
  155.9762  140.3381  155.6621 H   0  0  0  0  0  0  0  0  0  0  0  0  # atno 8008 bound_to 7997
  155.6609  140.0716  157.2572 H   0  0  0  0  0  0  0  0  0  0  0  0  # atno 8009 bound_to 7997
  154.4179  140.1709  156.1763 H   0  0  0  0  0  0  0  0  0  0  0  0  # atno 8010 bound_to 7997
  140.5030  143.2358  151.7721 H   0  0  0  0  0  0  0  0  0  0  0  0  # atno 10167 bound_to 10162
  157.2683  131.0812  151.1617 H   0  0  0  0  0  0  0  0  0  0  0  0  # atno 10718 bound_to 10713
  154.6646  135.5308  153.8061 H   0  0  0  0  0  0  0  0  0  0  0  0  # atno 10763 bound_to 10752
  153.0463  135.6514  154.0818 H   0  0  0  0  0  0  0  0  0  0  0  0  # atno 10764 bound_to 10752
  154.0724  135.2953  155.3285 H   0  0  0  0  0  0  0  0  0  0  0  0  # atno 10765 bound_to 10752
  140.1346  134.8779  157.2249 H   0  0  0  0  0  0  0  0  0  0  0  0  # atno 11005 bound_to 11000
  145.5295  139.1475  143.3508 LP  0  0  0  0  0  0  0  0  0  0  0  0  # atno 17320 bound_to 7965
  146.2423  140.5435  142.8929 LP  0  0  0  0  0  0  0  0  0  0  0  0  # atno 17321 bound_to 7965
  139.4876  144.4496  151.9669 LP  0  0  0  0  0  0  0  0  0  0  0  0  # atno 17342 bound_to 10162
  140.3586  144.3001  150.5937 LP  0  0  0  0  0  0  0  0  0  0  0  0  # atno 17343 bound_to 10162
  157.3099  130.6884  149.6210 LP  0  0  0  0  0  0  0  0  0  0  0  0  # atno 17370 bound_to 10713
  155.9663  130.4366  150.5143 LP  0  0  0  0  0  0  0  0  0  0  0  0  # atno 17371 bound_to 10713
  140.2799  134.3362  155.7346 LP  0  0  0  0  0  0  0  0  0  0  0  0  # atno 17394 bound_to 11000
  141.2176  133.7472  156.9348 LP  0  0  0  0  0  0  0  0  0  0  0  0  # atno 17395 bound_to 11000

$$$$
