AV-unprocessed.smi:833|AV-procd|sdf|3882|dock4
  -GOLD-   22720 1333D 1   1.00000     0.00000
 Structure written by MMmdl.
 40 41  0  0  0  0  0  0  0  0  2 V2000
  152.8223  138.3118  154.7952 C   0  0  0  0  0  0  0  0  0  0  0  0
  151.3358  138.6023  154.5484 C   0  0  2  0  0  0  0  0  0  0  0  0
  151.1192  139.9516  154.9066 O   0  0  0  0  0  0  0  0  0  0  0  0
  150.4197  137.6988  155.3992 C   0  0  0  0  0  0  0  0  0  0  0  0
  149.9005  136.5701  154.6338 N   0  0  0  0  0  0  0  0  0  0  0  0
  149.9429  135.2892  155.0246 C   0  0  0  0  0  0  0  0  0  0  0  0
  150.4317  134.9167  156.0910 O   0  0  0  0  0  0  0  0  0  0  0  0
  149.3673  134.4826  154.1175 N   0  0  0  0  0  0  0  0  0  0  0  0
  149.1544  133.0786  154.2144 C   0  0  0  0  0  0  0  0  0  0  0  0
  149.9868  132.2690  155.0293 C   0  0  0  0  0  0  0  0  0  0  0  0
  149.8019  130.8740  155.0567 C   0  0  0  0  0  0  0  0  0  0  0  0
  148.7977  130.3058  154.2549 C   0  0  0  0  0  0  0  0  0  0  0  0
  148.0309  131.1010  153.4804 N   0  3  0  0  0  0  0  0  0  0  0  0
  148.1491  132.4511  153.4220 C   0  0  0  0  0  0  0  0  0  0  0  0
  147.2642  133.1532  152.5716 N   0  0  0  0  0  0  0  0  0  0  0  0
  146.4536  132.4358  151.5939 C   0  0  0  0  0  0  0  0  0  0  0  0
  145.3945  133.4380  151.1428 C   0  0  0  0  0  0  0  0  0  0  0  0
  145.1315  134.2335  152.4178 C   0  0  0  0  0  0  0  0  0  0  0  0
  146.4986  134.2742  153.1081 C   0  0  0  0  0  0  0  0  0  0  0  0
  153.0733  137.2884  154.5155 H   0  0  0  0  0  0  0  0  0  0  0  0
  153.0849  138.4434  155.8454 H   0  0  0  0  0  0  0  0  0  0  0  0
  153.4564  138.9763  154.2070 H   0  0  0  0  0  0  0  0  0  0  0  0
  151.1218  138.4746  153.4863 H   0  0  0  0  0  0  0  0  0  0  0  0
  151.2928  140.0489  155.8309 H   0  0  0  0  0  0  0  0  0  0  0  0
  150.9980  137.2629  156.2145 H   0  0  0  0  0  0  0  0  0  0  0  0
  149.6156  138.2660  155.8723 H   0  0  0  0  0  0  0  0  0  0  0  0
  149.4781  136.7851  153.7424 H   0  0  0  0  0  0  0  0  0  0  0  0
  148.9283  134.9386  153.3311 H   0  0  0  0  0  0  0  0  0  0  0  0
  150.7832  132.6964  155.6197 H   0  0  0  0  0  0  0  0  0  0  0  0
  150.4306  130.2492  155.6742 H   0  0  0  0  0  0  0  0  0  0  0  0
  148.5879  129.2470  154.2050 H   0  0  0  0  0  0  0  0  0  0  0  0
  147.0571  132.0815  150.7579 H   0  0  0  0  0  0  0  0  0  0  0  0
  145.9681  131.5763  152.0579 H   0  0  0  0  0  0  0  0  0  0  0  0
  145.8026  134.0933  150.3721 H   0  0  0  0  0  0  0  0  0  0  0  0
  144.4992  132.9602  150.7437 H   0  0  0  0  0  0  0  0  0  0  0  0
  144.7242  135.2265  152.2252 H   0  0  0  0  0  0  0  0  0  0  0  0
  144.4195  133.6947  153.0444 H   0  0  0  0  0  0  0  0  0  0  0  0
  146.3963  134.2239  154.1929 H   0  0  0  0  0  0  0  0  0  0  0  0
  147.0145  135.2014  152.8575 H   0  0  0  0  0  0  0  0  0  0  0  0
  147.3116  130.6582  152.9086 H   0  0  0  0  0  0  0  0  0  0  0  0
  1  2  1  0  0  0  0
  1 20  1  0  0  0  0
  1 21  1  0  0  0  0
  1 22  1  0  0  0  0
  2  3  1  0  0  0  0
  2  4  1  0  0  0  0
  2 23  1  0  0  0  0
  3 24  1  0  0  0  0
  4  5  1  0  0  0  0
  4 25  1  0  0  0  0
  4 26  1  0  0  0  0
  5  6  1  0  0  0  0
  5 27  1  0  0  0  0
  6  7  2  0  0  0  0
  6  8  1  0  0  0  0
  8  9  1  0  0  0  0
  8 28  1  0  0  0  0
  9 14  1  0  0  0  0
  9 10  2  0  0  0  0
 10 11  1  0  0  0  0
 10 29  1  0  0  0  0
 11 12  2  0  0  0  0
 11 30  1  0  0  0  0
 12 13  1  0  0  0  0
 12 31  1  0  0  0  0
 13 14  2  0  0  0  0
 13 40  1  0  0  0  0
 14 15  1  0  0  0  0
 15 19  1  0  0  0  0
 15 16  1  0  0  0  0
 16 17  1  0  0  0  0
 16 32  1  0  0  0  0
 16 33  1  0  0  0  0
 17 18  1  0  0  0  0
 17 34  1  0  0  0  0
 17 35  1  0  0  0  0
 18 19  1  0  0  0  0
 18 36  1  0  0  0  0
 18 37  1  0  0  0  0
 19 38  1  0  0  0  0
 19 39  1  0  0  0  0
M  CHG  1  13   1
M  END
> <s_m_source_file>
AV-unprocessed.smi

> <i_m_source_file_index>
833

> <i_lp_mmshare_version>
43012

> <i_f3d_flags>
0

> <s_epik_input>
W0NIM11bQ0BIXShbT0hdKVtDSDJdW05IXUMoPU8pW05IXWMxW2NIXVtjSF1bY0hdbmMxTjJbQ0gyXVtDSDJdW0NIMl1bQ0gyXTI=

> <s_epik_cmdline>
J2VwaWtfcHl0aG9uJywgJy1waCcsICc3LjAnLCAnLXRuJywgJzgnLCAnLW1hJywgJzIwMCcsICctbWV0YWxfYmluZGluZycsICctaW1hZScsICc8aW5maWxlLm1hZT4nLCAnLW9tYWUnLCAnPG91dGZpbGUubWFlPic=

> <r_lp_tautomer_probability>
0.999994

> <r_epik_Ionization_Penalty>
1.11387

> <r_epik_Ionization_Penalty_Charging>
1.11385

> <r_epik_Ionization_Penalty_Neutral>
1.95796e-05

> <r_epik_State_Penalty>
1.17209

> <r_epik_Charging_Adjusted_Penalty>
2.28594

> <i_epik_Tot_Q>
1

> <i_epik_Tot_abs_Q>
1

> <r_epik_Metal_State_Penalty>
1.25763

> <b_epik_Metal_Only>
0

> <s_lp_Force_Field>
OPLS_2005

> <r_lp_Energy>
38.091

> <b_lp_Chiralities_Consistent>
1

> <s_lp_Variant>
AV-unprocessed.smi:833-3

> <Gold.Version>
5.8.1

> <Gold.Id.Protein>
6NUR|6NUR_protein|mol2

> <Gold.PLP.Fitness>
40.9112

> <Gold.PLP.PLP>
-33.5154

> <Gold.PLP.part.hbond>
-3.7269

> <Gold.PLP.part.metal>
0.0000

> <Gold.PLP.part.buried>
-4.9108

> <Gold.PLP.part.nonpolar>
-25.6053

> <Gold.PLP.part.repulsive>
0.2708

> <Gold.PLP.ligand.clash>
0.0000

> <Gold.PLP.ligand.torsion>
0.9063

> <Gold.PLP.Chemscore.Hbond>
2.9360

> <Gold.PLP.Chemscore.CHOScore>
0.0000

> <Gold.PLP.Chemscore.Metal>
0.0000

> <Gold.Chemscore.Hbonds>
donor molecule, donor type, donor heavy atom, donor atom, acceptor molecule, acceptor atom, score
      L1  H     5    27       P1  7948  0.99
      L1  H     8    28       P1  7948  1.00
      P1  H  7989  7998       L1     3  1.00

> <Gold.PLP.Chemscore.Internal.Correction>
0.4005

> <Gold.Rescore>
     Score         DG    S(hbond)    S(metal)    S(lipo)     H(rot)  DE(clash)    DE(int)     intcor
     12.34     -14.64       2.16        0.00      61.90       2.06       0.03       2.27       ----

> <Gold.Chemscore.Fitness>
12.3401

> <Gold.Chemscore.DG>
-14.6431

> <Gold.Chemscore.ZeroCoef>
-5.4800

> <Gold.Chemscore.Hbond>
2.1571

> <Gold.Chemscore.Metal>
0.0000

> <Gold.Chemscore.Lipo>
61.8951

> <Gold.Chemscore.Internal_Hbond>
0.0000

> <Gold.Chemscore.DEClash>
0.0291

> <Gold.Chemscore.DEInternal>
2.2739

> <Gold.Chemscore.Rot>
2.0637

> <Gold.Chemscore.Internal.Correction>
   9.000000E+99

> <Gold.Chemscore.Hbonds>
donor molecule, donor type, donor heavy atom, donor atom, acceptor molecule, acceptor atom, score
      L1  H     5    27       P1  7948  0.80
      L1  H     8    28       P1  7948  0.29
      P1  H  7989  7998       L1     3  0.45

> <Gold.Chemscore.Hbond.Weighted>
-7.2046

> <Gold.Chemscore.Metal.Weighted>
-0.0000

> <Gold.Chemscore.Lipo.Weighted>
-7.2417

> <Gold.Chemscore.Internal_Hbond.Weighted>
0.0000

> <Gold.Chemscore.DEClash.Weighted>
0.0291

> <Gold.Chemscore.DEInternal.Weighted>
2.2739

> <Gold.Chemscore.Rot.Weighted>
5.2832

> <Gold.Chemscore.Internal.Correction.Weighted>
   9.000000E+99

> <Gold.Protein.RotatedTorsions>
[ 6907 6896 6895 6894 ] final   74.94 input  -60.11 | X-H torsion
[ 7974 7965 7964 7962 ] final  140.64 input  175.53 | X-H torsion
[ 8008 7997 7996 7995 ] final   84.29 input   59.86 | X-H torsion
[ 10167 10162 10161 10158 ] final   64.27 input  -65.29 | X-H torsion
[ 10718 10713 10712 10709 ] final  -66.73 input   66.30 | X-H torsion
[ 10763 10752 10751 10750 ] final -172.26 input  -60.55 | X-H torsion
[ 11005 11000 10999 10996 ] final  -86.21 input  -57.11 | X-H torsion

> <Gold.Protein.ActiveResidues>
 VAL166  LYS551  ARG553  GLY616  TRP617  ASP618  TYR619  PRO620  LYS621  CYS622 
 ASP623  PHE694  ASN695  SER759  ASP760  ASP761  ALA762  ILE779  LEU786  VAL792 
 PHE793  MET794  SER795  GLU796  ALA797  LYS798  CYS799  TRP800  GLU811  SER814 

> <Gold.Protein.RotatedAtoms>
  152.5001  134.4196  159.9475 H   0  0  0  0  0  0  0  0  0  0  0  0  # atno 6907 bound_to 6896
  151.4168  133.3704  159.2759 H   0  0  0  0  0  0  0  0  0  0  0  0  # atno 6908 bound_to 6896
  150.9251  134.8690  159.7574 H   0  0  0  0  0  0  0  0  0  0  0  0  # atno 6909 bound_to 6896
  144.9168  139.5220  143.5682 H   0  0  0  0  0  0  0  0  0  0  0  0  # atno 7974 bound_to 7965
  155.9352  140.3412  155.6281 H   0  0  0  0  0  0  0  0  0  0  0  0  # atno 8008 bound_to 7997
  155.7109  140.0771  157.2390 H   0  0  0  0  0  0  0  0  0  0  0  0  # atno 8009 bound_to 7997
  154.4092  140.1623  156.2282 H   0  0  0  0  0  0  0  0  0  0  0  0  # atno 8010 bound_to 7997
  140.1239  144.4705  150.6904 H   0  0  0  0  0  0  0  0  0  0  0  0  # atno 10167 bound_to 10162
  156.0596  130.4266  150.1751 H   0  0  0  0  0  0  0  0  0  0  0  0  # atno 10718 bound_to 10713
  154.6212  135.2875  155.0323 H   0  0  0  0  0  0  0  0  0  0  0  0  # atno 10763 bound_to 10752
  154.1517  135.6502  153.4969 H   0  0  0  0  0  0  0  0  0  0  0  0  # atno 10764 bound_to 10752
  153.0237  135.5357  154.7003 H   0  0  0  0  0  0  0  0  0  0  0  0  # atno 10765 bound_to 10752
  141.1632  133.7442  156.9128 H   0  0  0  0  0  0  0  0  0  0  0  0  # atno 11005 bound_to 11000
  146.3185  139.8017  142.8964 LP  0  0  0  0  0  0  0  0  0  0  0  0  # atno 17320 bound_to 7965
  145.3362  141.0278  143.3418 LP  0  0  0  0  0  0  0  0  0  0  0  0  # atno 17321 bound_to 7965
  140.6856  143.2348  151.5269 LP  0  0  0  0  0  0  0  0  0  0  0  0  # atno 17342 bound_to 10162
  139.5554  144.2289  152.1603 LP  0  0  0  0  0  0  0  0  0  0  0  0  # atno 17343 bound_to 10162
  156.9821  130.9867  151.3435 LP  0  0  0  0  0  0  0  0  0  0  0  0  # atno 17370 bound_to 10713
  157.5594  130.8236  149.8247 LP  0  0  0  0  0  0  0  0  0  0  0  0  # atno 17371 bound_to 10713
  140.1505  134.9233  157.2586 LP  0  0  0  0  0  0  0  0  0  0  0  0  # atno 17394 bound_to 11000
  140.2729  134.3439  155.7368 LP  0  0  0  0  0  0  0  0  0  0  0  0  # atno 17395 bound_to 11000

$$$$
