AV-unprocessed.smi:2226|AV-procd|sdf|9018|dock1
  -GOLD-   2272012223D 1   1.00000     0.00000
 Structure written by MMmdl.
 39 41  0  0  0  0  0  0  0  0  3 V2000
  145.8728  143.0981  153.8097 C   0  0  0  0  0  0  0  0  0  0  0  0
  146.0315  141.6293  153.9307 N   0  3  2  0  0  0  0  0  0  0  0  0
  145.8607  141.0960  155.3039 C   0  0  1  0  0  0  0  0  0  0  0  0
  145.6176  139.5707  155.2220 C   0  0  0  0  0  0  0  0  0  0  0  0
  146.6958  138.8116  154.4224 C   0  0  0  0  0  0  0  0  0  0  0  0
  147.1050  139.5562  153.1352 C   0  0  0  0  0  0  0  0  0  0  0  0
  147.2687  141.0831  153.3214 C   0  0  2  0  0  0  0  0  0  0  0  0
  148.5242  141.5075  154.1224 C   0  0  0  0  0  0  0  0  0  0  0  0
  148.4438  141.2323  155.6415 C   0  0  1  0  0  0  0  0  0  0  0  0
  149.4432  142.0517  156.3236 N   0  0  0  0  0  0  0  0  0  0  0  0
  150.5652  141.6090  156.9105 C   0  0  0  0  0  0  0  0  0  0  0  0
  150.8184  140.4027  156.9044 O   0  0  0  0  0  0  0  0  0  0  0  0
  151.3048  142.6030  157.4608 N   0  5  0  0  0  0  0  0  0  0  0  0
  152.0047  142.4877  158.6099 C   0  0  0  0  0  0  0  0  0  0  0  0
  152.4090  141.3844  159.2521 N   0  0  0  0  0  0  0  0  0  0  0  0
  153.0904  141.8130  160.3797 C   0  0  0  0  0  0  0  0  0  0  0  0
  153.0736  143.1795  160.3802 C   0  0  0  0  0  0  0  0  0  0  0  0
  152.3953  143.6125  159.2750 O   0  0  0  0  0  0  0  0  0  0  0  0
  147.0353  141.5166  156.2208 C   0  0  0  0  0  0  0  0  0  0  0  0
  146.6399  143.6448  154.3576 H   0  0  0  0  0  0  0  0  0  0  0  0
  144.8999  143.4067  154.1934 H   0  0  0  0  0  0  0  0  0  0  0  0
  145.9252  143.4005  152.7635 H   0  0  0  0  0  0  0  0  0  0  0  0
  144.9514  141.5314  155.7208 H   0  0  0  0  0  0  0  0  0  0  0  0
  145.5236  139.1451  156.2216 H   0  0  0  0  0  0  0  0  0  0  0  0
  144.6548  139.4046  154.7366 H   0  0  0  0  0  0  0  0  0  0  0  0
  147.5662  138.6234  155.0451 H   0  0  0  0  0  0  0  0  0  0  0  0
  146.3254  137.8187  154.1654 H   0  0  0  0  0  0  0  0  0  0  0  0
  148.0172  139.1218  152.7250 H   0  0  0  0  0  0  0  0  0  0  0  0
  146.3319  139.3861  152.3848 H   0  0  0  0  0  0  0  0  0  0  0  0
  147.3632  141.5079  152.3211 H   0  0  0  0  0  0  0  0  0  0  0  0
  149.4113  141.0276  153.7074 H   0  0  0  0  0  0  0  0  0  0  0  0
  148.6785  142.5759  153.9650 H   0  0  0  0  0  0  0  0  0  0  0  0
  148.7068  140.1921  155.8180 H   0  0  0  0  0  0  0  0  0  0  0  0
  149.2768  143.0472  156.3480 H   0  0  0  0  0  0  0  0  0  0  0  0
  153.5276  141.1197  161.0826 H   0  0  0  0  0  0  0  0  0  0  0  0
  153.4667  143.9376  161.0407 H   0  0  0  0  0  0  0  0  0  0  0  0
  146.9456  142.5860  156.4159 H   0  0  0  0  0  0  0  0  0  0  0  0
  146.9316  141.0398  157.1960 H   0  0  0  0  0  0  0  0  0  0  0  0
  145.2691  141.2440  153.3918 H   0  0  0  0  0  0  0  0  0  0  0  0
  1  2  1  0  0  0  0
  1 20  1  0  0  0  0
  1 21  1  0  0  0  0
  1 22  1  0  0  0  0
  2  7  1  0  0  0  0
  2  3  1  0  0  0  0
  2 39  1  0  0  0  0
  3 19  1  0  0  0  0
  3  4  1  0  0  0  0
  3 23  1  0  0  0  0
  4  5  1  0  0  0  0
  4 24  1  0  0  0  0
  4 25  1  0  0  0  0
  5  6  1  0  0  0  0
  5 26  1  0  0  0  0
  5 27  1  0  0  0  0
  6  7  1  0  0  0  0
  6 28  1  0  0  0  0
  6 29  1  0  0  0  0
  7  8  1  0  0  0  0
  7 30  1  0  0  0  0
  8  9  1  0  0  0  0
  8 31  1  0  0  0  0
  8 32  1  0  0  0  0
  9 10  1  0  0  0  0
  9 19  1  0  0  0  0
  9 33  1  0  0  0  0
 10 34  1  0  0  0  0
 10 11  1  0  0  0  0
 11 13  1  0  0  0  0
 11 12  2  0  0  0  0
 13 14  1  0  0  0  0
 14 18  1  0  0  0  0
 14 15  2  0  0  0  0
 15 16  1  0  0  0  0
 16 35  1  0  0  0  0
 16 17  2  0  0  0  0
 17 36  1  0  0  0  0
 17 18  1  0  0  0  0
 19 37  1  0  0  0  0
 19 38  1  0  0  0  0
M  CHG  1   2   1
M  CHG  1  13  -1
M  END
> <s_m_source_file>
AV-unprocessed.smi

> <i_m_source_file_index>
2226

> <i_lp_mmshare_version>
43012

> <i_f3d_flags>
0

> <s_epik_input>
W0NIMl0xW0NIMl1bQ0gyXVtDQEhdKE4oW0NIM10pW0NIXTEyKVtDSDJdW0NASF0oW0NIMl0yKVtOSF1DKD1PKVtOSF1jM25bY0hdW2NIXW8z

> <s_epik_cmdline>
J2VwaWtfcHl0aG9uJywgJy1waCcsICc3LjAnLCAnLXRuJywgJzgnLCAnLW1hJywgJzIwMCcsICctbWV0YWxfYmluZGluZycsICctaW1hZScsICc8aW5maWxlLm1hZT4nLCAnLW9tYWUnLCAnPG91dGZpbGUubWFlPic=

> <r_lp_tautomer_probability>
0.107061

> <r_epik_Ionization_Penalty>
10.5612

> <r_epik_Ionization_Penalty_Charging>
7.48913

> <r_epik_Ionization_Penalty_Neutral>
3.07202

> <r_epik_State_Penalty>
5.6431

> <r_epik_Charging_Adjusted_Penalty>
13.1322

> <i_epik_Tot_Q>
0

> <i_epik_Tot_abs_Q>
2

> <r_epik_Metal_State_Penalty>
1.58163

> <b_epik_Metal_Only>
1

> <s_lp_Force_Field>
OPLS_2005

> <r_lp_Energy>
28.9751

> <b_lp_Chiralities_Consistent>
1

> <s_lp_Variant>
AV-unprocessed.smi:2226-18

> <Gold.Version>
5.8.1

> <Gold.Id.Protein>
6NUR|6NUR_protein|mol2

> <Gold.PLP.Fitness>
40.5606

> <Gold.PLP.PLP>
-32.3725

> <Gold.PLP.part.hbond>
-2.0000

> <Gold.PLP.part.metal>
0.0000

> <Gold.PLP.part.buried>
-5.5136

> <Gold.PLP.part.nonpolar>
-24.6690

> <Gold.PLP.part.repulsive>
0.1684

> <Gold.PLP.ligand.clash>
0.0000

> <Gold.PLP.ligand.torsion>
0.4115

> <Gold.PLP.Chemscore.Hbond>
3.0000

> <Gold.PLP.Chemscore.CHOScore>
0.0000

> <Gold.PLP.Chemscore.Metal>
0.0000

> <Gold.Chemscore.Hbonds>
donor molecule, donor type, donor heavy atom, donor atom, acceptor molecule, acceptor atom, score
      L1  H     2    39       P1 10175  2.00
      L1  H    10    34       P1  8028  1.00

> <Gold.PLP.Chemscore.Internal.Correction>
0.0112

> <Gold.Rescore>
     Score         DG    S(hbond)    S(metal)    S(lipo)     H(rot)  DE(clash)    DE(int)     intcor
     15.46     -16.91       1.93        0.00      64.62       1.00       0.04       1.41       ----

> <Gold.Chemscore.Fitness>
15.4595

> <Gold.Chemscore.DG>
-16.9098

> <Gold.Chemscore.ZeroCoef>
-5.4800

> <Gold.Chemscore.Hbond>
1.9250

> <Gold.Chemscore.Metal>
0.0000

> <Gold.Chemscore.Lipo>
64.6174

> <Gold.Chemscore.Internal_Hbond>
0.0000

> <Gold.Chemscore.DEClash>
0.0353

> <Gold.Chemscore.DEInternal>
1.4149

> <Gold.Chemscore.Rot>
1.0000

> <Gold.Chemscore.Internal.Correction>
   9.000000E+99

> <Gold.Chemscore.Hbonds>
donor molecule, donor type, donor heavy atom, donor atom, acceptor molecule, acceptor atom, score
      L1  H     2    39       P1 10175  0.25
      L1  H    10    34       P1  8028  0.99

> <Gold.Chemscore.Hbond.Weighted>
-6.4296

> <Gold.Chemscore.Metal.Weighted>
-0.0000

> <Gold.Chemscore.Lipo.Weighted>
-7.5602

> <Gold.Chemscore.Internal_Hbond.Weighted>
0.0000

> <Gold.Chemscore.DEClash.Weighted>
0.0353

> <Gold.Chemscore.DEInternal.Weighted>
1.4149

> <Gold.Chemscore.Rot.Weighted>
2.5600

> <Gold.Chemscore.Internal.Correction.Weighted>
   9.000000E+99

> <Gold.Protein.RotatedTorsions>
[ 6907 6896 6895 6894 ] final -149.95 input  -60.11 | X-H torsion
[ 7974 7965 7964 7962 ] final   60.88 input  175.53 | X-H torsion
[ 8008 7997 7996 7995 ] final  -58.93 input   59.86 | X-H torsion
[ 10167 10162 10161 10158 ] final -108.62 input  -65.29 | X-H torsion
[ 10718 10713 10712 10709 ] final -169.76 input   66.30 | X-H torsion
[ 10763 10752 10751 10750 ] final -105.87 input  -60.55 | X-H torsion
[ 11005 11000 10999 10996 ] final   50.77 input  -57.11 | X-H torsion

> <Gold.Protein.ActiveResidues>
 VAL166  LYS551  ARG553  GLY616  TRP617  ASP618  TYR619  PRO620  LYS621  CYS622 
 ASP623  PHE694  ASN695  SER759  ASP760  ASP761  ALA762  ILE779  LEU786  VAL792 
 PHE793  MET794  SER795  GLU796  ALA797  LYS798  CYS799  TRP800  GLU811  SER814 

> <Gold.Protein.RotatedAtoms>
  151.1915  133.4664  159.2594 H   0  0  0  0  0  0  0  0  0  0  0  0  # atno 6907 bound_to 6896
  151.1159  135.0052  159.8526 H   0  0  0  0  0  0  0  0  0  0  0  0  # atno 6908 bound_to 6896
  152.5453  134.1830  159.8696 H   0  0  0  0  0  0  0  0  0  0  0  0  # atno 6909 bound_to 6896
  145.8911  139.3512  143.0649 H   0  0  0  0  0  0  0  0  0  0  0  0  # atno 7974 bound_to 7965
  154.4330  140.1073  156.6035 H   0  0  0  0  0  0  0  0  0  0  0  0  # atno 8008 bound_to 7997
  155.5886  140.3492  155.4541 H   0  0  0  0  0  0  0  0  0  0  0  0  # atno 8009 bound_to 7997
  156.0264  140.1251  157.0294 H   0  0  0  0  0  0  0  0  0  0  0  0  # atno 8010 bound_to 7997
  140.1642  143.4095  152.1403 H   0  0  0  0  0  0  0  0  0  0  0  0  # atno 10167 bound_to 10162
  156.7163  130.9253  151.3093 H   0  0  0  0  0  0  0  0  0  0  0  0  # atno 10718 bound_to 10713
  154.7975  135.4733  154.0197 H   0  0  0  0  0  0  0  0  0  0  0  0  # atno 10763 bound_to 10752
  153.1727  135.6828  153.8592 H   0  0  0  0  0  0  0  0  0  0  0  0  # atno 10764 bound_to 10752
  153.8169  135.3209  155.3384 H   0  0  0  0  0  0  0  0  0  0  0  0  # atno 10765 bound_to 10752
  140.0989  134.5108  155.8781 H   0  0  0  0  0  0  0  0  0  0  0  0  # atno 11005 bound_to 11000
  145.8907  140.9305  143.0553 LP  0  0  0  0  0  0  0  0  0  0  0  0  # atno 17320 bound_to 7965
  144.6730  140.0902  143.7465 LP  0  0  0  0  0  0  0  0  0  0  0  0  # atno 17321 bound_to 7965
  139.5367  144.7216  151.4870 LP  0  0  0  0  0  0  0  0  0  0  0  0  # atno 17342 bound_to 10162
  140.6623  143.8471  150.6902 LP  0  0  0  0  0  0  0  0  0  0  0  0  # atno 17343 bound_to 10162
  157.6916  130.9239  150.0529 LP  0  0  0  0  0  0  0  0  0  0  0  0  # atno 17370 bound_to 10713
  156.1625  130.3644  149.9278 LP  0  0  0  0  0  0  0  0  0  0  0  0  # atno 17371 bound_to 10713
  141.2100  133.6690  156.6478 LP  0  0  0  0  0  0  0  0  0  0  0  0  # atno 17394 bound_to 11000
  140.3248  134.7978  157.4280 LP  0  0  0  0  0  0  0  0  0  0  0  0  # atno 17395 bound_to 11000

$$$$
