#       Name:                AV-unprocessed.smi:179
#       Creating user name   scv26
#       Creation time:       Thu Mar 26 19:24:51 2020


#       File generated by GOLD software.
#

@<TRIPOS>MOLECULE
AV-unprocessed.smi:179
    54    57     1
SMALL
NO_CHARGES


@<TRIPOS>ATOM
      1 ****        -3.6917  -2.3433  -0.0235 O.3            1 S1                 0.0000
      2 ****        -4.7559  -1.4122  -0.0151 C.3            1 S1                 0.0000
      3 ****        -4.2620   0.0478   0.0062 C.3            1 S1                 0.0000
      4 ****        -5.5085   0.9518  -0.0323 C.3            1 S1                 0.0000
      5 ****        -6.2613   0.8533   1.1596 O.3            1 S1                 0.0000
      6 ****        -3.2051   0.4200   1.0734 C.3            1 S1                 0.0000
      7 ****        -2.4611   1.2573   0.0307 C.3            1 S1                 0.0000
      8 ****        -1.0286   1.3707   0.0529 N.pl3          1 S1                 0.0000
      9 ****        -0.3065   2.5089   0.1066 C.2            1 S1                 0.0000
     10 ****         1.0198   2.3937   0.1240 N.2            1 S1                 0.0000
     11 ****         1.1796   1.0191   0.0783 C.ar           1 S1                 0.0000
     12 ****         2.3366   0.2041   0.0691 C.ar           1 S1                 0.0000
     13 ****         3.6469   0.7572   0.1072 N.3            1 S1                 0.0000
     14 ****         4.5695   0.1397   1.0552 C.3            1 S1                 0.0000
     15 ****         5.4712  -0.2449  -0.1224 C.3            1 S1                 0.0000
     16 ****         6.7560   0.3432  -0.0822 O.3            1 S1                 0.0000
     17 ****         5.7712  -1.7330  -0.3425 C.3            1 S1                 0.0000
     18 ****         4.6764  -2.4790  -0.2050 F              1 S1                 0.0000
     19 ****         6.2673  -1.9329  -1.5641 F              1 S1                 0.0000
     20 ****         4.4675   0.4387  -1.0557 C.3            1 S1                 0.0000
     21 ****         2.1288  -1.1440   0.0136 N.pl3          1 S1                 1.0000
     22 ****         0.8976  -1.6840  -0.0250 C.ar           1 S1                 0.0000
     23 ****        -0.2486  -0.9915  -0.0157 N.ar           1 S1                 0.0000
     24 ****        -0.0744   0.3566   0.0342 C.ar           1 S1                 0.0000
     25 ****        -3.1814   0.4248  -1.0344 C.3            1 S1                 0.0000
     26 ****        -4.0559  -3.2155  -0.0207 H              1 S1                 0.0000
     27 ****        -5.3723  -1.6008  -0.8947 H              1 S1                 0.0000
     28 ****        -5.3743  -1.6302   0.8560 H              1 S1                 0.0000
     29 ****        -5.2331   1.9982  -0.1657 H              1 S1                 0.0000
     30 ****        -6.1521   0.6964  -0.8749 H              1 S1                 0.0000
     31 ****        -7.0059   1.4319   1.0942 H              1 S1                 0.0000
     32 ****        -3.5860   0.9959   1.9173 H              1 S1                 0.0000
     33 ****        -2.6221  -0.4321   1.4245 H              1 S1                 0.0000
     34 ****        -2.8544   2.2757   0.0289 H              1 S1                 0.0000
     35 ****        -0.7770   3.4814   0.1348 H              1 S1                 0.0000
     36 ****         5.0163   0.8745   1.7259 H              1 S1                 0.0000
     37 ****         4.1643  -0.7097   1.6065 H              1 S1                 0.0000
     38 ****         6.6354   1.2720   0.0441 H              1 S1                 0.0000
     39 ****         6.5003  -2.1171   0.3727 H              1 S1                 0.0000
     40 ****         3.9973  -0.2376  -1.7712 H              1 S1                 0.0000
     41 ****         4.8574   1.3339  -1.5412 H              1 S1                 0.0000
     42 ****         0.8562  -2.7625  -0.0678 H              1 S1                 0.0000
     43 ****        -2.5908  -0.4228  -1.3824 H              1 S1                 0.0000
     44 ****        -3.5486   1.0057  -1.8810 H              1 S1                 0.0000
     45 ****         2.9423  -1.7603   0.0000 H              1 S1                 0.0000
     46 ****        -3.1229  -2.2127   0.7886 LP             1 S1                 0.0000
     47 ****        -3.1357  -2.2126  -0.8443 LP             1 S1                 0.0000
     48 ****        -5.6946   1.1202   1.9392 LP             1 S1                 0.0000
     49 ****        -6.5757  -0.0879   1.2828 LP             1 S1                 0.0000
     50 ****         1.7163   3.1104   0.1605 LP             1 S1                 0.0000
     51 ****         3.3935   1.7110   0.2690 LP             1 S1                 0.0000
     52 ****         7.2369   0.1743  -0.9425 LP             1 S1                 0.0000
     53 ****         7.2842  -0.0396   0.6757 LP             1 S1                 0.0000
     54 ****        -1.1492  -1.4253  -0.0429 LP             1 S1                 0.0000
@<TRIPOS>BOND
    1    1    2 1     
    2    1   26 1     
    3    2    3 1     
    4    2   27 1     
    5    2   28 1     
    6    3   25 1     
    7    3    4 1     
    8    3    6 1     
    9    4    5 1     
   10    4   29 1     
   11    4   30 1     
   12    5   31 1     
   13    6    7 1     
   14    6   32 1     
   15    6   33 1     
   16    7    8 1     
   17    7   25 1     
   18    7   34 1     
   19    8   24 1     
   20    8    9 1     
   21    9   10 2     
   22    9   35 1     
   23   10   11 1     
   24   11   24 ar    
   25   11   12 ar    
   26   12   13 1     
   27   12   21 ar    
   28   13   20 1     
   29   13   14 1     
   30   14   15 1     
   31   14   36 1     
   32   14   37 1     
   33   15   16 1     
   34   15   17 1     
   35   15   20 1     
   36   16   38 1     
   37   17   18 1     
   38   17   19 1     
   39   17   39 1     
   40   20   40 1     
   41   20   41 1     
   42   21   22 ar    
   43   21   45 1     
   44   22   23 ar    
   45   22   42 1     
   46   23   24 ar    
   47   25   43 1     
   48   25   44 1     
   49    1   46 1     
   50    1   47 1     
   51    5   48 1     
   52    5   49 1     
   53   10   50 1     
   54   13   51 1     
   55   16   52 1     
   56   16   53 1     
   57   23   54 1     
@<TRIPOS>SUBSTRUCTURE
      1 S1             1
@<TRIPOS>SET
LONE_PAIRS      STATIC     ATOMS    <user>   **** ""
9 46 47 48 49 50 51 52 53 54
DONOR_HYDROGENS      STATIC     ATOMS    <user>   **** ""
4 26 31 38 45
ATOM$BLUE        STATIC     ATOMS    COLORGROUP SYSTEM
9 46 47 48 49 50 51 52 53 54
ATOM$RED        STATIC     ATOMS    COLORGROUP SYSTEM
4 26 31 38 45
