#       Name:                AV-unprocessed.smi:3321
#       Creating user name   scv26
#       Creation time:       Fri Mar 27 19:11:30 2020


#       File generated by GOLD software.
#

@<TRIPOS>MOLECULE
AV-unprocessed.smi:3321
    44    45     1
SMALL
NO_CHARGES


@<TRIPOS>ATOM
      1 ****        -0.8198   2.5284   0.3766 C.3            1 S1                 0.0000
      2 ****        -0.2764   1.0945   0.2734 C.3            1 S1                 0.0000
      3 ****         1.1918   1.1392   0.1454 N.3            1 S1                 0.0000
      4 ****         1.7965  -0.1486  -0.1841 C.3            1 S1                 0.0000
      5 ****         3.3078   0.0188  -0.4154 C.3            1 S1                 0.0000
      6 ****         3.6058   0.8243  -1.5865 N.pl3          1 S1                 0.0000
      7 ****         4.0018   2.1442  -1.6396 C.2            1 S1                 0.0000
      8 ****         4.1574   2.4690  -2.9567 C.2            1 S1                 0.0000
      9 ****         3.8313   1.2652  -3.6418 C.2            1 S1                 0.0000
     10 ****         3.5030   0.2820  -2.8191 N.2            1 S1                 0.0000
     11 ****        -0.7647   0.2565   1.4787 C.2            1 S1                 0.0000
     12 ****        -0.0390   0.1965   2.4735 O.2            1 S1                 0.0000
     13 ****        -1.9600  -0.3846   1.4264 N.am           1 S1                 0.0000
     14 ****        -2.4055  -1.3055   2.4813 C.3            1 S1                 0.0000
     15 ****        -2.3717  -2.7414   1.9243 C.3            1 S1                 0.0000
     16 ****        -3.2219  -2.8613   0.6442 C.3            1 S1                 0.0000
     17 ****        -2.8855  -1.7527  -0.3725 C.3            1 S1                 0.0000
     18 ****        -2.9095  -0.3711   0.3049 C.3            1 S1                 0.0000
     19 ****        -1.9082   2.5425   0.4433 H              1 S1                 0.0000
     20 ****        -0.5413   3.1150  -0.4995 H              1 S1                 0.0000
     21 ****        -0.4279   3.0411   1.2561 H              1 S1                 0.0000
     22 ****        -0.6447   0.6537  -0.6519 H              1 S1                 0.0000
     23 ****         1.6252   1.5256   0.9720 H              1 S1                 0.0000
     24 ****         1.6406  -0.8591   0.6277 H              1 S1                 0.0000
     25 ****         1.3250  -0.5698  -1.0733 H              1 S1                 0.0000
     26 ****         3.7824   0.4731   0.4554 H              1 S1                 0.0000
     27 ****         3.7727  -0.9593  -0.5465 H              1 S1                 0.0000
     28 ****         4.1341   2.7357  -0.7458 H              1 S1                 0.0000
     29 ****         4.4569   3.4215  -3.3679 H              1 S1                 0.0000
     30 ****         3.8232   1.0779  -4.7054 H              1 S1                 0.0000
     31 ****        -1.7981  -1.2465   3.3851 H              1 S1                 0.0000
     32 ****        -3.4187  -1.0448   2.7904 H              1 S1                 0.0000
     33 ****        -1.3403  -3.0198   1.7037 H              1 S1                 0.0000
     34 ****        -2.7281  -3.4453   2.6768 H              1 S1                 0.0000
     35 ****        -3.0863  -3.8436   0.1911 H              1 S1                 0.0000
     36 ****        -4.2769  -2.7889   0.9118 H              1 S1                 0.0000
     37 ****        -1.8982  -1.9321  -0.8005 H              1 S1                 0.0000
     38 ****        -3.5935  -1.7787  -1.2012 H              1 S1                 0.0000
     39 ****        -3.9103  -0.1685   0.6890 H              1 S1                 0.0000
     40 ****        -2.7296   0.4172  -0.4229 H              1 S1                 0.0000
     41 ****         1.3663   1.7445  -0.6312 LP             1 S1                 0.0000
     42 ****         3.2383  -0.6526  -3.0567 LP             1 S1                 0.0000
     43 ****         0.8358   0.6810   2.4842 LP             1 S1                 0.0000
     44 ****        -0.3251  -0.3367   3.2697 LP             1 S1                 0.0000
@<TRIPOS>BOND
    1    1    2 1     
    2    1   19 1     
    3    1   20 1     
    4    1   21 1     
    5    2    3 1     
    6    2   11 1     
    7    2   22 1     
    8    3    4 1     
    9    3   23 1     
   10    4    5 1     
   11    4   24 1     
   12    4   25 1     
   13    5    6 1     
   14    5   26 1     
   15    5   27 1     
   16    6   10 1     
   17    6    7 1     
   18    7    8 2     
   19    7   28 1     
   20    8    9 1     
   21    8   29 1     
   22    9   10 2     
   23    9   30 1     
   24   11   12 2     
   25   11   13 am    
   26   13   18 1     
   27   13   14 1     
   28   14   15 1     
   29   14   31 1     
   30   14   32 1     
   31   15   16 1     
   32   15   33 1     
   33   15   34 1     
   34   16   17 1     
   35   16   35 1     
   36   16   36 1     
   37   17   18 1     
   38   17   37 1     
   39   17   38 1     
   40   18   39 1     
   41   18   40 1     
   42    3   41 1     
   43   10   42 1     
   44   12   43 1     
   45   12   44 1     
@<TRIPOS>SUBSTRUCTURE
      1 S1             1
@<TRIPOS>SET
LONE_PAIRS      STATIC     ATOMS    <user>   **** ""
4 41 42 43 44
DONOR_HYDROGENS      STATIC     ATOMS    <user>   **** ""
1 23
ATOM$BLUE        STATIC     ATOMS    COLORGROUP SYSTEM
4 41 42 43 44
ATOM$RED        STATIC     ATOMS    COLORGROUP SYSTEM
1 23
