AV-unprocessed.smi:2362|AV-procd|sdf|9414|dock8
  -GOLD-   2272013 53D 1   1.00000     0.00000
 Structure written by MMmdl.
 45 46  0  0  0  0  0  0  0  0  2 V2000
  143.6996  132.7266  151.2544 C   0  0  0  0  0  0  0  0  0  0  0  0
  144.0765  134.1511  151.6042 C   0  0  0  0  0  0  0  0  0  0  0  0
  145.3210  134.6910  151.2275 C   0  0  0  0  0  0  0  0  0  0  0  0
  145.6171  136.0223  151.5784 C   0  0  0  0  0  0  0  0  0  0  0  0
  144.6656  136.7805  152.2968 C   0  0  0  0  0  0  0  0  0  0  0  0
  145.0595  138.1119  152.5980 N   0  0  0  0  0  0  0  0  0  0  0  0
  146.2709  138.5506  152.9825 C   0  0  0  0  0  0  0  0  0  0  0  0
  147.2764  137.8504  153.1032 O   0  0  0  0  0  0  0  0  0  0  0  0
  146.2561  139.8682  153.2372 N   0  0  0  0  0  0  0  0  0  0  0  0
  147.4050  140.6738  153.6548 C   0  0  1  0  0  0  0  0  0  0  0  0
  146.9487  142.1232  153.8696 C   0  0  0  0  0  0  0  0  0  0  0  0
  148.0660  140.1014  154.9308 C   0  0  0  0  0  0  0  0  0  0  0  0
  149.5130  139.8100  154.7619 N   0  3  0  0  0  0  0  0  0  0  0  0
  149.7799  138.3846  154.4395 C   0  0  0  0  0  0  0  0  0  0  0  0
  151.2667  138.1617  154.1136 C   0  0  0  0  0  0  0  0  0  0  0  0
  152.1619  138.6422  155.2635 C   0  0  0  0  0  0  0  0  0  0  0  0
  151.8394  140.1030  155.6042 C   0  0  0  0  0  0  0  0  0  0  0  0
  150.3416  140.2785  155.9041 C   0  0  0  0  0  0  0  0  0  0  0  0
  143.4683  136.2520  152.6535 N   0  0  0  0  0  0  0  0  0  0  0  0
  143.1853  134.9759  152.3173 C   0  0  0  0  0  0  0  0  0  0  0  0
  144.5150  132.2143  150.7427 H   0  0  0  0  0  0  0  0  0  0  0  0
  142.8268  132.7172  150.6013 H   0  0  0  0  0  0  0  0  0  0  0  0
  143.4589  132.1660  152.1580 H   0  0  0  0  0  0  0  0  0  0  0  0
  146.0390  134.0994  150.6788 H   0  0  0  0  0  0  0  0  0  0  0  0
  146.5677  136.4515  151.2965 H   0  0  0  0  0  0  0  0  0  0  0  0
  144.3304  138.8061  152.5237 H   0  0  0  0  0  0  0  0  0  0  0  0
  145.3838  140.3611  153.1101 H   0  0  0  0  0  0  0  0  0  0  0  0
  148.1380  140.6939  152.8471 H   0  0  0  0  0  0  0  0  0  0  0  0
  147.7906  142.7631  154.1355 H   0  0  0  0  0  0  0  0  0  0  0  0
  146.2114  142.1954  154.6700 H   0  0  0  0  0  0  0  0  0  0  0  0
  146.4998  142.5331  152.9640 H   0  0  0  0  0  0  0  0  0  0  0  0
  147.9275  140.7789  155.7749 H   0  0  0  0  0  0  0  0  0  0  0  0
  147.5426  139.1811  155.1951 H   0  0  0  0  0  0  0  0  0  0  0  0
  149.4767  137.7566  155.2787 H   0  0  0  0  0  0  0  0  0  0  0  0
  149.1796  138.0811  153.5811 H   0  0  0  0  0  0  0  0  0  0  0  0
  151.4513  137.1058  153.9138 H   0  0  0  0  0  0  0  0  0  0  0  0
  151.5250  138.6995  153.2003 H   0  0  0  0  0  0  0  0  0  0  0  0
  152.0034  138.0147  156.1414 H   0  0  0  0  0  0  0  0  0  0  0  0
  153.2130  138.5412  154.9916 H   0  0  0  0  0  0  0  0  0  0  0  0
  152.4324  140.4261  156.4602 H   0  0  0  0  0  0  0  0  0  0  0  0
  152.1229  140.7466  154.7701 H   0  0  0  0  0  0  0  0  0  0  0  0
  150.1423  141.3297  156.1103 H   0  0  0  0  0  0  0  0  0  0  0  0
  150.0714  139.7245  156.8044 H   0  0  0  0  0  0  0  0  0  0  0  0
  142.2191  134.6044  152.6261 H   0  0  0  0  0  0  0  0  0  0  0  0
  149.8112  140.3383  153.9540 H   0  0  0  0  0  0  0  0  0  0  0  0
  1  2  1  0  0  0  0
  1 21  1  0  0  0  0
  1 22  1  0  0  0  0
  1 23  1  0  0  0  0
  2 20  1  0  0  0  0
  2  3  2  0  0  0  0
  3  4  1  0  0  0  0
  3 24  1  0  0  0  0
  4  5  2  0  0  0  0
  4 25  1  0  0  0  0
  5  6  1  0  0  0  0
  5 19  1  0  0  0  0
  6  7  1  0  0  0  0
  6 26  1  0  0  0  0
  7  8  2  0  0  0  0
  7  9  1  0  0  0  0
  9 10  1  0  0  0  0
  9 27  1  0  0  0  0
 10 11  1  0  0  0  0
 10 12  1  0  0  0  0
 10 28  1  0  0  0  0
 11 29  1  0  0  0  0
 11 30  1  0  0  0  0
 11 31  1  0  0  0  0
 12 13  1  0  0  0  0
 12 32  1  0  0  0  0
 12 33  1  0  0  0  0
 13 18  1  0  0  0  0
 13 14  1  0  0  0  0
 13 45  1  0  0  0  0
 14 15  1  0  0  0  0
 14 34  1  0  0  0  0
 14 35  1  0  0  0  0
 15 16  1  0  0  0  0
 15 36  1  0  0  0  0
 15 37  1  0  0  0  0
 16 17  1  0  0  0  0
 16 38  1  0  0  0  0
 16 39  1  0  0  0  0
 17 18  1  0  0  0  0
 17 40  1  0  0  0  0
 17 41  1  0  0  0  0
 18 42  1  0  0  0  0
 18 43  1  0  0  0  0
 19 20  2  0  0  0  0
 20 44  1  0  0  0  0
M  CHG  1  13   1
M  END
> <s_m_source_file>
AV-unprocessed.smi

> <i_m_source_file_index>
2362

> <i_lp_mmshare_version>
43012

> <i_f3d_flags>
0

> <s_epik_input>
W0NIM11jMVtjSF1bY0hdYyhuW2NIXTEpW05IXUMoPU8pW05IXVtDQEhdKFtDSDNdKVtDSDJdTjJbQ0gyXVtDSDJdW0NIMl1bQ0gyXVtDSDJdMg==

> <s_epik_cmdline>
J2VwaWtfcHl0aG9uJywgJy1waCcsICc3LjAnLCAnLXRuJywgJzgnLCAnLW1hJywgJzIwMCcsICctbWV0YWxfYmluZGluZycsICctaW1hZScsICc8aW5maWxlLm1hZT4nLCAnLW9tYWUnLCAnPG91dGZpbGUubWFlPic=

> <r_epik_Ionization_Penalty>
0.00215987

> <r_epik_Ionization_Penalty_Charging>
0.00211816

> <r_epik_Ionization_Penalty_Neutral>
4.17101e-05

> <r_epik_State_Penalty>
0.00145254

> <r_epik_Charging_Adjusted_Penalty>
0.0035707

> <i_epik_Tot_Q>
1

> <i_epik_Tot_abs_Q>
1

> <r_epik_Metal_State_Penalty>
-0

> <b_epik_Metal_Only>
0

> <s_lp_Force_Field>
OPLS_2005

> <r_lp_Energy>
24.6446

> <b_lp_Chiralities_Consistent>
1

> <s_lp_Variant>
AV-unprocessed.smi:2362-2

> <Gold.Version>
5.8.1

> <Gold.Id.Protein>
6NUR|6NUR_protein|mol2

> <Gold.PLP.Fitness>
38.1464

> <Gold.PLP.PLP>
-35.3533

> <Gold.PLP.part.hbond>
-2.9630

> <Gold.PLP.part.metal>
0.0000

> <Gold.PLP.part.buried>
-5.7542

> <Gold.PLP.part.nonpolar>
-30.3379

> <Gold.PLP.part.repulsive>
3.5707

> <Gold.PLP.ligand.clash>
0.0000

> <Gold.PLP.ligand.torsion>
1.6256

> <Gold.PLP.Chemscore.Hbond>
2.0000

> <Gold.PLP.Chemscore.CHOScore>
0.0000

> <Gold.PLP.Chemscore.Metal>
0.0000

> <Gold.Chemscore.Hbonds>
donor molecule, donor type, donor heavy atom, donor atom, acceptor molecule, acceptor atom, score
      L1  H     6    26       P1 10175  1.00
      L1  H     9    27       P1 10175  1.00

> <Gold.PLP.Chemscore.Internal.Correction>
0.0443

> <Gold.Rescore>
     Score         DG    S(hbond)    S(metal)    S(lipo)     H(rot)  DE(clash)    DE(int)     intcor
     13.48     -18.40       1.95        0.00      86.35       1.44       2.09       2.83       ----

> <Gold.Chemscore.Fitness>
13.4807

> <Gold.Chemscore.DG>
-18.4042

> <Gold.Chemscore.ZeroCoef>
-5.4800

> <Gold.Chemscore.Hbond>
1.9487

> <Gold.Chemscore.Metal>
0.0000

> <Gold.Chemscore.Lipo>
86.3515

> <Gold.Chemscore.Internal_Hbond>
0.0000

> <Gold.Chemscore.DEClash>
2.0922

> <Gold.Chemscore.DEInternal>
2.8313

> <Gold.Chemscore.Rot>
1.4404

> <Gold.Chemscore.Internal.Correction>
   9.000000E+99

> <Gold.Chemscore.Hbonds>
donor molecule, donor type, donor heavy atom, donor atom, acceptor molecule, acceptor atom, score
      L1  H     6    26       P1 10175  0.99
      L1  H     9    27       P1 10175  0.93

> <Gold.Chemscore.Hbond.Weighted>
-6.5086

> <Gold.Chemscore.Metal.Weighted>
-0.0000

> <Gold.Chemscore.Lipo.Weighted>
-10.1031

> <Gold.Chemscore.Internal_Hbond.Weighted>
0.0000

> <Gold.Chemscore.DEClash.Weighted>
2.0922

> <Gold.Chemscore.DEInternal.Weighted>
2.8313

> <Gold.Chemscore.Rot.Weighted>
3.6875

> <Gold.Chemscore.Internal.Correction.Weighted>
   9.000000E+99

> <Gold.Protein.RotatedTorsions>
[ 6907 6896 6895 6894 ] final   56.69 input  -60.11 | X-H torsion
[ 7974 7965 7964 7962 ] final   60.90 input  175.53 | X-H torsion
[ 8008 7997 7996 7995 ] final -131.56 input   59.86 | X-H torsion
[ 10167 10162 10161 10158 ] final   98.97 input  -65.29 | X-H torsion
[ 10718 10713 10712 10709 ] final -177.81 input   66.30 | X-H torsion
[ 10763 10752 10751 10750 ] final    4.10 input  -60.55 | X-H torsion
[ 11005 11000 10999 10996 ] final    1.92 input  -57.11 | X-H torsion

> <Gold.Protein.ActiveResidues>
 VAL166  LYS551  ARG553  GLY616  TRP617  ASP618  TYR619  PRO620  LYS621  CYS622 
 ASP623  PHE694  ASN695  SER759  ASP760  ASP761  ALA762  ILE779  LEU786  VAL792 
 PHE793  MET794  SER795  GLU796  ALA797  LYS798  CYS799  TRP800  GLU811  SER814 

> <Gold.Protein.RotatedAtoms>
  152.3660  134.6804  160.0191 H   0  0  0  0  0  0  0  0  0  0  0  0  # atno 6907 bound_to 6896
  151.7112  133.3307  159.3299 H   0  0  0  0  0  0  0  0  0  0  0  0  # atno 6908 bound_to 6896
  150.7638  134.6465  159.6310 H   0  0  0  0  0  0  0  0  0  0  0  0  # atno 6909 bound_to 6896
  145.8908  139.3509  143.0650 H   0  0  0  0  0  0  0  0  0  0  0  0  # atno 7974 bound_to 7965
  155.3144  140.0459  157.3036 H   0  0  0  0  0  0  0  0  0  0  0  0  # atno 8008 bound_to 7997
  154.5415  140.2289  155.8600 H   0  0  0  0  0  0  0  0  0  0  0  0  # atno 8009 bound_to 7997
  156.1885  140.3056  155.9292 H   0  0  0  0  0  0  0  0  0  0  0  0  # atno 8010 bound_to 7997
  139.7660  144.6939  151.0224 H   0  0  0  0  0  0  0  0  0  0  0  0  # atno 10167 bound_to 10162
  156.8350  130.9666  151.3104 H   0  0  0  0  0  0  0  0  0  0  0  0  # atno 10718 bound_to 10713
  153.2753  135.6936  153.7439 H   0  0  0  0  0  0  0  0  0  0  0  0  # atno 10763 bound_to 10752
  153.6447  135.3387  155.3083 H   0  0  0  0  0  0  0  0  0  0  0  0  # atno 10764 bound_to 10752
  154.8477  135.4440  154.1789 H   0  0  0  0  0  0  0  0  0  0  0  0  # atno 10765 bound_to 10752
  140.6100  133.9757  155.8173 H   0  0  0  0  0  0  0  0  0  0  0  0  # atno 11005 bound_to 11000
  145.8911  140.9303  143.0552 LP  0  0  0  0  0  0  0  0  0  0  0  0  # atno 17320 bound_to 7965
  144.6730  140.0906  143.7465 LP  0  0  0  0  0  0  0  0  0  0  0  0  # atno 17321 bound_to 7965
  140.7811  143.4643  151.0234 LP  0  0  0  0  0  0  0  0  0  0  0  0  # atno 17342 bound_to 10162
  139.8328  143.7668  152.3180 LP  0  0  0  0  0  0  0  0  0  0  0  0  # atno 17343 bound_to 10162
  157.6386  130.8787  149.9406 LP  0  0  0  0  0  0  0  0  0  0  0  0  # atno 17370 bound_to 10713
  156.0912  130.3663  150.0391 LP  0  0  0  0  0  0  0  0  0  0  0  0  # atno 17371 bound_to 10713
  141.0814  134.0056  157.3380 LP  0  0  0  0  0  0  0  0  0  0  0  0  # atno 17394 bound_to 11000
  139.9196  135.0199  156.8014 LP  0  0  0  0  0  0  0  0  0  0  0  0  # atno 17395 bound_to 11000

$$$$
