#       Name:                AV-unprocessed.smi:2424
#       Creating user name   scv26
#       Creation time:       Fri Mar 27 13:19:20 2020


#       File generated by GOLD software.
#

@<TRIPOS>MOLECULE
AV-unprocessed.smi:2424
    56    57     1
SMALL
NO_CHARGES


@<TRIPOS>ATOM
      1 ****        -1.7289  -0.0520  -2.2892 C.3            1 S1                 0.0000
      2 ****        -2.6552  -0.6172  -1.2007 C.3            1 S1                 0.0000
      3 ****        -1.9372  -1.2556   0.0107 C.3            1 S1                 0.0000
      4 ****        -1.1239  -2.4845  -0.4758 C.3            1 S1                 0.0000
      5 ****        -1.9550  -3.6147  -1.1054 C.3            1 S1                 0.0000
      6 ****        -1.1926  -0.2455   0.9252 C.3            1 S1                 0.0000
      7 ****         0.2607  -0.2545   0.7786 N.am           1 S1                 0.0000
      8 ****         1.0019   0.7817   0.3649 C.2            1 S1                 0.0000
      9 ****         0.5274   1.8806   0.0808 O.2            1 S1                 0.0000
     10 ****         2.3034   0.4452   0.3115 N.am           1 S1                 0.0000
     11 ****         3.4005   1.2127  -0.1038 C.2            1 S1                 0.0000
     12 ****         4.6257   0.6768   0.0326 C.2            1 S1                 0.0000
     13 ****         5.7756   1.3676  -0.3563 N.am           1 S1                 0.0000
     14 ****         5.7715   2.6072  -0.8966 C.2            1 S1                 0.0000
     15 ****         6.8276   3.1527  -1.2117 O.2            1 S1                 0.0000
     16 ****         4.4433   3.2177  -1.0695 C.2            1 S1                 0.0000
     17 ****         4.3707   4.6043  -1.6843 C.3            1 S1                 0.0000
     18 ****         3.3302   2.5474  -0.6907 C.2            1 S1                 0.0000
     19 ****        -1.6581  -1.0314   2.1538 C.3            1 S1                 0.0000
     20 ****        -1.9490  -0.2999   3.4583 C.3            1 S1                 0.0000
     21 ****        -2.8126  -1.5307   1.2702 C.3            1 S1                 0.0000
     22 ****        -3.9424  -0.6742   1.3941 O.3            1 S1                 0.0000
     23 ****        -5.1513  -1.2907   0.9837 C.3            1 S1                 0.0000
     24 ****         6.6605   0.9016  -0.2168 H              1 S1                 0.0000
     25 ****        -2.3116   0.4561  -3.0575 H              1 S1                 0.0000
     26 ****        -1.1560  -0.8333  -2.7871 H              1 S1                 0.0000
     27 ****        -1.0285   0.6745  -1.8798 H              1 S1                 0.0000
     28 ****        -3.2765   0.2113  -0.8604 H              1 S1                 0.0000
     29 ****        -3.3552  -1.3171  -1.6544 H              1 S1                 0.0000
     30 ****        -0.3463  -2.1844  -1.1776 H              1 S1                 0.0000
     31 ****        -0.5781  -2.9219   0.3599 H              1 S1                 0.0000
     32 ****        -1.3255  -4.4816  -1.3068 H              1 S1                 0.0000
     33 ****        -2.3958  -3.3148  -2.0556 H              1 S1                 0.0000
     34 ****        -2.7598  -3.9407  -0.4468 H              1 S1                 0.0000
     35 ****        -1.6467   0.7480   0.8981 H              1 S1                 0.0000
     36 ****         0.7324  -1.1199   0.9963 H              1 S1                 0.0000
     37 ****         2.5326  -0.4923   0.6071 H              1 S1                 0.0000
     38 ****         4.8214  -0.3023   0.4455 H              1 S1                 0.0000
     39 ****         3.3399   4.9490  -1.7717 H              1 S1                 0.0000
     40 ****         4.8108   4.6022  -2.6820 H              1 S1                 0.0000
     41 ****         4.9149   5.3223  -1.0698 H              1 S1                 0.0000
     42 ****         2.3820   3.0338  -0.8489 H              1 S1                 0.0000
     43 ****        -0.9810  -1.8665   2.3425 H              1 S1                 0.0000
     44 ****        -2.5692   0.5819   3.2960 H              1 S1                 0.0000
     45 ****        -1.0264   0.0334   3.9334 H              1 S1                 0.0000
     46 ****        -2.4707  -0.9458   4.1646 H              1 S1                 0.0000
     47 ****        -3.0428  -2.5806   1.4591 H              1 S1                 0.0000
     48 ****        -5.9691  -0.5736   1.0511 H              1 S1                 0.0000
     49 ****        -5.3938  -2.1376   1.6265 H              1 S1                 0.0000
     50 ****        -5.0956  -1.6426  -0.0465 H              1 S1                 0.0000
     51 ****        -0.4581   2.0337   0.1540 LP             1 S1                 0.0000
     52 ****         1.1272   2.6207  -0.2233 LP             1 S1                 0.0000
     53 ****         7.6969   2.6794  -1.0688 LP             1 S1                 0.0000
     54 ****         6.8172   4.0695  -1.6108 LP             1 S1                 0.0000
     55 ****        -3.7907   0.1373   0.8298 LP             1 S1                 0.0000
     56 ****        -4.0325  -0.4019   2.3521 LP             1 S1                 0.0000
@<TRIPOS>BOND
    1    1    2 1     
    2    1   25 1     
    3    1   26 1     
    4    1   27 1     
    5    2    3 1     
    6    2   28 1     
    7    2   29 1     
    8    3   21 1     
    9    3    4 1     
   10    3    6 1     
   11    4    5 1     
   12    4   30 1     
   13    4   31 1     
   14    5   32 1     
   15    5   33 1     
   16    5   34 1     
   17    6    7 1     
   18    6   19 1     
   19    6   35 1     
   20    7    8 am    
   21    7   36 1     
   22    8    9 2     
   23    8   10 am    
   24   10   11 1     
   25   10   37 1     
   26   11   18 1     
   27   11   12 2     
   28   12   13 1     
   29   12   38 1     
   30   13   24 1     
   31   13   14 am    
   32   14   15 2     
   33   14   16 1     
   34   16   17 1     
   35   16   18 2     
   36   17   39 1     
   37   17   40 1     
   38   17   41 1     
   39   18   42 1     
   40   19   20 1     
   41   19   21 1     
   42   19   43 1     
   43   20   44 1     
   44   20   45 1     
   45   20   46 1     
   46   21   22 1     
   47   21   47 1     
   48   22   23 1     
   49   23   48 1     
   50   23   49 1     
   51   23   50 1     
   52    9   51 1     
   53    9   52 1     
   54   15   53 1     
   55   15   54 1     
   56   22   55 1     
   57   22   56 1     
@<TRIPOS>SUBSTRUCTURE
      1 S1             1
@<TRIPOS>SET
LONE_PAIRS      STATIC     ATOMS    <user>   **** ""
6 51 52 53 54 55 56
DONOR_HYDROGENS      STATIC     ATOMS    <user>   **** ""
3 36 37 24
ATOM$BLUE        STATIC     ATOMS    COLORGROUP SYSTEM
6 51 52 53 54 55 56
ATOM$RED        STATIC     ATOMS    COLORGROUP SYSTEM
3 36 37 24
