AV-unprocessed.smi:3290|AV-procd|sdf|12615|dock6
  -GOLD-   2272018543D 1   1.00000     0.00000
 Structure written by MMmdl.
 43 44  0  0  0  0  0  0  0  0  2 V2000
  151.8413  140.4569  159.1251 C   0  0  0  0  0  0  0  0  0  0  0  0
  152.1136  141.9561  158.9057 C   0  0  2  0  0  0  0  0  0  0  0  0
  152.2258  142.6654  160.2721 C   0  0  0  0  0  0  0  0  0  0  0  0
  152.5541  144.1565  160.1211 C   0  0  0  0  0  0  0  0  0  0  0  0
  151.5134  144.8560  159.2403 C   0  0  0  0  0  0  0  0  0  0  0  0
  151.3998  144.1645  157.8748 C   0  0  0  0  0  0  0  0  0  0  0  0
  151.0583  142.6629  158.0039 C   0  0  1  0  0  0  0  0  0  0  0  0
  150.9336  142.0436  156.5931 C   0  0  0  0  0  0  0  0  0  0  0  0
  149.5570  142.1298  156.0657 N   0  3  0  0  0  0  0  0  0  0  0  0
  149.3976  141.5826  154.7036 C   0  0  0  0  0  0  0  0  0  0  0  0
  148.7503  140.1871  154.7293 C   0  0  1  0  0  0  0  0  0  0  0  0
  147.9435  140.0388  153.5771 O   0  0  0  0  0  0  0  0  0  0  0  0
  149.8046  139.0958  154.8227 C   0  0  0  0  0  0  0  0  0  0  0  0
  149.4433  137.7312  154.8517 C   0  0  0  0  0  0  0  0  0  0  0  0
  150.4663  136.7647  154.9270 C   0  0  0  0  0  0  0  0  0  0  0  0
  151.7790  137.0770  154.9719 N   0  0  0  0  0  0  0  0  0  0  0  0
  152.1190  138.3834  154.9434 C   0  0  0  0  0  0  0  0  0  0  0  0
  151.1749  139.4273  154.8683 C   0  0  0  0  0  0  0  0  0  0  0  0
  150.8366  140.2868  159.5135 H   0  0  0  0  0  0  0  0  0  0  0  0
  152.5473  140.0320  159.8394 H   0  0  0  0  0  0  0  0  0  0  0  0
  151.9523  139.8874  158.2029 H   0  0  0  0  0  0  0  0  0  0  0  0
  153.0853  142.0379  158.4160 H   0  0  0  0  0  0  0  0  0  0  0  0
  151.2913  142.5538  160.8242 H   0  0  0  0  0  0  0  0  0  0  0  0
  152.9979  142.1898  160.8782 H   0  0  0  0  0  0  0  0  0  0  0  0
  152.5921  144.6316  161.1017 H   0  0  0  0  0  0  0  0  0  0  0  0
  153.5456  144.2720  159.6815 H   0  0  0  0  0  0  0  0  0  0  0  0
  150.5436  144.8478  159.7395 H   0  0  0  0  0  0  0  0  0  0  0  0
  151.7844  145.9036  159.1062 H   0  0  0  0  0  0  0  0  0  0  0  0
  150.6360  144.6724  157.2848 H   0  0  0  0  0  0  0  0  0  0  0  0
  152.3372  144.2840  157.3294 H   0  0  0  0  0  0  0  0  0  0  0  0
  150.0845  142.5988  158.4929 H   0  0  0  0  0  0  0  0  0  0  0  0
  151.5779  142.5759  155.8918 H   0  0  0  0  0  0  0  0  0  0  0  0
  151.2709  141.0063  156.6018 H   0  0  0  0  0  0  0  0  0  0  0  0
  148.9436  141.6229  156.6876 H   0  0  0  0  0  0  0  0  0  0  0  0
  148.8022  142.2690  154.0993 H   0  0  0  0  0  0  0  0  0  0  0  0
  150.3833  141.5211  154.2402 H   0  0  0  0  0  0  0  0  0  0  0  0
  148.0948  140.1100  155.5982 H   0  0  0  0  0  0  0  0  0  0  0  0
  148.4996  140.0857  152.8137 H   0  0  0  0  0  0  0  0  0  0  0  0
  148.4076  137.4269  154.8147 H   0  0  0  0  0  0  0  0  0  0  0  0
  150.2229  135.7127  154.9495 H   0  0  0  0  0  0  0  0  0  0  0  0
  153.1755  138.6045  154.9795 H   0  0  0  0  0  0  0  0  0  0  0  0
  151.5019  140.4566  154.8454 H   0  0  0  0  0  0  0  0  0  0  0  0
  149.2747  143.0999  156.0545 H   0  0  0  0  0  0  0  0  0  0  0  0
  1  2  1  0  0  0  0
  1 19  1  0  0  0  0
  1 20  1  0  0  0  0
  1 21  1  0  0  0  0
  2  7  1  0  0  0  0
  2  3  1  0  0  0  0
  2 22  1  0  0  0  0
  3  4  1  0  0  0  0
  3 23  1  0  0  0  0
  3 24  1  0  0  0  0
  4  5  1  0  0  0  0
  4 25  1  0  0  0  0
  4 26  1  0  0  0  0
  5  6  1  0  0  0  0
  5 27  1  0  0  0  0
  5 28  1  0  0  0  0
  6  7  1  0  0  0  0
  6 29  1  0  0  0  0
  6 30  1  0  0  0  0
  7  8  1  0  0  0  0
  7 31  1  0  0  0  0
  8  9  1  0  0  0  0
  8 32  1  0  0  0  0
  8 33  1  0  0  0  0
  9 10  1  0  0  0  0
  9 34  1  0  0  0  0
  9 43  1  0  0  0  0
 10 11  1  0  0  0  0
 10 35  1  0  0  0  0
 10 36  1  0  0  0  0
 11 12  1  0  0  0  0
 11 13  1  0  0  0  0
 11 37  1  0  0  0  0
 12 38  1  0  0  0  0
 13 18  1  0  0  0  0
 13 14  2  0  0  0  0
 14 15  1  0  0  0  0
 14 39  1  0  0  0  0
 15 16  2  0  0  0  0
 15 40  1  0  0  0  0
 16 17  1  0  0  0  0
 17 18  2  0  0  0  0
 17 41  1  0  0  0  0
 18 42  1  0  0  0  0
M  CHG  1   9   1
M  END
> <s_m_source_file>
AV-unprocessed.smi

> <i_m_source_file_index>
3290

> <i_lp_mmshare_version>
43012

> <i_f3d_flags>
0

> <s_epik_input>
W0NIM11bQ0BASF0xW0NIMl1bQ0gyXVtDSDJdW0NIMl1bQ0BIXTFbQ0gyXVtOSF1bQ0gyXVtDQEhdKFtPSF0pYzJbY0hdW2NIXW5bY0hdW2NIXTI=

> <s_epik_cmdline>
J2VwaWtfcHl0aG9uJywgJy1waCcsICc3LjAnLCAnLXRuJywgJzgnLCAnLW1hJywgJzIwMCcsICctbWV0YWxfYmluZGluZycsICctaW1hZScsICc8aW5maWxlLm1hZT4nLCAnLW9tYWUnLCAnPG91dGZpbGUubWFlPic=

> <r_lp_tautomer_probability>
1

> <r_epik_Ionization_Penalty>
0.00420552

> <r_epik_Ionization_Penalty_Charging>
0.00207255

> <r_epik_Ionization_Penalty_Neutral>
0.00213297

> <r_epik_State_Penalty>
-0

> <r_epik_Charging_Adjusted_Penalty>
0.00207255

> <i_epik_Tot_Q>
1

> <i_epik_Tot_abs_Q>
1

> <r_epik_Metal_State_Penalty>
-0

> <b_epik_Metal_Only>
0

> <s_lp_Force_Field>
OPLS_2005

> <r_lp_Energy>
17.7323

> <b_lp_Chiralities_Consistent>
1

> <s_lp_Variant>
AV-unprocessed.smi:3290-5

> <Gold.Version>
5.8.1

> <Gold.Id.Protein>
6NUR|6NUR_protein|mol2

> <Gold.PLP.Fitness>
53.1204

> <Gold.PLP.PLP>
-43.7350

> <Gold.PLP.part.hbond>
-3.0000

> <Gold.PLP.part.metal>
0.0000

> <Gold.PLP.part.buried>
-1.9681

> <Gold.PLP.part.nonpolar>
-38.3025

> <Gold.PLP.part.repulsive>
0.2076

> <Gold.PLP.ligand.clash>
0.0000

> <Gold.PLP.ligand.torsion>
1.1142

> <Gold.PLP.Chemscore.Hbond>
3.8640

> <Gold.PLP.Chemscore.CHOScore>
0.0000

> <Gold.PLP.Chemscore.Metal>
0.0000

> <Gold.Chemscore.Hbonds>
donor molecule, donor type, donor heavy atom, donor atom, acceptor molecule, acceptor atom, score
      L1  H     9    43       P1  8028  2.00
      L1  H    12    38       P1  7957  1.00
      P1  H 10752 10765       L1    16  1.00

> <Gold.PLP.Chemscore.Internal.Correction>
0.0218

> <Gold.Rescore>
     Score         DG    S(hbond)    S(metal)    S(lipo)     H(rot)  DE(clash)    DE(int)     intcor
     23.64     -25.11       2.93        0.00     128.96       2.05       0.19       1.28       ----

> <Gold.Chemscore.Fitness>
23.6388

> <Gold.Chemscore.DG>
-25.1141

> <Gold.Chemscore.ZeroCoef>
-5.4800

> <Gold.Chemscore.Hbond>
2.9321

> <Gold.Chemscore.Metal>
0.0000

> <Gold.Chemscore.Lipo>
128.9589

> <Gold.Chemscore.Internal_Hbond>
0.0000

> <Gold.Chemscore.DEClash>
0.1939

> <Gold.Chemscore.DEInternal>
1.2813

> <Gold.Chemscore.Rot>
2.0498

> <Gold.Chemscore.Internal.Correction>
   9.000000E+99

> <Gold.Chemscore.Hbonds>
donor molecule, donor type, donor heavy atom, donor atom, acceptor molecule, acceptor atom, score
      L1  H     9    43       P1  8028  1.00
      L1  H    12    38       P1  7957  0.97
      P1  H 10752 10765       L1    16  0.85

> <Gold.Chemscore.Hbond.Weighted>
-9.7934

> <Gold.Chemscore.Metal.Weighted>
-0.0000

> <Gold.Chemscore.Lipo.Weighted>
-15.0882

> <Gold.Chemscore.Internal_Hbond.Weighted>
0.0000

> <Gold.Chemscore.DEClash.Weighted>
0.1939

> <Gold.Chemscore.DEInternal.Weighted>
1.2813

> <Gold.Chemscore.Rot.Weighted>
5.2475

> <Gold.Chemscore.Internal.Correction.Weighted>
   9.000000E+99

> <Gold.Protein.RotatedTorsions>
[ 6907 6896 6895 6894 ] final   10.99 input  -60.11 | X-H torsion
[ 7974 7965 7964 7962 ] final  172.18 input  175.53 | X-H torsion
[ 8008 7997 7996 7995 ] final  141.71 input   59.86 | X-H torsion
[ 10167 10162 10161 10158 ] final  -31.58 input  -65.29 | X-H torsion
[ 10718 10713 10712 10709 ] final -135.27 input   66.30 | X-H torsion
[ 10763 10752 10751 10750 ] final  171.68 input  -60.55 | X-H torsion
[ 11005 11000 10999 10996 ] final   22.26 input  -57.11 | X-H torsion

> <Gold.Protein.ActiveResidues>
 VAL166  LYS551  ARG553  GLY616  TRP617  ASP618  TYR619  PRO620  LYS621  CYS622 
 ASP623  PHE694  ASN695  SER759  ASP760  ASP761  ALA762  ILE779  LEU786  VAL792 
 PHE793  MET794  SER795  GLU796  ALA797  LYS798  CYS799  TRP800  GLU811  SER814 

> <Gold.Protein.RotatedAtoms>
  151.7472  135.0841  160.0324 H   0  0  0  0  0  0  0  0  0  0  0  0  # atno 6907 bound_to 6896
  152.3441  133.6097  159.5906 H   0  0  0  0  0  0  0  0  0  0  0  0  # atno 6908 bound_to 6896
  150.7497  133.9593  159.3552 H   0  0  0  0  0  0  0  0  0  0  0  0  # atno 6909 bound_to 6896
  144.7275  139.9460  143.6430 H   0  0  0  0  0  0  0  0  0  0  0  0  # atno 7974 bound_to 7965
  156.2961  140.2308  156.4609 H   0  0  0  0  0  0  0  0  0  0  0  0  # atno 8008 bound_to 7997
  154.8019  140.0448  157.1300 H   0  0  0  0  0  0  0  0  0  0  0  0  # atno 8009 bound_to 7997
  154.9523  140.3043  155.5073 H   0  0  0  0  0  0  0  0  0  0  0  0  # atno 8010 bound_to 7997
  140.7234  143.3760  151.1689 H   0  0  0  0  0  0  0  0  0  0  0  0  # atno 10167 bound_to 10162
  156.2643  130.7228  151.1173 H   0  0  0  0  0  0  0  0  0  0  0  0  # atno 10718 bound_to 10713
  154.4153  135.2757  155.2010 H   0  0  0  0  0  0  0  0  0  0  0  0  # atno 10763 bound_to 10752
  154.3979  135.6051  153.5884 H   0  0  0  0  0  0  0  0  0  0  0  0  # atno 10764 bound_to 10752
  152.9832  135.5919  154.4441 H   0  0  0  0  0  0  0  0  0  0  0  0  # atno 10765 bound_to 10752
  140.3825  134.1905  155.7663 H   0  0  0  0  0  0  0  0  0  0  0  0  # atno 11005 bound_to 11000
  146.0748  139.3736  143.0501 LP  0  0  0  0  0  0  0  0  0  0  0  0  # atno 17320 bound_to 7965
  145.7920  140.9810  143.1044 LP  0  0  0  0  0  0  0  0  0  0  0  0  # atno 17321 bound_to 7965
  139.7340  143.9028  152.3029 LP  0  0  0  0  0  0  0  0  0  0  0  0  # atno 17342 bound_to 10162
  139.8827  144.7009  150.8860 LP  0  0  0  0  0  0  0  0  0  0  0  0  # atno 17343 bound_to 10162
  157.7262  131.0648  150.5921 LP  0  0  0  0  0  0  0  0  0  0  0  0  # atno 17370 bound_to 10713
  156.6011  130.4355  149.5896 LP  0  0  0  0  0  0  0  0  0  0  0  0  # atno 17371 bound_to 10713
  141.1918  133.8186  157.0863 LP  0  0  0  0  0  0  0  0  0  0  0  0  # atno 17394 bound_to 11000
  140.0467  134.9826  157.1062 LP  0  0  0  0  0  0  0  0  0  0  0  0  # atno 17395 bound_to 11000

$$$$
