AV-unprocessed.smi:3210|AV-procd|sdf|12273|dock7
  -GOLD-   2272018113D 1   1.00000     0.00000
 Structure written by MMmdl.
 34 35  0  0  0  0  0  0  0  0  1 V2000
  153.2399  136.6005  160.1814 O   0  0  0  0  0  0  0  0  0  0  0  0
  153.8497  137.5084  160.7473 C   0  0  0  0  0  0  0  0  0  0  0  0
  154.1167  138.8219  160.0135 C   0  0  0  0  0  0  0  0  0  0  0  0
  153.5550  139.9638  160.7396 N   0  0  0  0  0  0  0  0  0  0  0  0
  153.4320  141.1209  159.8647 C   0  0  0  0  0  0  0  0  0  0  0  0
  152.7348  142.2781  160.5996 C   0  0  0  0  0  0  0  0  0  0  0  0
  152.1621  143.2475  159.6821 N   0  0  0  0  0  0  0  0  0  0  0  0
  152.7932  143.9506  158.6775 C   0  0  0  0  0  0  0  0  0  0  0  0
  151.8551  144.7498  158.0894 C   0  0  0  0  0  0  0  0  0  0  0  0
  150.6639  144.4605  158.8124 C   0  0  0  0  0  0  0  0  0  0  0  0
  150.8509  143.5610  159.7645 N   0  0  0  0  0  0  0  0  0  0  0  0
  154.3093  137.4181  162.0044 N   0  0  0  0  0  0  0  0  0  0  0  0
  154.1540  136.2566  162.8706 C   0  0  0  0  0  0  0  0  0  0  0  0
  154.5527  136.4770  164.3178 C   0  0  0  0  0  0  0  0  0  0  0  0
  154.8506  137.8618  164.8428 C   0  0  0  0  0  0  0  0  0  0  0  0
  155.9699  136.8632  164.6698 C   0  0  0  0  0  0  0  0  0  0  0  0
  155.1958  138.9444  159.9098 H   0  0  0  0  0  0  0  0  0  0  0  0
  153.6964  138.7818  159.0069 H   0  0  0  0  0  0  0  0  0  0  0  0
  154.1293  140.2101  161.5341 H   0  0  0  0  0  0  0  0  0  0  0  0
  154.4159  141.4406  159.5175 H   0  0  0  0  0  0  0  0  0  0  0  0
  152.8524  140.8438  158.9832 H   0  0  0  0  0  0  0  0  0  0  0  0
  151.9268  141.8854  161.2180 H   0  0  0  0  0  0  0  0  0  0  0  0
  153.4264  142.7824  161.2769 H   0  0  0  0  0  0  0  0  0  0  0  0
  153.8459  143.8271  158.4695 H   0  0  0  0  0  0  0  0  0  0  0  0
  151.9979  145.4368  157.2686 H   0  0  0  0  0  0  0  0  0  0  0  0
  149.6762  144.8752  158.6748 H   0  0  0  0  0  0  0  0  0  0  0  0
  154.8029  138.2115  162.3872 H   0  0  0  0  0  0  0  0  0  0  0  0
  153.1172  135.9184  162.8422 H   0  0  0  0  0  0  0  0  0  0  0  0
  154.7504  135.4438  162.4551 H   0  0  0  0  0  0  0  0  0  0  0  0
  154.0724  135.7930  165.0152 H   0  0  0  0  0  0  0  0  0  0  0  0
  154.8044  138.6916  164.1403 H   0  0  0  0  0  0  0  0  0  0  0  0
  154.5333  138.0919  165.8579 H   0  0  0  0  0  0  0  0  0  0  0  0
  156.3998  136.4285  165.5699 H   0  0  0  0  0  0  0  0  0  0  0  0
  156.6689  137.0302  163.8526 H   0  0  0  0  0  0  0  0  0  0  0  0
  1  2  2  0  0  0  0
  2  3  1  0  0  0  0
  2 12  1  0  0  0  0
  3  4  1  0  0  0  0
  3 17  1  0  0  0  0
  3 18  1  0  0  0  0
  4  5  1  0  0  0  0
  4 19  1  0  0  0  0
  5  6  1  0  0  0  0
  5 20  1  0  0  0  0
  5 21  1  0  0  0  0
  6  7  1  0  0  0  0
  6 22  1  0  0  0  0
  6 23  1  0  0  0  0
  7 11  1  0  0  0  0
  7  8  1  0  0  0  0
  8  9  2  0  0  0  0
  8 24  1  0  0  0  0
  9 10  1  0  0  0  0
  9 25  1  0  0  0  0
 10 11  2  0  0  0  0
 10 26  1  0  0  0  0
 12 13  1  0  0  0  0
 12 27  1  0  0  0  0
 13 14  1  0  0  0  0
 13 28  1  0  0  0  0
 13 29  1  0  0  0  0
 14 16  1  0  0  0  0
 14 15  1  0  0  0  0
 14 30  1  0  0  0  0
 15 16  1  0  0  0  0
 15 31  1  0  0  0  0
 15 32  1  0  0  0  0
 16 33  1  0  0  0  0
 16 34  1  0  0  0  0
M  END
> <s_m_source_file>
AV-unprocessed.smi

> <i_m_source_file_index>
3210

> <i_lp_mmshare_version>
43012

> <i_f3d_flags>
0

> <s_epik_input>
W0NIMl0xW0NIMl1bQ0hdMVtDSDJdW05IXUMoPU8pW0NIMl1bTkhdW0NIMl1bQ0gyXW4yW2NIXVtjSF1bY0hdbjI=

> <s_epik_cmdline>
J2VwaWtfcHl0aG9uJywgJy1waCcsICc3LjAnLCAnLXRuJywgJzgnLCAnLW1hJywgJzIwMCcsICctbWV0YWxfYmluZGluZycsICctaW1hZScsICc8aW5maWxlLm1hZT4nLCAnLW9tYWUnLCAnPG91dGZpbGUubWFlPic=

> <r_lp_tautomer_probability>
1

> <r_epik_Ionization_Penalty>
0.724936

> <r_epik_Ionization_Penalty_Charging>
0

> <r_epik_Ionization_Penalty_Neutral>
0.724936

> <r_epik_State_Penalty>
0.747957

> <r_epik_Charging_Adjusted_Penalty>
0.747957

> <i_epik_Tot_Q>
0

> <i_epik_Tot_abs_Q>
0

> <r_epik_Metal_State_Penalty>
0.746186

> <b_epik_Metal_Only>
0

> <s_lp_Force_Field>
OPLS_2005

> <r_lp_Energy>
13.4578

> <b_lp_Chiralities_Consistent>
1

> <s_lp_Variant>
AV-unprocessed.smi:3210-2

> <Gold.Version>
5.8.1

> <Gold.Id.Protein>
6NUR|6NUR_protein|mol2

> <Gold.PLP.Fitness>
43.0952

> <Gold.PLP.PLP>
-37.6746

> <Gold.PLP.part.hbond>
-1.1939

> <Gold.PLP.part.metal>
0.0000

> <Gold.PLP.part.buried>
-5.1086

> <Gold.PLP.part.nonpolar>
-31.6230

> <Gold.PLP.part.repulsive>
0.0722

> <Gold.PLP.ligand.clash>
0.0000

> <Gold.PLP.ligand.torsion>
0.5995

> <Gold.PLP.Chemscore.Hbond>
1.0000

> <Gold.PLP.Chemscore.CHOScore>
0.9932

> <Gold.PLP.Chemscore.Metal>
0.0000

> <Gold.Chemscore.Hbonds>
donor molecule, donor type, donor heavy atom, donor atom, acceptor molecule, acceptor atom, score
      P1  H  6896  6908       L1     1  1.00
      L1  C    10    26       P1  8029  1.00

> <Gold.PLP.Chemscore.Internal.Correction>
0.6399

> <Gold.Rescore>
     Score         DG    S(hbond)    S(metal)    S(lipo)     H(rot)  DE(clash)    DE(int)     intcor
     13.82     -14.58       1.00        0.00      98.97       2.27       0.01       0.75       ----

> <Gold.Chemscore.Fitness>
13.8240

> <Gold.Chemscore.DG>
-14.5801

> <Gold.Chemscore.ZeroCoef>
-5.4800

> <Gold.Chemscore.Hbond>
1.0000

> <Gold.Chemscore.Metal>
0.0000

> <Gold.Chemscore.Lipo>
98.9741

> <Gold.Chemscore.Internal_Hbond>
0.0000

> <Gold.Chemscore.DEClash>
0.0096

> <Gold.Chemscore.DEInternal>
0.7464

> <Gold.Chemscore.Rot>
2.2734

> <Gold.Chemscore.Internal.Correction>
   9.000000E+99

> <Gold.Chemscore.Hbonds>
donor molecule, donor type, donor heavy atom, donor atom, acceptor molecule, acceptor atom, score
      P1  H  6896  6908       L1     1  0.99

> <Gold.Chemscore.Hbond.Weighted>
-3.3400

> <Gold.Chemscore.Metal.Weighted>
-0.0000

> <Gold.Chemscore.Lipo.Weighted>
-11.5800

> <Gold.Chemscore.Internal_Hbond.Weighted>
0.0000

> <Gold.Chemscore.DEClash.Weighted>
0.0096

> <Gold.Chemscore.DEInternal.Weighted>
0.7464

> <Gold.Chemscore.Rot.Weighted>
5.8199

> <Gold.Chemscore.Internal.Correction.Weighted>
   9.000000E+99

> <Gold.Protein.RotatedTorsions>
[ 6907 6896 6895 6894 ] final  -87.65 input  -60.11 | X-H torsion
[ 7974 7965 7964 7962 ] final  -11.57 input  175.53 | X-H torsion
[ 8008 7997 7996 7995 ] final -169.71 input   59.86 | X-H torsion
[ 10167 10162 10161 10158 ] final -129.92 input  -65.29 | X-H torsion
[ 10718 10713 10712 10709 ] final  109.96 input   66.30 | X-H torsion
[ 10763 10752 10751 10750 ] final   -8.28 input  -60.55 | X-H torsion
[ 11005 11000 10999 10996 ] final -120.58 input  -57.11 | X-H torsion

> <Gold.Protein.ActiveResidues>
 VAL166  LYS551  ARG553  GLY616  TRP617  ASP618  TYR619  PRO620  LYS621  CYS622 
 ASP623  PHE694  ASN695  SER759  ASP760  ASP761  ALA762  ILE779  LEU786  VAL792 
 PHE793  MET794  SER795  GLU796  ALA797  LYS798  CYS799  TRP800  GLU811  SER814 

> <Gold.Protein.RotatedAtoms>
  150.6867  134.2864  159.4648 H   0  0  0  0  0  0  0  0  0  0  0  0  # atno 6907 bound_to 6896
  152.0773  134.9492  160.0583 H   0  0  0  0  0  0  0  0  0  0  0  0  # atno 6908 bound_to 6896
  152.0858  133.4141  159.4558 H   0  0  0  0  0  0  0  0  0  0  0  0  # atno 6909 bound_to 6896
  146.2183  140.2931  142.8370 H   0  0  0  0  0  0  0  0  0  0  0  0  # atno 7974 bound_to 7965
  155.9087  140.1053  157.1296 H   0  0  0  0  0  0  0  0  0  0  0  0  # atno 8008 bound_to 7997
  154.4036  140.1278  156.4593 H   0  0  0  0  0  0  0  0  0  0  0  0  # atno 8009 bound_to 7997
  155.7336  140.3468  155.5073 H   0  0  0  0  0  0  0  0  0  0  0  0  # atno 8010 bound_to 7997
  139.9348  143.6231  152.2520 H   0  0  0  0  0  0  0  0  0  0  0  0  # atno 10167 bound_to 10162
  157.6517  131.0924  150.6531 H   0  0  0  0  0  0  0  0  0  0  0  0  # atno 10718 bound_to 10713
  153.4383  135.7013  153.6186 H   0  0  0  0  0  0  0  0  0  0  0  0  # atno 10763 bound_to 10752
  153.4571  135.3744  155.2317 H   0  0  0  0  0  0  0  0  0  0  0  0  # atno 10764 bound_to 10752
  154.8727  135.4011  154.3777 H   0  0  0  0  0  0  0  0  0  0  0  0  # atno 10765 bound_to 10752
  141.0133  134.0232  157.3384 H   0  0  0  0  0  0  0  0  0  0  0  0  # atno 11005 bound_to 11000
  144.9112  140.7759  143.5806 LP  0  0  0  0  0  0  0  0  0  0  0  0  # atno 17320 bound_to 7965
  145.2862  139.1900  143.4765 LP  0  0  0  0  0  0  0  0  0  0  0  0  # atno 17321 bound_to 7965
  139.6753  144.7659  151.1708 LP  0  0  0  0  0  0  0  0  0  0  0  0  # atno 17342 bound_to 10162
  140.7627  143.5805  150.8900 LP  0  0  0  0  0  0  0  0  0  0  0  0  # atno 17343 bound_to 10162
  156.6842  130.4576  149.5619 LP  0  0  0  0  0  0  0  0  0  0  0  0  # atno 17370 bound_to 10713
  156.1908  130.6558  151.1058 LP  0  0  0  0  0  0  0  0  0  0  0  0  # atno 17371 bound_to 10713
  139.9102  135.0188  156.7660 LP  0  0  0  0  0  0  0  0  0  0  0  0  # atno 17394 bound_to 11000
  140.6697  133.9571  155.7849 LP  0  0  0  0  0  0  0  0  0  0  0  0  # atno 17395 bound_to 11000

$$$$
