#       Name:                AV-unprocessed.smi:3052
#       Creating user name   scv26
#       Creation time:       Fri Mar 27 17:02:56 2020


#       File generated by GOLD software.
#

@<TRIPOS>MOLECULE
AV-unprocessed.smi:3052
    48    50     1
SMALL
NO_CHARGES


@<TRIPOS>ATOM
      1 ****        -2.3311   1.8164  -2.4703 C.3            1 S1                 0.0000
      2 ****        -2.8841   1.7212  -1.0755 C.2            1 S1                 0.0000
      3 ****        -3.9858   2.3915  -0.7719 N.2            1 S1                 0.0000
      4 ****        -4.3025   2.0657   0.5559 O.3            1 S1                 0.0000
      5 ****        -3.3691   1.2015   1.0335 C.2            1 S1                 0.0000
      6 ****        -3.5526   0.7240   2.4370 C.3            1 S1                 0.0000
      7 ****        -3.2090   1.6095   3.6084 C.3            1 S1                 0.0000
      8 ****        -2.3804   0.3759   3.3236 C.3            1 S1                 0.0000
      9 ****        -2.4476   0.9695   0.0544 C.2            1 S1                 0.0000
     10 ****        -1.3469   0.0854   0.1729 N.am           1 S1                 0.0000
     11 ****        -0.1109   0.2741  -0.3123 C.2            1 S1                 0.0000
     12 ****         0.2402   1.2539  -0.9683 O.2            1 S1                 0.0000
     13 ****         0.7012  -0.7385   0.0332 N.am           1 S1                 0.0000
     14 ****         2.1227  -0.9213  -0.2852 C.3            1 S1                 0.0000
     15 ****         2.4964  -2.2723   0.3727 C.3            1 S1                 0.0000
     16 ****         2.9340   0.2133   0.3977 C.3            1 S1                 0.0000
     17 ****         4.3295   0.0133   0.2889 O.3            1 S1                 0.0000
     18 ****         2.3832  -0.9045  -1.8018 C.3            1 S1                 0.0000
     19 ****         2.1060  -2.0769  -2.7134 C.3            1 S1                 0.0000
     20 ****         3.5324  -1.6200  -2.4757 C.3            1 S1                 0.0000
     21 ****        -1.8547   0.8835  -2.7713 H              1 S1                 0.0000
     22 ****        -1.5893   2.6117  -2.5432 H              1 S1                 0.0000
     23 ****        -3.1155   2.0287  -3.1975 H              1 S1                 0.0000
     24 ****        -4.4433   0.1051   2.5244 H              1 S1                 0.0000
     25 ****        -2.7566   2.5763   3.3963 H              1 S1                 0.0000
     26 ****        -3.8732   1.5834   4.4697 H              1 S1                 0.0000
     27 ****        -2.4940  -0.4720   3.9957 H              1 S1                 0.0000
     28 ****        -1.3747   0.5351   2.9402 H              1 S1                 0.0000
     29 ****        -1.4755  -0.7018   0.7914 H              1 S1                 0.0000
     30 ****         0.2874  -1.4784   0.5811 H              1 S1                 0.0000
     31 ****         3.5458  -2.5315   0.2368 H              1 S1                 0.0000
     32 ****         1.9000  -3.0969  -0.0175 H              1 S1                 0.0000
     33 ****         2.3223  -2.2418   1.4492 H              1 S1                 0.0000
     34 ****         2.7024   1.1844  -0.0405 H              1 S1                 0.0000
     35 ****         2.6842   0.2796   1.4575 H              1 S1                 0.0000
     36 ****         4.7704   0.7395   0.7025 H              1 S1                 0.0000
     37 ****         2.1656   0.0659  -2.2433 H              1 S1                 0.0000
     38 ****         1.8046  -3.0248  -2.2746 H              1 S1                 0.0000
     39 ****         1.6640  -1.8576  -3.6831 H              1 S1                 0.0000
     40 ****         4.0327  -1.0995  -3.2897 H              1 S1                 0.0000
     41 ****         4.1727  -2.2714  -1.8867 H              1 S1                 0.0000
     42 ****        -4.4932   3.0096  -1.3723 LP             1 S1                 0.0000
     43 ****        -5.2052   1.6368   0.5898 LP             1 S1                 0.0000
     44 ****        -4.3070   2.8961   1.1130 LP             1 S1                 0.0000
     45 ****        -0.4163   1.9800  -1.1729 LP             1 S1                 0.0000
     46 ****         1.1820   1.3242  -1.2969 LP             1 S1                 0.0000
     47 ****         4.5891  -0.0336  -0.6757 LP             1 S1                 0.0000
     48 ****         4.5843  -0.8396   0.7445 LP             1 S1                 0.0000
@<TRIPOS>BOND
    1    1    2 1     
    2    1   21 1     
    3    1   22 1     
    4    1   23 1     
    5    2    9 1     
    6    2    3 2     
    7    3    4 1     
    8    4    5 1     
    9    5    6 1     
   10    5    9 2     
   11    6    8 1     
   12    6    7 1     
   13    6   24 1     
   14    7    8 1     
   15    7   25 1     
   16    7   26 1     
   17    8   27 1     
   18    8   28 1     
   19    9   10 1     
   20   10   11 am    
   21   10   29 1     
   22   11   12 2     
   23   11   13 am    
   24   13   14 1     
   25   13   30 1     
   26   14   15 1     
   27   14   16 1     
   28   14   18 1     
   29   15   31 1     
   30   15   32 1     
   31   15   33 1     
   32   16   17 1     
   33   16   34 1     
   34   16   35 1     
   35   17   36 1     
   36   18   20 1     
   37   18   19 1     
   38   18   37 1     
   39   19   20 1     
   40   19   38 1     
   41   19   39 1     
   42   20   40 1     
   43   20   41 1     
   44    3   42 1     
   45    4   43 1     
   46    4   44 1     
   47   12   45 1     
   48   12   46 1     
   49   17   47 1     
   50   17   48 1     
@<TRIPOS>SUBSTRUCTURE
      1 S1             1
@<TRIPOS>SET
LONE_PAIRS      STATIC     ATOMS    <user>   **** ""
7 42 43 44 45 46 47 48
DONOR_HYDROGENS      STATIC     ATOMS    <user>   **** ""
3 29 30 36
ATOM$BLUE        STATIC     ATOMS    COLORGROUP SYSTEM
7 42 43 44 45 46 47 48
ATOM$RED        STATIC     ATOMS    COLORGROUP SYSTEM
3 29 30 36
