AV-unprocessed.smi:2747|AV-procd|sdf|10579|dock3
  -GOLD-   2272015 33D 1   1.00000     0.00000
 Structure written by MMmdl.
 23 24  0  0  0  0  0  0  0  0  2 V2000
  152.9184  137.0217  161.1519 O   0  5  0  0  0  0  0  0  0  0  0  0
  153.6144  138.0714  161.5204 C   0  0  2  0  0  0  0  0  0  0  0  0
  154.3177  138.6370  160.2552 C   0  0  0  0  0  0  0  0  0  0  0  0
  153.5815  139.6983  159.5718 N   0  0  0  0  0  0  0  0  0  0  0  0
  153.1278  139.4980  158.2985 N   0  0  0  0  0  0  0  0  0  0  0  0
  152.4831  140.5584  157.9118 N   0  0  0  0  0  0  0  0  0  0  0  0
  152.5025  141.4738  158.9507 C   0  0  0  0  0  0  0  0  0  0  0  0
  151.9561  142.7709  159.0734 C   0  0  0  0  0  0  0  0  0  0  0  0
  152.1201  143.5049  160.2690 C   0  0  0  0  0  0  0  0  0  0  0  0
  151.4352  145.0874  160.3809 Cl  0  0  0  0  0  0  0  0  0  0  0  0
  152.8347  142.9481  161.3571 C   0  0  0  0  0  0  0  0  0  0  0  0
  153.0450  143.8324  162.8266 Cl  0  0  0  0  0  0  0  0  0  0  0  0
  153.3836  141.6552  161.2488 C   0  0  0  0  0  0  0  0  0  0  0  0
  153.2093  140.9419  160.0506 C   0  0  0  0  0  0  0  0  0  0  0  0
  154.6469  137.6052  162.5754 C   0  0  0  0  0  0  0  0  0  0  0  0
  155.4354  136.6566  162.0665 F   0  0  0  0  0  0  0  0  0  0  0  0
  155.4033  138.6182  163.0054 F   0  0  0  0  0  0  0  0  0  0  0  0
  154.0102  137.0846  163.6255 F   0  0  0  0  0  0  0  0  0  0  0  0
  153.1083  138.9251  161.9742 H   0  0  0  0  0  0  0  0  0  0  0  0
  155.2995  139.0299  160.5228 H   0  0  0  0  0  0  0  0  0  0  0  0
  154.5056  137.8397  159.5343 H   0  0  0  0  0  0  0  0  0  0  0  0
  151.4083  143.2006  158.2478 H   0  0  0  0  0  0  0  0  0  0  0  0
  153.9349  141.2178  162.0685 H   0  0  0  0  0  0  0  0  0  0  0  0
  1  2  1  0  0  0  0
  2  3  1  0  0  0  0
  2 15  1  0  0  0  0
  2 19  1  0  0  0  0
  3  4  1  0  0  0  0
  3 20  1  0  0  0  0
  3 21  1  0  0  0  0
  4 14  1  0  0  0  0
  4  5  1  0  0  0  0
  5  6  2  0  0  0  0
  6  7  1  0  0  0  0
  7 14  2  0  0  0  0
  7  8  1  0  0  0  0
  8  9  2  0  0  0  0
  8 22  1  0  0  0  0
  9 10  1  0  0  0  0
  9 11  1  0  0  0  0
 11 12  1  0  0  0  0
 11 13  2  0  0  0  0
 13 14  1  0  0  0  0
 13 23  1  0  0  0  0
 15 16  1  0  0  0  0
 15 17  1  0  0  0  0
 15 18  1  0  0  0  0
M  CHG  1   1  -1
M  END
> <s_m_source_file>
AV-unprocessed.smi

> <i_m_source_file_index>
2747

> <i_lp_mmshare_version>
43012

> <i_f3d_flags>
0

> <s_epik_input>
RkMoRikoRilbQ0BIXShbT0hdKVtDSDJdbihubjEpYyhjMTIpW2NIXWMoQ2wpYyhDbClbY0hdMg==

> <s_epik_cmdline>
J2VwaWtfcHl0aG9uJywgJy1waCcsICc3LjAnLCAnLXRuJywgJzgnLCAnLW1hJywgJzIwMCcsICctbWV0YWxfYmluZGluZycsICctaW1hZScsICc8aW5maWxlLm1hZT4nLCAnLW9tYWUnLCAnPG91dGZpbGUubWFlPic=

> <r_lp_tautomer_probability>
1

> <r_epik_Ionization_Penalty>
1.2724

> <r_epik_Ionization_Penalty_Charging>
1.2724

> <r_epik_Ionization_Penalty_Neutral>
1.57383e-10

> <r_epik_State_Penalty>
1.34397

> <r_epik_Charging_Adjusted_Penalty>
2.61637

> <i_epik_Tot_Q>
-1

> <i_epik_Tot_abs_Q>
1

> <r_epik_Metal_State_Penalty>
1.34397

> <b_epik_Metal_Only>
0

> <s_lp_Force_Field>
OPLS_2005

> <r_lp_Energy>
12.5023

> <b_lp_Chiralities_Consistent>
1

> <s_lp_Variant>
AV-unprocessed.smi:2747-3

> <Gold.Version>
5.8.1

> <Gold.Id.Protein>
6NUR|6NUR_protein|mol2

> <Gold.PLP.Fitness>
44.5141

> <Gold.PLP.PLP>
-37.1290

> <Gold.PLP.part.hbond>
-2.6446

> <Gold.PLP.part.metal>
0.0000

> <Gold.PLP.part.buried>
-2.5696

> <Gold.PLP.part.nonpolar>
-31.9284

> <Gold.PLP.part.repulsive>
0.0000

> <Gold.PLP.ligand.clash>
0.0000

> <Gold.PLP.ligand.torsion>
0.4385

> <Gold.PLP.Chemscore.Hbond>
2.7500

> <Gold.PLP.Chemscore.CHOScore>
0.0000

> <Gold.PLP.Chemscore.Metal>
0.0000

> <Gold.Chemscore.Hbonds>
donor molecule, donor type, donor heavy atom, donor atom, acceptor molecule, acceptor atom, score
      P1  H  6896  6907       L1     1  0.06
      P1  H  7997  8009       L1     5  0.14

> <Gold.PLP.Chemscore.Internal.Correction>
0.0121

> <Gold.Rescore>
     Score         DG    S(hbond)    S(metal)    S(lipo)     H(rot)  DE(clash)    DE(int)     intcor
     16.82     -17.51       1.07        0.00     101.68       1.35       0.27       0.43       ----

> <Gold.Chemscore.Fitness>
16.8217

> <Gold.Chemscore.DG>
-17.5146

> <Gold.Chemscore.ZeroCoef>
-5.4800

> <Gold.Chemscore.Hbond>
1.0739

> <Gold.Chemscore.Metal>
0.0000

> <Gold.Chemscore.Lipo>
101.6842

> <Gold.Chemscore.Internal_Hbond>
0.0000

> <Gold.Chemscore.DEClash>
0.2661

> <Gold.Chemscore.DEInternal>
0.4268

> <Gold.Chemscore.Rot>
1.3474

> <Gold.Chemscore.Internal.Correction>
   9.000000E+99

> <Gold.Chemscore.Hbonds>
donor molecule, donor type, donor heavy atom, donor atom, acceptor molecule, acceptor atom, score
      P1  H  6896  6907       L1     1  0.09

> <Gold.Chemscore.Hbond.Weighted>
-3.5869

> <Gold.Chemscore.Metal.Weighted>
-0.0000

> <Gold.Chemscore.Lipo.Weighted>
-11.8970

> <Gold.Chemscore.Internal_Hbond.Weighted>
0.0000

> <Gold.Chemscore.DEClash.Weighted>
0.2661

> <Gold.Chemscore.DEInternal.Weighted>
0.4268

> <Gold.Chemscore.Rot.Weighted>
3.4494

> <Gold.Chemscore.Internal.Correction.Weighted>
   9.000000E+99

> <Gold.Protein.RotatedTorsions>
[ 6907 6896 6895 6894 ] final   22.07 input  -60.11 | X-H torsion
[ 7974 7965 7964 7962 ] final -137.39 input  175.53 | X-H torsion
[ 8008 7997 7996 7995 ] final  171.26 input   59.86 | X-H torsion
[ 10167 10162 10161 10158 ] final   99.04 input  -65.29 | X-H torsion
[ 10718 10713 10712 10709 ] final  131.09 input   66.30 | X-H torsion
[ 10763 10752 10751 10750 ] final   97.25 input  -60.55 | X-H torsion
[ 11005 11000 10999 10996 ] final   89.33 input  -57.11 | X-H torsion

> <Gold.Protein.ActiveResidues>
 VAL166  LYS551  ARG553  GLY616  TRP617  ASP618  TYR619  PRO620  LYS621  CYS622 
 ASP623  PHE694  ASN695  SER759  ASP760  ASP761  ALA762  ILE779  LEU786  VAL792 
 PHE793  MET794  SER795  GLU796  ALA797  LYS798  CYS799  TRP800  GLU811  SER814 

> <Gold.Protein.RotatedAtoms>
  151.9215  135.0296  160.0522 H   0  0  0  0  0  0  0  0  0  0  0  0  # atno 6907 bound_to 6896
  152.2195  133.4968  159.5163 H   0  0  0  0  0  0  0  0  0  0  0  0  # atno 6908 bound_to 6896
  150.6996  134.1278  159.4101 H   0  0  0  0  0  0  0  0  0  0  0  0  # atno 6909 bound_to 6896
  144.8846  140.6556  143.5184 H   0  0  0  0  0  0  0  0  0  0  0  0  # atno 7974 bound_to 7965
  156.1288  140.1516  156.9096 H   0  0  0  0  0  0  0  0  0  0  0  0  # atno 8008 bound_to 7997
  154.4892  140.0856  156.7597 H   0  0  0  0  0  0  0  0  0  0  0  0  # atno 8009 bound_to 7997
  155.4294  140.3426  155.4281 H   0  0  0  0  0  0  0  0  0  0  0  0  # atno 8010 bound_to 7997
  139.7653  144.6941  151.0233 H   0  0  0  0  0  0  0  0  0  0  0  0  # atno 10167 bound_to 10162
  157.5001  131.1094  150.9439 H   0  0  0  0  0  0  0  0  0  0  0  0  # atno 10718 bound_to 10713
  153.2747  135.4190  155.1021 H   0  0  0  0  0  0  0  0  0  0  0  0  # atno 10763 bound_to 10752
  154.8468  135.3480  154.6195 H   0  0  0  0  0  0  0  0  0  0  0  0  # atno 10764 bound_to 10752
  153.6615  135.7048  153.5233 H   0  0  0  0  0  0  0  0  0  0  0  0  # atno 10765 bound_to 10752
  139.8877  134.8545  156.3127 H   0  0  0  0  0  0  0  0  0  0  0  0  # atno 11005 bound_to 11000
  145.3893  139.1620  143.4238 LP  0  0  0  0  0  0  0  0  0  0  0  0  # atno 17320 bound_to 7965
  146.3016  140.3980  142.8702 LP  0  0  0  0  0  0  0  0  0  0  0  0  # atno 17321 bound_to 7965
  140.7810  143.4649  151.0225 LP  0  0  0  0  0  0  0  0  0  0  0  0  # atno 17342 bound_to 10162
  139.8335  143.7660  152.3180 LP  0  0  0  0  0  0  0  0  0  0  0  0  # atno 17343 bound_to 10162
  157.0113  130.5638  149.5321 LP  0  0  0  0  0  0  0  0  0  0  0  0  # atno 17370 bound_to 10713
  156.0224  130.5318  150.8312 LP  0  0  0  0  0  0  0  0  0  0  0  0  # atno 17371 bound_to 10713
  140.9840  133.7250  156.0713 LP  0  0  0  0  0  0  0  0  0  0  0  0  # atno 17394 bound_to 11000
  140.7713  134.3830  157.5507 LP  0  0  0  0  0  0  0  0  0  0  0  0  # atno 17395 bound_to 11000

$$$$
