AV-unprocessed.smi:2623|AV-procd|sdf|10232|dock1
  -GOLD-   2272014243D 1   1.00000     0.00000
 Structure written by MMmdl.
 41 43  0  0  0  0  0  0  0  0  2 V2000
  151.8247  136.9849  155.8712 O   0  0  0  0  0  0  0  0  0  0  0  0
  151.6703  137.5295  154.5774 C   0  0  0  0  0  0  0  0  0  0  0  0
  150.5123  138.4702  154.4675 C   0  0  0  0  0  0  0  0  0  0  0  0
  149.3735  138.2696  153.7439 N   0  3  0  0  0  0  0  0  0  0  0  0
  148.5248  139.3687  153.8795 C   0  0  0  0  0  0  0  0  0  0  0  0
  147.2684  139.6238  153.3386 C   0  0  0  0  0  0  0  0  0  0  0  0
  146.6713  140.8555  153.6792 C   0  0  0  0  0  0  0  0  0  0  0  0
  147.3210  141.7774  154.5259 C   0  0  0  0  0  0  0  0  0  0  0  0
  148.5946  141.5073  155.0684 C   0  0  0  0  0  0  0  0  0  0  0  0
  149.1771  140.2873  154.7271 C   0  0  0  0  0  0  0  0  0  0  0  0
  150.3961  139.6904  155.0670 N   0  0  0  0  0  0  0  0  0  0  0  0
  151.3228  140.4100  155.9551 C   0  0  0  0  0  0  0  0  0  0  0  0
  151.6231  139.6459  157.2607 C   0  0  1  0  0  0  0  0  0  0  0  0
  152.9732  139.2252  157.2441 O   0  0  0  0  0  0  0  0  0  0  0  0
  151.3948  140.5223  158.5026 C   0  0  0  0  0  0  0  0  0  0  0  0
  151.4693  141.8893  158.1196 O   0  0  0  0  0  0  0  0  0  0  0  0
  151.5261  142.8442  159.1122 C   0  0  0  0  0  0  0  0  0  0  0  0
  151.3597  144.1880  158.7172 C   0  0  0  0  0  0  0  0  0  0  0  0
  151.4034  145.2293  159.6643 C   0  0  0  0  0  0  0  0  0  0  0  0
  151.6155  144.9349  161.0235 C   0  0  0  0  0  0  0  0  0  0  0  0
  151.7842  143.5988  161.4322 C   0  0  0  0  0  0  0  0  0  0  0  0
  151.7398  142.5573  160.4846 C   0  0  0  0  0  0  0  0  0  0  0  0
  150.9926  137.0323  156.3175 H   0  0  0  0  0  0  0  0  0  0  0  0
  152.5875  138.0523  154.3056 H   0  0  0  0  0  0  0  0  0  0  0  0
  151.5363  136.7159  153.8640 H   0  0  0  0  0  0  0  0  0  0  0  0
  146.7696  138.9193  152.6894 H   0  0  0  0  0  0  0  0  0  0  0  0
  145.6959  141.0980  153.2831 H   0  0  0  0  0  0  0  0  0  0  0  0
  146.8324  142.7111  154.7646 H   0  0  0  0  0  0  0  0  0  0  0  0
  149.0837  142.2197  155.7166 H   0  0  0  0  0  0  0  0  0  0  0  0
  152.2447  140.5891  155.4004 H   0  0  0  0  0  0  0  0  0  0  0  0
  150.8990  141.3926  156.1670 H   0  0  0  0  0  0  0  0  0  0  0  0
  150.9832  138.7647  157.3162 H   0  0  0  0  0  0  0  0  0  0  0  0
  152.9953  138.2951  157.0790 H   0  0  0  0  0  0  0  0  0  0  0  0
  150.4396  140.2856  158.9748 H   0  0  0  0  0  0  0  0  0  0  0  0
  152.1845  140.3271  159.2302 H   0  0  0  0  0  0  0  0  0  0  0  0
  151.1957  144.4234  157.6758 H   0  0  0  0  0  0  0  0  0  0  0  0
  151.2740  146.2537  159.3471 H   0  0  0  0  0  0  0  0  0  0  0  0
  151.6489  145.7323  161.7513 H   0  0  0  0  0  0  0  0  0  0  0  0
  151.9479  143.3710  162.4751 H   0  0  0  0  0  0  0  0  0  0  0  0
  151.8732  141.5461  160.8375 H   0  0  0  0  0  0  0  0  0  0  0  0
  149.1968  137.4359  153.1983 H   0  0  0  0  0  0  0  0  0  0  0  0
  1  2  1  0  0  0  0
  1 23  1  0  0  0  0
  2  3  1  0  0  0  0
  2 24  1  0  0  0  0
  2 25  1  0  0  0  0
  3 11  1  0  0  0  0
  3  4  2  0  0  0  0
  4  5  1  0  0  0  0
  4 41  1  0  0  0  0
  5 10  2  0  0  0  0
  5  6  1  0  0  0  0
  6  7  2  0  0  0  0
  6 26  1  0  0  0  0
  7  8  1  0  0  0  0
  7 27  1  0  0  0  0
  8  9  2  0  0  0  0
  8 28  1  0  0  0  0
  9 10  1  0  0  0  0
  9 29  1  0  0  0  0
 10 11  1  0  0  0  0
 11 12  1  0  0  0  0
 12 13  1  0  0  0  0
 12 30  1  0  0  0  0
 12 31  1  0  0  0  0
 13 14  1  0  0  0  0
 13 15  1  0  0  0  0
 13 32  1  0  0  0  0
 14 33  1  0  0  0  0
 15 16  1  0  0  0  0
 15 34  1  0  0  0  0
 15 35  1  0  0  0  0
 16 17  1  0  0  0  0
 17 22  1  0  0  0  0
 17 18  2  0  0  0  0
 18 19  1  0  0  0  0
 18 36  1  0  0  0  0
 19 20  2  0  0  0  0
 19 37  1  0  0  0  0
 20 21  1  0  0  0  0
 20 38  1  0  0  0  0
 21 22  2  0  0  0  0
 21 39  1  0  0  0  0
 22 40  1  0  0  0  0
M  CHG  1   4   1
M  END
> <s_m_source_file>
AV-unprocessed.smi

> <i_m_source_file_index>
2623

> <i_lp_mmshare_version>
43012

> <i_f3d_flags>
0

> <s_epik_input>
W2NIXTFbY0hdW2NIXVtjSF1jKGMxMiluKGMobjIpW0NIMl1bT0hdKVtDSDJdW0NASF0oW09IXSlbQ0gyXU9jM1tjSF1bY0hdW2NIXVtjSF1bY0hdMw==

> <s_epik_cmdline>
J2VwaWtfcHl0aG9uJywgJy1waCcsICc3LjAnLCAnLXRuJywgJzgnLCAnLW1hJywgJzIwMCcsICctbWV0YWxfYmluZGluZycsICctaW1hZScsICc8aW5maWxlLm1hZT4nLCAnLW9tYWUnLCAnPG91dGZpbGUubWFlPic=

> <r_lp_tautomer_probability>
1

> <r_epik_Ionization_Penalty>
1.40416

> <r_epik_Ionization_Penalty_Charging>
1.4033

> <r_epik_Ionization_Penalty_Neutral>
0.000858184

> <r_epik_State_Penalty>
1.48564

> <r_epik_Charging_Adjusted_Penalty>
2.88894

> <i_epik_Tot_Q>
1

> <i_epik_Tot_abs_Q>
1

> <r_epik_Metal_State_Penalty>
5.52809

> <b_epik_Metal_Only>
0

> <s_lp_Force_Field>
OPLS_2005

> <r_lp_Energy>
19.2357

> <b_lp_Chiralities_Consistent>
1

> <s_lp_Variant>
AV-unprocessed.smi:2623-4

> <Gold.Version>
5.8.1

> <Gold.Id.Protein>
6NUR|6NUR_protein|mol2

> <Gold.PLP.Fitness>
61.0803

> <Gold.PLP.PLP>
-51.7227

> <Gold.PLP.part.hbond>
-3.9794

> <Gold.PLP.part.metal>
0.0000

> <Gold.PLP.part.buried>
1.8287

> <Gold.PLP.part.nonpolar>
-49.3728

> <Gold.PLP.part.repulsive>
0.0891

> <Gold.PLP.ligand.clash>
0.0000

> <Gold.PLP.ligand.torsion>
1.4390

> <Gold.PLP.Chemscore.Hbond>
4.0000

> <Gold.PLP.Chemscore.CHOScore>
0.0000

> <Gold.PLP.Chemscore.Metal>
0.0000

> <Gold.Chemscore.Hbonds>
donor molecule, donor type, donor heavy atom, donor atom, acceptor molecule, acceptor atom, score
      L1  H     4    41       P1  7948  2.00
      P1  H  7997  8009       L1    14  1.00
      P1  H 10752 10765       L1     1  0.15

> <Gold.PLP.Chemscore.Internal.Correction>
0.2355

> <Gold.Rescore>
     Score         DG    S(hbond)    S(metal)    S(lipo)     H(rot)  DE(clash)    DE(int)     intcor
     19.73     -21.68       2.72        0.00     129.44       3.13       0.33       1.63       ----

> <Gold.Chemscore.Fitness>
19.7280

> <Gold.Chemscore.DG>
-21.6822

> <Gold.Chemscore.ZeroCoef>
-5.4800

> <Gold.Chemscore.Hbond>
2.7161

> <Gold.Chemscore.Metal>
0.0000

> <Gold.Chemscore.Lipo>
129.4407

> <Gold.Chemscore.Internal_Hbond>
0.0000

> <Gold.Chemscore.DEClash>
0.3256

> <Gold.Chemscore.DEInternal>
1.6286

> <Gold.Chemscore.Rot>
3.1305

> <Gold.Chemscore.Internal.Correction>
   9.000000E+99

> <Gold.Chemscore.Hbonds>
donor molecule, donor type, donor heavy atom, donor atom, acceptor molecule, acceptor atom, score
      L1  H     4    41       P1  7948  0.99
      P1  H  7997  8009       L1    14  0.88

> <Gold.Chemscore.Hbond.Weighted>
-9.0718

> <Gold.Chemscore.Metal.Weighted>
-0.0000

> <Gold.Chemscore.Lipo.Weighted>
-15.1446

> <Gold.Chemscore.Internal_Hbond.Weighted>
0.0000

> <Gold.Chemscore.DEClash.Weighted>
0.3256

> <Gold.Chemscore.DEInternal.Weighted>
1.6286

> <Gold.Chemscore.Rot.Weighted>
8.0141

> <Gold.Chemscore.Internal.Correction.Weighted>
   9.000000E+99

> <Gold.Protein.RotatedTorsions>
[ 6907 6896 6895 6894 ] final  -53.72 input  -60.11 | X-H torsion
[ 7974 7965 7964 7962 ] final -172.58 input  175.53 | X-H torsion
[ 8008 7997 7996 7995 ] final  175.18 input   59.86 | X-H torsion
[ 10167 10162 10161 10158 ] final   99.32 input  -65.29 | X-H torsion
[ 10718 10713 10712 10709 ] final   42.46 input   66.30 | X-H torsion
[ 10763 10752 10751 10750 ] final -161.99 input  -60.55 | X-H torsion
[ 11005 11000 10999 10996 ] final  178.05 input  -57.11 | X-H torsion

> <Gold.Protein.ActiveResidues>
 VAL166  LYS551  ARG553  GLY616  TRP617  ASP618  TYR619  PRO620  LYS621  CYS622 
 ASP623  PHE694  ASN695  SER759  ASP760  ASP761  ALA762  ILE779  LEU786  VAL792 
 PHE793  MET794  SER795  GLU796  ALA797  LYS798  CYS799  TRP800  GLU811  SER814 

> <Gold.Protein.RotatedAtoms>
  150.8401  134.7690  159.6925 H   0  0  0  0  0  0  0  0  0  0  0  0  # atno 6907 bound_to 6896
  152.4490  134.5430  159.9854 H   0  0  0  0  0  0  0  0  0  0  0  0  # atno 6908 bound_to 6896
  151.5571  133.3371  159.3000 H   0  0  0  0  0  0  0  0  0  0  0  0  # atno 6909 bound_to 6896
  144.7145  140.1750  143.6364 H   0  0  0  0  0  0  0  0  0  0  0  0  # atno 7974 bound_to 7965
  156.0897  140.1415  156.9607 H   0  0  0  0  0  0  0  0  0  0  0  0  # atno 8008 bound_to 7997
  154.4634  140.0935  156.7003 H   0  0  0  0  0  0  0  0  0  0  0  0  # atno 8009 bound_to 7997
  155.4939  140.3449  155.4362 H   0  0  0  0  0  0  0  0  0  0  0  0  # atno 8010 bound_to 7997
  139.7628  144.6949  151.0268 H   0  0  0  0  0  0  0  0  0  0  0  0  # atno 10167 bound_to 10162
  157.4051  130.7882  149.7382 H   0  0  0  0  0  0  0  0  0  0  0  0  # atno 10718 bound_to 10713
  154.7254  135.3035  154.8979 H   0  0  0  0  0  0  0  0  0  0  0  0  # atno 10763 bound_to 10752
  153.9838  135.6727  153.4755 H   0  0  0  0  0  0  0  0  0  0  0  0  # atno 10764 bound_to 10752
  153.0871  135.4978  154.8536 H   0  0  0  0  0  0  0  0  0  0  0  0  # atno 10765 bound_to 10752
  140.3908  134.6864  157.4506 H   0  0  0  0  0  0  0  0  0  0  0  0  # atno 11005 bound_to 11000
  145.8908  139.2375  143.1550 LP  0  0  0  0  0  0  0  0  0  0  0  0  # atno 17320 bound_to 7965
  145.9905  140.8607  143.0069 LP  0  0  0  0  0  0  0  0  0  0  0  0  # atno 17321 bound_to 7965
  140.7808  143.4677  151.0189 LP  0  0  0  0  0  0  0  0  0  0  0  0  # atno 17342 bound_to 10162
  139.8363  143.7623  152.3180 LP  0  0  0  0  0  0  0  0  0  0  0  0  # atno 17343 bound_to 10162
  155.9834  130.4001  150.3365 LP  0  0  0  0  0  0  0  0  0  0  0  0  # atno 17370 bound_to 10713
  157.1497  131.0317  151.2891 LP  0  0  0  0  0  0  0  0  0  0  0  0  # atno 17371 bound_to 10713
  140.0408  134.6270  155.8983 LP  0  0  0  0  0  0  0  0  0  0  0  0  # atno 17394 bound_to 11000
  141.1891  133.6564  156.5354 LP  0  0  0  0  0  0  0  0  0  0  0  0  # atno 17395 bound_to 11000

$$$$
