AV-unprocessed.smi:2840|AV-procd|sdf|10932|dock4
  -GOLD-   2272015383D 1   1.00000     0.00000
 Structure written by MMmdl.
 36 37  0  0  0  0  0  0  0  0  1 V2000
  151.9950  144.0555  158.0512 C   0  0  0  0  0  0  0  0  0  0  0  0
  152.6716  143.7651  159.4018 C   0  0  1  0  0  0  0  0  0  0  0  0
  151.7974  144.2290  160.5853 C   0  0  0  0  0  0  0  0  0  0  0  0
  152.5019  143.9987  161.9317 C   0  0  0  0  0  0  0  0  0  0  0  0
  152.9132  142.5290  162.1033 C   0  0  0  0  0  0  0  0  0  0  0  0
  153.7840  142.0532  160.9273 C   0  0  0  0  0  0  0  0  0  0  0  0
  153.1012  142.2839  159.5638 C   0  0  1  0  0  0  0  0  0  0  0  0
  151.9695  141.3656  159.4164 N   0  0  0  0  0  0  0  0  0  0  0  0
  151.9563  140.2350  158.6945 C   0  0  0  0  0  0  0  0  0  0  0  0
  152.9122  139.8405  158.0260 O   0  0  0  0  0  0  0  0  0  0  0  0
  150.7723  139.6070  158.8033 N   0  0  0  0  0  0  0  0  0  0  0  0
  150.3744  138.3742  158.2206 C   0  0  0  0  0  0  0  0  0  0  0  0
  149.5664  137.5569  159.0433 C   0  0  0  0  0  0  0  0  0  0  0  0
  149.1240  136.3097  158.5610 C   0  0  0  0  0  0  0  0  0  0  0  0
  149.5001  135.9121  157.2657 C   0  0  0  0  0  0  0  0  0  0  0  0
  150.3039  136.7863  156.5110 C   0  0  0  0  0  0  0  0  0  0  0  0
  150.7298  137.9814  156.9716 N   0  0  0  0  0  0  0  0  0  0  0  0
  151.0321  143.5519  157.9650 H   0  0  0  0  0  0  0  0  0  0  0  0
  152.6203  143.7253  157.2212 H   0  0  0  0  0  0  0  0  0  0  0  0
  151.8188  145.1239  157.9249 H   0  0  0  0  0  0  0  0  0  0  0  0
  153.5841  144.3628  159.4249 H   0  0  0  0  0  0  0  0  0  0  0  0
  151.5586  145.2877  160.4784 H   0  0  0  0  0  0  0  0  0  0  0  0
  150.8447  143.6979  160.5758 H   0  0  0  0  0  0  0  0  0  0  0  0
  153.3859  144.6345  161.9942 H   0  0  0  0  0  0  0  0  0  0  0  0
  151.8467  144.2988  162.7498 H   0  0  0  0  0  0  0  0  0  0  0  0
  153.4564  142.4039  163.0403 H   0  0  0  0  0  0  0  0  0  0  0  0
  152.0216  141.9060  162.1806 H   0  0  0  0  0  0  0  0  0  0  0  0
  154.7317  142.5928  160.9478 H   0  0  0  0  0  0  0  0  0  0  0  0
  154.0349  140.9989  161.0510 H   0  0  0  0  0  0  0  0  0  0  0  0
  153.8428  142.0625  158.7943 H   0  0  0  0  0  0  0  0  0  0  0  0
  151.1307  141.6079  159.9231 H   0  0  0  0  0  0  0  0  0  0  0  0
  150.0810  140.0533  159.3874 H   0  0  0  0  0  0  0  0  0  0  0  0
  149.2872  137.8777  160.0365 H   0  0  0  0  0  0  0  0  0  0  0  0
  148.5079  135.6696  159.1751 H   0  0  0  0  0  0  0  0  0  0  0  0
  149.1811  134.9631  156.8611 H   0  0  0  0  0  0  0  0  0  0  0  0
  150.6139  136.5189  155.5115 H   0  0  0  0  0  0  0  0  0  0  0  0
  1  2  1  0  0  0  0
  1 18  1  0  0  0  0
  1 19  1  0  0  0  0
  1 20  1  0  0  0  0
  2  7  1  0  0  0  0
  2  3  1  0  0  0  0
  2 21  1  0  0  0  0
  3  4  1  0  0  0  0
  3 22  1  0  0  0  0
  3 23  1  0  0  0  0
  4  5  1  0  0  0  0
  4 24  1  0  0  0  0
  4 25  1  0  0  0  0
  5  6  1  0  0  0  0
  5 26  1  0  0  0  0
  5 27  1  0  0  0  0
  6  7  1  0  0  0  0
  6 28  1  0  0  0  0
  6 29  1  0  0  0  0
  7  8  1  0  0  0  0
  7 30  1  0  0  0  0
  8  9  1  0  0  0  0
  8 31  1  0  0  0  0
  9 10  2  0  0  0  0
  9 11  1  0  0  0  0
 11 12  1  0  0  0  0
 11 32  1  0  0  0  0
 12 17  1  0  0  0  0
 12 13  2  0  0  0  0
 13 14  1  0  0  0  0
 13 33  1  0  0  0  0
 14 15  2  0  0  0  0
 14 34  1  0  0  0  0
 15 16  1  0  0  0  0
 15 35  1  0  0  0  0
 16 17  2  0  0  0  0
 16 36  1  0  0  0  0
M  END
> <s_m_source_file>
AV-unprocessed.smi

> <i_m_source_file_index>
2840

> <i_lp_mmshare_version>
43012

> <i_f3d_flags>
0

> <s_epik_input>
W0NIM11bQ0BASF0xW0NIMl1bQ0gyXVtDSDJdW0NIMl1bQ0BIXTFbTkhdQyg9TylbTkhdYzJbY0hdW2NIXVtjSF1bY0hdbjI=

> <s_epik_cmdline>
J2VwaWtfcHl0aG9uJywgJy1waCcsICc3LjAnLCAnLXRuJywgJzgnLCAnLW1hJywgJzIwMCcsICctbWV0YWxfYmluZGluZycsICctaW1hZScsICc8aW5maWxlLm1hZT4nLCAnLW9tYWUnLCAnPG91dGZpbGUubWFlPic=

> <r_lp_tautomer_probability>
1

> <r_epik_Ionization_Penalty>
5.29956e-05

> <r_epik_Ionization_Penalty_Charging>
0

> <r_epik_Ionization_Penalty_Neutral>
5.29956e-05

> <r_epik_State_Penalty>
-0

> <r_epik_Charging_Adjusted_Penalty>
0

> <i_epik_Tot_Q>
0

> <i_epik_Tot_abs_Q>
0

> <r_epik_Metal_State_Penalty>
-0

> <b_epik_Metal_Only>
0

> <s_lp_Force_Field>
OPLS_2005

> <r_lp_Energy>
11.7155

> <b_lp_Chiralities_Consistent>
1

> <s_lp_Variant>
AV-unprocessed.smi:2840-2

> <Gold.Version>
5.8.1

> <Gold.Id.Protein>
6NUR|6NUR_protein|mol2

> <Gold.PLP.Fitness>
38.0551

> <Gold.PLP.PLP>
-36.0476

> <Gold.PLP.part.hbond>
-1.0000

> <Gold.PLP.part.metal>
0.0000

> <Gold.PLP.part.buried>
-5.0479

> <Gold.PLP.part.nonpolar>
-29.6682

> <Gold.PLP.part.repulsive>
0.3171

> <Gold.PLP.ligand.clash>
0.0000

> <Gold.PLP.ligand.torsion>
0.4998

> <Gold.PLP.Chemscore.Hbond>
1.0000

> <Gold.PLP.Chemscore.CHOScore>
0.0000

> <Gold.PLP.Chemscore.Metal>
0.0000

> <Gold.Chemscore.Hbonds>
donor molecule, donor type, donor heavy atom, donor atom, acceptor molecule, acceptor atom, score
      P1  H  7997  8009       L1    10  1.00

> <Gold.PLP.Chemscore.Internal.Correction>
0.0071

> <Gold.Rescore>
     Score         DG    S(hbond)    S(metal)    S(lipo)     H(rot)  DE(clash)    DE(int)     intcor
     16.41     -17.54       0.98        0.00      97.10       1.00       0.03       1.10       ----

> <Gold.Chemscore.Fitness>
16.4080

> <Gold.Chemscore.DG>
-17.5388

> <Gold.Chemscore.ZeroCoef>
-5.4800

> <Gold.Chemscore.Hbond>
0.9755

> <Gold.Chemscore.Metal>
0.0000

> <Gold.Chemscore.Lipo>
97.1003

> <Gold.Chemscore.Internal_Hbond>
0.0000

> <Gold.Chemscore.DEClash>
0.0310

> <Gold.Chemscore.DEInternal>
1.0999

> <Gold.Chemscore.Rot>
1.0000

> <Gold.Chemscore.Internal.Correction>
   9.000000E+99

> <Gold.Chemscore.Hbonds>
donor molecule, donor type, donor heavy atom, donor atom, acceptor molecule, acceptor atom, score
      P1  H  7997  8009       L1    10  0.91

> <Gold.Chemscore.Hbond.Weighted>
-3.2581

> <Gold.Chemscore.Metal.Weighted>
-0.0000

> <Gold.Chemscore.Lipo.Weighted>
-11.3607

> <Gold.Chemscore.Internal_Hbond.Weighted>
0.0000

> <Gold.Chemscore.DEClash.Weighted>
0.0310

> <Gold.Chemscore.DEInternal.Weighted>
1.0999

> <Gold.Chemscore.Rot.Weighted>
2.5600

> <Gold.Chemscore.Internal.Correction.Weighted>
   9.000000E+99

> <Gold.Protein.RotatedTorsions>
[ 6907 6896 6895 6894 ] final -149.28 input  -60.11 | X-H torsion
[ 7974 7965 7964 7962 ] final   24.81 input  175.53 | X-H torsion
[ 8008 7997 7996 7995 ] final  176.82 input   59.86 | X-H torsion
[ 10167 10162 10161 10158 ] final  117.45 input  -65.29 | X-H torsion
[ 10718 10713 10712 10709 ] final   86.84 input   66.30 | X-H torsion
[ 10763 10752 10751 10750 ] final  -22.04 input  -60.55 | X-H torsion
[ 11005 11000 10999 10996 ] final   46.13 input  -57.11 | X-H torsion

> <Gold.Protein.ActiveResidues>
 VAL166  LYS551  ARG553  GLY616  TRP617  ASP618  TYR619  PRO620  LYS621  CYS622 
 ASP623  PHE694  ASN695  SER759  ASP760  ASP761  ALA762  ILE779  LEU786  VAL792 
 PHE793  MET794  SER795  GLU796  ALA797  LYS798  CYS799  TRP800  GLU811  SER814 

> <Gold.Protein.RotatedAtoms>
  151.1819  133.4720  159.2593 H   0  0  0  0  0  0  0  0  0  0  0  0  # atno 6907 bound_to 6896
  151.1251  135.0100  159.8566 H   0  0  0  0  0  0  0  0  0  0  0  0  # atno 6908 bound_to 6896
  152.5457  134.1726  159.8656 H   0  0  0  0  0  0  0  0  0  0  0  0  # atno 6909 bound_to 6896
  146.1919  139.7553  142.8825 H   0  0  0  0  0  0  0  0  0  0  0  0  # atno 7974 bound_to 7965
  156.0724  140.1374  156.9813 H   0  0  0  0  0  0  0  0  0  0  0  0  # atno 8008 bound_to 7997
  154.4539  140.0969  156.6750 H   0  0  0  0  0  0  0  0  0  0  0  0  # atno 8009 bound_to 7997
  155.5207  140.3456  155.4408 H   0  0  0  0  0  0  0  0  0  0  0  0  # atno 8010 bound_to 7997
  139.6177  144.7095  151.2702 H   0  0  0  0  0  0  0  0  0  0  0  0  # atno 10167 bound_to 10162
  157.6933  131.0231  150.3033 H   0  0  0  0  0  0  0  0  0  0  0  0  # atno 10718 bound_to 10713
  153.6457  135.6983  153.5226 H   0  0  0  0  0  0  0  0  0  0  0  0  # atno 10763 bound_to 10752
  153.2747  135.4204  155.1021 H   0  0  0  0  0  0  0  0  0  0  0  0  # atno 10764 bound_to 10752
  154.8489  135.3587  154.6001 H   0  0  0  0  0  0  0  0  0  0  0  0  # atno 10765 bound_to 10752
  140.1396  134.4600  155.8459 H   0  0  0  0  0  0  0  0  0  0  0  0  # atno 11005 bound_to 11000
  145.3765  141.0351  143.3202 LP  0  0  0  0  0  0  0  0  0  0  0  0  # atno 17320 bound_to 7965
  144.8504  139.5331  143.6859 LP  0  0  0  0  0  0  0  0  0  0  0  0  # atno 17321 bound_to 7965
  140.7362  143.6715  150.8078 LP  0  0  0  0  0  0  0  0  0  0  0  0  # atno 17342 bound_to 10162
  140.0320  143.5434  152.2756 LP  0  0  0  0  0  0  0  0  0  0  0  0  # atno 17343 bound_to 10162
  156.3545  130.3836  149.7301 LP  0  0  0  0  0  0  0  0  0  0  0  0  # atno 17370 bound_to 10713
  156.4768  130.8022  151.3038 LP  0  0  0  0  0  0  0  0  0  0  0  0  # atno 17371 bound_to 10713
  141.2184  133.6828  156.7222 LP  0  0  0  0  0  0  0  0  0  0  0  0  # atno 17394 bound_to 11000
  140.2738  134.8371  157.3872 LP  0  0  0  0  0  0  0  0  0  0  0  0  # atno 17395 bound_to 11000

$$$$
