AV-unprocessed.smi:1634|AV-procd|sdf|6538|dock6
  -GOLD-   22720 7223D 1   1.00000     0.00000
 Structure written by MMmdl.
 37 37  0  0  0  0  0  0  0  0  2 V2000
  146.7823  139.6395  153.8587 C   0  0  0  0  0  0  0  0  0  0  0  0
  147.3515  140.4936  155.0013 C   0  0  0  0  0  0  0  0  0  0  0  0
  146.7258  141.8973  154.9973 C   0  0  0  0  0  0  0  0  0  0  0  0
  148.8852  140.5604  154.9270 C   0  0  0  0  0  0  0  0  0  0  0  0
  149.4230  139.2606  155.1477 O   0  0  0  0  0  0  0  0  0  0  0  0
  150.7549  139.0601  154.6815 C   0  0  2  0  0  0  0  0  0  0  0  0
  151.0141  137.5465  154.6568 C   0  0  0  0  0  0  0  0  0  0  0  0
  151.7553  139.7845  155.5969 C   0  0  0  0  0  0  0  0  0  0  0  0
  152.9324  139.8780  155.2494 O   0  0  0  0  0  0  0  0  0  0  0  0
  151.2430  140.2431  156.7559 N   0  0  0  0  0  0  0  0  0  0  0  0
  151.8672  140.9277  157.8129 C   0  0  0  0  0  0  0  0  0  0  0  0
  151.4441  142.1109  158.3392 C   0  0  0  0  0  0  0  0  0  0  0  0
  152.1388  142.7652  159.4416 C   0  0  0  0  0  0  0  0  0  0  0  0
  151.7268  144.0955  160.0446 C   0  0  0  0  0  0  0  0  0  0  0  0
  152.3699  144.2976  161.1940 F   0  0  0  0  0  0  0  0  0  0  0  0
  152.0373  145.0937  159.2177 F   0  0  0  0  0  0  0  0  0  0  0  0
  150.4157  144.1383  160.2830 F   0  0  0  0  0  0  0  0  0  0  0  0
  153.2374  142.0482  159.8708 C   0  0  0  0  0  0  0  0  0  0  0  0
  153.7143  140.8690  159.4162 N   0  5  0  0  0  0  0  0  0  0  0  0
  153.0610  140.2676  158.3822 C   0  0  0  0  0  0  0  0  0  0  0  0
  153.4434  139.1930  157.9177 O   0  0  0  0  0  0  0  0  0  0  0  0
  147.0205  140.0710  152.8858 H   0  0  0  0  0  0  0  0  0  0  0  0
  145.6973  139.5579  153.9304 H   0  0  0  0  0  0  0  0  0  0  0  0
  147.1894  138.6282  153.8824 H   0  0  0  0  0  0  0  0  0  0  0  0
  147.0820  140.0076  155.9398 H   0  0  0  0  0  0  0  0  0  0  0  0
  146.9678  142.4359  154.0806 H   0  0  0  0  0  0  0  0  0  0  0  0
  147.0843  142.4941  155.8365 H   0  0  0  0  0  0  0  0  0  0  0  0
  145.6396  141.8441  155.0754 H   0  0  0  0  0  0  0  0  0  0  0  0
  149.1946  140.9122  153.9418 H   0  0  0  0  0  0  0  0  0  0  0  0
  149.2583  141.2774  155.6595 H   0  0  0  0  0  0  0  0  0  0  0  0
  150.8419  139.4374  153.6604 H   0  0  0  0  0  0  0  0  0  0  0  0
  152.0303  137.3238  154.3294 H   0  0  0  0  0  0  0  0  0  0  0  0
  150.3306  137.0497  153.9680 H   0  0  0  0  0  0  0  0  0  0  0  0
  150.8722  137.0982  155.6412 H   0  0  0  0  0  0  0  0  0  0  0  0
  150.2670  140.0407  156.9183 H   0  0  0  0  0  0  0  0  0  0  0  0
  150.5638  142.6025  157.9616 H   0  0  0  0  0  0  0  0  0  0  0  0
  153.8212  142.4928  160.7051 H   0  0  0  0  0  0  0  0  0  0  0  0
  1  2  1  0  0  0  0
  1 22  1  0  0  0  0
  1 23  1  0  0  0  0
  1 24  1  0  0  0  0
  2  3  1  0  0  0  0
  2  4  1  0  0  0  0
  2 25  1  0  0  0  0
  3 26  1  0  0  0  0
  3 27  1  0  0  0  0
  3 28  1  0  0  0  0
  4  5  1  0  0  0  0
  4 29  1  0  0  0  0
  4 30  1  0  0  0  0
  5  6  1  0  0  0  0
  6  7  1  0  0  0  0
  6  8  1  0  0  0  0
  6 31  1  0  0  0  0
  7 32  1  0  0  0  0
  7 33  1  0  0  0  0
  7 34  1  0  0  0  0
  8  9  2  0  0  0  0
  8 10  1  0  0  0  0
 10 11  1  0  0  0  0
 10 35  1  0  0  0  0
 11 20  1  0  0  0  0
 11 12  2  0  0  0  0
 12 13  1  0  0  0  0
 12 36  1  0  0  0  0
 13 14  1  0  0  0  0
 13 18  2  0  0  0  0
 14 15  1  0  0  0  0
 14 16  1  0  0  0  0
 14 17  1  0  0  0  0
 18 19  1  0  0  0  0
 18 37  1  0  0  0  0
 19 20  1  0  0  0  0
 20 21  2  0  0  0  0
M  CHG  1  19  -1
M  END
> <s_m_source_file>
AV-unprocessed.smi

> <i_m_source_file_index>
1634

> <i_lp_mmshare_version>
43012

> <i_f3d_flags>
0

> <s_epik_input>
W0NIM11bQ0hdKFtDSDNdKVtDSDJdT1tDQEhdKFtDSDNdKUMoPU8pW05IXWMxW2NIXWMoQyhGKShGKUYpW2NIXVtuSF1jMT1P

> <s_epik_cmdline>
J2VwaWtfcHl0aG9uJywgJy1waCcsICc3LjAnLCAnLXRuJywgJzgnLCAnLW1hJywgJzIwMCcsICctbWV0YWxfYmluZGluZycsICctaW1hZScsICc8aW5maWxlLm1hZT4nLCAnLW9tYWUnLCAnPG91dGZpbGUubWFlPic=

> <r_epik_Ionization_Penalty>
2.55349

> <r_epik_Ionization_Penalty_Charging>
0.0582825

> <r_epik_Ionization_Penalty_Neutral>
2.49521

> <r_epik_State_Penalty>
2.65983

> <r_epik_Charging_Adjusted_Penalty>
2.71812

> <i_epik_Tot_Q>
-1

> <i_epik_Tot_abs_Q>
1

> <r_epik_Metal_State_Penalty>
0.516727

> <b_epik_Metal_Only>
0

> <s_lp_Force_Field>
OPLS_2005

> <r_lp_Energy>
22.0513

> <b_lp_Chiralities_Consistent>
1

> <s_lp_Variant>
AV-unprocessed.smi:1634-3

> <Gold.Version>
5.8.1

> <Gold.Id.Protein>
6NUR|6NUR_protein|mol2

> <Gold.PLP.Fitness>
49.9016

> <Gold.PLP.PLP>
-49.3256

> <Gold.PLP.part.hbond>
-2.5661

> <Gold.PLP.part.metal>
0.0000

> <Gold.PLP.part.buried>
-4.0816

> <Gold.PLP.part.nonpolar>
-41.2135

> <Gold.PLP.part.repulsive>
0.2101

> <Gold.PLP.ligand.clash>
0.0000

> <Gold.PLP.ligand.torsion>
1.4255

> <Gold.PLP.Chemscore.Hbond>
1.1154

> <Gold.PLP.Chemscore.CHOScore>
0.0000

> <Gold.PLP.Chemscore.Metal>
0.0000

> <Gold.Chemscore.Hbonds>
donor molecule, donor type, donor heavy atom, donor atom, acceptor molecule, acceptor atom, score
      P1  H  7997  8008       L1    21  0.33
      P1  H  7997  8009       L1     9  0.99

> <Gold.PLP.Chemscore.Internal.Correction>
0.0807

> <Gold.Rescore>
     Score         DG    S(hbond)    S(metal)    S(lipo)     H(rot)  DE(clash)    DE(int)     intcor
     13.10     -15.39       0.98        0.00      95.08       1.75       0.73       1.57       ----

> <Gold.Chemscore.Fitness>
13.0971

> <Gold.Chemscore.DG>
-15.3901

> <Gold.Chemscore.ZeroCoef>
-5.4800

> <Gold.Chemscore.Hbond>
0.9807

> <Gold.Chemscore.Metal>
0.0000

> <Gold.Chemscore.Lipo>
95.0799

> <Gold.Chemscore.Internal_Hbond>
0.0000

> <Gold.Chemscore.DEClash>
0.7255

> <Gold.Chemscore.DEInternal>
1.5675

> <Gold.Chemscore.Rot>
1.7538

> <Gold.Chemscore.Internal.Correction>
   9.000000E+99

> <Gold.Chemscore.Hbonds>
donor molecule, donor type, donor heavy atom, donor atom, acceptor molecule, acceptor atom, score
      P1  H  7997  8008       L1    21  0.02
      P1  H  7997  8009       L1     9  0.93

> <Gold.Chemscore.Hbond.Weighted>
-3.2755

> <Gold.Chemscore.Metal.Weighted>
-0.0000

> <Gold.Chemscore.Lipo.Weighted>
-11.1244

> <Gold.Chemscore.Internal_Hbond.Weighted>
0.0000

> <Gold.Chemscore.DEClash.Weighted>
0.7255

> <Gold.Chemscore.DEInternal.Weighted>
1.5675

> <Gold.Chemscore.Rot.Weighted>
4.4898

> <Gold.Chemscore.Internal.Correction.Weighted>
   9.000000E+99

> <Gold.Protein.RotatedTorsions>
[ 6907 6896 6895 6894 ] final  -31.41 input  -60.11 | X-H torsion
[ 7974 7965 7964 7962 ] final   44.13 input  175.53 | X-H torsion
[ 8008 7997 7996 7995 ] final -120.04 input   59.86 | X-H torsion
[ 10167 10162 10161 10158 ] final -179.62 input  -65.29 | X-H torsion
[ 10718 10713 10712 10709 ] final  -41.50 input   66.30 | X-H torsion
[ 10763 10752 10751 10750 ] final  -46.60 input  -60.55 | X-H torsion
[ 11005 11000 10999 10996 ] final -117.98 input  -57.11 | X-H torsion

> <Gold.Protein.ActiveResidues>
 VAL166  LYS551  ARG553  GLY616  TRP617  ASP618  TYR619  PRO620  LYS621  CYS622 
 ASP623  PHE694  ASN695  SER759  ASP760  ASP761  ALA762  ILE779  LEU786  VAL792 
 PHE793  MET794  SER795  GLU796  ALA797  LYS798  CYS799  TRP800  GLU811  SER814 

> <Gold.Protein.RotatedAtoms>
  151.0924  134.9924  159.8408 H   0  0  0  0  0  0  0  0  0  0  0  0  # atno 6907 bound_to 6896
  152.5430  134.2049  159.8737 H   0  0  0  0  0  0  0  0  0  0  0  0  # atno 6908 bound_to 6896
  151.2086  133.4525  159.2631 H   0  0  0  0  0  0  0  0  0  0  0  0  # atno 6909 bound_to 6896
  146.0595  139.5108  142.9667 H   0  0  0  0  0  0  0  0  0  0  0  0  # atno 7974 bound_to 7965
  155.1254  140.0399  157.2761 H   0  0  0  0  0  0  0  0  0  0  0  0  # atno 8008 bound_to 7997
  154.6582  140.2585  155.7112 H   0  0  0  0  0  0  0  0  0  0  0  0  # atno 8009 bound_to 7997
  156.2607  140.2822  156.1043 H   0  0  0  0  0  0  0  0  0  0  0  0  # atno 8010 bound_to 7997
  139.5378  144.2448  152.0831 H   0  0  0  0  0  0  0  0  0  0  0  0  # atno 10167 bound_to 10162
  156.2697  130.4205  149.8451 H   0  0  0  0  0  0  0  0  0  0  0  0  # atno 10718 bound_to 10713
  154.0476  135.6635  153.4797 H   0  0  0  0  0  0  0  0  0  0  0  0  # atno 10763 bound_to 10752
  153.0476  135.5104  154.7782 H   0  0  0  0  0  0  0  0  0  0  0  0  # atno 10764 bound_to 10752
  154.6778  135.3040  154.9621 H   0  0  0  0  0  0  0  0  0  0  0  0  # atno 10765 bound_to 10752
  141.0318  133.9970  157.3132 H   0  0  0  0  0  0  0  0  0  0  0  0  # atno 11005 bound_to 11000
  145.6585  141.0246  143.1722 LP  0  0  0  0  0  0  0  0  0  0  0  0  # atno 17320 bound_to 7965
  144.7167  139.8173  143.7396 LP  0  0  0  0  0  0  0  0  0  0  0  0  # atno 17321 bound_to 7965
  140.1922  144.4741  150.6473 LP  0  0  0  0  0  0  0  0  0  0  0  0  # atno 17342 bound_to 10162
  140.6593  143.2247  151.5894 LP  0  0  0  0  0  0  0  0  0  0  0  0  # atno 17343 bound_to 10162
  156.5937  130.8517  151.3414 LP  0  0  0  0  0  0  0  0  0  0  0  0  # atno 17370 bound_to 10713
  157.7280  130.9650  150.1721 LP  0  0  0  0  0  0  0  0  0  0  0  0  # atno 17371 bound_to 10713
  139.9213  135.0200  156.8073 LP  0  0  0  0  0  0  0  0  0  0  0  0  # atno 17394 bound_to 11000
  140.6394  133.9832  155.7700 LP  0  0  0  0  0  0  0  0  0  0  0  0  # atno 17395 bound_to 11000

$$$$
