AV-unprocessed.smi:281|AV-procd|sdf|2111|dock9
  -GOLD-   2262021403D 1   1.00000     0.00000
 Structure written by MMmdl.
 55 59  0  0  0  0  0  0  0  0  1 V2000
  153.4830  139.0028  160.0904 C   0  0  0  0  0  0  0  0  0  0  0  0
  152.2234  138.9512  159.2203 C   0  0  2  0  0  0  0  0  0  0  0  0
  151.5225  137.5843  159.3083 C   0  0  0  0  0  0  0  0  0  0  0  0
  150.4045  137.5323  158.3744 N   0  0  0  0  0  0  0  0  0  0  0  0
  149.5323  136.5141  158.5831 C   0  0  0  0  0  0  0  0  0  0  0  0
  149.2765  135.6212  157.5895 N   0  0  0  0  0  0  0  0  0  0  0  0
  148.4268  134.6104  157.7926 C   0  0  0  0  0  0  0  0  0  0  0  0
  147.7347  134.3104  158.8931 N   0  0  0  0  0  0  0  0  0  0  0  0
  147.9818  135.2048  159.8923 C   0  0  0  0  0  0  0  0  0  0  0  0
  148.8541  136.3276  159.8206 C   0  0  0  0  0  0  0  0  0  0  0  0
  148.8308  137.0214  161.0246 N   0  0  0  0  0  0  0  0  0  0  0  0
  148.0018  136.3416  161.7681 C   0  0  0  0  0  0  0  0  0  0  0  0
  147.4595  135.2241  161.1743 N   0  0  0  0  0  0  0  0  0  0  0  0
  146.5238  134.2854  161.7753 C   0  0  0  0  0  0  0  0  0  0  0  0
  145.0665  134.4041  161.2546 C   0  0  2  0  0  0  0  0  0  0  0  0
  145.0652  133.9926  159.9016 O   0  0  0  0  0  0  0  0  0  0  0  0
  144.4732  135.8089  161.3620 C   0  0  0  0  0  0  0  0  0  0  0  0
  143.6006  135.7720  162.6224 C   0  0  0  0  0  0  0  0  0  0  0  0
  143.6649  134.4392  163.1136 O   0  0  0  0  0  0  0  0  0  0  0  0
  144.0475  133.5819  162.0501 C   0  0  0  0  0  0  0  0  0  0  0  0
  150.7974  137.8324  157.0007 C   0  0  0  0  0  0  0  0  0  0  0  0
  151.5302  139.1960  156.9288 C   0  0  2  0  0  0  0  0  0  0  0  0
  150.5943  140.3833  157.1387 C   0  0  0  0  0  0  0  0  0  0  0  0
  150.0196  140.6205  155.7473 C   0  0  0  0  0  0  0  0  0  0  0  0
  151.0456  140.2370  154.8404 O   0  0  0  0  0  0  0  0  0  0  0  0
  152.0823  139.5451  155.5319 C   0  0  2  0  0  0  0  0  0  0  0  0
  152.6200  138.3814  154.6865 C   0  0  0  0  0  0  0  0  0  0  0  0
  152.6082  139.2084  157.8696 O   0  0  0  0  0  0  0  0  0  0  0  0
  153.2425  138.8282  161.1392 H   0  0  0  0  0  0  0  0  0  0  0  0
  153.9679  139.9766  160.0172 H   0  0  0  0  0  0  0  0  0  0  0  0
  154.2059  138.2468  159.7825 H   0  0  0  0  0  0  0  0  0  0  0  0
  151.5424  139.7321  159.5613 H   0  0  0  0  0  0  0  0  0  0  0  0
  152.2235  136.7862  159.0603 H   0  0  0  0  0  0  0  0  0  0  0  0
  151.1954  137.4086  160.3326 H   0  0  0  0  0  0  0  0  0  0  0  0
  148.2821  133.9458  156.9535 H   0  0  0  0  0  0  0  0  0  0  0  0
  147.7678  136.6361  162.7807 H   0  0  0  0  0  0  0  0  0  0  0  0
  146.9010  133.2772  161.5978 H   0  0  0  0  0  0  0  0  0  0  0  0
  146.5467  134.4290  162.8565 H   0  0  0  0  0  0  0  0  0  0  0  0
  144.2908  133.4737  159.7468 H   0  0  0  0  0  0  0  0  0  0  0  0
  145.2340  136.5883  161.3998 H   0  0  0  0  0  0  0  0  0  0  0  0
  143.8367  136.0310  160.5037 H   0  0  0  0  0  0  0  0  0  0  0  0
  143.9539  136.4658  163.3857 H   0  0  0  0  0  0  0  0  0  0  0  0
  142.5674  136.0275  162.3851 H   0  0  0  0  0  0  0  0  0  0  0  0
  143.1609  133.3700  161.4496 H   0  0  0  0  0  0  0  0  0  0  0  0
  144.4410  132.6309  162.4080 H   0  0  0  0  0  0  0  0  0  0  0  0
  151.4544  137.0321  156.6586 H   0  0  0  0  0  0  0  0  0  0  0  0
  149.9242  137.8343  156.3470 H   0  0  0  0  0  0  0  0  0  0  0  0
  149.8216  140.2133  157.8893 H   0  0  0  0  0  0  0  0  0  0  0  0
  151.1685  141.2590  157.4452 H   0  0  0  0  0  0  0  0  0  0  0  0
  149.1484  139.9866  155.5786 H   0  0  0  0  0  0  0  0  0  0  0  0
  149.7181  141.6568  155.5930 H   0  0  0  0  0  0  0  0  0  0  0  0
  152.8866  140.2718  155.6607 H   0  0  0  0  0  0  0  0  0  0  0  0
  153.3969  137.8346  155.2215 H   0  0  0  0  0  0  0  0  0  0  0  0
  153.0541  138.7501  153.7571 H   0  0  0  0  0  0  0  0  0  0  0  0
  151.8305  137.6785  154.4202 H   0  0  0  0  0  0  0  0  0  0  0  0
  1  2  1  0  0  0  0
  1 29  1  0  0  0  0
  1 30  1  0  0  0  0
  1 31  1  0  0  0  0
  2 28  1  0  0  0  0
  2  3  1  0  0  0  0
  2 32  1  0  0  0  0
  3  4  1  0  0  0  0
  3 33  1  0  0  0  0
  3 34  1  0  0  0  0
  4  5  1  0  0  0  0
  4 21  1  0  0  0  0
  5 10  1  0  0  0  0
  5  6  2  0  0  0  0
  6  7  1  0  0  0  0
  7  8  2  0  0  0  0
  7 35  1  0  0  0  0
  8  9  1  0  0  0  0
  9 13  1  0  0  0  0
  9 10  2  0  0  0  0
 10 11  1  0  0  0  0
 11 12  2  0  0  0  0
 12 13  1  0  0  0  0
 12 36  1  0  0  0  0
 13 14  1  0  0  0  0
 14 15  1  0  0  0  0
 14 37  1  0  0  0  0
 14 38  1  0  0  0  0
 15 20  1  0  0  0  0
 15 16  1  0  0  0  0
 15 17  1  0  0  0  0
 16 39  1  0  0  0  0
 17 18  1  0  0  0  0
 17 40  1  0  0  0  0
 17 41  1  0  0  0  0
 18 19  1  0  0  0  0
 18 42  1  0  0  0  0
 18 43  1  0  0  0  0
 19 20  1  0  0  0  0
 20 44  1  0  0  0  0
 20 45  1  0  0  0  0
 21 22  1  0  0  0  0
 21 46  1  0  0  0  0
 21 47  1  0  0  0  0
 22 26  1  0  0  0  0
 22 23  1  0  0  0  0
 22 28  1  0  0  0  0
 23 24  1  0  0  0  0
 23 48  1  0  0  0  0
 23 49  1  0  0  0  0
 24 25  1  0  0  0  0
 24 50  1  0  0  0  0
 24 51  1  0  0  0  0
 25 26  1  0  0  0  0
 26 27  1  0  0  0  0
 26 52  1  0  0  0  0
 27 53  1  0  0  0  0
 27 54  1  0  0  0  0
 27 55  1  0  0  0  0
M  END
> <s_m_source_file>
AV-unprocessed.smi

> <i_m_source_file_index>
281

> <i_lp_mmshare_version>
43012

> <i_f3d_flags>
0

> <s_epik_input>
W0NIM11bQ0BASF0xT1tDSDJdW0NIMl1bQ0BAXTEyW0NIMl1OKFtDSDJdW0NASF0oTzIpW0NIM10pYyhuW2NIXW4zKWMoYzM0KW5bY0hdbjRbQ0gyXVtDQEBdNShbT0hdKVtDSDJdW0NIMl1PW0NIMl01

> <s_epik_cmdline>
J2VwaWtfcHl0aG9uJywgJy1waCcsICc3LjAnLCAnLXRuJywgJzgnLCAnLW1hJywgJzIwMCcsICctbWV0YWxfYmluZGluZycsICctaW1hZScsICc8aW5maWxlLm1hZT4nLCAnLW9tYWUnLCAnPG91dGZpbGUubWFlPic=

> <r_lp_tautomer_probability>
1

> <r_epik_Ionization_Penalty>
0.00571331

> <r_epik_Ionization_Penalty_Charging>
0

> <r_epik_Ionization_Penalty_Neutral>
0.00571331

> <r_epik_State_Penalty>
0.00399586

> <r_epik_Charging_Adjusted_Penalty>
0.00399586

> <i_epik_Tot_Q>
0

> <i_epik_Tot_abs_Q>
0

> <r_epik_Metal_State_Penalty>
-0

> <b_epik_Metal_Only>
0

> <s_lp_Force_Field>
OPLS_2005

> <r_lp_Energy>
56.9308

> <b_lp_Chiralities_Consistent>
1

> <s_lp_Variant>
AV-unprocessed.smi:281-11

> <Gold.Version>
5.8.1

> <Gold.Id.Protein>
6NUR|6NUR_protein|mol2

> <Gold.PLP.Fitness>
45.0675

> <Gold.PLP.PLP>
-38.5287

> <Gold.PLP.part.hbond>
-2.1036

> <Gold.PLP.part.metal>
0.0000

> <Gold.PLP.part.buried>
-5.8738

> <Gold.PLP.part.nonpolar>
-30.9290

> <Gold.PLP.part.repulsive>
0.1831

> <Gold.PLP.ligand.clash>
0.0000

> <Gold.PLP.ligand.torsion>
0.3894

> <Gold.PLP.Chemscore.Hbond>
2.3408

> <Gold.PLP.Chemscore.CHOScore>
0.0000

> <Gold.PLP.Chemscore.Metal>
0.0000

> <Gold.Chemscore.Hbonds>
donor molecule, donor type, donor heavy atom, donor atom, acceptor molecule, acceptor atom, score
      P1  H  6931  6943       L1    11  0.94
      P1  H  7989  7998       L1    25  1.00
      P1  H  7997  8008       L1    28  0.37

> <Gold.PLP.Chemscore.Internal.Correction>
0.2951

> <Gold.Rescore>
     Score         DG    S(hbond)    S(metal)    S(lipo)     H(rot)  DE(clash)    DE(int)     intcor
     15.05     -15.53       1.56        0.00      87.03       2.09       0.05       0.43       ----

> <Gold.Chemscore.Fitness>
15.0503

> <Gold.Chemscore.DG>
-15.5299

> <Gold.Chemscore.ZeroCoef>
-5.4800

> <Gold.Chemscore.Hbond>
1.5641

> <Gold.Chemscore.Metal>
0.0000

> <Gold.Chemscore.Lipo>
87.0343

> <Gold.Chemscore.Internal_Hbond>
0.0000

> <Gold.Chemscore.DEClash>
0.0509

> <Gold.Chemscore.DEInternal>
0.4286

> <Gold.Chemscore.Rot>
2.0927

> <Gold.Chemscore.Internal.Correction>
   9.000000E+99

> <Gold.Chemscore.Hbonds>
donor molecule, donor type, donor heavy atom, donor atom, acceptor molecule, acceptor atom, score
      P1  H  6931  6943       L1    11  0.26
      P1  H  7989  7998       L1    25  0.69
      P1  H  7997  8008       L1    28  0.28

> <Gold.Chemscore.Hbond.Weighted>
-5.2242

> <Gold.Chemscore.Metal.Weighted>
-0.0000

> <Gold.Chemscore.Lipo.Weighted>
-10.1830

> <Gold.Chemscore.Internal_Hbond.Weighted>
0.0000

> <Gold.Chemscore.DEClash.Weighted>
0.0509

> <Gold.Chemscore.DEInternal.Weighted>
0.4286

> <Gold.Chemscore.Rot.Weighted>
5.3573

> <Gold.Chemscore.Internal.Correction.Weighted>
   9.000000E+99

> <Gold.Protein.RotatedTorsions>
[ 6907 6896 6895 6894 ] final  -53.16 input  -60.11 | X-H torsion
[ 7974 7965 7964 7962 ] final -154.75 input  175.53 | X-H torsion
[ 8008 7997 7996 7995 ] final  -76.49 input   59.86 | X-H torsion
[ 10167 10162 10161 10158 ] final   82.56 input  -65.29 | X-H torsion
[ 10718 10713 10712 10709 ] final  144.11 input   66.30 | X-H torsion
[ 10763 10752 10751 10750 ] final  136.99 input  -60.55 | X-H torsion
[ 11005 11000 10999 10996 ] final  -25.47 input  -57.11 | X-H torsion

> <Gold.Protein.ActiveResidues>
 VAL166  LYS551  ARG553  GLY616  TRP617  ASP618  TYR619  PRO620  LYS621  CYS622 
 ASP623  PHE694  ASN695  SER759  ASP760  ASP761  ALA762  ILE779  LEU786  VAL792 
 PHE793  MET794  SER795  GLU796  ALA797  LYS798  CYS799  TRP800  GLU811  SER814 

> <Gold.Protein.RotatedAtoms>
  150.8452  134.7758  159.6964 H   0  0  0  0  0  0  0  0  0  0  0  0  # atno 6907 bound_to 6896
  152.4530  134.5348  159.9831 H   0  0  0  0  0  0  0  0  0  0  0  0  # atno 6908 bound_to 6896
  151.5480  133.3384  159.2983 H   0  0  0  0  0  0  0  0  0  0  0  0  # atno 6909 bound_to 6896
  144.7674  140.4344  143.5932 H   0  0  0  0  0  0  0  0  0  0  0  0  # atno 7974 bound_to 7965
  154.5510  140.0726  156.8667 H   0  0  0  0  0  0  0  0  0  0  0  0  # atno 8008 bound_to 7997
  155.2994  140.3383  155.4230 H   0  0  0  0  0  0  0  0  0  0  0  0  # atno 8009 bound_to 7997
  156.1961  140.1704  156.7982 H   0  0  0  0  0  0  0  0  0  0  0  0  # atno 8010 bound_to 7997
  139.9275  144.6173  150.8378 H   0  0  0  0  0  0  0  0  0  0  0  0  # atno 10167 bound_to 10162
  157.3611  131.0965  151.0914 H   0  0  0  0  0  0  0  0  0  0  0  0  # atno 10718 bound_to 10713
  153.8656  135.3062  155.3440 H   0  0  0  0  0  0  0  0  0  0  0  0  # atno 10763 bound_to 10752
  154.7829  135.4825  153.9886 H   0  0  0  0  0  0  0  0  0  0  0  0  # atno 10764 bound_to 10752
  153.1436  135.6829  153.9084 H   0  0  0  0  0  0  0  0  0  0  0  0  # atno 10765 bound_to 10752
  140.8941  133.7568  156.0458 H   0  0  0  0  0  0  0  0  0  0  0  0  # atno 11005 bound_to 11000
  145.6429  139.1553  143.2905 LP  0  0  0  0  0  0  0  0  0  0  0  0  # atno 17320 bound_to 7965
  146.1792  140.6524  142.9197 LP  0  0  0  0  0  0  0  0  0  0  0  0  # atno 17321 bound_to 7965
  140.7646  143.3253  151.2530 LP  0  0  0  0  0  0  0  0  0  0  0  0  # atno 17342 bound_to 10162
  139.6809  143.9855  152.2808 LP  0  0  0  0  0  0  0  0  0  0  0  0  # atno 17343 bound_to 10162
  157.2054  130.6413  149.5754 LP  0  0  0  0  0  0  0  0  0  0  0  0  # atno 17370 bound_to 10713
  155.9737  130.4677  150.6335 LP  0  0  0  0  0  0  0  0  0  0  0  0  # atno 17371 bound_to 10713
  140.8311  134.3177  157.5348 LP  0  0  0  0  0  0  0  0  0  0  0  0  # atno 17394 bound_to 11000
  139.8733  134.9364  156.3658 LP  0  0  0  0  0  0  0  0  0  0  0  0  # atno 17395 bound_to 11000

$$$$
