AV-unprocessed.smi:3250|AV-procd|sdf|12427|dock8
  -GOLD-   2272018313D 1   1.00000     0.00000
 Structure written by MMmdl.
 39 40  0  0  0  0  0  0  0  0  2 V2000
  146.0207  129.9956  152.0263 C   0  0  0  0  0  0  0  0  0  0  0  0
  146.1986  131.5176  152.1134 C   0  0  0  0  0  0  0  0  0  0  0  0
  146.4915  132.1266  150.7890 N   0  3  1  0  0  0  0  0  0  0  0  0
  145.5363  131.7599  149.7125 C   0  0  0  0  0  0  0  0  0  0  0  0
  144.2249  132.5612  149.8227 C   0  0  0  0  0  0  0  0  0  0  0  0
  144.5121  133.9545  149.8440 O   0  0  0  0  0  0  0  0  0  0  0  0
  145.3182  134.3285  150.9559 C   0  0  2  0  0  0  0  0  0  0  0  0
  145.4671  135.8594  150.9285 C   0  0  0  0  0  0  0  0  0  0  0  0
  146.2424  136.3690  152.0526 N   0  0  0  0  0  0  0  0  0  0  0  0
  145.7154  137.0733  153.1201 C   0  0  0  0  0  0  0  0  0  0  0  0
  146.5946  137.4435  154.0533 N   0  0  0  0  0  0  0  0  0  0  0  0
  146.1146  138.1391  155.1073 C   0  0  0  0  0  0  0  0  0  0  0  0
  144.7477  138.4608  155.2242 C   0  0  0  0  0  0  0  0  0  0  0  0
  143.9065  138.0190  154.1833 C   0  0  0  0  0  0  0  0  0  0  0  0
  142.5572  138.3001  154.2340 O   0  0  0  0  0  0  0  0  0  0  0  0
  141.7588  137.9634  153.1046 C   0  0  0  0  0  0  0  0  0  0  0  0
  144.4007  137.3202  153.1309 N   0  0  0  0  0  0  0  0  0  0  0  0
  146.6742  133.5975  150.8402 C   0  0  0  0  0  0  0  0  0  0  0  0
  145.8943  129.5675  153.0209 H   0  0  0  0  0  0  0  0  0  0  0  0
  146.8927  129.5226  151.5735 H   0  0  0  0  0  0  0  0  0  0  0  0
  145.1446  129.7172  151.4415 H   0  0  0  0  0  0  0  0  0  0  0  0
  145.3230  131.9787  152.5704 H   0  0  0  0  0  0  0  0  0  0  0  0
  147.0328  131.7132  152.7884 H   0  0  0  0  0  0  0  0  0  0  0  0
  146.0075  131.9803  148.7539 H   0  0  0  0  0  0  0  0  0  0  0  0
  145.3335  130.6896  149.7108 H   0  0  0  0  0  0  0  0  0  0  0  0
  143.5873  132.3493  148.9644 H   0  0  0  0  0  0  0  0  0  0  0  0
  143.6572  132.2800  150.7105 H   0  0  0  0  0  0  0  0  0  0  0  0
  144.8059  134.0347  151.8733 H   0  0  0  0  0  0  0  0  0  0  0  0
  145.9497  136.1721  150.0024 H   0  0  0  0  0  0  0  0  0  0  0  0
  144.4830  136.3299  150.9342 H   0  0  0  0  0  0  0  0  0  0  0  0
  147.2338  136.1778  152.0740 H   0  0  0  0  0  0  0  0  0  0  0  0
  146.8253  138.4407  155.8624 H   0  0  0  0  0  0  0  0  0  0  0  0
  144.3659  139.0184  156.0667 H   0  0  0  0  0  0  0  0  0  0  0  0
  140.7260  138.2573  153.2917 H   0  0  0  0  0  0  0  0  0  0  0  0
  141.7690  136.8887  152.9167 H   0  0  0  0  0  0  0  0  0  0  0  0
  142.0940  138.4862  152.2077 H   0  0  0  0  0  0  0  0  0  0  0  0
  147.3389  133.8660  151.6623 H   0  0  0  0  0  0  0  0  0  0  0  0
  147.1792  133.9115  149.9255 H   0  0  0  0  0  0  0  0  0  0  0  0
  147.3883  131.7474  150.5198 H   0  0  0  0  0  0  0  0  0  0  0  0
  1  2  1  0  0  0  0
  1 19  1  0  0  0  0
  1 20  1  0  0  0  0
  1 21  1  0  0  0  0
  2  3  1  0  0  0  0
  2 22  1  0  0  0  0
  2 23  1  0  0  0  0
  3 18  1  0  0  0  0
  3  4  1  0  0  0  0
  3 39  1  0  0  0  0
  4  5  1  0  0  0  0
  4 24  1  0  0  0  0
  4 25  1  0  0  0  0
  5  6  1  0  0  0  0
  5 26  1  0  0  0  0
  5 27  1  0  0  0  0
  6  7  1  0  0  0  0
  7  8  1  0  0  0  0
  7 18  1  0  0  0  0
  7 28  1  0  0  0  0
  8  9  1  0  0  0  0
  8 29  1  0  0  0  0
  8 30  1  0  0  0  0
  9 10  1  0  0  0  0
  9 31  1  0  0  0  0
 10 17  1  0  0  0  0
 10 11  2  0  0  0  0
 11 12  1  0  0  0  0
 12 13  2  0  0  0  0
 12 32  1  0  0  0  0
 13 14  1  0  0  0  0
 13 33  1  0  0  0  0
 14 15  1  0  0  0  0
 14 17  2  0  0  0  0
 15 16  1  0  0  0  0
 16 34  1  0  0  0  0
 16 35  1  0  0  0  0
 16 36  1  0  0  0  0
 18 37  1  0  0  0  0
 18 38  1  0  0  0  0
M  CHG  1   3   1
M  END
> <s_m_source_file>
AV-unprocessed.smi

> <i_m_source_file_index>
3250

> <i_lp_mmshare_version>
43012

> <i_f3d_flags>
0

> <s_epik_input>
W0NIM11bQ0gyXU4xW0NIMl1bQ0gyXU9bQ0BIXShbQ0gyXTEpW0NIMl1bTkhdYzJuW2NIXVtjSF1jKG4yKU9bQ0gzXQ==

> <s_epik_cmdline>
J2VwaWtfcHl0aG9uJywgJy1waCcsICc3LjAnLCAnLXRuJywgJzgnLCAnLW1hJywgJzIwMCcsICctbWV0YWxfYmluZGluZycsICctaW1hZScsICc8aW5maWxlLm1hZT4nLCAnLW9tYWUnLCAnPG91dGZpbGUubWFlPic=

> <r_lp_tautomer_probability>
1

> <r_epik_Ionization_Penalty>
0.19684

> <r_epik_Ionization_Penalty_Charging>
0.178504

> <r_epik_Ionization_Penalty_Neutral>
0.0183356

> <r_epik_State_Penalty>
0.162939

> <r_epik_Charging_Adjusted_Penalty>
0.341443

> <i_epik_Tot_Q>
1

> <i_epik_Tot_abs_Q>
1

> <r_epik_Metal_State_Penalty>
0.1608

> <b_epik_Metal_Only>
0

> <s_lp_Force_Field>
OPLS_2005

> <r_lp_Energy>
9.61167

> <b_lp_Chiralities_Consistent>
1

> <s_lp_Variant>
AV-unprocessed.smi:3250-3

> <Gold.Version>
5.8.1

> <Gold.Id.Protein>
6NUR|6NUR_protein|mol2

> <Gold.PLP.Fitness>
32.4398

> <Gold.PLP.PLP>
-26.6513

> <Gold.PLP.part.hbond>
-2.0000

> <Gold.PLP.part.metal>
0.0000

> <Gold.PLP.part.buried>
-6.5200

> <Gold.PLP.part.nonpolar>
-19.8402

> <Gold.PLP.part.repulsive>
1.9881

> <Gold.PLP.ligand.clash>
0.0000

> <Gold.PLP.ligand.torsion>
0.1239

> <Gold.PLP.Chemscore.Hbond>
2.0000

> <Gold.PLP.Chemscore.CHOScore>
0.0000

> <Gold.PLP.Chemscore.Metal>
0.0000

> <Gold.Chemscore.Hbonds>
donor molecule, donor type, donor heavy atom, donor atom, acceptor molecule, acceptor atom, score
      L1  H     3    39       P1 10747  1.00
      L1  H     9    31       P1  7948  1.00

> <Gold.PLP.Chemscore.Internal.Correction>
0.0362

> <Gold.Rescore>
     Score         DG    S(hbond)    S(metal)    S(lipo)     H(rot)  DE(clash)    DE(int)     intcor
     15.09     -15.22       2.00        0.00      63.68       1.71       0.03       0.10       ----

> <Gold.Chemscore.Fitness>
15.0938

> <Gold.Chemscore.DG>
-15.2245

> <Gold.Chemscore.ZeroCoef>
-5.4800

> <Gold.Chemscore.Hbond>
1.9994

> <Gold.Chemscore.Metal>
0.0000

> <Gold.Chemscore.Lipo>
63.6846

> <Gold.Chemscore.Internal_Hbond>
0.0000

> <Gold.Chemscore.DEClash>
0.0309

> <Gold.Chemscore.DEInternal>
0.0999

> <Gold.Chemscore.Rot>
1.7127

> <Gold.Chemscore.Internal.Correction>
   9.000000E+99

> <Gold.Chemscore.Hbonds>
donor molecule, donor type, donor heavy atom, donor atom, acceptor molecule, acceptor atom, score
      L1  H     3    39       P1 10747  1.00
      L1  H     9    31       P1  7948  1.00

> <Gold.Chemscore.Hbond.Weighted>
-6.6780

> <Gold.Chemscore.Metal.Weighted>
-0.0000

> <Gold.Chemscore.Lipo.Weighted>
-7.4511

> <Gold.Chemscore.Internal_Hbond.Weighted>
0.0000

> <Gold.Chemscore.DEClash.Weighted>
0.0309

> <Gold.Chemscore.DEInternal.Weighted>
0.0999

> <Gold.Chemscore.Rot.Weighted>
4.3846

> <Gold.Chemscore.Internal.Correction.Weighted>
   9.000000E+99

> <Gold.Protein.RotatedTorsions>
[ 6907 6896 6895 6894 ] final    6.47 input  -60.11 | X-H torsion
[ 7974 7965 7964 7962 ] final  163.85 input  175.53 | X-H torsion
[ 8008 7997 7996 7995 ] final  124.24 input   59.86 | X-H torsion
[ 10167 10162 10161 10158 ] final  167.50 input  -65.29 | X-H torsion
[ 10718 10713 10712 10709 ] final  122.68 input   66.30 | X-H torsion
[ 10763 10752 10751 10750 ] final  -38.85 input  -60.55 | X-H torsion
[ 11005 11000 10999 10996 ] final  109.91 input  -57.11 | X-H torsion

> <Gold.Protein.ActiveResidues>
 VAL166  LYS551  ARG553  GLY616  TRP617  ASP618  TYR619  PRO620  LYS621  CYS622 
 ASP623  PHE694  ASN695  SER759  ASP760  ASP761  ALA762  ILE779  LEU786  VAL792 
 PHE793  MET794  SER795  GLU796  ALA797  LYS798  CYS799  TRP800  GLU811  SER814 

> <Gold.Protein.RotatedAtoms>
  151.6742  135.0971  160.0203 H   0  0  0  0  0  0  0  0  0  0  0  0  # atno 6907 bound_to 6896
  152.3874  133.6626  159.6218 H   0  0  0  0  0  0  0  0  0  0  0  0  # atno 6908 bound_to 6896
  150.7796  133.8929  159.3360 H   0  0  0  0  0  0  0  0  0  0  0  0  # atno 6909 bound_to 6896
  144.7571  139.8242  143.6346 H   0  0  0  0  0  0  0  0  0  0  0  0  # atno 7974 bound_to 7965
  156.2794  140.2744  156.1756 H   0  0  0  0  0  0  0  0  0  0  0  0  # atno 8008 bound_to 7997
  155.0610  140.0386  157.2594 H   0  0  0  0  0  0  0  0  0  0  0  0  # atno 8009 bound_to 7997
  154.7117  140.2670  155.6628 H   0  0  0  0  0  0  0  0  0  0  0  0  # atno 8010 bound_to 7997
  139.4947  144.3915  151.9512 H   0  0  0  0  0  0  0  0  0  0  0  0  # atno 10167 bound_to 10162
  157.5723  131.1082  150.8343 H   0  0  0  0  0  0  0  0  0  0  0  0  # atno 10718 bound_to 10713
  153.9196  135.6783  153.4748 H   0  0  0  0  0  0  0  0  0  0  0  0  # atno 10763 bound_to 10752
  153.1035  135.4816  154.8907 H   0  0  0  0  0  0  0  0  0  0  0  0  # atno 10764 bound_to 10752
  154.7485  135.3178  154.8558 H   0  0  0  0  0  0  0  0  0  0  0  0  # atno 10765 bound_to 10752
  139.8871  134.9470  156.6198 H   0  0  0  0  0  0  0  0  0  0  0  0  # atno 11005 bound_to 11000
  146.1593  139.4702  142.9998 LP  0  0  0  0  0  0  0  0  0  0  0  0  # atno 17320 bound_to 7965
  145.6743  141.0208  143.1641 LP  0  0  0  0  0  0  0  0  0  0  0  0  # atno 17321 bound_to 7965
  140.3352  144.3269  150.5978 LP  0  0  0  0  0  0  0  0  0  0  0  0  # atno 17342 bound_to 10162
  140.5612  143.2192  151.7763 LP  0  0  0  0  0  0  0  0  0  0  0  0  # atno 17343 bound_to 10162
  156.8812  130.5180  149.5291 LP  0  0  0  0  0  0  0  0  0  0  0  0  # atno 17370 bound_to 10713
  156.0768  130.5788  150.9489 LP  0  0  0  0  0  0  0  0  0  0  0  0  # atno 17371 bound_to 10713
  140.7748  133.8708  155.8520 LP  0  0  0  0  0  0  0  0  0  0  0  0  # atno 17394 bound_to 11000
  140.9811  134.1404  157.4493 LP  0  0  0  0  0  0  0  0  0  0  0  0  # atno 17395 bound_to 11000

$$$$
