AV-unprocessed.smi:2445|AV-procd|sdf|9640|dock10
  -GOLD-   2272013273D 1   1.00000     0.00000
 Structure written by MMmdl.
 40 41  0  0  0  0  0  0  0  0  1 V2000
  145.3881  132.4194  149.1454 C   0  0  0  0  0  0  0  0  0  0  0  0
  145.3900  133.0425  150.4998 C   0  0  0  0  0  0  0  0  0  0  0  0
  146.0212  132.5899  151.6316 C   0  0  0  0  0  0  0  0  0  0  0  0
  145.8288  133.4046  152.7491 N   0  0  0  0  0  0  0  0  0  0  0  0
  145.0651  134.4677  152.4830 C   0  0  0  0  0  0  0  0  0  0  0  0
  144.6821  135.4871  153.5144 C   0  0  1  0  0  0  0  0  0  0  0  0
  145.0364  135.0267  154.9353 C   0  0  0  0  0  0  0  0  0  0  0  0
  145.2338  136.8967  153.2008 C   0  0  0  0  0  0  0  0  0  0  0  0
  146.6816  136.9894  153.3678 N   0  0  0  0  0  0  0  0  0  0  0  0
  147.2997  137.6952  154.3238 C   0  0  0  0  0  0  0  0  0  0  0  0
  146.7145  138.2975  155.2240 O   0  0  0  0  0  0  0  0  0  0  0  0
  148.6292  137.6907  154.1617 N   0  0  0  0  0  0  0  0  0  0  0  0
  149.5715  138.4489  154.9779 C   0  0  1  0  0  0  0  0  0  0  0  0
  150.8717  137.6984  155.1774 C   0  0  0  0  0  0  0  0  0  0  0  0
  151.8528  138.8278  155.4793 C   0  0  0  0  0  0  0  0  0  0  0  0
  151.3478  139.9832  154.8167 O   0  0  0  0  0  0  0  0  0  0  0  0
  150.0615  139.7163  154.2662 C   0  0  2  0  0  0  0  0  0  0  0  0
  149.1482  140.9370  154.4344 C   0  0  0  0  0  0  0  0  0  0  0  0
  144.5202  134.5222  150.8089 S   0  0  0  0  0  0  0  0  0  0  0  0
  146.1004  131.5956  149.0906 H   0  0  0  0  0  0  0  0  0  0  0  0
  145.6602  133.1493  148.3829 H   0  0  0  0  0  0  0  0  0  0  0  0
  144.4001  132.0282  148.9021 H   0  0  0  0  0  0  0  0  0  0  0  0
  146.6255  131.7004  151.7318 H   0  0  0  0  0  0  0  0  0  0  0  0
  143.5938  135.5608  153.4856 H   0  0  0  0  0  0  0  0  0  0  0  0
  144.5666  134.0699  155.1655 H   0  0  0  0  0  0  0  0  0  0  0  0
  144.6953  135.7486  155.6777 H   0  0  0  0  0  0  0  0  0  0  0  0
  146.1130  134.9082  155.0595 H   0  0  0  0  0  0  0  0  0  0  0  0
  144.9530  137.2036  152.1922 H   0  0  0  0  0  0  0  0  0  0  0  0
  144.7859  137.6235  153.8789 H   0  0  0  0  0  0  0  0  0  0  0  0
  147.2508  136.5283  152.6732 H   0  0  0  0  0  0  0  0  0  0  0  0
  149.0143  137.1652  153.3904 H   0  0  0  0  0  0  0  0  0  0  0  0
  149.1511  138.6962  155.9551 H   0  0  0  0  0  0  0  0  0  0  0  0
  150.8209  136.9544  155.9729 H   0  0  0  0  0  0  0  0  0  0  0  0
  151.1678  137.1928  154.2568 H   0  0  0  0  0  0  0  0  0  0  0  0
  151.8800  139.0311  156.5505 H   0  0  0  0  0  0  0  0  0  0  0  0
  152.8666  138.5935  155.1543 H   0  0  0  0  0  0  0  0  0  0  0  0
  150.2049  139.5106  153.2040 H   0  0  0  0  0  0  0  0  0  0  0  0
  148.1708  140.7624  153.9841 H   0  0  0  0  0  0  0  0  0  0  0  0
  149.5805  141.8144  153.9534 H   0  0  0  0  0  0  0  0  0  0  0  0
  148.9958  141.1747  155.4874 H   0  0  0  0  0  0  0  0  0  0  0  0
  1  2  1  0  0  0  0
  1 20  1  0  0  0  0
  1 21  1  0  0  0  0
  1 22  1  0  0  0  0
  2 19  1  0  0  0  0
  2  3  2  0  0  0  0
  3  4  1  0  0  0  0
  3 23  1  0  0  0  0
  4  5  2  0  0  0  0
  5  6  1  0  0  0  0
  5 19  1  0  0  0  0
  6  7  1  0  0  0  0
  6  8  1  0  0  0  0
  6 24  1  0  0  0  0
  7 25  1  0  0  0  0
  7 26  1  0  0  0  0
  7 27  1  0  0  0  0
  8  9  1  0  0  0  0
  8 28  1  0  0  0  0
  8 29  1  0  0  0  0
  9 10  1  0  0  0  0
  9 30  1  0  0  0  0
 10 11  2  0  0  0  0
 10 12  1  0  0  0  0
 12 13  1  0  0  0  0
 12 31  1  0  0  0  0
 13 17  1  0  0  0  0
 13 14  1  0  0  0  0
 13 32  1  0  0  0  0
 14 15  1  0  0  0  0
 14 33  1  0  0  0  0
 14 34  1  0  0  0  0
 15 16  1  0  0  0  0
 15 35  1  0  0  0  0
 15 36  1  0  0  0  0
 16 17  1  0  0  0  0
 17 18  1  0  0  0  0
 17 37  1  0  0  0  0
 18 38  1  0  0  0  0
 18 39  1  0  0  0  0
 18 40  1  0  0  0  0
M  END
> <s_m_source_file>
AV-unprocessed.smi

> <i_m_source_file_index>
2445

> <i_lp_mmshare_version>
43012

> <i_f3d_flags>
0

> <s_epik_input>
W0NIM11jMVtjSF1uYyhzMSlbQ0BIXShbQ0gzXSlbQ0gyXVtOSF1DKD1PKVtOSF1bQ0BASF0yW0NIMl1bQ0gyXU9bQ0BIXTJbQ0gzXQ==

> <s_epik_cmdline>
J2VwaWtfcHl0aG9uJywgJy1waCcsICc3LjAnLCAnLXRuJywgJzgnLCAnLW1hJywgJzIwMCcsICctbWV0YWxfYmluZGluZycsICctaW1hZScsICc8aW5maWxlLm1hZT4nLCAnLW9tYWUnLCAnPG91dGZpbGUubWFlPic=

> <r_epik_Ionization_Penalty>
0.000649483

> <r_epik_Ionization_Penalty_Charging>
0

> <r_epik_Ionization_Penalty_Neutral>
0.000649483

> <r_epik_State_Penalty>
0.000379895

> <r_epik_Charging_Adjusted_Penalty>
0.000379895

> <i_epik_Tot_Q>
0

> <i_epik_Tot_abs_Q>
0

> <r_epik_Metal_State_Penalty>
-0

> <b_epik_Metal_Only>
0

> <s_lp_Force_Field>
OPLS_2005

> <r_lp_Energy>
5.35471

> <b_lp_Chiralities_Consistent>
1

> <s_lp_Variant>
AV-unprocessed.smi:2445-8

> <Gold.Version>
5.8.1

> <Gold.Id.Protein>
6NUR|6NUR_protein|mol2

> <Gold.PLP.Fitness>
39.3748

> <Gold.PLP.PLP>
-28.2736

> <Gold.PLP.part.hbond>
-2.9736

> <Gold.PLP.part.metal>
0.0000

> <Gold.PLP.part.buried>
-2.9561

> <Gold.PLP.part.nonpolar>
-21.9736

> <Gold.PLP.part.repulsive>
0.2026

> <Gold.PLP.ligand.clash>
0.0000

> <Gold.PLP.ligand.torsion>
0.5066

> <Gold.PLP.Chemscore.Hbond>
3.0000

> <Gold.PLP.Chemscore.CHOScore>
1.0000

> <Gold.PLP.Chemscore.Metal>
0.0000

> <Gold.Chemscore.Hbonds>
donor molecule, donor type, donor heavy atom, donor atom, acceptor molecule, acceptor atom, score
      L1  H     9    30       P1  7948  1.00
      L1  H    12    31       P1  7948  1.00
      P1  H  7989  7998       L1    16  0.40
      L1  C     3    23       P1 10747  0.10

> <Gold.PLP.Chemscore.Internal.Correction>
0.1145

> <Gold.Rescore>
     Score         DG    S(hbond)    S(metal)    S(lipo)     H(rot)  DE(clash)    DE(int)     intcor
     17.94     -18.83       2.53        0.00      75.35       1.53       0.34       0.56       ----

> <Gold.Chemscore.Fitness>
17.9376

> <Gold.Chemscore.DG>
-18.8316

> <Gold.Chemscore.ZeroCoef>
-5.4800

> <Gold.Chemscore.Hbond>
2.5326

> <Gold.Chemscore.Metal>
0.0000

> <Gold.Chemscore.Lipo>
75.3500

> <Gold.Chemscore.Internal_Hbond>
0.0000

> <Gold.Chemscore.DEClash>
0.3358

> <Gold.Chemscore.DEInternal>
0.5582

> <Gold.Chemscore.Rot>
1.5325

> <Gold.Chemscore.Internal.Correction>
   9.000000E+99

> <Gold.Chemscore.Hbonds>
donor molecule, donor type, donor heavy atom, donor atom, acceptor molecule, acceptor atom, score
      L1  H     9    30       P1  7948  0.95
      L1  H    12    31       P1  7948  0.99
      P1  H  7989  7998       L1    16  0.01

> <Gold.Chemscore.Hbond.Weighted>
-8.4589

> <Gold.Chemscore.Metal.Weighted>
-0.0000

> <Gold.Chemscore.Lipo.Weighted>
-8.8160

> <Gold.Chemscore.Internal_Hbond.Weighted>
0.0000

> <Gold.Chemscore.DEClash.Weighted>
0.3358

> <Gold.Chemscore.DEInternal.Weighted>
0.5582

> <Gold.Chemscore.Rot.Weighted>
3.9233

> <Gold.Chemscore.Internal.Correction.Weighted>
   9.000000E+99

> <Gold.Protein.RotatedTorsions>
[ 6907 6896 6895 6894 ] final   39.82 input  -60.11 | X-H torsion
[ 7974 7965 7964 7962 ] final -168.92 input  175.53 | X-H torsion
[ 8008 7997 7996 7995 ] final   47.65 input   59.86 | X-H torsion
[ 10167 10162 10161 10158 ] final  151.29 input  -65.29 | X-H torsion
[ 10718 10713 10712 10709 ] final  -97.11 input   66.30 | X-H torsion
[ 10763 10752 10751 10750 ] final   19.05 input  -60.55 | X-H torsion
[ 11005 11000 10999 10996 ] final  100.92 input  -57.11 | X-H torsion

> <Gold.Protein.ActiveResidues>
 VAL166  LYS551  ARG553  GLY616  TRP617  ASP618  TYR619  PRO620  LYS621  CYS622 
 ASP623  PHE694  ASN695  SER759  ASP760  ASP761  ALA762  ILE779  LEU786  VAL792 
 PHE793  MET794  SER795  GLU796  ALA797  LYS798  CYS799  TRP800  GLU811  SER814 

> <Gold.Protein.RotatedAtoms>
  152.1746  134.8806  160.0531 H   0  0  0  0  0  0  0  0  0  0  0  0  # atno 6907 bound_to 6896
  151.9753  133.3734  159.4095 H   0  0  0  0  0  0  0  0  0  0  0  0  # atno 6908 bound_to 6896
  150.6907  134.4020  159.5167 H   0  0  0  0  0  0  0  0  0  0  0  0  # atno 6909 bound_to 6896
  144.7194  140.2298  143.6305 H   0  0  0  0  0  0  0  0  0  0  0  0  # atno 7974 bound_to 7965
  155.3726  140.3424  155.4244 H   0  0  0  0  0  0  0  0  0  0  0  0  # atno 8008 bound_to 7997
  156.1654  140.1614  156.8574 H   0  0  0  0  0  0  0  0  0  0  0  0  # atno 8009 bound_to 7997
  154.5180  140.0774  156.8100 H   0  0  0  0  0  0  0  0  0  0  0  0  # atno 8010 bound_to 7997
  139.4842  144.5453  151.7494 H   0  0  0  0  0  0  0  0  0  0  0  0  # atno 10167 bound_to 10162
  156.0076  130.5180  150.6326 H   0  0  0  0  0  0  0  0  0  0  0  0  # atno 10718 bound_to 10713
  153.1195  135.6716  153.9359 H   0  0  0  0  0  0  0  0  0  0  0  0  # atno 10763 bound_to 10752
  153.8879  135.3050  155.3448 H   0  0  0  0  0  0  0  0  0  0  0  0  # atno 10764 bound_to 10752
  154.7608  135.4989  153.9540 H   0  0  0  0  0  0  0  0  0  0  0  0  # atno 10765 bound_to 10752
  139.8772  134.9161  156.4829 H   0  0  0  0  0  0  0  0  0  0  0  0  # atno 11005 bound_to 11000
  145.8421  139.2135  143.1821 LP  0  0  0  0  0  0  0  0  0  0  0  0  # atno 17320 bound_to 7965
  146.0337  140.8233  142.9863 LP  0  0  0  0  0  0  0  0  0  0  0  0  # atno 17321 bound_to 7965
  140.4999  144.1185  150.5968 LP  0  0  0  0  0  0  0  0  0  0  0  0  # atno 17342 bound_to 10162
  140.4074  143.2673  151.9874 LP  0  0  0  0  0  0  0  0  0  0  0  0  # atno 17343 bound_to 10162
  157.4121  131.0825  151.1211 LP  0  0  0  0  0  0  0  0  0  0  0  0  # atno 17370 bound_to 10713
  157.1839  130.6321  149.5681 LP  0  0  0  0  0  0  0  0  0  0  0  0  # atno 17371 bound_to 10713
  140.8714  133.7985  155.9368 LP  0  0  0  0  0  0  0  0  0  0  0  0  # atno 17394 bound_to 11000
  140.8949  134.2450  157.5074 LP  0  0  0  0  0  0  0  0  0  0  0  0  # atno 17395 bound_to 11000

$$$$
