AV-unprocessed.smi:3189|AV-procd|sdf|12188|dock3
  -GOLD-   2272018 33D 1   1.00000     0.00000
 Structure written by MMmdl.
 30 31  0  0  0  0  0  0  0  0  1 V2000
  147.2389  139.1895  153.2275 C   0  0  0  0  0  0  0  0  0  0  0  0
  148.4972  139.4815  154.0236 C   0  0  0  0  0  0  0  0  0  0  0  0
  149.3877  138.4685  154.1023 N   0  0  0  0  0  0  0  0  0  0  0  0
  150.5211  138.6729  154.8044 C   0  0  0  0  0  0  0  0  0  0  0  0
  150.8236  139.8864  155.4511 C   0  0  0  0  0  0  0  0  0  0  0  0
  149.9001  140.9548  155.3572 C   0  0  0  0  0  0  0  0  0  0  0  0
  150.0945  142.2141  155.9884 N   0  0  0  0  0  0  0  0  0  0  0  0
  151.0960  142.6098  156.7984 C   0  0  0  0  0  0  0  0  0  0  0  0
  152.0678  141.9198  157.0998 O   0  0  0  0  0  0  0  0  0  0  0  0
  150.9941  143.8852  157.2113 N   0  0  0  0  0  0  0  0  0  0  0  0
  151.8923  144.5960  158.0718 C   0  0  1  0  0  0  0  0  0  0  0  0
  151.3328  145.1020  159.3834 C   0  0  0  0  0  0  0  0  0  0  0  0
  152.3230  143.9663  159.3830 C   0  0  1  0  0  0  0  0  0  0  0  0
  151.8985  142.5657  159.7788 C   0  0  0  0  0  0  0  0  0  0  0  0
  148.7022  140.7401  154.6361 C   0  0  0  0  0  0  0  0  0  0  0  0
  147.5149  141.9942  154.4992 Cl  0  0  0  0  0  0  0  0  0  0  0  0
  147.1535  139.8800  152.3880 H   0  0  0  0  0  0  0  0  0  0  0  0
  146.3562  139.3016  153.8579 H   0  0  0  0  0  0  0  0  0  0  0  0
  147.2420  138.1737  152.8296 H   0  0  0  0  0  0  0  0  0  0  0  0
  151.2065  137.8401  154.8587 H   0  0  0  0  0  0  0  0  0  0  0  0
  151.7422  139.9684  156.0112 H   0  0  0  0  0  0  0  0  0  0  0  0
  149.4241  142.9267  155.7393 H   0  0  0  0  0  0  0  0  0  0  0  0
  150.2561  144.4358  156.7964 H   0  0  0  0  0  0  0  0  0  0  0  0
  152.6069  145.2651  157.5946 H   0  0  0  0  0  0  0  0  0  0  0  0
  151.6815  146.0699  159.7380 H   0  0  0  0  0  0  0  0  0  0  0  0
  150.2955  144.8694  159.6176 H   0  0  0  0  0  0  0  0  0  0  0  0
  153.3328  144.2136  159.7048 H   0  0  0  0  0  0  0  0  0  0  0  0
  150.8548  142.3825  159.5216 H   0  0  0  0  0  0  0  0  0  0  0  0
  152.0155  142.4308  160.8542 H   0  0  0  0  0  0  0  0  0  0  0  0
  152.5182  141.8293  159.2667 H   0  0  0  0  0  0  0  0  0  0  0  0
  1  2  1  0  0  0  0
  1 17  1  0  0  0  0
  1 18  1  0  0  0  0
  1 19  1  0  0  0  0
  2 15  1  0  0  0  0
  2  3  2  0  0  0  0
  3  4  1  0  0  0  0
  4  5  2  0  0  0  0
  4 20  1  0  0  0  0
  5  6  1  0  0  0  0
  5 21  1  0  0  0  0
  6  7  1  0  0  0  0
  6 15  2  0  0  0  0
  7  8  1  0  0  0  0
  7 22  1  0  0  0  0
  8  9  2  0  0  0  0
  8 10  1  0  0  0  0
 10 11  1  0  0  0  0
 10 23  1  0  0  0  0
 11 13  1  0  0  0  0
 11 12  1  0  0  0  0
 11 24  1  0  0  0  0
 12 13  1  0  0  0  0
 12 25  1  0  0  0  0
 12 26  1  0  0  0  0
 13 14  1  0  0  0  0
 13 27  1  0  0  0  0
 14 28  1  0  0  0  0
 14 29  1  0  0  0  0
 14 30  1  0  0  0  0
 15 16  1  0  0  0  0
M  END
> <s_m_source_file>
AV-unprocessed.smi

> <i_m_source_file_index>
3189

> <i_lp_mmshare_version>
43012

> <i_f3d_flags>
0

> <s_epik_input>
W0NIM11jMW5bY0hdW2NIXWMoYzFDbClbTkhdQyg9TylbTkhdW0NAQEhdMltDSDJdW0NASF0yW0NIM10=

> <s_epik_cmdline>
J2VwaWtfcHl0aG9uJywgJy1waCcsICc3LjAnLCAnLXRuJywgJzgnLCAnLW1hJywgJzIwMCcsICctbWV0YWxfYmluZGluZycsICctaW1hZScsICc8aW5maWxlLm1hZT4nLCAnLW9tYWUnLCAnPG91dGZpbGUubWFlPic=

> <r_epik_Ionization_Penalty>
0.00994309

> <r_epik_Ionization_Penalty_Charging>
0

> <r_epik_Ionization_Penalty_Neutral>
0.00994309

> <r_epik_State_Penalty>
0.00754503

> <r_epik_Charging_Adjusted_Penalty>
0.00754503

> <i_epik_Tot_Q>
0

> <i_epik_Tot_abs_Q>
0

> <r_epik_Metal_State_Penalty>
0.00742071

> <b_epik_Metal_Only>
0

> <s_lp_Force_Field>
OPLS_2005

> <r_lp_Energy>
34.6575

> <b_lp_Chiralities_Consistent>
1

> <s_lp_Variant>
AV-unprocessed.smi:3189-2

> <Gold.Version>
5.8.1

> <Gold.Id.Protein>
6NUR|6NUR_protein|mol2

> <Gold.PLP.Fitness>
39.7372

> <Gold.PLP.PLP>
-33.8088

> <Gold.PLP.part.hbond>
-2.0000

> <Gold.PLP.part.metal>
0.0000

> <Gold.PLP.part.buried>
1.4299

> <Gold.PLP.part.nonpolar>
-33.5267

> <Gold.PLP.part.repulsive>
0.3976

> <Gold.PLP.ligand.clash>
0.0000

> <Gold.PLP.ligand.torsion>
0.0553

> <Gold.PLP.Chemscore.Hbond>
2.0000

> <Gold.PLP.Chemscore.CHOScore>
0.0000

> <Gold.PLP.Chemscore.Metal>
0.0000

> <Gold.Chemscore.Hbonds>
donor molecule, donor type, donor heavy atom, donor atom, acceptor molecule, acceptor atom, score
      L1  H     7    22       P1  8028  1.00
      L1  H    10    23       P1  8028  1.00

> <Gold.PLP.Chemscore.Internal.Correction>
0.0390

> <Gold.Rescore>
     Score         DG    S(hbond)    S(metal)    S(lipo)     H(rot)  DE(clash)    DE(int)     intcor
     16.31     -20.43       1.89        0.00      95.77       1.00       1.56       2.56       ----

> <Gold.Chemscore.Fitness>
16.3089

> <Gold.Chemscore.DG>
-20.4260

> <Gold.Chemscore.ZeroCoef>
-5.4800

> <Gold.Chemscore.Hbond>
1.8864

> <Gold.Chemscore.Metal>
0.0000

> <Gold.Chemscore.Lipo>
95.7726

> <Gold.Chemscore.Internal_Hbond>
0.0000

> <Gold.Chemscore.DEClash>
1.5609

> <Gold.Chemscore.DEInternal>
2.5562

> <Gold.Chemscore.Rot>
1.0000

> <Gold.Chemscore.Internal.Correction>
   9.000000E+99

> <Gold.Chemscore.Hbonds>
donor molecule, donor type, donor heavy atom, donor atom, acceptor molecule, acceptor atom, score
      L1  H     7    22       P1  8028  0.96
      L1  H    10    23       P1  8028  0.89

> <Gold.Chemscore.Hbond.Weighted>
-6.3006

> <Gold.Chemscore.Metal.Weighted>
-0.0000

> <Gold.Chemscore.Lipo.Weighted>
-11.2054

> <Gold.Chemscore.Internal_Hbond.Weighted>
0.0000

> <Gold.Chemscore.DEClash.Weighted>
1.5609

> <Gold.Chemscore.DEInternal.Weighted>
2.5562

> <Gold.Chemscore.Rot.Weighted>
2.5600

> <Gold.Chemscore.Internal.Correction.Weighted>
   9.000000E+99

> <Gold.Protein.RotatedTorsions>
[ 6907 6896 6895 6894 ] final -170.98 input  -60.11 | X-H torsion
[ 7974 7965 7964 7962 ] final  177.31 input  175.53 | X-H torsion
[ 8008 7997 7996 7995 ] final -132.88 input   59.86 | X-H torsion
[ 10167 10162 10161 10158 ] final   -6.15 input  -65.29 | X-H torsion
[ 10718 10713 10712 10709 ] final -159.02 input   66.30 | X-H torsion
[ 10763 10752 10751 10750 ] final   81.86 input  -60.55 | X-H torsion
[ 11005 11000 10999 10996 ] final  -75.72 input  -57.11 | X-H torsion

> <Gold.Protein.ActiveResidues>
 VAL166  LYS551  ARG553  GLY616  TRP617  ASP618  TYR619  PRO620  LYS621  CYS622 
 ASP623  PHE694  ASN695  SER759  ASP760  ASP761  ALA762  ILE779  LEU786  VAL792 
 PHE793  MET794  SER795  GLU796  ALA797  LYS798  CYS799  TRP800  GLU811  SER814 

> <Gold.Protein.RotatedAtoms>
  151.5164  133.3475  159.2893 H   0  0  0  0  0  0  0  0  0  0  0  0  # atno 6907 bound_to 6896
  150.8680  134.8050  159.7144 H   0  0  0  0  0  0  0  0  0  0  0  0  # atno 6908 bound_to 6896
  152.4678  134.5043  159.9786 H   0  0  0  0  0  0  0  0  0  0  0  0  # atno 6909 bound_to 6896
  144.7171  140.0228  143.6440 H   0  0  0  0  0  0  0  0  0  0  0  0  # atno 7974 bound_to 7965
  155.3363  140.0469  157.3044 H   0  0  0  0  0  0  0  0  0  0  0  0  # atno 8008 bound_to 7997
  154.5301  140.2254  155.8785 H   0  0  0  0  0  0  0  0  0  0  0  0  # atno 8009 bound_to 7997
  156.1780  140.3080  155.9101 H   0  0  0  0  0  0  0  0  0  0  0  0  # atno 8010 bound_to 7997
  140.6987  143.6226  150.8598 H   0  0  0  0  0  0  0  0  0  0  0  0  # atno 10167 bound_to 10162
  156.5622  130.8652  151.2813 H   0  0  0  0  0  0  0  0  0  0  0  0  # atno 10718 bound_to 10713
  153.1153  135.4750  154.9104 H   0  0  0  0  0  0  0  0  0  0  0  0  # atno 10763 bound_to 10752
  154.7522  135.3109  154.8539 H   0  0  0  0  0  0  0  0  0  0  0  0  # atno 10764 bound_to 10752
  153.9117  135.6864  153.4804 H   0  0  0  0  0  0  0  0  0  0  0  0  # atno 10765 bound_to 10752
  141.1648  133.6957  156.7560 H   0  0  0  0  0  0  0  0  0  0  0  0  # atno 11005 bound_to 11000
  146.0167  139.3215  143.0838 LP  0  0  0  0  0  0  0  0  0  0  0  0  # atno 17320 bound_to 7965
  145.8617  140.9471  143.0696 LP  0  0  0  0  0  0  0  0  0  0  0  0  # atno 17321 bound_to 7965
  139.9947  143.5809  152.2897 LP  0  0  0  0  0  0  0  0  0  0  0  0  # atno 17342 bound_to 10162
  139.6477  144.7659  151.2211 LP  0  0  0  0  0  0  0  0  0  0  0  0  # atno 17343 bound_to 10162
  157.7366  130.9781  150.2145 LP  0  0  0  0  0  0  0  0  0  0  0  0  # atno 17370 bound_to 10713
  156.2788  130.3731  149.7956 LP  0  0  0  0  0  0  0  0  0  0  0  0  # atno 17371 bound_to 10713
  140.2569  134.8497  157.3721 LP  0  0  0  0  0  0  0  0  0  0  0  0  # atno 17394 bound_to 11000
  140.1649  134.4682  155.7870 LP  0  0  0  0  0  0  0  0  0  0  0  0  # atno 17395 bound_to 11000

$$$$
