AV-unprocessed.smi:530|AV-procd|sdf|2842|dock9
  -GOLD-   2262023333D 1   1.00000     0.00000
 Structure written by MMmdl.
 35 37  0  0  0  0  0  0  0  0  1 V2000
  152.4600  139.3366  155.2084 C   0  0  0  0  0  0  0  0  0  0  0  0
  151.0818  139.7144  154.7671 C   0  0  0  0  0  0  0  0  0  0  0  0
  150.3769  138.9651  153.9186 N   0  0  0  0  0  0  0  0  0  0  0  0
  149.1951  139.6711  153.8005 C   0  0  0  0  0  0  0  0  0  0  0  0
  148.0342  139.4004  153.0412 C   0  0  0  0  0  0  0  0  0  0  0  0
  146.9324  140.2799  153.0833 C   0  0  0  0  0  0  0  0  0  0  0  0
  146.9747  141.4399  153.8840 C   0  0  0  0  0  0  0  0  0  0  0  0
  148.1223  141.7294  154.6468 C   0  0  0  0  0  0  0  0  0  0  0  0
  149.2197  140.8491  154.5996 C   0  0  0  0  0  0  0  0  0  0  0  0
  150.4703  140.8416  155.2081 N   0  0  0  0  0  0  0  0  0  0  0  0
  150.9823  141.8517  156.1243 C   0  0  0  0  0  0  0  0  0  0  0  0
  150.3331  141.7645  157.5199 C   0  0  2  0  0  0  0  0  0  0  0  0
  149.1402  142.5244  157.5463 O   0  0  0  0  0  0  0  0  0  0  0  0
  151.3068  142.1821  158.6108 C   0  0  0  0  0  0  0  0  0  0  0  0
  151.0728  143.3628  159.3480 C   0  0  0  0  0  0  0  0  0  0  0  0
  151.9657  143.7547  160.3642 C   0  0  0  0  0  0  0  0  0  0  0  0
  153.0969  142.9669  160.6507 C   0  0  0  0  0  0  0  0  0  0  0  0
  153.3329  141.7853  159.9226 C   0  0  0  0  0  0  0  0  0  0  0  0
  152.4399  141.3927  158.9066 C   0  0  0  0  0  0  0  0  0  0  0  0
  152.7945  138.4367  154.6913 H   0  0  0  0  0  0  0  0  0  0  0  0
  152.4704  139.1405  156.2806 H   0  0  0  0  0  0  0  0  0  0  0  0
  153.1635  140.1395  154.9882 H   0  0  0  0  0  0  0  0  0  0  0  0
  147.9913  138.5141  152.4257 H   0  0  0  0  0  0  0  0  0  0  0  0
  146.0502  140.0633  152.4991 H   0  0  0  0  0  0  0  0  0  0  0  0
  146.1262  142.1076  153.9118 H   0  0  0  0  0  0  0  0  0  0  0  0
  148.1595  142.6174  155.2602 H   0  0  0  0  0  0  0  0  0  0  0  0
  152.0603  141.7082  156.2082 H   0  0  0  0  0  0  0  0  0  0  0  0
  150.8422  142.8441  155.6954 H   0  0  0  0  0  0  0  0  0  0  0  0
  150.0421  140.7301  157.7068 H   0  0  0  0  0  0  0  0  0  0  0  0
  149.2118  143.2157  156.9060 H   0  0  0  0  0  0  0  0  0  0  0  0
  150.2062  143.9725  159.1379 H   0  0  0  0  0  0  0  0  0  0  0  0
  151.7826  144.6597  160.9246 H   0  0  0  0  0  0  0  0  0  0  0  0
  153.7821  143.2677  161.4297 H   0  0  0  0  0  0  0  0  0  0  0  0
  154.1990  141.1792  160.1441 H   0  0  0  0  0  0  0  0  0  0  0  0
  152.6271  140.4823  158.3561 H   0  0  0  0  0  0  0  0  0  0  0  0
  1  2  1  0  0  0  0
  1 20  1  0  0  0  0
  1 21  1  0  0  0  0
  1 22  1  0  0  0  0
  2 10  1  0  0  0  0
  2  3  2  0  0  0  0
  3  4  1  0  0  0  0
  4  9  2  0  0  0  0
  4  5  1  0  0  0  0
  5  6  2  0  0  0  0
  5 23  1  0  0  0  0
  6  7  1  0  0  0  0
  6 24  1  0  0  0  0
  7  8  2  0  0  0  0
  7 25  1  0  0  0  0
  8  9  1  0  0  0  0
  8 26  1  0  0  0  0
  9 10  1  0  0  0  0
 10 11  1  0  0  0  0
 11 12  1  0  0  0  0
 11 27  1  0  0  0  0
 11 28  1  0  0  0  0
 12 13  1  0  0  0  0
 12 14  1  0  0  0  0
 12 29  1  0  0  0  0
 13 30  1  0  0  0  0
 14 19  1  0  0  0  0
 14 15  2  0  0  0  0
 15 16  1  0  0  0  0
 15 31  1  0  0  0  0
 16 17  2  0  0  0  0
 16 32  1  0  0  0  0
 17 18  1  0  0  0  0
 17 33  1  0  0  0  0
 18 19  2  0  0  0  0
 18 34  1  0  0  0  0
 19 35  1  0  0  0  0
M  END
> <s_m_source_file>
AV-unprocessed.smi

> <i_m_source_file_index>
530

> <i_lp_mmshare_version>
43012

> <i_f3d_flags>
0

> <s_epik_input>
W2NIXTFbY0hdW2NIXVtjSF1jKGMxMiluKGMobjIpW0NIM10pW0NIMl1bQ0BIXShbT0hdKWMzW2NIXVtjSF1bY0hdW2NIXVtjSF0z

> <s_epik_cmdline>
J2VwaWtfcHl0aG9uJywgJy1waCcsICc3LjAnLCAnLXRuJywgJzgnLCAnLW1hJywgJzIwMCcsICctbWV0YWxfYmluZGluZycsICctaW1hZScsICc8aW5maWxlLm1hZT4nLCAnLW9tYWUnLCAnPG91dGZpbGUubWFlPic=

> <r_epik_Ionization_Penalty>
0.129663

> <r_epik_Ionization_Penalty_Charging>
0

> <r_epik_Ionization_Penalty_Neutral>
0.129663

> <r_epik_State_Penalty>
0.119073

> <r_epik_Charging_Adjusted_Penalty>
0.119073

> <i_epik_Tot_Q>
0

> <i_epik_Tot_abs_Q>
0

> <r_epik_Metal_State_Penalty>
0.000131867

> <b_epik_Metal_Only>
0

> <s_lp_Force_Field>
OPLS_2005

> <r_lp_Energy>
11.6946

> <b_lp_Chiralities_Consistent>
1

> <s_lp_Variant>
AV-unprocessed.smi:530-1

> <Gold.Version>
5.8.1

> <Gold.Id.Protein>
6NUR|6NUR_protein|mol2

> <Gold.PLP.Fitness>
44.8768

> <Gold.PLP.PLP>
-43.2707

> <Gold.PLP.part.hbond>
-1.0000

> <Gold.PLP.part.metal>
0.0000

> <Gold.PLP.part.buried>
-0.9039

> <Gold.PLP.part.nonpolar>
-41.8335

> <Gold.PLP.part.repulsive>
0.2101

> <Gold.PLP.ligand.clash>
0.0000

> <Gold.PLP.ligand.torsion>
0.7101

> <Gold.PLP.Chemscore.Hbond>
1.0000

> <Gold.PLP.Chemscore.CHOScore>
0.0000

> <Gold.PLP.Chemscore.Metal>
0.0000

> <Gold.Chemscore.Hbonds>
donor molecule, donor type, donor heavy atom, donor atom, acceptor molecule, acceptor atom, score
      L1  H    13    30       P1  8028  1.00

> <Gold.PLP.Chemscore.Internal.Correction>
0.0262

> <Gold.Rescore>
     Score         DG    S(hbond)    S(metal)    S(lipo)     H(rot)  DE(clash)    DE(int)     intcor
     18.02     -18.76       0.97        0.00     122.90       1.70       0.21       0.52       ----

> <Gold.Chemscore.Fitness>
18.0222

> <Gold.Chemscore.DG>
-18.7556

> <Gold.Chemscore.ZeroCoef>
-5.4800

> <Gold.Chemscore.Hbond>
0.9736

> <Gold.Chemscore.Metal>
0.0000

> <Gold.Chemscore.Lipo>
122.8978

> <Gold.Chemscore.Internal_Hbond>
0.0000

> <Gold.Chemscore.DEClash>
0.2125

> <Gold.Chemscore.DEInternal>
0.5208

> <Gold.Chemscore.Rot>
1.7013

> <Gold.Chemscore.Internal.Correction>
   9.000000E+99

> <Gold.Chemscore.Hbonds>
donor molecule, donor type, donor heavy atom, donor atom, acceptor molecule, acceptor atom, score
      L1  H    13    30       P1  8028  0.92

> <Gold.Chemscore.Hbond.Weighted>
-3.2519

> <Gold.Chemscore.Metal.Weighted>
-0.0000

> <Gold.Chemscore.Lipo.Weighted>
-14.3790

> <Gold.Chemscore.Internal_Hbond.Weighted>
0.0000

> <Gold.Chemscore.DEClash.Weighted>
0.2125

> <Gold.Chemscore.DEInternal.Weighted>
0.5208

> <Gold.Chemscore.Rot.Weighted>
4.3554

> <Gold.Chemscore.Internal.Correction.Weighted>
   9.000000E+99

> <Gold.Protein.RotatedTorsions>
[ 6907 6896 6895 6894 ] final  -43.42 input  -60.11 | X-H torsion
[ 7974 7965 7964 7962 ] final  132.94 input  175.53 | X-H torsion
[ 8008 7997 7996 7995 ] final  -25.55 input   59.86 | X-H torsion
[ 10167 10162 10161 10158 ] final  -28.83 input  -65.29 | X-H torsion
[ 10718 10713 10712 10709 ] final -158.22 input   66.30 | X-H torsion
[ 10763 10752 10751 10750 ] final   92.77 input  -60.55 | X-H torsion
[ 11005 11000 10999 10996 ] final  104.25 input  -57.11 | X-H torsion

> <Gold.Protein.ActiveResidues>
 VAL166  LYS551  ARG553  GLY616  TRP617  ASP618  TYR619  PRO620  LYS621  CYS622 
 ASP623  PHE694  ASN695  SER759  ASP760  ASP761  ALA762  ILE779  LEU786  VAL792 
 PHE793  MET794  SER795  GLU796  ALA797  LYS798  CYS799  TRP800  GLU811  SER814 

> <Gold.Protein.RotatedAtoms>
  150.9441  134.8848  159.7630 H   0  0  0  0  0  0  0  0  0  0  0  0  # atno 6907 bound_to 6896
  152.5092  134.3899  159.9390 H   0  0  0  0  0  0  0  0  0  0  0  0  # atno 6908 bound_to 6896
  151.3919  133.3746  159.2757 H   0  0  0  0  0  0  0  0  0  0  0  0  # atno 6909 bound_to 6896
  144.9916  139.4400  143.5336 H   0  0  0  0  0  0  0  0  0  0  0  0  # atno 7974 bound_to 7965
  154.4470  140.1923  156.0637 H   0  0  0  0  0  0  0  0  0  0  0  0  # atno 8008 bound_to 7997
  156.0564  140.3302  155.7383 H   0  0  0  0  0  0  0  0  0  0  0  0  # atno 8009 bound_to 7997
  155.5479  140.0592  157.2847 H   0  0  0  0  0  0  0  0  0  0  0  0  # atno 8010 bound_to 7997
  140.7266  143.3978  151.1317 H   0  0  0  0  0  0  0  0  0  0  0  0  # atno 10167 bound_to 10162
  156.5511  130.8606  151.2780 H   0  0  0  0  0  0  0  0  0  0  0  0  # atno 10718 bound_to 10713
  153.2228  135.4349  155.0508 H   0  0  0  0  0  0  0  0  0  0  0  0  # atno 10763 bound_to 10752
  154.8258  135.3360  154.6902 H   0  0  0  0  0  0  0  0  0  0  0  0  # atno 10764 bound_to 10752
  153.7333  135.7009  153.5040 H   0  0  0  0  0  0  0  0  0  0  0  0  # atno 10765 bound_to 10752
  139.8790  134.9293  156.5333 H   0  0  0  0  0  0  0  0  0  0  0  0  # atno 11005 bound_to 11000
  146.3433  139.9252  142.8761 LP  0  0  0  0  0  0  0  0  0  0  0  0  # atno 17320 bound_to 7965
  145.2277  140.9960  143.4009 LP  0  0  0  0  0  0  0  0  0  0  0  0  # atno 17321 bound_to 7965
  139.7593  143.8660  152.3096 LP  0  0  0  0  0  0  0  0  0  0  0  0  # atno 17342 bound_to 10162
  139.8540  144.7150  150.9179 LP  0  0  0  0  0  0  0  0  0  0  0  0  # atno 17343 bound_to 10162
  157.7387  130.9818  150.2269 LP  0  0  0  0  0  0  0  0  0  0  0  0  # atno 17370 bound_to 10713
  156.2883  130.3742  149.7866 LP  0  0  0  0  0  0  0  0  0  0  0  0  # atno 17371 bound_to 10713
  140.8365  133.8238  155.9033 LP  0  0  0  0  0  0  0  0  0  0  0  0  # atno 17394 bound_to 11000
  140.9279  134.2059  157.4884 LP  0  0  0  0  0  0  0  0  0  0  0  0  # atno 17395 bound_to 11000

$$$$
