AV-unprocessed.smi:3176|AV-procd|sdf|12125|dock9
  -GOLD-   2272017563D 1   1.00000     0.00000
 Structure written by MMmdl.
 32 33  0  0  0  0  0  0  0  0  1 V2000
  155.4442  139.4618  158.9892 O   0  0  0  0  0  0  0  0  0  0  0  0
  154.2726  139.7453  158.7385 C   0  0  0  0  0  0  0  0  0  0  0  0
  153.5153  140.4954  159.5543 N   0  0  0  0  0  0  0  0  0  0  0  0
  153.9202  140.9892  160.8665 C   0  0  0  0  0  0  0  0  0  0  0  0
  152.9191  142.0067  161.4506 C   0  0  0  0  0  0  0  0  0  0  0  0
  152.6064  143.1575  160.5080 C   0  0  0  0  0  0  0  0  0  0  0  0
  151.6779  144.1558  160.8741 C   0  0  0  0  0  0  0  0  0  0  0  0
  151.4011  145.1853  159.9546 C   0  0  0  0  0  0  0  0  0  0  0  0
  152.0638  145.1803  158.7123 C   0  0  0  0  0  0  0  0  0  0  0  0
  152.9771  144.1411  158.4440 C   0  0  0  0  0  0  0  0  0  0  0  0
  153.2475  143.1472  159.3176 N   0  0  0  0  0  0  0  0  0  0  0  0
  153.6089  139.2386  157.4471 C   0  0  1  0  0  0  0  0  0  0  0  0
  152.2254  139.8562  157.1699 C   0  0  0  0  0  0  0  0  0  0  0  0
  152.5054  140.8698  156.0806 C   0  0  0  0  0  0  0  0  0  0  0  0
  153.6223  140.1833  155.3094 C   0  0  0  0  0  0  0  0  0  0  0  0
  154.4222  139.5935  156.3238 O   0  0  0  0  0  0  0  0  0  0  0  0
  152.5664  140.6883  159.2667 H   0  0  0  0  0  0  0  0  0  0  0  0
  154.0702  140.1586  161.5576 H   0  0  0  0  0  0  0  0  0  0  0  0
  154.8918  141.4685  160.7452 H   0  0  0  0  0  0  0  0  0  0  0  0
  151.9884  141.4985  161.7055 H   0  0  0  0  0  0  0  0  0  0  0  0
  153.3065  142.4075  162.3880 H   0  0  0  0  0  0  0  0  0  0  0  0
  151.1799  144.1273  161.8321 H   0  0  0  0  0  0  0  0  0  0  0  0
  150.6917  145.9627  160.1973 H   0  0  0  0  0  0  0  0  0  0  0  0
  151.8770  145.9539  157.9825 H   0  0  0  0  0  0  0  0  0  0  0  0
  153.5033  144.1061  157.5015 H   0  0  0  0  0  0  0  0  0  0  0  0
  153.5281  138.1527  157.5046 H   0  0  0  0  0  0  0  0  0  0  0  0
  151.5507  139.0861  156.7936 H   0  0  0  0  0  0  0  0  0  0  0  0
  151.7457  140.3110  158.0374 H   0  0  0  0  0  0  0  0  0  0  0  0
  151.6336  141.0906  155.4648 H   0  0  0  0  0  0  0  0  0  0  0  0
  152.8656  141.8027  156.5153 H   0  0  0  0  0  0  0  0  0  0  0  0
  153.2212  139.3995  154.6651 H   0  0  0  0  0  0  0  0  0  0  0  0
  154.1992  140.8745  154.6952 H   0  0  0  0  0  0  0  0  0  0  0  0
  1  2  2  0  0  0  0
  2  3  1  0  0  0  0
  2 12  1  0  0  0  0
  3  4  1  0  0  0  0
  3 17  1  0  0  0  0
  4  5  1  0  0  0  0
  4 18  1  0  0  0  0
  4 19  1  0  0  0  0
  5  6  1  0  0  0  0
  5 20  1  0  0  0  0
  5 21  1  0  0  0  0
  6 11  1  0  0  0  0
  6  7  2  0  0  0  0
  7  8  1  0  0  0  0
  7 22  1  0  0  0  0
  8  9  2  0  0  0  0
  8 23  1  0  0  0  0
  9 10  1  0  0  0  0
  9 24  1  0  0  0  0
 10 11  2  0  0  0  0
 10 25  1  0  0  0  0
 12 16  1  0  0  0  0
 12 13  1  0  0  0  0
 12 26  1  0  0  0  0
 13 14  1  0  0  0  0
 13 27  1  0  0  0  0
 13 28  1  0  0  0  0
 14 15  1  0  0  0  0
 14 29  1  0  0  0  0
 14 30  1  0  0  0  0
 15 16  1  0  0  0  0
 15 31  1  0  0  0  0
 15 32  1  0  0  0  0
M  END
> <s_m_source_file>
AV-unprocessed.smi

> <i_m_source_file_index>
3176

> <i_lp_mmshare_version>
43012

> <i_f3d_flags>
0

> <s_epik_input>
TzFbQ0gyXVtDSDJdW0NIMl1bQ0BIXTFDKD1PKVtOSF1bQ0gyXVtDSDJdYzJbY0hdW2NIXVtjSF1bY0hdbjI=

> <s_epik_cmdline>
J2VwaWtfcHl0aG9uJywgJy1waCcsICc3LjAnLCAnLXRuJywgJzgnLCAnLW1hJywgJzIwMCcsICctbWV0YWxfYmluZGluZycsICctaW1hZScsICc8aW5maWxlLm1hZT4nLCAnLW9tYWUnLCAnPG91dGZpbGUubWFlPic=

> <r_epik_Ionization_Penalty>
0.0282744

> <r_epik_Ionization_Penalty_Charging>
0

> <r_epik_Ionization_Penalty_Neutral>
0.0282744

> <r_epik_State_Penalty>
0.0231919

> <r_epik_Charging_Adjusted_Penalty>
0.0231919

> <i_epik_Tot_Q>
0

> <i_epik_Tot_abs_Q>
0

> <r_epik_Metal_State_Penalty>
0.02213

> <b_epik_Metal_Only>
0

> <s_lp_Force_Field>
OPLS_2005

> <r_lp_Energy>
16.341

> <b_lp_Chiralities_Consistent>
1

> <s_lp_Variant>
AV-unprocessed.smi:3176-2

> <Gold.Version>
5.8.1

> <Gold.Id.Protein>
6NUR|6NUR_protein|mol2

> <Gold.PLP.Fitness>
45.8844

> <Gold.PLP.PLP>
-41.2046

> <Gold.PLP.part.hbond>
-2.0000

> <Gold.PLP.part.metal>
0.0000

> <Gold.PLP.part.buried>
-4.5044

> <Gold.PLP.part.nonpolar>
-34.6237

> <Gold.PLP.part.repulsive>
0.1154

> <Gold.PLP.ligand.clash>
0.0000

> <Gold.PLP.ligand.torsion>
0.1855

> <Gold.PLP.Chemscore.Hbond>
1.6800

> <Gold.PLP.Chemscore.CHOScore>
0.0000

> <Gold.PLP.Chemscore.Metal>
0.0000

> <Gold.PLP.Chemscore.Internal.Correction>
0.0107

> <Gold.Rescore>
     Score         DG    S(hbond)    S(metal)    S(lipo)     H(rot)  DE(clash)    DE(int)     intcor
     15.06     -17.29       0.95        0.00     107.06       1.52       0.03       2.21       ----

> <Gold.Chemscore.Fitness>
15.0591

> <Gold.Chemscore.DG>
-17.2930

> <Gold.Chemscore.ZeroCoef>
-5.4800

> <Gold.Chemscore.Hbond>
0.9483

> <Gold.Chemscore.Metal>
0.0000

> <Gold.Chemscore.Lipo>
107.0613

> <Gold.Chemscore.Internal_Hbond>
0.0000

> <Gold.Chemscore.DEClash>
0.0285

> <Gold.Chemscore.DEInternal>
2.2054

> <Gold.Chemscore.Rot>
1.5159

> <Gold.Chemscore.Internal.Correction>
   9.000000E+99

> <Gold.Chemscore.Hbond.Weighted>
-3.1675

> <Gold.Chemscore.Metal.Weighted>
-0.0000

> <Gold.Chemscore.Lipo.Weighted>
-12.5262

> <Gold.Chemscore.Internal_Hbond.Weighted>
0.0000

> <Gold.Chemscore.DEClash.Weighted>
0.0285

> <Gold.Chemscore.DEInternal.Weighted>
2.2054

> <Gold.Chemscore.Rot.Weighted>
3.8807

> <Gold.Chemscore.Internal.Correction.Weighted>
   9.000000E+99

> <Gold.Protein.RotatedTorsions>
[ 6907 6896 6895 6894 ] final   80.64 input  -60.11 | X-H torsion
[ 7974 7965 7964 7962 ] final  135.79 input  175.53 | X-H torsion
[ 8008 7997 7996 7995 ] final  -15.89 input   59.86 | X-H torsion
[ 10167 10162 10161 10158 ] final  -85.54 input  -65.29 | X-H torsion
[ 10718 10713 10712 10709 ] final -104.98 input   66.30 | X-H torsion
[ 10763 10752 10751 10750 ] final -129.62 input  -60.55 | X-H torsion
[ 11005 11000 10999 10996 ] final   -1.06 input  -57.11 | X-H torsion

> <Gold.Protein.ActiveResidues>
 VAL166  LYS551  ARG553  GLY616  TRP617  ASP618  TYR619  PRO620  LYS621  CYS622 
 ASP623  PHE694  ASN695  SER759  ASP760  ASP761  ALA762  ILE779  LEU786  VAL792 
 PHE793  MET794  SER795  GLU796  ALA797  LYS798  CYS799  TRP800  GLU811  SER814 

> <Gold.Protein.RotatedAtoms>
  152.5242  134.3327  159.9188 H   0  0  0  0  0  0  0  0  0  0  0  0  # atno 6907 bound_to 6896
  151.3276  133.4007  159.2667 H   0  0  0  0  0  0  0  0  0  0  0  0  # atno 6908 bound_to 6896
  150.9907  134.9260  159.7955 H   0  0  0  0  0  0  0  0  0  0  0  0  # atno 6909 bound_to 6896
  144.9629  139.4691  143.5471 H   0  0  0  0  0  0  0  0  0  0  0  0  # atno 7974 bound_to 7965
  154.5095  140.2184  155.9185 H   0  0  0  0  0  0  0  0  0  0  0  0  # atno 8008 bound_to 7997
  156.1535  140.3157  155.8653 H   0  0  0  0  0  0  0  0  0  0  0  0  # atno 8009 bound_to 7997
  155.3893  140.0477  157.3032 H   0  0  0  0  0  0  0  0  0  0  0  0  # atno 8010 bound_to 7997
  140.4027  143.2656  151.9121 H   0  0  0  0  0  0  0  0  0  0  0  0  # atno 10167 bound_to 10162
  156.0327  130.5541  150.7474 H   0  0  0  0  0  0  0  0  0  0  0  0  # atno 10718 bound_to 10713
  154.8757  135.3889  154.3950 H   0  0  0  0  0  0  0  0  0  0  0  0  # atno 10763 bound_to 10752
  153.4681  135.7029  153.6015 H   0  0  0  0  0  0  0  0  0  0  0  0  # atno 10764 bound_to 10752
  153.4484  135.3839  155.2237 H   0  0  0  0  0  0  0  0  0  0  0  0  # atno 10765 bound_to 10752
  140.6432  133.9471  155.8338 H   0  0  0  0  0  0  0  0  0  0  0  0  # atno 11005 bound_to 11000
  146.3358  139.8790  142.8827 LP  0  0  0  0  0  0  0  0  0  0  0  0  # atno 17320 bound_to 7965
  145.2673  141.0097  143.3792 LP  0  0  0  0  0  0  0  0  0  0  0  0  # atno 17321 bound_to 7965
  139.4784  144.5617  151.8229 LP  0  0  0  0  0  0  0  0  0  0  0  0  # atno 17342 bound_to 10162
  140.4722  144.1570  150.5919 LP  0  0  0  0  0  0  0  0  0  0  0  0  # atno 17343 bound_to 10162
  157.5027  131.0920  151.0294 LP  0  0  0  0  0  0  0  0  0  0  0  0  # atno 17370 bound_to 10713
  157.0670  130.5849  149.5396 LP  0  0  0  0  0  0  0  0  0  0  0  0  # atno 17371 bound_to 10713
  141.0591  134.0372  157.3682 LP  0  0  0  0  0  0  0  0  0  0  0  0  # atno 17394 bound_to 11000
  139.9072  135.0182  156.7539 LP  0  0  0  0  0  0  0  0  0  0  0  0  # atno 17395 bound_to 11000

$$$$
