AV-unprocessed.smi:1251|AV-procd|sdf|5262|dock5
  -GOLD-   22720 4373D 1   1.00000     0.00000
 Structure written by MMmdl.
 38 39  0  0  0  0  0  0  0  0  2 V2000
  141.9549  135.2860  161.8879 C   0  0  0  0  0  0  0  0  0  0  0  0
  142.9190  135.6335  163.0271 C   0  0  0  0  0  0  0  0  0  0  0  0
  144.1494  134.7162  163.0586 C   0  0  0  0  0  0  0  0  0  0  0  0
  145.2752  135.2404  162.2313 C   0  0  0  0  0  0  0  0  0  0  0  0
  145.8745  134.5173  161.2819 N   0  0  0  0  0  0  0  0  0  0  0  0
  146.8700  135.2313  160.6312 N   0  0  0  0  0  0  0  0  0  0  0  0
  147.0051  136.4834  161.0905 C   0  0  0  0  0  0  0  0  0  0  0  0
  147.9086  137.3408  160.5880 N   0  5  0  0  0  0  0  0  0  0  0  0
  148.7309  136.9482  159.5884 C   0  0  0  0  0  0  0  0  0  0  0  0
  148.8418  135.8046  159.1406 O   0  0  0  0  0  0  0  0  0  0  0  0
  149.4699  137.9432  159.0780 N   0  0  0  0  0  0  0  0  0  0  0  0
  150.4314  137.8368  157.9811 C   0  0  2  0  0  0  0  0  0  0  0  0
  151.8361  138.2408  158.4574 C   0  0  0  0  0  0  0  0  0  0  0  0
  149.9625  138.6742  156.7737 C   0  0  1  0  0  0  0  0  0  0  0  0
  150.1255  140.1948  156.9498 C   0  0  0  0  0  0  0  0  0  0  0  0
  151.1595  140.5749  155.9081 C   0  0  0  0  0  0  0  0  0  0  0  0
  150.9522  139.5037  154.8485 C   0  0  0  0  0  0  0  0  0  0  0  0
  150.7247  138.3329  155.6156 O   0  0  0  0  0  0  0  0  0  0  0  0
  145.8702  136.8853  162.3790 S   0  0  0  0  0  0  0  0  0  0  0  0
  141.0954  135.9565  161.8891 H   0  0  0  0  0  0  0  0  0  0  0  0
  141.5817  134.2662  161.9854 H   0  0  0  0  0  0  0  0  0  0  0  0
  142.4439  135.3737  160.9174 H   0  0  0  0  0  0  0  0  0  0  0  0
  143.2394  136.6708  162.9232 H   0  0  0  0  0  0  0  0  0  0  0  0
  142.3897  135.5677  163.9783 H   0  0  0  0  0  0  0  0  0  0  0  0
  144.5005  134.5954  164.0836 H   0  0  0  0  0  0  0  0  0  0  0  0
  143.8849  133.7204  162.7006 H   0  0  0  0  0  0  0  0  0  0  0  0
  149.3463  138.8611  159.4797 H   0  0  0  0  0  0  0  0  0  0  0  0
  150.4781  136.7976  157.6512 H   0  0  0  0  0  0  0  0  0  0  0  0
  152.5644  138.1483  157.6517 H   0  0  0  0  0  0  0  0  0  0  0  0
  152.1718  137.6052  159.2774 H   0  0  0  0  0  0  0  0  0  0  0  0
  151.8560  139.2730  158.8083 H   0  0  0  0  0  0  0  0  0  0  0  0
  148.9136  138.4573  156.5665 H   0  0  0  0  0  0  0  0  0  0  0  0
  149.1800  140.6934  156.7336 H   0  0  0  0  0  0  0  0  0  0  0  0
  150.4278  140.4878  157.9561 H   0  0  0  0  0  0  0  0  0  0  0  0
  151.0311  141.5875  155.5252 H   0  0  0  0  0  0  0  0  0  0  0  0
  152.1620  140.4919  156.3299 H   0  0  0  0  0  0  0  0  0  0  0  0
  150.0718  139.7203  154.2415 H   0  0  0  0  0  0  0  0  0  0  0  0
  151.8111  139.3905  154.1867 H   0  0  0  0  0  0  0  0  0  0  0  0
  1  2  1  0  0  0  0
  1 20  1  0  0  0  0
  1 21  1  0  0  0  0
  1 22  1  0  0  0  0
  2  3  1  0  0  0  0
  2 23  1  0  0  0  0
  2 24  1  0  0  0  0
  3  4  1  0  0  0  0
  3 25  1  0  0  0  0
  3 26  1  0  0  0  0
  4 19  1  0  0  0  0
  4  5  2  0  0  0  0
  5  6  1  0  0  0  0
  6  7  2  0  0  0  0
  7  8  1  0  0  0  0
  7 19  1  0  0  0  0
  8  9  1  0  0  0  0
  9 10  2  0  0  0  0
  9 11  1  0  0  0  0
 11 12  1  0  0  0  0
 11 27  1  0  0  0  0
 12 13  1  0  0  0  0
 12 14  1  0  0  0  0
 12 28  1  0  0  0  0
 13 29  1  0  0  0  0
 13 30  1  0  0  0  0
 13 31  1  0  0  0  0
 14 18  1  0  0  0  0
 14 15  1  0  0  0  0
 14 32  1  0  0  0  0
 15 16  1  0  0  0  0
 15 33  1  0  0  0  0
 15 34  1  0  0  0  0
 16 17  1  0  0  0  0
 16 35  1  0  0  0  0
 16 36  1  0  0  0  0
 17 18  1  0  0  0  0
 17 37  1  0  0  0  0
 17 38  1  0  0  0  0
M  CHG  1   8  -1
M  END
> <s_m_source_file>
AV-unprocessed.smi

> <i_m_source_file_index>
1251

> <i_lp_mmshare_version>
43012

> <i_f3d_flags>
0

> <s_epik_input>
W0NIM11bQ0gyXVtDSDJdYzFubmMoczEpW05IXUMoPU8pW05IXVtDQEhdKFtDSDNdKVtDQEBIXTJbQ0gyXVtDSDJdW0NIMl1PMg==

> <s_epik_cmdline>
J2VwaWtfcHl0aG9uJywgJy1waCcsICc3LjAnLCAnLXRuJywgJzgnLCAnLW1hJywgJzIwMCcsICctbWV0YWxfYmluZGluZycsICctaW1hZScsICc8aW5maWxlLm1hZT4nLCAnLW9tYWUnLCAnPG91dGZpbGUubWFlPic=

> <r_lp_tautomer_probability>
1

> <r_epik_Ionization_Penalty>
4.22551

> <r_epik_Ionization_Penalty_Charging>
4.21437

> <r_epik_Ionization_Penalty_Neutral>
0.0111434

> <r_epik_State_Penalty>
4.21389

> <r_epik_Charging_Adjusted_Penalty>
8.42826

> <i_epik_Tot_Q>
-1

> <i_epik_Tot_abs_Q>
1

> <r_epik_Metal_State_Penalty>
0.69377

> <b_epik_Metal_Only>
1

> <s_lp_Force_Field>
OPLS_2005

> <r_lp_Energy>
12.7313

> <b_lp_Chiralities_Consistent>
1

> <s_lp_Variant>
AV-unprocessed.smi:1251-7

> <Gold.Version>
5.8.1

> <Gold.Id.Protein>
6NUR|6NUR_protein|mol2

> <Gold.PLP.Fitness>
39.3314

> <Gold.PLP.PLP>
-27.4418

> <Gold.PLP.part.hbond>
-3.0000

> <Gold.PLP.part.metal>
0.0000

> <Gold.PLP.part.buried>
-4.0833

> <Gold.PLP.part.nonpolar>
-21.2525

> <Gold.PLP.part.repulsive>
0.5952

> <Gold.PLP.ligand.clash>
0.0000

> <Gold.PLP.ligand.torsion>
0.4109

> <Gold.PLP.Chemscore.Hbond>
4.1993

> <Gold.PLP.Chemscore.CHOScore>
0.0000

> <Gold.PLP.Chemscore.Metal>
0.0000

> <Gold.Chemscore.Hbonds>
donor molecule, donor type, donor heavy atom, donor atom, acceptor molecule, acceptor atom, score
      P1  H  6896  6909       L1    10  0.50
      P1  H  6931  6943       L1     8  1.44
      P1  H  6934  6947       L1     8  1.57

> <Gold.PLP.Chemscore.Internal.Correction>
0.1135

> <Gold.Rescore>
     Score         DG    S(hbond)    S(metal)    S(lipo)     H(rot)  DE(clash)    DE(int)     intcor
     13.39     -15.59       1.96        0.00      64.35       1.55       0.01       2.18       ----

> <Gold.Chemscore.Fitness>
13.3914

> <Gold.Chemscore.DG>
-15.5883

> <Gold.Chemscore.ZeroCoef>
-5.4800

> <Gold.Chemscore.Hbond>
1.9578

> <Gold.Chemscore.Metal>
0.0000

> <Gold.Chemscore.Lipo>
64.3540

> <Gold.Chemscore.Internal_Hbond>
0.0000

> <Gold.Chemscore.DEClash>
0.0120

> <Gold.Chemscore.DEInternal>
2.1849

> <Gold.Chemscore.Rot>
1.5469

> <Gold.Chemscore.Internal.Correction>
   9.000000E+99

> <Gold.Chemscore.Hbonds>
donor molecule, donor type, donor heavy atom, donor atom, acceptor molecule, acceptor atom, score
      P1  H  6896  6909       L1    10  0.49
      P1  H  6931  6943       L1     8  0.36
      P1  H  6934  6947       L1     8  0.39

> <Gold.Chemscore.Hbond.Weighted>
-6.5389

> <Gold.Chemscore.Metal.Weighted>
-0.0000

> <Gold.Chemscore.Lipo.Weighted>
-7.5294

> <Gold.Chemscore.Internal_Hbond.Weighted>
0.0000

> <Gold.Chemscore.DEClash.Weighted>
0.0120

> <Gold.Chemscore.DEInternal.Weighted>
2.1849

> <Gold.Chemscore.Rot.Weighted>
3.9600

> <Gold.Chemscore.Internal.Correction.Weighted>
   9.000000E+99

> <Gold.Protein.RotatedTorsions>
[ 6907 6896 6895 6894 ] final   52.33 input  -60.11 | X-H torsion
[ 7974 7965 7964 7962 ] final   44.74 input  175.53 | X-H torsion
[ 8008 7997 7996 7995 ] final    2.66 input   59.86 | X-H torsion
[ 10167 10162 10161 10158 ] final -155.53 input  -65.29 | X-H torsion
[ 10718 10713 10712 10709 ] final -118.72 input   66.30 | X-H torsion
[ 10763 10752 10751 10750 ] final   20.73 input  -60.55 | X-H torsion
[ 11005 11000 10999 10996 ] final -147.34 input  -57.11 | X-H torsion

> <Gold.Protein.ActiveResidues>
 VAL166  LYS551  ARG553  GLY616  TRP617  ASP618  TYR619  PRO620  LYS621  CYS622 
 ASP623  PHE694  ASN695  SER759  ASP760  ASP761  ALA762  ILE779  LEU786  VAL792 
 PHE793  MET794  SER795  GLU796  ALA797  LYS798  CYS799  TRP800  GLU811  SER814 

> <Gold.Protein.RotatedAtoms>
  152.3221  134.7367  160.0310 H   0  0  0  0  0  0  0  0  0  0  0  0  # atno 6907 bound_to 6896
  151.7812  133.3344  159.3480 H   0  0  0  0  0  0  0  0  0  0  0  0  # atno 6908 bound_to 6896
  150.7375  134.5860  159.6007 H   0  0  0  0  0  0  0  0  0  0  0  0  # atno 6909 bound_to 6896
  146.0542  139.5041  142.9699 H   0  0  0  0  0  0  0  0  0  0  0  0  # atno 7974 bound_to 7965
  154.6943  140.2660  155.6782 H   0  0  0  0  0  0  0  0  0  0  0  0  # atno 8008 bound_to 7997
  156.2743  140.2785  156.1455 H   0  0  0  0  0  0  0  0  0  0  0  0  # atno 8009 bound_to 7997
  155.0853  140.0373  157.2642 H   0  0  0  0  0  0  0  0  0  0  0  0  # atno 8010 bound_to 7997
  139.6924  143.9399  152.2391 H   0  0  0  0  0  0  0  0  0  0  0  0  # atno 10167 bound_to 10162
  156.1127  130.6261  150.9326 H   0  0  0  0  0  0  0  0  0  0  0  0  # atno 10718 bound_to 10713
  153.1053  135.6683  153.9598 H   0  0  0  0  0  0  0  0  0  0  0  0  # atno 10763 bound_to 10752
  153.9157  135.3020  155.3449 H   0  0  0  0  0  0  0  0  0  0  0  0  # atno 10764 bound_to 10752
  154.7474  135.5051  153.9304 H   0  0  0  0  0  0  0  0  0  0  0  0  # atno 10765 bound_to 10752
  140.7726  134.3171  157.5070 H   0  0  0  0  0  0  0  0  0  0  0  0  # atno 11005 bound_to 11000
  145.6673  141.0225  143.1677 LP  0  0  0  0  0  0  0  0  0  0  0  0  # atno 17320 bound_to 7965
  144.7139  139.8269  143.7405 LP  0  0  0  0  0  0  0  0  0  0  0  0  # atno 17321 bound_to 7965
  139.9219  144.6795  150.8453 LP  0  0  0  0  0  0  0  0  0  0  0  0  # atno 17342 bound_to 10162
  140.7686  143.3369  151.2290 LP  0  0  0  0  0  0  0  0  0  0  0  0  # atno 17343 bound_to 10162
  157.6309  131.0921  150.8443 LP  0  0  0  0  0  0  0  0  0  0  0  0  # atno 17370 bound_to 10713
  156.8551  130.5094  149.5308 LP  0  0  0  0  0  0  0  0  0  0  0  0  # atno 17371 bound_to 10713
  139.8753  134.9270  156.3415 LP  0  0  0  0  0  0  0  0  0  0  0  0  # atno 17394 bound_to 11000
  140.9559  133.7420  156.0334 LP  0  0  0  0  0  0  0  0  0  0  0  0  # atno 17395 bound_to 11000

$$$$
