#       Name:                AV-unprocessed.smi:72
#       Creating user name   scv26
#       Creation time:       Thu Mar 26 17:07:34 2020


#       File generated by GOLD software.
#

@<TRIPOS>MOLECULE
AV-unprocessed.smi:72
    41    42     1
SMALL
NO_CHARGES


@<TRIPOS>ATOM
      1 ****        -5.0588  -0.1982   0.0941 N.pl3          1 S1                 0.0000
      2 ****        -3.6935  -0.3909   0.1227 C.2            1 S1                 0.0000
      3 ****        -2.9031   0.7640   0.2042 N.2            1 S1                 0.0000
      4 ****        -1.6208   0.5865   0.2464 C.2            1 S1                 0.0000
      5 ****        -1.0419  -0.7444   0.2181 N.am           1 S1                 0.0000
      6 ****         0.4560  -0.9456   0.2656 C.3            1 S1                 0.0000
      7 ****         1.0134   0.0157   1.1129 O.3            1 S1                 0.0000
      8 ****         2.1690   0.5841   0.5061 C.3            1 S1                 0.0000
      9 ****         2.3991   1.9980   1.0604 C.3            1 S1                 0.0000
     10 ****         3.0609   1.9263   2.3048 O.3            1 S1                 0.0000
     11 ****         1.8074   0.5594  -0.9800 C.3            1 S1                 0.0000
     12 ****         2.9343   0.6797  -1.8280 O.3            1 S1                 0.0000
     13 ****         1.0741  -0.7702  -1.1308 C.3            1 S1                 0.0000
     14 ****         1.9468  -1.8430  -1.4336 O.3            1 S1                 0.0000
     15 ****        -1.9013  -1.8713   0.1039 C.2            1 S1                 0.0000
     16 ****        -1.4323  -3.0071   0.0320 O.2            1 S1                 0.0000
     17 ****        -3.2793  -1.6245   0.0699 N.2            1 S1                 0.0000
     18 ****         0.6308  -1.9291   0.7040 H              1 S1                 0.0000
     19 ****         3.0301  -0.0624   0.6873 H              1 S1                 0.0000
     20 ****         1.1147   1.3730  -1.1995 H              1 S1                 0.0000
     21 ****         0.3039  -0.7218  -1.9021 H              1 S1                 0.0000
     22 ****        -5.7246  -0.9548   0.0356 H              1 S1                 0.0000
     23 ****        -5.4940   0.7126   0.1214 H              1 S1                 0.0000
     24 ****        -0.9052   1.4081   0.3017 H              1 S1                 0.0000
     25 ****         3.0355   2.5685   0.3833 H              1 S1                 0.0000
     26 ****         1.4599   2.5432   1.1600 H              1 S1                 0.0000
     27 ****         2.5215   1.4301   2.9016 H              1 S1                 0.0000
     28 ****         2.6521   0.5549  -2.7211 H              1 S1                 0.0000
     29 ****         1.4440  -2.6428  -1.4560 H              1 S1                 0.0000
     30 ****        -3.3084   1.6778   0.2285 LP             1 S1                 0.0000
     31 ****         1.2707  -0.4142   1.9783 LP             1 S1                 0.0000
     32 ****         0.3412   0.7357   1.2852 LP             1 S1                 0.0000
     33 ****         3.2033   2.8482   2.6651 LP             1 S1                 0.0000
     34 ****         3.9448   1.4725   2.1915 LP             1 S1                 0.0000
     35 ****         3.6126  -0.0150  -1.5884 LP             1 S1                 0.0000
     36 ****         3.3380   1.5889  -1.7257 LP             1 S1                 0.0000
     37 ****         2.6553  -1.9098  -0.7310 LP             1 S1                 0.0000
     38 ****         2.3744  -1.6886  -2.3244 LP             1 S1                 0.0000
     39 ****        -0.4415  -3.1413   0.0537 LP             1 S1                 0.0000
     40 ****        -2.0420  -3.7957  -0.0482 LP             1 S1                 0.0000
     41 ****        -3.9316  -2.3797   0.0064 LP             1 S1                 0.0000
@<TRIPOS>BOND
    1    1    2 1     
    2    1   22 1     
    3    1   23 1     
    4    2   17 2     
    5    2    3 1     
    6    3    4 2     
    7    4    5 1     
    8    4   24 1     
    9    5    6 1     
   10    5   15 am    
   11    6   18 1     
   12    6   13 1     
   13    6    7 1     
   14    7    8 1     
   15    8   19 1     
   16    8    9 1     
   17    8   11 1     
   18    9   10 1     
   19    9   25 1     
   20    9   26 1     
   21   10   27 1     
   22   11   20 1     
   23   11   12 1     
   24   11   13 1     
   25   12   28 1     
   26   13   21 1     
   27   13   14 1     
   28   14   29 1     
   29   15   16 2     
   30   15   17 1     
   31    3   30 1     
   32    7   31 1     
   33    7   32 1     
   34   10   33 1     
   35   10   34 1     
   36   12   35 1     
   37   12   36 1     
   38   14   37 1     
   39   14   38 1     
   40   16   39 1     
   41   16   40 1     
   42   17   41 1     
@<TRIPOS>SUBSTRUCTURE
      1 S1             1
@<TRIPOS>SET
LONE_PAIRS      STATIC     ATOMS    <user>   **** ""
12 30 31 32 33 34 35 36 37 38 39 40 41
DONOR_HYDROGENS      STATIC     ATOMS    <user>   **** ""
5 22 23 27 28 29
ATOM$BLUE        STATIC     ATOMS    COLORGROUP SYSTEM
12 30 31 32 33 34 35 36 37 38 39 40 41
ATOM$RED        STATIC     ATOMS    COLORGROUP SYSTEM
5 22 23 27 28 29
