AV-unprocessed.smi:2655|AV-procd|sdf|10303|dock6
  -GOLD-   2272014313D 1   1.00000     0.00000
 Structure written by MMmdl.
 33 34  0  0  0  0  0  0  0  0  2 V2000
  149.3845  140.9052  155.5078 C   0  0  0  0  0  0  0  0  0  0  0  0
  150.0621  139.6013  155.1459 C   0  0  0  0  0  0  0  0  0  0  0  0
  150.0824  139.1407  153.8613 N   0  0  0  0  0  0  0  0  0  0  0  0
  150.7033  137.9174  153.8473 N   0  0  0  0  0  0  0  0  0  0  0  0
  151.1084  137.5976  155.0872 C   0  0  0  0  0  0  0  0  0  0  0  0
  151.7067  136.5727  155.4072 O   0  0  0  0  0  0  0  0  0  0  0  0
  150.6836  138.7102  155.9299 C   0  0  0  0  0  0  0  0  0  0  0  0
  150.8807  138.7586  157.4333 C   0  0  0  0  0  0  0  0  0  0  0  0
  150.5163  137.4261  158.1080 C   0  0  0  0  0  0  0  0  0  0  0  0
  149.6567  137.6310  159.2683 N   0  0  0  0  0  0  0  0  0  0  0  0
  148.8881  136.6987  159.8498 C   0  0  0  0  0  0  0  0  0  0  0  0
  148.8730  135.5488  159.4042 O   0  0  0  0  0  0  0  0  0  0  0  0
  148.1826  137.1574  160.9097 N   0  5  0  0  0  0  0  0  0  0  0  0
  147.2942  136.3614  161.5243 C   0  0  0  0  0  0  0  0  0  0  0  0
  147.3705  134.9454  161.6270 C   0  0  0  0  0  0  0  0  0  0  0  0
  146.2400  134.6212  162.3218 C   0  0  0  0  0  0  0  0  0  0  0  0
  145.6786  133.3229  162.7918 C   0  0  0  0  0  0  0  0  0  0  0  0
  145.5254  135.7423  162.6100 O   0  0  0  0  0  0  0  0  0  0  0  0
  146.2041  136.8513  162.0909 N   0  0  0  0  0  0  0  0  0  0  0  0
  150.0969  141.5798  155.9833 H   0  0  0  0  0  0  0  0  0  0  0  0
  148.5644  140.7243  156.2028 H   0  0  0  0  0  0  0  0  0  0  0  0
  148.9826  141.3980  154.6220 H   0  0  0  0  0  0  0  0  0  0  0  0
  150.8088  137.4143  152.9782 H   0  0  0  0  0  0  0  0  0  0  0  0
  150.2787  139.5724  157.8395 H   0  0  0  0  0  0  0  0  0  0  0  0
  151.9204  139.0067  157.6489 H   0  0  0  0  0  0  0  0  0  0  0  0
  150.0335  136.7515  157.3986 H   0  0  0  0  0  0  0  0  0  0  0  0
  151.4226  136.9230  158.4462 H   0  0  0  0  0  0  0  0  0  0  0  0
  149.6406  138.5584  159.6667 H   0  0  0  0  0  0  0  0  0  0  0  0
  148.1338  134.2785  161.2554 H   0  0  0  0  0  0  0  0  0  0  0  0
  145.4096  132.6910  161.9455 H   0  0  0  0  0  0  0  0  0  0  0  0
  144.7846  133.4762  163.3966 H   0  0  0  0  0  0  0  0  0  0  0  0
  146.4077  132.7852  163.3980 H   0  0  0  0  0  0  0  0  0  0  0  0
  149.5710  139.5027  153.0691 H   0  0  0  0  0  0  0  0  0  0  0  0
  1 20  1  0  0  0  0
  1 21  1  0  0  0  0
  1 22  1  0  0  0  0
  1  2  1  0  0  0  0
  2  7  2  0  0  0  0
  2  3  1  0  0  0  0
  3  4  1  0  0  0  0
  3 33  1  0  0  0  0
  4 23  1  0  0  0  0
  4  5  1  0  0  0  0
  5  7  1  0  0  0  0
  5  6  2  0  0  0  0
  7  8  1  0  0  0  0
  8  9  1  0  0  0  0
  8 24  1  0  0  0  0
  8 25  1  0  0  0  0
  9 10  1  0  0  0  0
  9 26  1  0  0  0  0
  9 27  1  0  0  0  0
 10 11  1  0  0  0  0
 10 28  1  0  0  0  0
 11 12  2  0  0  0  0
 11 13  1  0  0  0  0
 13 14  1  0  0  0  0
 14 19  2  0  0  0  0
 14 15  1  0  0  0  0
 15 16  2  0  0  0  0
 15 29  1  0  0  0  0
 16 17  1  0  0  0  0
 16 18  1  0  0  0  0
 17 30  1  0  0  0  0
 17 31  1  0  0  0  0
 17 32  1  0  0  0  0
 18 19  1  0  0  0  0
M  CHG  1  13  -1
M  END
> <s_m_source_file>
AV-unprocessed.smi

> <i_m_source_file_index>
2655

> <i_lp_mmshare_version>
43012

> <i_f3d_flags>
0

> <s_epik_input>
W0NIM11DMT1OW05IXUMoPU8pW0NASF0xW0NIMl1bQ0gyXVtOSF1DKD1PKVtOSF1jMltjSF1jKFtDSDNdKW9uMg==

> <s_epik_cmdline>
J2VwaWtfcHl0aG9uJywgJy1waCcsICc3LjAnLCAnLXRuJywgJzgnLCAnLW1hJywgJzIwMCcsICctbWV0YWxfYmluZGluZycsICctaW1hZScsICc8aW5maWxlLm1hZT4nLCAnLW9tYWUnLCAnPG91dGZpbGUubWFlPic=

> <r_lp_tautomer_probability>
0.00220696

> <r_epik_Ionization_Penalty>
6.47655

> <r_epik_Ionization_Penalty_Charging>
6.44485

> <r_epik_Ionization_Penalty_Neutral>
0.0316949

> <r_epik_State_Penalty>
7.07162

> <r_epik_Charging_Adjusted_Penalty>
13.5165

> <i_epik_Tot_Q>
-1

> <i_epik_Tot_abs_Q>
1

> <r_epik_Metal_State_Penalty>
4.39363

> <b_epik_Metal_Only>
1

> <s_lp_Force_Field>
OPLS_2005

> <r_lp_Energy>
11.561

> <b_lp_Chiralities_Consistent>
1

> <s_lp_Variant>
AV-unprocessed.smi:2655-6

> <Gold.Version>
5.8.1

> <Gold.Id.Protein>
6NUR|6NUR_protein|mol2

> <Gold.PLP.Fitness>
46.1215

> <Gold.PLP.PLP>
-28.6231

> <Gold.PLP.part.hbond>
-6.4780

> <Gold.PLP.part.metal>
0.0000

> <Gold.PLP.part.buried>
-4.8309

> <Gold.PLP.part.nonpolar>
-18.2388

> <Gold.PLP.part.repulsive>
0.5217

> <Gold.PLP.ligand.clash>
0.0001

> <Gold.PLP.ligand.torsion>
0.8394

> <Gold.PLP.Chemscore.Hbond>
6.3750

> <Gold.PLP.Chemscore.CHOScore>
0.0000

> <Gold.PLP.Chemscore.Metal>
0.0000

> <Gold.Chemscore.Hbonds>
donor molecule, donor type, donor heavy atom, donor atom, acceptor molecule, acceptor atom, score
      L1  H     3    33       P1  7957  0.94
      L1  H     4    23       P1  7949  0.69
      P1  H  6896  6908       L1    12  0.18
      P1  H  6931  6943       L1    13  1.89
      P1  H  6934  6947       L1    13  1.09
      P1  H 10752 10765       L1     6  1.00

> <Gold.PLP.Chemscore.Internal.Correction>
0.0523

> <Gold.Rescore>
     Score         DG    S(hbond)    S(metal)    S(lipo)     H(rot)  DE(clash)    DE(int)     intcor
     15.47     -17.69       3.50        0.00      45.27       1.86       0.08       2.14       ----

> <Gold.Chemscore.Fitness>
15.4689

> <Gold.Chemscore.DG>
-17.6881

> <Gold.Chemscore.ZeroCoef>
-5.4800

> <Gold.Chemscore.Hbond>
3.4980

> <Gold.Chemscore.Metal>
0.0000

> <Gold.Chemscore.Lipo>
45.2708

> <Gold.Chemscore.Internal_Hbond>
0.0000

> <Gold.Chemscore.DEClash>
0.0765

> <Gold.Chemscore.DEInternal>
2.1427

> <Gold.Chemscore.Rot>
1.8640

> <Gold.Chemscore.Internal.Correction>
   9.000000E+99

> <Gold.Chemscore.Hbonds>
donor molecule, donor type, donor heavy atom, donor atom, acceptor molecule, acceptor atom, score
      L1  H     3    33       P1  7957  0.89
      L1  H     4    23       P1  7949  0.10
      P1  H  6896  6908       L1    12  0.18
      P1  H  6931  6943       L1    13  0.76
      P1  H  6934  6947       L1    13  0.20
      P1  H 10752 10765       L1     6  1.00

> <Gold.Chemscore.Hbond.Weighted>
-11.6833

> <Gold.Chemscore.Metal.Weighted>
-0.0000

> <Gold.Chemscore.Lipo.Weighted>
-5.2967

> <Gold.Chemscore.Internal_Hbond.Weighted>
0.0000

> <Gold.Chemscore.DEClash.Weighted>
0.0765

> <Gold.Chemscore.DEInternal.Weighted>
2.1427

> <Gold.Chemscore.Rot.Weighted>
4.7719

> <Gold.Chemscore.Internal.Correction.Weighted>
   9.000000E+99

> <Gold.Protein.RotatedTorsions>
[ 6907 6896 6895 6894 ] final  137.39 input  -60.11 | X-H torsion
[ 7974 7965 7964 7962 ] final   98.84 input  175.53 | X-H torsion
[ 8008 7997 7996 7995 ] final   82.03 input   59.86 | X-H torsion
[ 10167 10162 10161 10158 ] final -172.58 input  -65.29 | X-H torsion
[ 10718 10713 10712 10709 ] final -125.19 input   66.30 | X-H torsion
[ 10763 10752 10751 10750 ] final -168.29 input  -60.55 | X-H torsion
[ 11005 11000 10999 10996 ] final -167.83 input  -57.11 | X-H torsion

> <Gold.Protein.ActiveResidues>
 VAL166  LYS551  ARG553  GLY616  TRP617  ASP618  TYR619  PRO620  LYS621  CYS622 
 ASP623  PHE694  ASN695  SER759  ASP760  ASP761  ALA762  ILE779  LEU786  VAL792 
 PHE793  MET794  SER795  GLU796  ALA797  LYS798  CYS799  TRP800  GLU811  SER814 

> <Gold.Protein.RotatedAtoms>
  152.2786  133.5449  159.5483 H   0  0  0  0  0  0  0  0  0  0  0  0  # atno 6907 bound_to 6896
  150.7187  134.0596  159.3835 H   0  0  0  0  0  0  0  0  0  0  0  0  # atno 6908 bound_to 6896
  151.8508  135.0558  160.0509 H   0  0  0  0  0  0  0  0  0  0  0  0  # atno 6909 bound_to 6896
  145.4068  139.2339  143.3270 H   0  0  0  0  0  0  0  0  0  0  0  0  # atno 7974 bound_to 7965
  155.9051  140.3431  155.6056 H   0  0  0  0  0  0  0  0  0  0  0  0  # atno 8008 bound_to 7997
  155.7454  140.0813  157.2245 H   0  0  0  0  0  0  0  0  0  0  0  0  # atno 8009 bound_to 7997
  154.4048  140.1563  156.2650 H   0  0  0  0  0  0  0  0  0  0  0  0  # atno 8010 bound_to 7997
  139.5737  144.1583  152.1420 H   0  0  0  0  0  0  0  0  0  0  0  0  # atno 10167 bound_to 10162
  156.1653  130.6630  151.0106 H   0  0  0  0  0  0  0  0  0  0  0  0  # atno 10718 bound_to 10713
  154.6644  135.2929  154.9824 H   0  0  0  0  0  0  0  0  0  0  0  0  # atno 10763 bound_to 10752
  154.0873  135.6596  153.4851 H   0  0  0  0  0  0  0  0  0  0  0  0  # atno 10764 bound_to 10752
  153.0449  135.5211  154.7610 H   0  0  0  0  0  0  0  0  0  0  0  0  # atno 10765 bound_to 10752
  140.5489  134.5448  157.5117 H   0  0  0  0  0  0  0  0  0  0  0  0  # atno 11005 bound_to 11000
  146.2724  140.4774  142.8809 LP  0  0  0  0  0  0  0  0  0  0  0  0  # atno 17320 bound_to 7965
  144.8336  140.6746  143.6275 LP  0  0  0  0  0  0  0  0  0  0  0  0  # atno 17321 bound_to 7965
  140.1121  144.5448  150.6918 LP  0  0  0  0  0  0  0  0  0  0  0  0  # atno 17342 bound_to 10162
  140.7020  143.2441  151.4836 LP  0  0  0  0  0  0  0  0  0  0  0  0  # atno 17343 bound_to 10162
  157.6763  131.0849  150.7485 LP  0  0  0  0  0  0  0  0  0  0  0  0  # atno 17370 bound_to 10713
  156.7546  130.4779  149.5449 LP  0  0  0  0  0  0  0  0  0  0  0  0  # atno 17371 bound_to 10713
  139.9465  134.7692  156.0549 LP  0  0  0  0  0  0  0  0  0  0  0  0  # atno 17394 bound_to 11000
  141.1183  133.6620  156.3151 LP  0  0  0  0  0  0  0  0  0  0  0  0  # atno 17395 bound_to 11000

$$$$
