#       Name:                AV-unprocessed.smi:376
#       Creating user name   scv26
#       Creation time:       Thu Mar 26 22:39:28 2020


#       File generated by GOLD software.
#

@<TRIPOS>MOLECULE
AV-unprocessed.smi:376
    39    40     1
SMALL
NO_CHARGES


@<TRIPOS>ATOM
      1 ****        -5.0797  -3.6996   0.7434 C.1            1 S1                 0.0000
      2 ****        -4.3640  -3.3567  -0.1846 C.1            1 S1                 0.0000
      3 ****        -3.4905  -2.9363  -1.2935 C.3            1 S1                 0.0000
      4 ****        -2.1032  -2.7552  -0.8809 N.am           1 S1                 0.0000
      5 ****        -1.5773  -1.6183  -0.3986 C.2            1 S1                 0.0000
      6 ****        -2.2296  -0.5837  -0.2499 O.2            1 S1                 0.0000
      7 ****        -0.0868  -1.6773  -0.0291 C.3            1 S1                 0.0000
      8 ****         0.4542  -0.3909   0.4624 N.am           1 S1                 0.0000
      9 ****         0.3832  -0.1092   1.8508 C.2            1 S1                 0.0000
     10 ****        -0.0947  -0.9251   2.6408 O.2            1 S1                 0.0000
     11 ****         0.8950   1.1986   2.2541 C.2            1 S1                 0.0000
     12 ****         0.8112   1.5326   3.6372 C.1            1 S1                 0.0000
     13 ****         0.7574   1.8249   4.7557 N.1            1 S1                 0.0000
     14 ****         1.4175   2.0502   1.3478 C.2            1 S1                 0.0000
     15 ****         1.5129   1.7406   0.0086 N.am           1 S1                 0.0000
     16 ****         1.9265   2.7187  -0.9577 C.3            1 S1                 0.0000
     17 ****         3.0614   2.4162  -1.9169 C.3            1 S1                 0.0000
     18 ****         3.2691   3.3954  -0.7875 C.3            1 S1                 0.0000
     19 ****         0.9814   0.5266  -0.4786 C.2            1 S1                 0.0000
     20 ****         0.9657   0.2755  -1.6863 O.2            1 S1                 0.0000
     21 ****        -5.7062  -3.9957   1.5545 H              1 S1                 0.0000
     22 ****        -3.5309  -3.7082  -2.0619 H              1 S1                 0.0000
     23 ****        -3.8967  -2.0243  -1.7338 H              1 S1                 0.0000
     24 ****        -1.4958  -3.5573  -0.9680 H              1 S1                 0.0000
     25 ****         0.0543  -2.4682   0.7092 H              1 S1                 0.0000
     26 ****         0.4722  -2.0266  -0.8988 H              1 S1                 0.0000
     27 ****         1.7806   3.0112   1.6829 H              1 S1                 0.0000
     28 ****         1.1285   3.3446  -1.3532 H              1 S1                 0.0000
     29 ****         3.5617   1.4530  -1.8368 H              1 S1                 0.0000
     30 ****         2.9855   2.8187  -2.9249 H              1 S1                 0.0000
     31 ****         3.3348   4.4509  -1.0434 H              1 S1                 0.0000
     32 ****         3.9038   3.0759   0.0368 H              1 S1                 0.0000
     33 ****        -3.1995  -0.5648  -0.4930 LP             1 S1                 0.0000
     34 ****        -1.7893   0.2371   0.1139 LP             1 S1                 0.0000
     35 ****        -0.4402  -1.8019   2.3062 LP             1 S1                 0.0000
     36 ****        -0.1372  -0.7105   3.6166 LP             1 S1                 0.0000
     37 ****         0.7109   2.0774   5.7222 LP             1 S1                 0.0000
     38 ****         0.5768  -0.5860  -2.0129 LP             1 S1                 0.0000
     39 ****         1.3417   0.9334  -2.3387 LP             1 S1                 0.0000
@<TRIPOS>BOND
    1    1    2 3     
    2    1   21 1     
    3    2    3 1     
    4    3    4 1     
    5    3   22 1     
    6    3   23 1     
    7    4    5 am    
    8    4   24 1     
    9    5    6 2     
   10    5    7 1     
   11    7    8 1     
   12    7   25 1     
   13    7   26 1     
   14    8   19 am    
   15    8    9 am    
   16    9   10 2     
   17    9   11 1     
   18   11   12 1     
   19   11   14 2     
   20   12   13 3     
   21   14   15 1     
   22   14   27 1     
   23   15   16 1     
   24   15   19 am    
   25   16   18 1     
   26   16   17 1     
   27   16   28 1     
   28   17   18 1     
   29   17   29 1     
   30   17   30 1     
   31   18   31 1     
   32   18   32 1     
   33   19   20 2     
   34    6   33 1     
   35    6   34 1     
   36   10   35 1     
   37   10   36 1     
   38   13   37 1     
   39   20   38 1     
   40   20   39 1     
@<TRIPOS>SUBSTRUCTURE
      1 S1             1
@<TRIPOS>SET
LONE_PAIRS      STATIC     ATOMS    <user>   **** ""
7 33 34 35 36 37 38 39
DONOR_HYDROGENS      STATIC     ATOMS    <user>   **** ""
1 24
ATOM$BLUE        STATIC     ATOMS    COLORGROUP SYSTEM
7 33 34 35 36 37 38 39
ATOM$RED        STATIC     ATOMS    COLORGROUP SYSTEM
1 24
