AV-unprocessed.smi:3253|AV-procd|sdf|12452|dock10
  -GOLD-   2272018343D 1   1.00000     0.00000
 Structure written by MMmdl.
 36 37  0  0  0  0  0  0  0  0  1 V2000
  153.4624  140.2383  160.2513 C   0  0  0  0  0  0  0  0  0  0  0  0
  152.6541  141.3523  159.5729 C   0  0  1  0  0  0  0  0  0  0  0  0
  153.2988  142.7361  159.8041 C   0  0  0  0  0  0  0  0  0  0  0  0
  152.3608  143.8301  159.6264 N   0  0  0  0  0  0  0  0  0  0  0  0
  151.7506  144.2268  158.4433 C   0  0  0  0  0  0  0  0  0  0  0  0
  150.9366  145.2911  158.7584 C   0  0  0  0  0  0  0  0  0  0  0  0
  151.0358  145.5701  160.1192 N   0  0  0  0  0  0  0  0  0  0  0  0
  151.8985  144.6663  160.5660 C   0  0  0  0  0  0  0  0  0  0  0  0
  152.5493  141.0625  158.1432 N   0  0  0  0  0  0  0  0  0  0  0  0
  151.4084  140.8315  157.4743 C   0  0  0  0  0  0  0  0  0  0  0  0
  150.3028  140.7869  158.0152 O   0  0  0  0  0  0  0  0  0  0  0  0
  151.5310  140.6525  155.9537 C   0  0  1  0  0  0  0  0  0  0  0  0
  152.4237  139.4487  155.5882 C   0  0  0  0  0  0  0  0  0  0  0  0
  151.4531  138.4398  154.9959 C   0  0  0  0  0  0  0  0  0  0  0  0
  151.7845  137.2969  154.6844 O   0  0  0  0  0  0  0  0  0  0  0  0
  150.2298  138.9643  154.8816 N   0  0  0  0  0  0  0  0  0  0  0  0
  149.0499  138.2749  154.3781 C   0  0  0  0  0  0  0  0  0  0  0  0
  150.1650  140.3543  155.2982 C   0  0  0  0  0  0  0  0  0  0  0  0
  153.5433  140.4115  161.3247 H   0  0  0  0  0  0  0  0  0  0  0  0
  154.4735  140.1772  159.8475 H   0  0  0  0  0  0  0  0  0  0  0  0
  152.9873  139.2669  160.1104 H   0  0  0  0  0  0  0  0  0  0  0  0
  151.6616  141.3498  160.0270 H   0  0  0  0  0  0  0  0  0  0  0  0
  153.6978  142.7992  160.8173 H   0  0  0  0  0  0  0  0  0  0  0  0
  154.1414  142.8842  159.1272 H   0  0  0  0  0  0  0  0  0  0  0  0
  151.9335  143.7272  157.5035 H   0  0  0  0  0  0  0  0  0  0  0  0
  150.2925  145.8728  158.1157 H   0  0  0  0  0  0  0  0  0  0  0  0
  152.1940  144.6049  161.6031 H   0  0  0  0  0  0  0  0  0  0  0  0
  153.4092  141.0796  157.6142 H   0  0  0  0  0  0  0  0  0  0  0  0
  151.9507  141.5630  155.5222 H   0  0  0  0  0  0  0  0  0  0  0  0
  153.1636  139.7231  154.8359 H   0  0  0  0  0  0  0  0  0  0  0  0
  152.9536  139.0181  156.4394 H   0  0  0  0  0  0  0  0  0  0  0  0
  149.2433  137.8482  153.3934 H   0  0  0  0  0  0  0  0  0  0  0  0
  148.2039  138.9572  154.2899 H   0  0  0  0  0  0  0  0  0  0  0  0
  148.7654  137.4676  155.0537 H   0  0  0  0  0  0  0  0  0  0  0  0
  149.3220  140.5123  155.9737 H   0  0  0  0  0  0  0  0  0  0  0  0
  150.0087  140.9868  154.4234 H   0  0  0  0  0  0  0  0  0  0  0  0
  1  2  1  0  0  0  0
  1 19  1  0  0  0  0
  1 20  1  0  0  0  0
  1 21  1  0  0  0  0
  2  3  1  0  0  0  0
  2  9  1  0  0  0  0
  2 22  1  0  0  0  0
  3  4  1  0  0  0  0
  3 23  1  0  0  0  0
  3 24  1  0  0  0  0
  4  8  1  0  0  0  0
  4  5  1  0  0  0  0
  5  6  2  0  0  0  0
  5 25  1  0  0  0  0
  6  7  1  0  0  0  0
  6 26  1  0  0  0  0
  7  8  2  0  0  0  0
  8 27  1  0  0  0  0
  9 10  1  0  0  0  0
  9 28  1  0  0  0  0
 10 11  2  0  0  0  0
 10 12  1  0  0  0  0
 12 18  1  0  0  0  0
 12 13  1  0  0  0  0
 12 29  1  0  0  0  0
 13 14  1  0  0  0  0
 13 30  1  0  0  0  0
 13 31  1  0  0  0  0
 14 15  2  0  0  0  0
 14 16  1  0  0  0  0
 16 17  1  0  0  0  0
 16 18  1  0  0  0  0
 17 32  1  0  0  0  0
 17 33  1  0  0  0  0
 17 34  1  0  0  0  0
 18 35  1  0  0  0  0
 18 36  1  0  0  0  0
M  END
> <s_m_source_file>
AV-unprocessed.smi

> <i_m_source_file_index>
3253

> <i_lp_mmshare_version>
43012

> <i_f3d_flags>
0

> <s_epik_input>
W2NIXTFuW2NIXVtjSF1uMVtDSDJdW0NAQEhdKFtDSDNdKVtOSF1DKD1PKVtDQEBIXTJbQ0gyXUMoPU8pTihbQ0gzXSlbQ0gyXTI=

> <s_epik_cmdline>
J2VwaWtfcHl0aG9uJywgJy1waCcsICc3LjAnLCAnLXRuJywgJzgnLCAnLW1hJywgJzIwMCcsICctbWV0YWxfYmluZGluZycsICctaW1hZScsICc8aW5maWxlLm1hZT4nLCAnLW9tYWUnLCAnPG91dGZpbGUubWFlPic=

> <r_lp_tautomer_probability>
1

> <r_epik_Ionization_Penalty>
0.628884

> <r_epik_Ionization_Penalty_Charging>
0.628884

> <r_epik_Ionization_Penalty_Neutral>
2.35084e-08

> <r_epik_State_Penalty>
0.64556

> <r_epik_Charging_Adjusted_Penalty>
1.27444

> <i_epik_Tot_Q>
0

> <i_epik_Tot_abs_Q>
0

> <r_epik_Metal_State_Penalty>
0.308736

> <b_epik_Metal_Only>
0

> <s_lp_Force_Field>
OPLS_2005

> <r_lp_Energy>
12.6198

> <b_lp_Chiralities_Consistent>
1

> <s_lp_Variant>
AV-unprocessed.smi:3253-8

> <Gold.Version>
5.8.1

> <Gold.Id.Protein>
6NUR|6NUR_protein|mol2

> <Gold.PLP.Fitness>
46.9486

> <Gold.PLP.PLP>
-41.4519

> <Gold.PLP.part.hbond>
-1.4584

> <Gold.PLP.part.metal>
0.0000

> <Gold.PLP.part.buried>
-2.4808

> <Gold.PLP.part.nonpolar>
-37.3795

> <Gold.PLP.part.repulsive>
0.4424

> <Gold.PLP.ligand.clash>
0.0000

> <Gold.PLP.ligand.torsion>
0.2542

> <Gold.PLP.Chemscore.Hbond>
0.9913

> <Gold.PLP.Chemscore.CHOScore>
1.0000

> <Gold.PLP.Chemscore.Metal>
0.0000

> <Gold.Chemscore.Hbonds>
donor molecule, donor type, donor heavy atom, donor atom, acceptor molecule, acceptor atom, score
      P1  H 10752 10765       L1    15  1.00
      L1  C     6    26       P1  8029  1.00

> <Gold.PLP.Chemscore.Internal.Correction>
0.0312

> <Gold.Rescore>
     Score         DG    S(hbond)    S(metal)    S(lipo)     H(rot)  DE(clash)    DE(int)     intcor
     12.58     -12.86       0.96        0.00      78.63       1.97       0.15       0.13       ----

> <Gold.Chemscore.Fitness>
12.5759

> <Gold.Chemscore.DG>
-12.8556

> <Gold.Chemscore.ZeroCoef>
-5.4800

> <Gold.Chemscore.Hbond>
0.9613

> <Gold.Chemscore.Metal>
0.0000

> <Gold.Chemscore.Lipo>
78.6334

> <Gold.Chemscore.Internal_Hbond>
0.0000

> <Gold.Chemscore.DEClash>
0.1507

> <Gold.Chemscore.DEInternal>
0.1291

> <Gold.Chemscore.Rot>
1.9669

> <Gold.Chemscore.Internal.Correction>
   9.000000E+99

> <Gold.Chemscore.Hbonds>
donor molecule, donor type, donor heavy atom, donor atom, acceptor molecule, acceptor atom, score
      P1  H 10752 10765       L1    15  0.89

> <Gold.Chemscore.Hbond.Weighted>
-3.2107

> <Gold.Chemscore.Metal.Weighted>
-0.0000

> <Gold.Chemscore.Lipo.Weighted>
-9.2001

> <Gold.Chemscore.Internal_Hbond.Weighted>
0.0000

> <Gold.Chemscore.DEClash.Weighted>
0.1507

> <Gold.Chemscore.DEInternal.Weighted>
0.1291

> <Gold.Chemscore.Rot.Weighted>
5.0352

> <Gold.Chemscore.Internal.Correction.Weighted>
   9.000000E+99

> <Gold.Protein.RotatedTorsions>
[ 6907 6896 6895 6894 ] final  151.47 input  -60.11 | X-H torsion
[ 7974 7965 7964 7962 ] final -133.03 input  175.53 | X-H torsion
[ 8008 7997 7996 7995 ] final -108.97 input   59.86 | X-H torsion
[ 10167 10162 10161 10158 ] final   92.94 input  -65.29 | X-H torsion
[ 10718 10713 10712 10709 ] final   42.78 input   66.30 | X-H torsion
[ 10763 10752 10751 10750 ] final  171.00 input  -60.55 | X-H torsion
[ 11005 11000 10999 10996 ] final   69.84 input  -57.11 | X-H torsion

> <Gold.Protein.ActiveResidues>
 VAL166  LYS551  ARG553  GLY616  TRP617  ASP618  TYR619  PRO620  LYS621  CYS622 
 ASP623  PHE694  ASN695  SER759  ASP760  ASP761  ALA762  ILE779  LEU786  VAL792 
 PHE793  MET794  SER795  GLU796  ALA797  LYS798  CYS799  TRP800  GLU811  SER814 

> <Gold.Protein.RotatedAtoms>
  152.1002  133.4246  159.4583 H   0  0  0  0  0  0  0  0  0  0  0  0  # atno 6907 bound_to 6896
  150.6864  134.2769  159.4620 H   0  0  0  0  0  0  0  0  0  0  0  0  # atno 6908 bound_to 6896
  152.0629  134.9582  160.0625 H   0  0  0  0  0  0  0  0  0  0  0  0  # atno 6909 bound_to 6896
  144.9231  140.7038  143.4953 H   0  0  0  0  0  0  0  0  0  0  0  0  # atno 7974 bound_to 7965
  154.9523  140.0400  157.2150 H   0  0  0  0  0  0  0  0  0  0  0  0  # atno 8008 bound_to 7997
  154.7966  140.2844  155.5930 H   0  0  0  0  0  0  0  0  0  0  0  0  # atno 8009 bound_to 7997
  156.2956  140.2563  156.2826 H   0  0  0  0  0  0  0  0  0  0  0  0  # atno 8010 bound_to 7997
  139.8227  144.6723  150.9498 H   0  0  0  0  0  0  0  0  0  0  0  0  # atno 10167 bound_to 10162
  157.4087  130.7901  149.7411 H   0  0  0  0  0  0  0  0  0  0  0  0  # atno 10718 bound_to 10713
  154.4057  135.2755  155.2069 H   0  0  0  0  0  0  0  0  0  0  0  0  # atno 10763 bound_to 10752
  154.4076  135.6030  153.5937 H   0  0  0  0  0  0  0  0  0  0  0  0  # atno 10764 bound_to 10752
  152.9831  135.5941  154.4331 H   0  0  0  0  0  0  0  0  0  0  0  0  # atno 10765 bound_to 10752
  139.9631  134.7027  156.0603 H   0  0  0  0  0  0  0  0  0  0  0  0  # atno 11005 bound_to 11000
  145.3264  139.1773  143.4560 LP  0  0  0  0  0  0  0  0  0  0  0  0  # atno 17320 bound_to 7965
  146.3214  140.3287  142.8639 LP  0  0  0  0  0  0  0  0  0  0  0  0  # atno 17321 bound_to 7965
  140.7812  143.4076  151.1046 LP  0  0  0  0  0  0  0  0  0  0  0  0  # atno 17342 bound_to 10162
  139.7735  143.8460  152.3125 LP  0  0  0  0  0  0  0  0  0  0  0  0  # atno 17343 bound_to 10162
  155.9844  130.3992  150.3314 LP  0  0  0  0  0  0  0  0  0  0  0  0  # atno 17370 bound_to 10713
  157.1450  131.0306  151.2911 LP  0  0  0  0  0  0  0  0  0  0  0  0  # atno 17371 bound_to 10713
  141.1309  133.6587  156.3462 LP  0  0  0  0  0  0  0  0  0  0  0  0  # atno 17394 bound_to 11000
  140.5456  134.6077  157.5393 LP  0  0  0  0  0  0  0  0  0  0  0  0  # atno 17395 bound_to 11000

$$$$
