AV-unprocessed.smi:83|AV-procd|sdf|804|dock3
  -GOLD-   2262017193D 1   1.00000     0.00000
 Structure written by MMmdl.
 56 59  0  0  0  0  0  0  0  0  1 V2000
  153.4761  142.7138  159.2640 C   0  0  0  0  0  0  0  0  0  0  0  0
  153.3985  141.2452  158.8429 C   0  0  0  0  0  0  0  0  0  0  0  0
  154.4108  140.5495  158.9186 O   0  0  0  0  0  0  0  0  0  0  0  0
  152.2198  140.7630  158.3995 N   0  0  0  0  0  0  0  0  0  0  0  0
  150.9993  141.5592  158.3026 C   0  0  0  0  0  0  0  0  0  0  0  0
  149.9166  140.5893  157.8187 C   0  0  0  0  0  0  0  0  0  0  0  0
  150.6873  139.5025  157.0697 C   0  0  1  0  0  0  0  0  0  0  0  0
  150.8974  139.9225  155.5937 C   0  0  0  0  0  0  0  0  0  0  0  0
  149.6664  139.9890  154.8039 N   0  0  0  0  0  0  0  0  0  0  0  0
  149.1441  141.3198  154.4992 C   0  0  0  0  0  0  0  0  0  0  0  0
  148.8232  138.9168  154.7190 C   0  0  0  0  0  0  0  0  0  0  0  0
  148.9755  137.9083  155.6208 N   0  0  0  0  0  0  0  0  0  0  0  0
  148.2179  136.8110  155.5636 C   0  0  0  0  0  0  0  0  0  0  0  0
  147.2549  136.5092  154.6943 N   0  0  0  0  0  0  0  0  0  0  0  0
  147.0760  137.5144  153.7922 C   0  0  0  0  0  0  0  0  0  0  0  0
  147.7980  138.7438  153.7349 C   0  0  0  0  0  0  0  0  0  0  0  0
  147.3063  139.5084  152.6805 N   0  0  0  0  0  0  0  0  0  0  0  0
  146.3776  138.7726  152.1377 C   0  0  0  0  0  0  0  0  0  0  0  0
  146.1756  137.5562  152.7425 N   0  0  0  0  0  0  0  0  0  0  0  0
  145.2142  136.5432  152.3456 C   0  0  0  0  0  0  0  0  0  0  0  0
  145.7550  135.6220  151.2347 C   0  0  2  0  0  0  0  0  0  0  0  0
  145.1870  136.0024  149.9958 O   0  0  0  0  0  0  0  0  0  0  0  0
  145.4315  134.1400  151.4991 C   0  0  1  0  0  0  0  0  0  0  0  0
  143.9409  133.8334  151.6427 C   0  0  0  0  0  0  0  0  0  0  0  0
  143.9036  132.3534  151.3384 C   0  0  0  0  0  0  0  0  0  0  0  0
  144.9599  132.2211  150.2433 C   0  0  0  0  0  0  0  0  0  0  0  0
  145.8348  133.3368  150.3935 O   0  0  0  0  0  0  0  0  0  0  0  0
  151.9769  139.4117  157.9014 C   0  0  0  0  0  0  0  0  0  0  0  0
  153.1249  143.3653  158.4639 H   0  0  0  0  0  0  0  0  0  0  0  0
  154.5037  142.9929  159.4977 H   0  0  0  0  0  0  0  0  0  0  0  0
  152.8712  142.8931  160.1523 H   0  0  0  0  0  0  0  0  0  0  0  0
  150.7329  142.0127  159.2583 H   0  0  0  0  0  0  0  0  0  0  0  0
  151.1506  142.3595  157.5767 H   0  0  0  0  0  0  0  0  0  0  0  0
  149.4150  140.1479  158.6810 H   0  0  0  0  0  0  0  0  0  0  0  0
  149.1531  141.0777  157.2122 H   0  0  0  0  0  0  0  0  0  0  0  0
  150.1443  138.5572  157.0983 H   0  0  0  0  0  0  0  0  0  0  0  0
  151.3295  140.9236  155.5858 H   0  0  0  0  0  0  0  0  0  0  0  0
  151.6590  139.3102  155.1233 H   0  0  0  0  0  0  0  0  0  0  0  0
  148.6627  141.3343  153.5206 H   0  0  0  0  0  0  0  0  0  0  0  0
  149.9450  142.0593  154.4816 H   0  0  0  0  0  0  0  0  0  0  0  0
  148.4175  141.6306  155.2507 H   0  0  0  0  0  0  0  0  0  0  0  0
  148.4176  136.0652  156.3189 H   0  0  0  0  0  0  0  0  0  0  0  0
  145.8123  139.0983  151.2767 H   0  0  0  0  0  0  0  0  0  0  0  0
  144.9580  135.9596  153.2306 H   0  0  0  0  0  0  0  0  0  0  0  0
  144.2957  137.0351  152.0234 H   0  0  0  0  0  0  0  0  0  0  0  0
  146.8362  135.7459  151.1596 H   0  0  0  0  0  0  0  0  0  0  0  0
  145.6151  135.5163  149.3077 H   0  0  0  0  0  0  0  0  0  0  0  0
  145.9615  133.7851  152.3849 H   0  0  0  0  0  0  0  0  0  0  0  0
  143.5489  134.0746  152.6312 H   0  0  0  0  0  0  0  0  0  0  0  0
  143.3606  134.3827  150.8999 H   0  0  0  0  0  0  0  0  0  0  0  0
  144.2042  131.7860  152.2200 H   0  0  0  0  0  0  0  0  0  0  0  0
  142.9193  132.0034  151.0265 H   0  0  0  0  0  0  0  0  0  0  0  0
  145.5059  131.2803  150.3161 H   0  0  0  0  0  0  0  0  0  0  0  0
  144.5018  132.2706  149.2551 H   0  0  0  0  0  0  0  0  0  0  0  0
  152.8150  138.9966  157.3474 H   0  0  0  0  0  0  0  0  0  0  0  0
  151.8172  138.7607  158.7620 H   0  0  0  0  0  0  0  0  0  0  0  0
  1  2  1  0  0  0  0
  1 29  1  0  0  0  0
  1 30  1  0  0  0  0
  1 31  1  0  0  0  0
  2  3  2  0  0  0  0
  2  4  1  0  0  0  0
  4 28  1  0  0  0  0
  4  5  1  0  0  0  0
  5  6  1  0  0  0  0
  5 32  1  0  0  0  0
  5 33  1  0  0  0  0
  6  7  1  0  0  0  0
  6 34  1  0  0  0  0
  6 35  1  0  0  0  0
  7  8  1  0  0  0  0
  7 28  1  0  0  0  0
  7 36  1  0  0  0  0
  8  9  1  0  0  0  0
  8 37  1  0  0  0  0
  8 38  1  0  0  0  0
  9 10  1  0  0  0  0
  9 11  1  0  0  0  0
 10 39  1  0  0  0  0
 10 40  1  0  0  0  0
 10 41  1  0  0  0  0
 11 16  1  0  0  0  0
 11 12  2  0  0  0  0
 12 13  1  0  0  0  0
 13 14  2  0  0  0  0
 13 42  1  0  0  0  0
 14 15  1  0  0  0  0
 15 19  1  0  0  0  0
 15 16  2  0  0  0  0
 16 17  1  0  0  0  0
 17 18  2  0  0  0  0
 18 19  1  0  0  0  0
 18 43  1  0  0  0  0
 19 20  1  0  0  0  0
 20 21  1  0  0  0  0
 20 44  1  0  0  0  0
 20 45  1  0  0  0  0
 21 22  1  0  0  0  0
 21 23  1  0  0  0  0
 21 46  1  0  0  0  0
 22 47  1  0  0  0  0
 23 27  1  0  0  0  0
 23 24  1  0  0  0  0
 23 48  1  0  0  0  0
 24 25  1  0  0  0  0
 24 49  1  0  0  0  0
 24 50  1  0  0  0  0
 25 26  1  0  0  0  0
 25 51  1  0  0  0  0
 25 52  1  0  0  0  0
 26 27  1  0  0  0  0
 26 53  1  0  0  0  0
 26 54  1  0  0  0  0
 28 55  1  0  0  0  0
 28 56  1  0  0  0  0
M  END
> <s_m_source_file>
AV-unprocessed.smi

> <i_m_source_file_index>
83

> <i_lp_mmshare_version>
43012

> <i_f3d_flags>
0

> <s_epik_input>
W0NIM11DKD1PKU4xW0NIMl1bQ0gyXVtDQEhdKFtDSDJdMSlbQ0gyXU4oW0NIM10pYyhuW2NIXW4yKWMoYzIzKW5bY0hdbjNbQ0gyXVtDQEhdKFtPSF0pW0NAQEhdNFtDSDJdW0NIMl1bQ0gyXU80

> <s_epik_cmdline>
J2VwaWtfcHl0aG9uJywgJy1waCcsICc3LjAnLCAnLXRuJywgJzgnLCAnLW1hJywgJzIwMCcsICctbWV0YWxfYmluZGluZycsICctaW1hZScsICc8aW5maWxlLm1hZT4nLCAnLW9tYWUnLCAnPG91dGZpbGUubWFlPic=

> <r_lp_tautomer_probability>
1

> <r_epik_Ionization_Penalty>
0.00109752

> <r_epik_Ionization_Penalty_Charging>
0

> <r_epik_Ionization_Penalty_Neutral>
0.00109752

> <r_epik_State_Penalty>
0.000634803

> <r_epik_Charging_Adjusted_Penalty>
0.000634803

> <i_epik_Tot_Q>
0

> <i_epik_Tot_abs_Q>
0

> <r_epik_Metal_State_Penalty>
-0

> <b_epik_Metal_Only>
0

> <s_lp_Force_Field>
OPLS_2005

> <r_lp_Energy>
53.0153

> <b_lp_Chiralities_Consistent>
1

> <s_lp_Variant>
AV-unprocessed.smi:83-5

> <Gold.Version>
5.8.1

> <Gold.Id.Protein>
6NUR|6NUR_protein|mol2

> <Gold.PLP.Fitness>
50.3021

> <Gold.PLP.PLP>
-42.8931

> <Gold.PLP.part.hbond>
-3.0000

> <Gold.PLP.part.metal>
0.0000

> <Gold.PLP.part.buried>
-6.7391

> <Gold.PLP.part.nonpolar>
-37.1698

> <Gold.PLP.part.repulsive>
3.1489

> <Gold.PLP.ligand.clash>
0.0000

> <Gold.PLP.ligand.torsion>
1.4322

> <Gold.PLP.Chemscore.Hbond>
1.9440

> <Gold.PLP.Chemscore.CHOScore>
1.3118

> <Gold.PLP.Chemscore.Metal>
0.0000

> <Gold.Chemscore.Hbonds>
donor molecule, donor type, donor heavy atom, donor atom, acceptor molecule, acceptor atom, score
      L1  H    22    47       P1  7921  1.00
      P1  H  7997  8009       L1     3  0.70
      L1  C    18    43       P1 10171  1.00
      L1  C    18    43       P1 10175  0.17

> <Gold.PLP.Chemscore.Internal.Correction>
0.5058

> <Gold.Rescore>
     Score         DG    S(hbond)    S(metal)    S(lipo)     H(rot)  DE(clash)    DE(int)     intcor
     11.43     -14.47       1.68        0.00      86.26       2.62       0.25       2.80       ----

> <Gold.Chemscore.Fitness>
11.4294

> <Gold.Chemscore.DG>
-14.4736

> <Gold.Chemscore.ZeroCoef>
-5.4800

> <Gold.Chemscore.Hbond>
1.6756

> <Gold.Chemscore.Metal>
0.0000

> <Gold.Chemscore.Lipo>
86.2574

> <Gold.Chemscore.Internal_Hbond>
0.0000

> <Gold.Chemscore.DEClash>
0.2465

> <Gold.Chemscore.DEInternal>
2.7976

> <Gold.Chemscore.Rot>
2.6152

> <Gold.Chemscore.Internal.Correction>
   9.000000E+99

> <Gold.Chemscore.Hbonds>
donor molecule, donor type, donor heavy atom, donor atom, acceptor molecule, acceptor atom, score
      L1  H    22    47       P1  7921  1.00
      P1  H  7997  8009       L1     3  0.55

> <Gold.Chemscore.Hbond.Weighted>
-5.5963

> <Gold.Chemscore.Metal.Weighted>
-0.0000

> <Gold.Chemscore.Lipo.Weighted>
-10.0921

> <Gold.Chemscore.Internal_Hbond.Weighted>
0.0000

> <Gold.Chemscore.DEClash.Weighted>
0.2465

> <Gold.Chemscore.DEInternal.Weighted>
2.7976

> <Gold.Chemscore.Rot.Weighted>
6.6949

> <Gold.Chemscore.Internal.Correction.Weighted>
   9.000000E+99

> <Gold.Protein.RotatedTorsions>
[ 6907 6896 6895 6894 ] final   47.67 input  -60.11 | X-H torsion
[ 7974 7965 7964 7962 ] final -139.28 input  175.53 | X-H torsion
[ 8008 7997 7996 7995 ] final  128.02 input   59.86 | X-H torsion
[ 10167 10162 10161 10158 ] final   68.21 input  -65.29 | X-H torsion
[ 10718 10713 10712 10709 ] final -150.14 input   66.30 | X-H torsion
[ 10763 10752 10751 10750 ] final   49.32 input  -60.55 | X-H torsion
[ 11005 11000 10999 10996 ] final -171.54 input  -57.11 | X-H torsion

> <Gold.Protein.ActiveResidues>
 VAL166  LYS551  ARG553  GLY616  TRP617  ASP618  TYR619  PRO620  LYS621  CYS622 
 ASP623  PHE694  ASN695  SER759  ASP760  ASP761  ALA762  ILE779  LEU786  VAL792 
 PHE793  MET794  SER795  GLU796  ALA797  LYS798  CYS799  TRP800  GLU811  SER814 

> <Gold.Protein.RotatedAtoms>
  152.2707  134.7935  160.0414 H   0  0  0  0  0  0  0  0  0  0  0  0  # atno 6907 bound_to 6896
  151.8549  133.3441  159.3693 H   0  0  0  0  0  0  0  0  0  0  0  0  # atno 6908 bound_to 6896
  150.7151  134.5191  159.5689 H   0  0  0  0  0  0  0  0  0  0  0  0  # atno 6909 bound_to 6896
  144.8689  140.6337  143.5279 H   0  0  0  0  0  0  0  0  0  0  0  0  # atno 7974 bound_to 7965
  156.2905  140.2655  156.2368 H   0  0  0  0  0  0  0  0  0  0  0  0  # atno 8008 bound_to 7997
  155.0017  140.0388  157.2381 H   0  0  0  0  0  0  0  0  0  0  0  0  # atno 8009 bound_to 7997
  154.7596  140.2758  155.6230 H   0  0  0  0  0  0  0  0  0  0  0  0  # atno 8010 bound_to 7997
  140.0811  144.5070  150.7161 H   0  0  0  0  0  0  0  0  0  0  0  0  # atno 10167 bound_to 10162
  156.4423  130.8128  151.2357 H   0  0  0  0  0  0  0  0  0  0  0  0  # atno 10718 bound_to 10713
  152.9787  135.5915  154.4069 H   0  0  0  0  0  0  0  0  0  0  0  0  # atno 10763 bound_to 10752
  154.3708  135.2767  155.2269 H   0  0  0  0  0  0  0  0  0  0  0  0  # atno 10764 bound_to 10752
  154.4225  135.6055  153.6073 H   0  0  0  0  0  0  0  0  0  0  0  0  # atno 10765 bound_to 10752
  140.5071  134.5838  157.5007 H   0  0  0  0  0  0  0  0  0  0  0  0  # atno 11005 bound_to 11000
  145.4167  139.1571  143.4096 LP  0  0  0  0  0  0  0  0  0  0  0  0  # atno 17320 bound_to 7965
  146.2916  140.4275  142.8737 LP  0  0  0  0  0  0  0  0  0  0  0  0  # atno 17321 bound_to 7965
  140.7077  143.2480  151.4676 LP  0  0  0  0  0  0  0  0  0  0  0  0  # atno 17342 bound_to 10162
  139.5779  144.1777  152.1928 LP  0  0  0  0  0  0  0  0  0  0  0  0  # atno 17343 bound_to 10162
  157.7506  131.0164  150.3544 LP  0  0  0  0  0  0  0  0  0  0  0  0  # atno 17370 bound_to 10713
  156.3904  130.3897  149.7034 LP  0  0  0  0  0  0  0  0  0  0  0  0  # atno 17371 bound_to 10713
  139.9680  134.7340  156.0099 LP  0  0  0  0  0  0  0  0  0  0  0  0  # atno 17394 bound_to 11000
  141.1405  133.6566  156.3717 LP  0  0  0  0  0  0  0  0  0  0  0  0  # atno 17395 bound_to 11000

$$$$
