#       Name:                AV-unprocessed.smi:2496
#       Creating user name   scv26
#       Creation time:       Fri Mar 27 13:45:54 2020


#       File generated by GOLD software.
#

@<TRIPOS>MOLECULE
AV-unprocessed.smi:2496
    43    43     1
SMALL
NO_CHARGES


@<TRIPOS>ATOM
      1 ****        -0.9101  -3.6930  -0.3960 C.3            1 S1                 0.0000
      2 ****        -1.6326  -2.5216  -1.0011 C.2            1 S1                 0.0000
      3 ****        -2.1250  -2.6478  -2.2244 N.2            1 S1                 0.0000
      4 ****        -2.6926  -1.4563  -2.4725 N.pl3          1 S1                 0.0000
      5 ****        -2.5717  -0.5743  -1.4257 C.2            1 S1                 0.0000
      6 ****        -3.1262   0.8095  -1.4879 C.3            1 S1                 0.0000
      7 ****        -1.8851  -1.2283  -0.4377 C.2            1 S1                 0.0000
      8 ****        -1.4901  -0.6791   0.9181 C.3            1 S1                 0.0000
      9 ****        -2.0527  -1.5244   2.0762 C.3            1 S1                 0.0000
     10 ****         0.0356  -0.5072   0.9788 C.2            1 S1                 0.0000
     11 ****         0.7187  -1.1935   1.7398 O.2            1 S1                 0.0000
     12 ****         0.5516   0.4284   0.1645 N.am           1 S1                 0.0000
     13 ****         1.9679   0.7606   0.0130 C.3            1 S1                 0.0000
     14 ****         2.3496   0.5248  -1.4586 C.3            1 S1                 0.0000
     15 ****         2.2453   2.2096   0.4970 C.3            1 S1                 0.0000
     16 ****         3.7350   2.5835   0.3940 C.3            1 S1                 0.0000
     17 ****         1.7565   2.4522   1.9384 C.3            1 S1                 0.0000
     18 ****        -3.1530  -1.2612  -3.3501 H              1 S1                 0.0000
     19 ****        -0.0228  -3.3744   0.1496 H              1 S1                 0.0000
     20 ****        -0.5839  -4.4015  -1.1582 H              1 S1                 0.0000
     21 ****        -1.5539  -4.2314   0.2992 H              1 S1                 0.0000
     22 ****        -2.3302   1.5474  -1.3875 H              1 S1                 0.0000
     23 ****        -3.8431   0.9739  -0.6833 H              1 S1                 0.0000
     24 ****        -3.6357   0.9914  -2.4347 H              1 S1                 0.0000
     25 ****        -1.9064   0.3215   1.0431 H              1 S1                 0.0000
     26 ****        -1.6750  -2.5465   2.0622 H              1 S1                 0.0000
     27 ****        -3.1408  -1.5736   2.0256 H              1 S1                 0.0000
     28 ****        -1.7919  -1.0907   3.0423 H              1 S1                 0.0000
     29 ****        -0.0933   0.9401  -0.4198 H              1 S1                 0.0000
     30 ****         2.5720   0.0820   0.6179 H              1 S1                 0.0000
     31 ****         3.4207   0.6360  -1.6232 H              1 S1                 0.0000
     32 ****         1.8334   1.2217  -2.1200 H              1 S1                 0.0000
     33 ****         2.0850  -0.4857  -1.7727 H              1 S1                 0.0000
     34 ****         1.6926   2.8937  -0.1487 H              1 S1                 0.0000
     35 ****         4.3565   1.8942   0.9663 H              1 S1                 0.0000
     36 ****         3.9153   3.5875   0.7793 H              1 S1                 0.0000
     37 ****         4.0861   2.5752  -0.6371 H              1 S1                 0.0000
     38 ****         2.2246   1.7568   2.6358 H              1 S1                 0.0000
     39 ****         0.6762   2.3362   2.0268 H              1 S1                 0.0000
     40 ****         1.9935   3.4636   2.2695 H              1 S1                 0.0000
     41 ****        -2.0836  -3.4464  -2.8248 LP             1 S1                 0.0000
     42 ****         0.2813  -1.8732   2.3286 LP             1 S1                 0.0000
     43 ****         1.7107  -1.0710   1.7690 LP             1 S1                 0.0000
@<TRIPOS>BOND
    1    1    2 1     
    2    1   19 1     
    3    1   20 1     
    4    1   21 1     
    5    2    7 1     
    6    2    3 2     
    7    3    4 1     
    8    4   18 1     
    9    4    5 1     
   10    5    6 1     
   11    5    7 2     
   12    6   22 1     
   13    6   23 1     
   14    6   24 1     
   15    7    8 1     
   16    8    9 1     
   17    8   10 1     
   18    8   25 1     
   19    9   26 1     
   20    9   27 1     
   21    9   28 1     
   22   10   11 2     
   23   10   12 am    
   24   12   13 1     
   25   12   29 1     
   26   13   14 1     
   27   13   15 1     
   28   13   30 1     
   29   14   31 1     
   30   14   32 1     
   31   14   33 1     
   32   15   16 1     
   33   15   17 1     
   34   15   34 1     
   35   16   35 1     
   36   16   36 1     
   37   16   37 1     
   38   17   38 1     
   39   17   39 1     
   40   17   40 1     
   41    3   41 1     
   42   11   42 1     
   43   11   43 1     
@<TRIPOS>SUBSTRUCTURE
      1 S1             1
@<TRIPOS>SET
LONE_PAIRS      STATIC     ATOMS    <user>   **** ""
3 41 42 43
DONOR_HYDROGENS      STATIC     ATOMS    <user>   **** ""
2 18 29
ATOM$BLUE        STATIC     ATOMS    COLORGROUP SYSTEM
3 41 42 43
ATOM$RED        STATIC     ATOMS    COLORGROUP SYSTEM
2 18 29
