AV-unprocessed.smi:447|AV-procd|sdf|2601|dock5
  -GOLD-   2262022593D 1   1.00000     0.00000
 Structure written by MMmdl.
 46 48  0  0  0  0  0  0  0  0  2 V2000
  148.5017  132.3754  153.3813 C   0  0  0  0  0  0  0  0  0  0  0  0
  147.9026  133.3534  154.3863 C   0  0  0  0  0  0  0  0  0  0  0  0
  147.4726  132.9427  155.4631 O   0  0  0  0  0  0  0  0  0  0  0  0
  147.8817  134.6455  154.0237 N   0  0  0  0  0  0  0  0  0  0  0  0
  147.3271  135.7373  154.8215 C   0  0  2  0  0  0  0  0  0  0  0  0
  146.2316  136.4521  154.0193 C   0  0  0  0  0  0  0  0  0  0  0  0
  148.3704  136.7197  155.2731 C   0  0  0  0  0  0  0  0  0  0  0  0
  149.2324  137.4080  154.4691 N   0  3  0  0  0  0  0  0  0  0  0  0
  150.0505  138.2306  155.2433 C   0  0  0  0  0  0  0  0  0  0  0  0
  151.0746  139.1002  154.8807 C   0  0  0  0  0  0  0  0  0  0  0  0
  151.7143  139.7961  155.9275 C   0  0  0  0  0  0  0  0  0  0  0  0
  151.3293  139.6160  157.2720 C   0  0  0  0  0  0  0  0  0  0  0  0
  150.2883  138.7327  157.6269 C   0  0  0  0  0  0  0  0  0  0  0  0
  149.6626  138.0475  156.5856 C   0  0  0  0  0  0  0  0  0  0  0  0
  148.6212  137.1138  156.5561 N   0  0  0  0  0  0  0  0  0  0  0  0
  147.9910  136.7102  157.8231 C   0  0  0  0  0  0  0  0  0  0  0  0
  149.0181  136.3262  158.9070 C   0  0  2  0  0  0  0  0  0  0  0  0
  149.9952  135.4663  158.3547 O   0  0  0  0  0  0  0  0  0  0  0  0
  148.3378  135.7188  160.1233 C   0  0  0  0  0  0  0  0  0  0  0  0
  147.7169  134.4551  160.0252 C   0  0  0  0  0  0  0  0  0  0  0  0
  147.0877  133.8839  161.1484 C   0  0  0  0  0  0  0  0  0  0  0  0
  147.0788  134.5715  162.3771 C   0  0  0  0  0  0  0  0  0  0  0  0
  147.7017  135.8299  162.4827 C   0  0  0  0  0  0  0  0  0  0  0  0
  148.3305  136.4019  161.3597 C   0  0  0  0  0  0  0  0  0  0  0  0
  149.2664  132.8568  152.7706 H   0  0  0  0  0  0  0  0  0  0  0  0
  147.7243  131.9915  152.7206 H   0  0  0  0  0  0  0  0  0  0  0  0
  148.9613  131.5313  153.8962 H   0  0  0  0  0  0  0  0  0  0  0  0
  148.2544  134.8880  153.1171 H   0  0  0  0  0  0  0  0  0  0  0  0
  146.8640  135.2966  155.7055 H   0  0  0  0  0  0  0  0  0  0  0  0
  145.7602  137.2370  154.6117 H   0  0  0  0  0  0  0  0  0  0  0  0
  145.4489  135.7558  153.7165 H   0  0  0  0  0  0  0  0  0  0  0  0
  146.6357  136.9135  153.1174 H   0  0  0  0  0  0  0  0  0  0  0  0
  151.3717  139.2399  153.8516 H   0  0  0  0  0  0  0  0  0  0  0  0
  152.5169  140.4810  155.6945 H   0  0  0  0  0  0  0  0  0  0  0  0
  151.8427  140.1661  158.0475 H   0  0  0  0  0  0  0  0  0  0  0  0
  150.0011  138.6008  158.6597 H   0  0  0  0  0  0  0  0  0  0  0  0
  147.3536  137.5266  158.1642 H   0  0  0  0  0  0  0  0  0  0  0  0
  147.3236  135.8733  157.6150 H   0  0  0  0  0  0  0  0  0  0  0  0
  149.5458  137.2251  159.2279 H   0  0  0  0  0  0  0  0  0  0  0  0
  149.5727  134.8886  157.7374 H   0  0  0  0  0  0  0  0  0  0  0  0
  147.7203  133.9183  159.0877 H   0  0  0  0  0  0  0  0  0  0  0  0
  146.6117  132.9178  161.0674 H   0  0  0  0  0  0  0  0  0  0  0  0
  146.5958  134.1335  163.2383 H   0  0  0  0  0  0  0  0  0  0  0  0
  147.6974  136.3569  163.4256 H   0  0  0  0  0  0  0  0  0  0  0  0
  148.8080  137.3667  161.4511 H   0  0  0  0  0  0  0  0  0  0  0  0
  149.2616  137.3097  153.4627 H   0  0  0  0  0  0  0  0  0  0  0  0
  1  2  1  0  0  0  0
  1 25  1  0  0  0  0
  1 26  1  0  0  0  0
  1 27  1  0  0  0  0
  2  3  2  0  0  0  0
  2  4  1  0  0  0  0
  4  5  1  0  0  0  0
  4 28  1  0  0  0  0
  5  6  1  0  0  0  0
  5  7  1  0  0  0  0
  5 29  1  0  0  0  0
  6 30  1  0  0  0  0
  6 31  1  0  0  0  0
  6 32  1  0  0  0  0
  7 15  1  0  0  0  0
  7  8  2  0  0  0  0
  8  9  1  0  0  0  0
  8 46  1  0  0  0  0
  9 14  2  0  0  0  0
  9 10  1  0  0  0  0
 10 11  2  0  0  0  0
 10 33  1  0  0  0  0
 11 12  1  0  0  0  0
 11 34  1  0  0  0  0
 12 13  2  0  0  0  0
 12 35  1  0  0  0  0
 13 14  1  0  0  0  0
 13 36  1  0  0  0  0
 14 15  1  0  0  0  0
 15 16  1  0  0  0  0
 16 17  1  0  0  0  0
 16 37  1  0  0  0  0
 16 38  1  0  0  0  0
 17 18  1  0  0  0  0
 17 19  1  0  0  0  0
 17 39  1  0  0  0  0
 18 40  1  0  0  0  0
 19 24  1  0  0  0  0
 19 20  2  0  0  0  0
 20 21  1  0  0  0  0
 20 41  1  0  0  0  0
 21 22  2  0  0  0  0
 21 42  1  0  0  0  0
 22 23  1  0  0  0  0
 22 43  1  0  0  0  0
 23 24  2  0  0  0  0
 23 44  1  0  0  0  0
 24 45  1  0  0  0  0
M  CHG  1   8   1
M  END
> <s_m_source_file>
AV-unprocessed.smi

> <i_m_source_file_index>
447

> <i_lp_mmshare_version>
43012

> <i_f3d_flags>
0

> <s_epik_input>
W0NIM11DKD1PKVtOSF1bQ0BIXShbQ0gzXSljKG4xKW4oYyhjMTIpW2NIXVtjSF1bY0hdW2NIXTIpW0NIMl1bQ0BIXShbT0hdKWMzW2NIXVtjSF1bY0hdW2NIXVtjSF0z

> <s_epik_cmdline>
J2VwaWtfcHl0aG9uJywgJy1waCcsICc3LjAnLCAnLXRuJywgJzgnLCAnLW1hJywgJzIwMCcsICctbWV0YWxfYmluZGluZycsICctaW1hZScsICc8aW5maWxlLm1hZT4nLCAnLW9tYWUnLCAnPG91dGZpbGUubWFlPic=

> <r_epik_Ionization_Penalty>
0.950381

> <r_epik_Ionization_Penalty_Charging>
0.950379

> <r_epik_Ionization_Penalty_Neutral>
1.42115e-06

> <r_epik_State_Penalty>
0.994584

> <r_epik_Charging_Adjusted_Penalty>
1.94496

> <i_epik_Tot_Q>
1

> <i_epik_Tot_abs_Q>
1

> <r_epik_Metal_State_Penalty>
1.10485

> <b_epik_Metal_Only>
0

> <s_lp_Force_Field>
OPLS_2005

> <r_lp_Energy>
11.6076

> <b_lp_Chiralities_Consistent>
1

> <s_lp_Variant>
AV-unprocessed.smi:447-5

> <Gold.Version>
5.8.1

> <Gold.Id.Protein>
6NUR|6NUR_protein|mol2

> <Gold.PLP.Fitness>
47.2340

> <Gold.PLP.PLP>
-35.8329

> <Gold.PLP.part.hbond>
-3.0000

> <Gold.PLP.part.metal>
0.0000

> <Gold.PLP.part.buried>
-2.4711

> <Gold.PLP.part.nonpolar>
-30.6219

> <Gold.PLP.part.repulsive>
0.0000

> <Gold.PLP.ligand.clash>
0.0000

> <Gold.PLP.ligand.torsion>
0.3447

> <Gold.PLP.Chemscore.Hbond>
4.0000

> <Gold.PLP.Chemscore.CHOScore>
0.0000

> <Gold.PLP.Chemscore.Metal>
0.0000

> <Gold.Chemscore.Hbonds>
donor molecule, donor type, donor heavy atom, donor atom, acceptor molecule, acceptor atom, score
      L1  H     4    28       P1  7948  1.00
      L1  H     8    46       P1  7948  2.00
      P1  H  6896  6909       L1    18  0.98

> <Gold.PLP.Chemscore.Internal.Correction>
0.0905

> <Gold.Rescore>
     Score         DG    S(hbond)    S(metal)    S(lipo)     H(rot)  DE(clash)    DE(int)     intcor
     17.94     -18.33       2.80        0.00      82.59       2.41       0.02       0.37       ----

> <Gold.Chemscore.Fitness>
17.9370

> <Gold.Chemscore.DG>
-18.3282

> <Gold.Chemscore.ZeroCoef>
-5.4800

> <Gold.Chemscore.Hbond>
2.8017

> <Gold.Chemscore.Metal>
0.0000

> <Gold.Chemscore.Lipo>
82.5920

> <Gold.Chemscore.Internal_Hbond>
0.0000

> <Gold.Chemscore.DEClash>
0.0174

> <Gold.Chemscore.DEInternal>
0.3738

> <Gold.Chemscore.Rot>
2.4112

> <Gold.Chemscore.Internal.Correction>
   9.000000E+99

> <Gold.Chemscore.Hbonds>
donor molecule, donor type, donor heavy atom, donor atom, acceptor molecule, acceptor atom, score
      L1  H     4    28       P1  7948  0.82
      L1  H     8    46       P1  7948  0.94
      P1  H  6896  6909       L1    18  0.55

> <Gold.Chemscore.Hbond.Weighted>
-9.3576

> <Gold.Chemscore.Metal.Weighted>
-0.0000

> <Gold.Chemscore.Lipo.Weighted>
-9.6633

> <Gold.Chemscore.Internal_Hbond.Weighted>
0.0000

> <Gold.Chemscore.DEClash.Weighted>
0.0174

> <Gold.Chemscore.DEInternal.Weighted>
0.3738

> <Gold.Chemscore.Rot.Weighted>
6.1727

> <Gold.Chemscore.Internal.Correction.Weighted>
   9.000000E+99

> <Gold.Protein.RotatedTorsions>
[ 6907 6896 6895 6894 ] final   58.63 input  -60.11 | X-H torsion
[ 7974 7965 7964 7962 ] final    6.08 input  175.53 | X-H torsion
[ 8008 7997 7996 7995 ] final -112.86 input   59.86 | X-H torsion
[ 10167 10162 10161 10158 ] final  168.33 input  -65.29 | X-H torsion
[ 10718 10713 10712 10709 ] final   52.64 input   66.30 | X-H torsion
[ 10763 10752 10751 10750 ] final   94.29 input  -60.55 | X-H torsion
[ 11005 11000 10999 10996 ] final   55.00 input  -57.11 | X-H torsion

> <Gold.Protein.ActiveResidues>
 VAL166  LYS551  ARG553  GLY616  TRP617  ASP618  TYR619  PRO620  LYS621  CYS622 
 ASP623  PHE694  ASN695  SER759  ASP760  ASP761  ALA762  ILE779  LEU786  VAL792 
 PHE793  MET794  SER795  GLU796  ALA797  LYS798  CYS799  TRP800  GLU811  SER814 

> <Gold.Protein.RotatedAtoms>
  152.3842  134.6543  160.0131 H   0  0  0  0  0  0  0  0  0  0  0  0  # atno 6907 bound_to 6896
  151.6797  133.3306  159.3224 H   0  0  0  0  0  0  0  0  0  0  0  0  # atno 6908 bound_to 6896
  150.7772  134.6727  159.6445 H   0  0  0  0  0  0  0  0  0  0  0  0  # atno 6909 bound_to 6896
  146.2437  140.0287  142.8391 H   0  0  0  0  0  0  0  0  0  0  0  0  # atno 7974 bound_to 7965
  155.0118  140.0393  157.2402 H   0  0  0  0  0  0  0  0  0  0  0  0  # atno 8008 bound_to 7997
  154.7453  140.2757  155.6315 H   0  0  0  0  0  0  0  0  0  0  0  0  # atno 8009 bound_to 7997
  156.2873  140.2657  156.2192 H   0  0  0  0  0  0  0  0  0  0  0  0  # atno 8010 bound_to 7997
  139.4965  144.3826  151.9606 H   0  0  0  0  0  0  0  0  0  0  0  0  # atno 10167 bound_to 10162
  157.5093  130.8490  149.8415 H   0  0  0  0  0  0  0  0  0  0  0  0  # atno 10718 bound_to 10713
  153.2399  135.4295  155.0687 H   0  0  0  0  0  0  0  0  0  0  0  0  # atno 10763 bound_to 10752
  154.8336  135.3400  154.6664 H   0  0  0  0  0  0  0  0  0  0  0  0  # atno 10764 bound_to 10752
  153.7088  135.7024  153.5099 H   0  0  0  0  0  0  0  0  0  0  0  0  # atno 10765 bound_to 10752
  140.0641  134.5561  155.9119 H   0  0  0  0  0  0  0  0  0  0  0  0  # atno 11005 bound_to 11000
  145.1174  140.9442  143.4620 LP  0  0  0  0  0  0  0  0  0  0  0  0  # atno 17320 bound_to 7965
  145.0515  139.3178  143.5926 LP  0  0  0  0  0  0  0  0  0  0  0  0  # atno 17321 bound_to 7965
  140.3262  144.3370  150.5998 LP  0  0  0  0  0  0  0  0  0  0  0  0  # atno 17342 bound_to 10162
  140.5682  143.2184  151.7646 LP  0  0  0  0  0  0  0  0  0  0  0  0  # atno 17343 bound_to 10162
  156.0279  130.3774  150.1771 LP  0  0  0  0  0  0  0  0  0  0  0  0  # atno 17370 bound_to 10713
  156.9961  130.9908  151.3403 LP  0  0  0  0  0  0  0  0  0  0  0  0  # atno 17371 bound_to 10713
  141.1985  133.6602  156.5798 LP  0  0  0  0  0  0  0  0  0  0  0  0  # atno 17394 bound_to 11000
  140.3725  134.7593  157.4608 LP  0  0  0  0  0  0  0  0  0  0  0  0  # atno 17395 bound_to 11000

$$$$
