AV-unprocessed.smi:1178|AV-procd|sdf|4956|dock4
  -GOLD-   22720 3543D 1   1.00000     0.00000
 Structure written by MMmdl.
 33 34  0  0  0  0  0  0  0  0  1 V2000
  149.1034  140.7009  156.9764 O   0  0  0  0  0  0  0  0  0  0  0  0
  149.7809  141.4505  156.2718 C   0  0  0  0  0  0  0  0  0  0  0  0
  149.1907  142.0741  154.9992 C   0  0  0  0  0  0  0  0  0  0  0  0
  148.6984  141.0654  154.0500 N   0  0  0  0  0  0  0  0  0  0  0  0
  147.4334  141.1856  153.4922 C   0  0  0  0  0  0  0  0  0  0  0  0
  146.9277  140.3065  152.5950 C   0  0  0  0  0  0  0  0  0  0  0  0
  147.7163  139.1583  152.1608 C   0  0  0  0  0  0  0  0  0  0  0  0
  147.3474  138.3093  151.3524 O   0  0  0  0  0  0  0  0  0  0  0  0
  148.9828  139.0720  152.7447 N   0  0  0  0  0  0  0  0  0  0  0  0
  149.5098  139.9741  153.6700 C   0  0  0  0  0  0  0  0  0  0  0  0
  150.6414  139.8049  154.1220 O   0  0  0  0  0  0  0  0  0  0  0  0
  151.0579  141.7583  156.5445 N   0  0  0  0  0  0  0  0  0  0  0  0
  151.8070  141.2966  157.7082 C   0  0  0  0  0  0  0  0  0  0  0  0
  152.5536  142.4485  158.4133 C   0  0  0  0  0  0  0  0  0  0  0  0
  153.2482  141.9927  159.6254 N   0  0  0  0  0  0  0  0  0  0  0  0
  153.0834  142.5878  160.8294 C   0  0  0  0  0  0  0  0  0  0  0  0
  152.3488  143.5515  161.0432 O   0  0  0  0  0  0  0  0  0  0  0  0
  153.9099  141.9677  161.9621 C   0  0  0  0  0  0  0  0  0  0  0  0
  154.8245  140.6317  161.1882 S   0  0  0  0  0  0  0  0  0  0  0  0
  154.1187  140.9688  159.6310 C   0  0  0  0  0  0  0  0  0  0  0  0
  154.4245  140.3053  158.6406 O   0  0  0  0  0  0  0  0  0  0  0  0
  149.5660  138.2939  152.4733 H   0  0  0  0  0  0  0  0  0  0  0  0
  148.3887  142.7679  155.2599 H   0  0  0  0  0  0  0  0  0  0  0  0
  149.9626  142.6880  154.5334 H   0  0  0  0  0  0  0  0  0  0  0  0
  146.8159  142.0245  153.7798 H   0  0  0  0  0  0  0  0  0  0  0  0
  145.9354  140.4550  152.1941 H   0  0  0  0  0  0  0  0  0  0  0  0
  151.5408  142.3760  155.9083 H   0  0  0  0  0  0  0  0  0  0  0  0
  151.1126  140.8305  158.4090 H   0  0  0  0  0  0  0  0  0  0  0  0
  152.4971  140.5097  157.4028 H   0  0  0  0  0  0  0  0  0  0  0  0
  153.2381  142.9526  157.7288 H   0  0  0  0  0  0  0  0  0  0  0  0
  151.8302  143.2169  158.6916 H   0  0  0  0  0  0  0  0  0  0  0  0
  154.5922  142.7027  162.3892 H   0  0  0  0  0  0  0  0  0  0  0  0
  153.2603  141.5833  162.7487 H   0  0  0  0  0  0  0  0  0  0  0  0
  1  2  2  0  0  0  0
  2  3  1  0  0  0  0
  2 12  1  0  0  0  0
  3  4  1  0  0  0  0
  3 23  1  0  0  0  0
  3 24  1  0  0  0  0
  4 10  1  0  0  0  0
  4  5  1  0  0  0  0
  5  6  2  0  0  0  0
  5 25  1  0  0  0  0
  6  7  1  0  0  0  0
  6 26  1  0  0  0  0
  7  8  2  0  0  0  0
  7  9  1  0  0  0  0
  9 22  1  0  0  0  0
  9 10  1  0  0  0  0
 10 11  2  0  0  0  0
 12 13  1  0  0  0  0
 12 27  1  0  0  0  0
 13 14  1  0  0  0  0
 13 28  1  0  0  0  0
 13 29  1  0  0  0  0
 14 15  1  0  0  0  0
 14 30  1  0  0  0  0
 14 31  1  0  0  0  0
 15 20  1  0  0  0  0
 15 16  1  0  0  0  0
 16 17  2  0  0  0  0
 16 18  1  0  0  0  0
 18 19  1  0  0  0  0
 18 32  1  0  0  0  0
 18 33  1  0  0  0  0
 19 20  1  0  0  0  0
 20 21  2  0  0  0  0
M  END
> <s_m_source_file>
AV-unprocessed.smi

> <i_m_source_file_index>
1178

> <i_lp_mmshare_version>
43012

> <i_f3d_flags>
0

> <s_epik_input>
Tz1jMVtuSF1jKD1PKVtjSF1bY0hdbjFbQ0gyXUMoPU8pW05IXVtDSDJdW0NIMl1OMkMoPU8pW0NIMl1TQzI9Tw==

> <s_epik_cmdline>
J2VwaWtfcHl0aG9uJywgJy1waCcsICc3LjAnLCAnLXRuJywgJzgnLCAnLW1hJywgJzIwMCcsICctbWV0YWxfYmluZGluZycsICctaW1hZScsICc8aW5maWxlLm1hZT4nLCAnLW9tYWUnLCAnPG91dGZpbGUubWFlPic=

> <r_lp_tautomer_probability>
0.999537

> <r_epik_Ionization_Penalty>
0.00339795

> <r_epik_Ionization_Penalty_Charging>
0.0033979

> <r_epik_Ionization_Penalty_Neutral>
5.48861e-08

> <r_epik_State_Penalty>
0.00240602

> <r_epik_Charging_Adjusted_Penalty>
0.00580392

> <i_epik_Tot_Q>
0

> <i_epik_Tot_abs_Q>
0

> <r_epik_Metal_State_Penalty>
0.366682

> <b_epik_Metal_Only>
0

> <s_lp_Force_Field>
OPLS_2005

> <r_lp_Energy>
11.0957

> <b_lp_Chiralities_Consistent>
1

> <s_lp_Variant>
AV-unprocessed.smi:1178-1

> <Gold.Version>
5.8.1

> <Gold.Id.Protein>
6NUR|6NUR_protein|mol2

> <Gold.PLP.Fitness>
46.4413

> <Gold.PLP.PLP>
-35.6202

> <Gold.PLP.part.hbond>
-3.9774

> <Gold.PLP.part.metal>
0.0000

> <Gold.PLP.part.buried>
5.8302

> <Gold.PLP.part.nonpolar>
-37.0350

> <Gold.PLP.part.repulsive>
2.1310

> <Gold.PLP.ligand.clash>
0.0000

> <Gold.PLP.ligand.torsion>
0.2212

> <Gold.PLP.Chemscore.Hbond>
3.7482

> <Gold.PLP.Chemscore.CHOScore>
0.0000

> <Gold.PLP.Chemscore.Metal>
0.0000

> <Gold.Chemscore.Hbonds>
donor molecule, donor type, donor heavy atom, donor atom, acceptor molecule, acceptor atom, score
      L1  H     9    22       P1  7948  0.38
      P1  H  7954  7966       L1     8  1.00
      P1  H  7989  7998       L1    11  1.00
      P1  H  7997  8009       L1    21  0.70

> <Gold.PLP.Chemscore.Internal.Correction>
0.0188

> <Gold.Rescore>
     Score         DG    S(hbond)    S(metal)    S(lipo)     H(rot)  DE(clash)    DE(int)     intcor
      8.38     -14.84       3.17        0.00      54.50       2.97       4.99       1.47       ----

> <Gold.Chemscore.Fitness>
8.3771

> <Gold.Chemscore.DG>
-14.8419

> <Gold.Chemscore.ZeroCoef>
-5.4800

> <Gold.Chemscore.Hbond>
3.1679

> <Gold.Chemscore.Metal>
0.0000

> <Gold.Chemscore.Lipo>
54.5045

> <Gold.Chemscore.Internal_Hbond>
0.0000

> <Gold.Chemscore.DEClash>
4.9907

> <Gold.Chemscore.DEInternal>
1.4742

> <Gold.Chemscore.Rot>
2.9672

> <Gold.Chemscore.Internal.Correction>
   9.000000E+99

> <Gold.Chemscore.Hbonds>
donor molecule, donor type, donor heavy atom, donor atom, acceptor molecule, acceptor atom, score
      L1  H     9    22       P1  7948  0.22
      P1  H  7954  7966       L1     8  0.99
      P1  H  7989  7998       L1    11  0.68
      P1  H  7997  8009       L1    21  0.66

> <Gold.Chemscore.Hbond.Weighted>
-10.5809

> <Gold.Chemscore.Metal.Weighted>
-0.0000

> <Gold.Chemscore.Lipo.Weighted>
-6.3770

> <Gold.Chemscore.Internal_Hbond.Weighted>
0.0000

> <Gold.Chemscore.DEClash.Weighted>
4.9907

> <Gold.Chemscore.DEInternal.Weighted>
1.4742

> <Gold.Chemscore.Rot.Weighted>
7.5960

> <Gold.Chemscore.Internal.Correction.Weighted>
   9.000000E+99

> <Gold.Protein.RotatedTorsions>
[ 6907 6896 6895 6894 ] final -107.85 input  -60.11 | X-H torsion
[ 7974 7965 7964 7962 ] final  -27.87 input  175.53 | X-H torsion
[ 8008 7997 7996 7995 ] final  138.21 input   59.86 | X-H torsion
[ 10167 10162 10161 10158 ] final   14.01 input  -65.29 | X-H torsion
[ 10718 10713 10712 10709 ] final  -42.03 input   66.30 | X-H torsion
[ 10763 10752 10751 10750 ] final  -44.03 input  -60.55 | X-H torsion
[ 11005 11000 10999 10996 ] final -175.73 input  -57.11 | X-H torsion

> <Gold.Protein.ActiveResidues>
 VAL166  LYS551  ARG553  GLY616  TRP617  ASP618  TYR619  PRO620  LYS621  CYS622 
 ASP623  PHE694  ASN695  SER759  ASP760  ASP761  ALA762  ILE779  LEU786  VAL792 
 PHE793  MET794  SER795  GLU796  ALA797  LYS798  CYS799  TRP800  GLU811  SER814 

> <Gold.Protein.RotatedAtoms>
  150.7468  133.9765  159.3562 H   0  0  0  0  0  0  0  0  0  0  0  0  # atno 6907 bound_to 6896
  151.7702  135.0786  160.0368 H   0  0  0  0  0  0  0  0  0  0  0  0  # atno 6908 bound_to 6896
  152.3344  133.5958  159.5868 H   0  0  0  0  0  0  0  0  0  0  0  0  # atno 6909 bound_to 6896
  146.1328  140.5208  142.8686 H   0  0  0  0  0  0  0  0  0  0  0  0  # atno 7974 bound_to 7965
  156.2998  140.2399  156.4036 H   0  0  0  0  0  0  0  0  0  0  0  0  # atno 8008 bound_to 7997
  154.8505  140.0424  157.1620 H   0  0  0  0  0  0  0  0  0  0  0  0  # atno 8009 bound_to 7997
  154.9004  140.2976  155.5324 H   0  0  0  0  0  0  0  0  0  0  0  0  # atno 8010 bound_to 7997
  140.5964  143.8693  150.6922 H   0  0  0  0  0  0  0  0  0  0  0  0  # atno 10167 bound_to 10162
  156.2639  130.4200  149.8511 H   0  0  0  0  0  0  0  0  0  0  0  0  # atno 10718 bound_to 10713
  154.0053  135.6688  153.4762 H   0  0  0  0  0  0  0  0  0  0  0  0  # atno 10763 bound_to 10752
  153.0644  135.5009  154.8163 H   0  0  0  0  0  0  0  0  0  0  0  0  # atno 10764 bound_to 10752
  154.7028  135.3082  154.9279 H   0  0  0  0  0  0  0  0  0  0  0  0  # atno 10765 bound_to 10752
  140.4600  134.6263  157.4838 H   0  0  0  0  0  0  0  0  0  0  0  0  # atno 11005 bound_to 11000
  144.7708  140.5633  143.6671 LP  0  0  0  0  0  0  0  0  0  0  0  0  # atno 17320 bound_to 7965
  145.5223  139.1476  143.3545 LP  0  0  0  0  0  0  0  0  0  0  0  0  # atno 17321 bound_to 7965
  140.2228  143.3796  152.1629 LP  0  0  0  0  0  0  0  0  0  0  0  0  # atno 17342 bound_to 10162
  139.5261  144.7104  151.5224 LP  0  0  0  0  0  0  0  0  0  0  0  0  # atno 17343 bound_to 10162
  156.6017  130.8549  151.3433 LP  0  0  0  0  0  0  0  0  0  0  0  0  # atno 17370 bound_to 10713
  157.7260  130.9624  150.1639 LP  0  0  0  0  0  0  0  0  0  0  0  0  # atno 17371 bound_to 10713
  139.9951  134.6924  155.9623 LP  0  0  0  0  0  0  0  0  0  0  0  0  # atno 17394 bound_to 11000
  141.1625  133.6538  156.4368 LP  0  0  0  0  0  0  0  0  0  0  0  0  # atno 17395 bound_to 11000

$$$$
