#       Name:                AV-unprocessed.smi:2906
#       Creating user name   scv26
#       Creation time:       Fri Mar 27 16:05:05 2020


#       File generated by GOLD software.
#

@<TRIPOS>MOLECULE
AV-unprocessed.smi:2906
    45    46     1
SMALL
NO_CHARGES


@<TRIPOS>ATOM
      1 ****        -4.3206  -2.3660   3.4429 C.3            1 S1                 0.0000
      2 ****        -3.4332  -1.8098   2.3177 C.3            1 S1                 0.0000
      3 ****        -3.7483  -2.3983   0.9320 C.2            1 S1                 0.0000
      4 ****        -4.7093  -3.1564   0.7915 O.2            1 S1                 0.0000
      5 ****        -2.9482  -2.0602  -0.1006 N.am           1 S1                 0.0000
      6 ****        -3.1313  -2.5613  -1.4601 C.3            1 S1                 0.0000
      7 ****        -1.8879  -2.1307  -2.2383 C.3            1 S1                 0.0000
      8 ****        -1.3598  -0.9163  -1.4797 C.3            1 S1                 0.0000
      9 ****         0.0886  -0.7892  -1.6056 N.am           1 S1                 0.0000
     10 ****         0.7938   0.2942  -1.2505 C.2            1 S1                 0.0000
     11 ****         0.2834   1.3069  -0.7704 O.2            1 S1                 0.0000
     12 ****         2.1061   0.1207  -1.4861 N.am           1 S1                 0.0000
     13 ****         3.1686   1.0292  -1.2399 C.2            1 S1                 0.0000
     14 ****         3.0116   2.2455  -0.7058 N.2            1 S1                 0.0000
     15 ****         4.2259   2.9258  -0.5722 C.2            1 S1                 0.0000
     16 ****         4.2480   4.3049   0.0136 C.3            1 S1                 0.0000
     17 ****         4.1182   4.2910   1.5408 C.3            1 S1                 0.0000
     18 ****         5.3052   2.2013  -1.0165 C.2            1 S1                 0.0000
     19 ****         4.8377   0.6337  -1.6194 S.3            1 S1                 0.0000
     20 ****        -1.7997  -1.1592  -0.0291 C.3            1 S1                 0.0000
     21 ****        -4.0458  -1.9264   4.4018 H              1 S1                 0.0000
     22 ****        -4.2159  -3.4477   3.5351 H              1 S1                 0.0000
     23 ****        -5.3736  -2.1410   3.2691 H              1 S1                 0.0000
     24 ****        -3.5481  -0.7263   2.2737 H              1 S1                 0.0000
     25 ****        -2.3891  -2.0102   2.5605 H              1 S1                 0.0000
     26 ****        -3.2593  -3.6447  -1.4847 H              1 S1                 0.0000
     27 ****        -4.0256  -2.1050  -1.8871 H              1 S1                 0.0000
     28 ****        -1.1558  -2.9393  -2.2113 H              1 S1                 0.0000
     29 ****        -2.1014  -1.9134  -3.2853 H              1 S1                 0.0000
     30 ****        -1.8546  -0.0219  -1.8634 H              1 S1                 0.0000
     31 ****         0.5849  -1.5791  -1.9912 H              1 S1                 0.0000
     32 ****         2.3775  -0.7646  -1.8875 H              1 S1                 0.0000
     33 ****         5.1723   4.8135  -0.2623 H              1 S1                 0.0000
     34 ****         3.4403   4.9027  -0.4101 H              1 S1                 0.0000
     35 ****         4.1405   5.3044   1.9419 H              1 S1                 0.0000
     36 ****         4.9345   3.7326   1.9996 H              1 S1                 0.0000
     37 ****         3.1803   3.8306   1.8527 H              1 S1                 0.0000
     38 ****         6.3449   2.4935  -1.0235 H              1 S1                 0.0000
     39 ****        -2.0447  -0.2175   0.4641 H              1 S1                 0.0000
     40 ****        -1.0100  -1.6469   0.5453 H              1 S1                 0.0000
     41 ****        -5.2826  -3.3879   1.5774 LP             1 S1                 0.0000
     42 ****        -4.9160  -3.5401  -0.1085 LP             1 S1                 0.0000
     43 ****        -0.7055   1.3490  -0.6279 LP             1 S1                 0.0000
     44 ****         0.8578   2.0872  -0.5231 LP             1 S1                 0.0000
     45 ****         2.1273   2.6247  -0.4334 LP             1 S1                 0.0000
@<TRIPOS>BOND
    1    1    2 1     
    2    1   21 1     
    3    1   22 1     
    4    1   23 1     
    5    2    3 1     
    6    2   24 1     
    7    2   25 1     
    8    3    4 2     
    9    3    5 am    
   10    5   20 1     
   11    5    6 1     
   12    6    7 1     
   13    6   26 1     
   14    6   27 1     
   15    7    8 1     
   16    7   28 1     
   17    7   29 1     
   18    8    9 1     
   19    8   20 1     
   20    8   30 1     
   21    9   10 am    
   22    9   31 1     
   23   10   11 2     
   24   10   12 am    
   25   12   13 1     
   26   12   32 1     
   27   13   19 1     
   28   13   14 2     
   29   14   15 1     
   30   15   16 1     
   31   15   18 2     
   32   16   17 1     
   33   16   33 1     
   34   16   34 1     
   35   17   35 1     
   36   17   36 1     
   37   17   37 1     
   38   18   19 1     
   39   18   38 1     
   40   20   39 1     
   41   20   40 1     
   42    4   41 1     
   43    4   42 1     
   44   11   43 1     
   45   11   44 1     
   46   14   45 1     
@<TRIPOS>SUBSTRUCTURE
      1 S1             1
@<TRIPOS>SET
LONE_PAIRS      STATIC     ATOMS    <user>   **** ""
5 41 42 43 44 45
DONOR_HYDROGENS      STATIC     ATOMS    <user>   **** ""
2 31 32
ATOM$BLUE        STATIC     ATOMS    COLORGROUP SYSTEM
5 41 42 43 44 45
ATOM$RED        STATIC     ATOMS    COLORGROUP SYSTEM
2 31 32
