AV-unprocessed.smi:176|AV-procd|sdf|1433|dock5
  -GOLD-   2262019213D 1   1.00000     0.00000
 Structure written by MMmdl.
 57 61  0  0  0  0  0  0  0  0  1 V2000
  147.8055  134.0853  153.2684 O   0  0  0  0  0  0  0  0  0  0  0  0
  148.4322  132.8930  153.6944 C   0  0  0  0  0  0  0  0  0  0  0  0
  149.2265  133.0959  154.9966 C   0  0  0  0  0  0  0  0  0  0  0  0
  149.6425  131.7197  155.5589 C   0  0  0  0  0  0  0  0  0  0  0  0
  150.4517  130.9944  154.6560 O   0  0  0  0  0  0  0  0  0  0  0  0
  150.3934  134.1035  154.8853 C   0  0  0  0  0  0  0  0  0  0  0  0
  150.0388  134.6538  156.2687 C   0  0  0  0  0  0  0  0  0  0  0  0
  150.2605  136.0330  156.5893 N   0  0  0  0  0  0  0  0  0  0  0  0
  150.0198  136.6556  157.7940 C   0  0  0  0  0  0  0  0  0  0  0  0
  150.3471  137.9180  157.8426 N   0  0  0  0  0  0  0  0  0  0  0  0
  150.8816  138.1792  156.5864 C   0  0  0  0  0  0  0  0  0  0  0  0
  151.4443  139.3317  155.9690 C   0  0  0  0  0  0  0  0  0  0  0  0
  151.5276  140.5315  156.5976 N   0  0  0  0  0  0  0  0  0  0  0  0
  150.5977  141.5833  156.1826 C   0  0  0  0  0  0  0  0  0  0  0  0
  151.0453  142.9606  156.7089 C   0  0  0  0  0  0  0  0  0  0  0  0
  151.2844  142.9465  158.2338 C   0  0  2  0  0  0  0  0  0  0  0  0
  150.0292  142.7364  158.8604 O   0  0  0  0  0  0  0  0  0  0  0  0
  151.8376  144.2977  158.7392 C   0  0  0  0  0  0  0  0  0  0  0  0
  152.1808  144.2644  160.2412 C   0  0  0  0  0  0  0  0  0  0  0  0
  153.1325  143.1058  160.5808 C   0  0  0  0  0  0  0  0  0  0  0  0
  152.5772  141.7566  160.0949 C   0  0  0  0  0  0  0  0  0  0  0  0
  152.2665  141.7985  158.5862 C   0  0  1  0  0  0  0  0  0  0  0  0
  151.7734  140.4463  158.0370 C   0  0  0  0  0  0  0  0  0  0  0  0
  151.9099  139.1959  154.6982 N   0  0  0  0  0  0  0  0  0  0  0  0
  151.8231  138.0198  154.0696 C   0  0  0  0  0  0  0  0  0  0  0  0
  151.3156  136.8697  154.5169 N   0  0  0  0  0  0  0  0  0  0  0  0
  150.8515  136.9978  155.7929 C   0  0  0  0  0  0  0  0  0  0  0  0
  148.6344  134.1057  156.0070 C   0  0  0  0  0  0  0  0  0  0  0  0
  148.4737  134.7259  153.0788 H   0  0  0  0  0  0  0  0  0  0  0  0
  147.6761  132.1153  153.8063 H   0  0  0  0  0  0  0  0  0  0  0  0
  149.0888  132.5664  152.8875 H   0  0  0  0  0  0  0  0  0  0  0  0
  150.1814  131.8266  156.5007 H   0  0  0  0  0  0  0  0  0  0  0  0
  148.7699  131.1052  155.7808 H   0  0  0  0  0  0  0  0  0  0  0  0
  151.1434  130.5737  155.1432 H   0  0  0  0  0  0  0  0  0  0  0  0
  151.3855  133.6554  154.8194 H   0  0  0  0  0  0  0  0  0  0  0  0
  150.2506  134.8454  154.0972 H   0  0  0  0  0  0  0  0  0  0  0  0
  150.5354  134.0797  157.0529 H   0  0  0  0  0  0  0  0  0  0  0  0
  149.5868  136.1447  158.6417 H   0  0  0  0  0  0  0  0  0  0  0  0
  150.5356  141.6173  155.0941 H   0  0  0  0  0  0  0  0  0  0  0  0
  149.5989  141.3475  156.5527 H   0  0  0  0  0  0  0  0  0  0  0  0
  151.9674  143.2466  156.2005 H   0  0  0  0  0  0  0  0  0  0  0  0
  150.3053  143.7170  156.4443 H   0  0  0  0  0  0  0  0  0  0  0  0
  149.5318  143.5382  158.8081 H   0  0  0  0  0  0  0  0  0  0  0  0
  152.7390  144.5513  158.1796 H   0  0  0  0  0  0  0  0  0  0  0  0
  151.1237  145.0985  158.5407 H   0  0  0  0  0  0  0  0  0  0  0  0
  152.6326  145.2116  160.5368 H   0  0  0  0  0  0  0  0  0  0  0  0
  151.2661  144.1681  160.8270 H   0  0  0  0  0  0  0  0  0  0  0  0
  154.1033  143.2862  160.1174 H   0  0  0  0  0  0  0  0  0  0  0  0
  153.3066  143.0710  161.6565 H   0  0  0  0  0  0  0  0  0  0  0  0
  153.3023  140.9692  160.3030 H   0  0  0  0  0  0  0  0  0  0  0  0
  151.6787  141.5012  160.6580 H   0  0  0  0  0  0  0  0  0  0  0  0
  153.2105  142.0105  158.0803 H   0  0  0  0  0  0  0  0  0  0  0  0
  150.8502  140.1474  158.5352 H   0  0  0  0  0  0  0  0  0  0  0  0
  152.5098  139.6764  158.2642 H   0  0  0  0  0  0  0  0  0  0  0  0
  152.2163  137.9979  153.0641 H   0  0  0  0  0  0  0  0  0  0  0  0
  147.9783  134.8380  155.5324 H   0  0  0  0  0  0  0  0  0  0  0  0
  148.1545  133.6614  156.8795 H   0  0  0  0  0  0  0  0  0  0  0  0
  1  2  1  0  0  0  0
  1 29  1  0  0  0  0
  2  3  1  0  0  0  0
  2 30  1  0  0  0  0
  2 31  1  0  0  0  0
  3 28  1  0  0  0  0
  3  4  1  0  0  0  0
  3  6  1  0  0  0  0
  4  5  1  0  0  0  0
  4 32  1  0  0  0  0
  4 33  1  0  0  0  0
  5 34  1  0  0  0  0
  6  7  1  0  0  0  0
  6 35  1  0  0  0  0
  6 36  1  0  0  0  0
  7  8  1  0  0  0  0
  7 28  1  0  0  0  0
  7 37  1  0  0  0  0
  8 27  1  0  0  0  0
  8  9  1  0  0  0  0
  9 10  2  0  0  0  0
  9 38  1  0  0  0  0
 10 11  1  0  0  0  0
 11 27  2  0  0  0  0
 11 12  1  0  0  0  0
 12 13  1  0  0  0  0
 12 24  2  0  0  0  0
 13 23  1  0  0  0  0
 13 14  1  0  0  0  0
 14 15  1  0  0  0  0
 14 39  1  0  0  0  0
 14 40  1  0  0  0  0
 15 16  1  0  0  0  0
 15 41  1  0  0  0  0
 15 42  1  0  0  0  0
 16 22  1  0  0  0  0
 16 17  1  0  0  0  0
 16 18  1  0  0  0  0
 17 43  1  0  0  0  0
 18 19  1  0  0  0  0
 18 44  1  0  0  0  0
 18 45  1  0  0  0  0
 19 20  1  0  0  0  0
 19 46  1  0  0  0  0
 19 47  1  0  0  0  0
 20 21  1  0  0  0  0
 20 48  1  0  0  0  0
 20 49  1  0  0  0  0
 21 22  1  0  0  0  0
 21 50  1  0  0  0  0
 21 51  1  0  0  0  0
 22 23  1  0  0  0  0
 22 52  1  0  0  0  0
 23 53  1  0  0  0  0
 23 54  1  0  0  0  0
 24 25  1  0  0  0  0
 25 26  2  0  0  0  0
 25 55  1  0  0  0  0
 26 27  1  0  0  0  0
 28 56  1  0  0  0  0
 28 57  1  0  0  0  0
M  END
> <s_m_source_file>
AV-unprocessed.smi

> <i_m_source_file_index>
176

> <i_lp_mmshare_version>
43012

> <i_f3d_flags>
0

> <s_epik_input>
W09IXVtDSDJdQzEoW0NIMl1bT0hdKVtDSDJdW0NIXShbQ0gyXTEpbihbY0hdbjIpYyhjMjMpbltjSF1uYzNOKFtDSDJdW0NIMl00KVtDSDJdW0NAQEhdKFtDQF00NVtPSF0pW0NIMl1bQ0gyXVtDSDJdW0NIMl01

> <s_epik_cmdline>
J2VwaWtfcHl0aG9uJywgJy1waCcsICc3LjAnLCAnLXRuJywgJzgnLCAnLW1hJywgJzIwMCcsICctbWV0YWxfYmluZGluZycsICctaW1hZScsICc8aW5maWxlLm1hZT4nLCAnLW9tYWUnLCAnPG91dGZpbGUubWFlPic=

> <r_lp_tautomer_probability>
1

> <r_epik_Ionization_Penalty>
0.00642876

> <r_epik_Ionization_Penalty_Charging>
0

> <r_epik_Ionization_Penalty_Neutral>
0.00642876

> <r_epik_State_Penalty>
0.00467813

> <r_epik_Charging_Adjusted_Penalty>
0.00467813

> <i_epik_Tot_Q>
0

> <i_epik_Tot_abs_Q>
0

> <r_epik_Metal_State_Penalty>
-0

> <b_epik_Metal_Only>
0

> <s_lp_Force_Field>
OPLS_2005

> <r_lp_Energy>
51.6301

> <b_lp_Chiralities_Consistent>
1

> <s_lp_Variant>
AV-unprocessed.smi:176-1

> <Gold.Version>
5.8.1

> <Gold.Id.Protein>
6NUR|6NUR_protein|mol2

> <Gold.PLP.Fitness>
54.7490

> <Gold.PLP.PLP>
-46.5234

> <Gold.PLP.part.hbond>
-3.3308

> <Gold.PLP.part.metal>
0.0000

> <Gold.PLP.part.buried>
-5.8827

> <Gold.PLP.part.nonpolar>
-36.6891

> <Gold.PLP.part.repulsive>
0.2368

> <Gold.PLP.ligand.clash>
0.0000

> <Gold.PLP.ligand.torsion>
0.9390

> <Gold.PLP.Chemscore.Hbond>
2.7523

> <Gold.PLP.Chemscore.CHOScore>
0.3185

> <Gold.PLP.Chemscore.Metal>
0.0000

> <Gold.Chemscore.Hbonds>
donor molecule, donor type, donor heavy atom, donor atom, acceptor molecule, acceptor atom, score
      L1  H     1    29       P1  7948  0.88
      P1  H  7989  7998       L1    24  0.90
      P1  H 10752 10764       L1    26  1.00
      L1  C    25    55       P1  7949  0.32

> <Gold.PLP.Chemscore.Internal.Correction>
0.8913

> <Gold.Rescore>
     Score         DG    S(hbond)    S(metal)    S(lipo)     H(rot)  DE(clash)    DE(int)     intcor
     11.69     -15.14       1.61        0.00     117.79       3.71       0.05       3.40       ----

> <Gold.Chemscore.Fitness>
11.6924

> <Gold.Chemscore.DG>
-15.1379

> <Gold.Chemscore.ZeroCoef>
-5.4800

> <Gold.Chemscore.Hbond>
1.6097

> <Gold.Chemscore.Metal>
0.0000

> <Gold.Chemscore.Lipo>
117.7896

> <Gold.Chemscore.Internal_Hbond>
0.0000

> <Gold.Chemscore.DEClash>
0.0455

> <Gold.Chemscore.DEInternal>
3.3999

> <Gold.Chemscore.Rot>
3.7109

> <Gold.Chemscore.Internal.Correction>
   9.000000E+99

> <Gold.Chemscore.Hbonds>
donor molecule, donor type, donor heavy atom, donor atom, acceptor molecule, acceptor atom, score
      L1  H     1    29       P1  7948  0.43
      P1  H  7989  7998       L1    24  0.67
      P1  H 10752 10764       L1    26  0.25

> <Gold.Chemscore.Hbond.Weighted>
-5.3765

> <Gold.Chemscore.Metal.Weighted>
-0.0000

> <Gold.Chemscore.Lipo.Weighted>
-13.7814

> <Gold.Chemscore.Internal_Hbond.Weighted>
0.0000

> <Gold.Chemscore.DEClash.Weighted>
0.0455

> <Gold.Chemscore.DEInternal.Weighted>
3.3999

> <Gold.Chemscore.Rot.Weighted>
9.5000

> <Gold.Chemscore.Internal.Correction.Weighted>
   9.000000E+99

> <Gold.Protein.RotatedTorsions>
[ 6907 6896 6895 6894 ] final   69.45 input  -60.11 | X-H torsion
[ 7974 7965 7964 7962 ] final -171.63 input  175.53 | X-H torsion
[ 8008 7997 7996 7995 ] final   98.69 input   59.86 | X-H torsion
[ 10167 10162 10161 10158 ] final  127.07 input  -65.29 | X-H torsion
[ 10718 10713 10712 10709 ] final    6.46 input   66.30 | X-H torsion
[ 10763 10752 10751 10750 ] final  -73.63 input  -60.55 | X-H torsion
[ 11005 11000 10999 10996 ] final -111.51 input  -57.11 | X-H torsion

> <Gold.Protein.ActiveResidues>
 VAL166  LYS551  ARG553  GLY616  TRP617  ASP618  TYR619  PRO620  LYS621  CYS622 
 ASP623  PHE694  ASN695  SER759  ASP760  ASP761  ALA762  ILE779  LEU786  VAL792 
 PHE793  MET794  SER795  GLU796  ALA797  LYS798  CYS799  TRP800  GLU811  SER814 

> <Gold.Protein.RotatedAtoms>
  152.4687  134.5014  159.9725 H   0  0  0  0  0  0  0  0  0  0  0  0  # atno 6907 bound_to 6896
  151.5046  133.3491  159.2882 H   0  0  0  0  0  0  0  0  0  0  0  0  # atno 6908 bound_to 6896
  150.8684  134.8081  159.7198 H   0  0  0  0  0  0  0  0  0  0  0  0  # atno 6909 bound_to 6896
  144.7155  140.1894  143.6350 H   0  0  0  0  0  0  0  0  0  0  0  0  # atno 7974 bound_to 7965
  156.1030  140.3240  155.7968 H   0  0  0  0  0  0  0  0  0  0  0  0  # atno 8008 bound_to 7997
  155.4804  140.0553  157.2985 H   0  0  0  0  0  0  0  0  0  0  0  0  # atno 8009 bound_to 7997
  154.4709  140.2011  156.0012 H   0  0  0  0  0  0  0  0  0  0  0  0  # atno 8010 bound_to 7997
  139.5598  144.6874  151.4077 H   0  0  0  0  0  0  0  0  0  0  0  0  # atno 10167 bound_to 10162
  156.9225  130.5796  149.5648 H   0  0  0  0  0  0  0  0  0  0  0  0  # atno 10718 bound_to 10713
  154.4621  135.5891  153.6263 H   0  0  0  0  0  0  0  0  0  0  0  0  # atno 10763 bound_to 10752
  152.9824  135.6046  154.3472 H   0  0  0  0  0  0  0  0  0  0  0  0  # atno 10764 bound_to 10752
  154.3345  135.2842  155.2433 H   0  0  0  0  0  0  0  0  0  0  0  0  # atno 10765 bound_to 10752
  141.0730  133.9348  157.2447 H   0  0  0  0  0  0  0  0  0  0  0  0  # atno 11005 bound_to 11000
  145.8783  139.2309  143.1620 LP  0  0  0  0  0  0  0  0  0  0  0  0  # atno 17320 bound_to 7965
  146.0019  140.8512  143.0014 LP  0  0  0  0  0  0  0  0  0  0  0  0  # atno 17321 bound_to 7965
  140.6876  143.7938  150.7208 LP  0  0  0  0  0  0  0  0  0  0  0  0  # atno 17342 bound_to 10162
  140.1410  143.4441  152.2193 LP  0  0  0  0  0  0  0  0  0  0  0  0  # atno 17343 bound_to 10162
  156.0484  130.5557  150.8934 LP  0  0  0  0  0  0  0  0  0  0  0  0  # atno 17370 bound_to 10713
  157.5899  131.0945  150.9136 LP  0  0  0  0  0  0  0  0  0  0  0  0  # atno 17371 bound_to 10713
  139.9542  135.0169  156.9082 LP  0  0  0  0  0  0  0  0  0  0  0  0  # atno 17394 bound_to 11000
  140.5634  134.0513  155.7406 LP  0  0  0  0  0  0  0  0  0  0  0  0  # atno 17395 bound_to 11000

$$$$
