AV-unprocessed.smi:61|AV-procd|sdf|599|dock5
  -GOLD-   2262016493D 1   1.00000     0.00000
 Structure written by MMmdl.
 29 30  0  0  0  0  0  0  0  0  2 V2000
  146.1290  137.0975  150.8045 N   0  0  0  0  0  0  0  0  0  0  0  0
  145.5047  135.9710  151.2818 C   0  0  0  0  0  0  0  0  0  0  0  0
  144.1868  135.8464  151.0938 N   0  0  0  0  0  0  0  0  0  0  0  0
  143.5659  134.7443  151.5580 C   0  0  0  0  0  0  0  0  0  0  0  0
  144.2709  133.7331  152.2316 C   0  0  0  0  0  0  0  0  0  0  0  0
  145.6596  133.9274  152.4005 C   0  0  0  0  0  0  0  0  0  0  0  0
  146.4947  133.0074  153.0508 N   0  0  0  0  0  0  0  0  0  0  0  0
  147.5365  133.6166  153.8723 C   0  0  0  0  0  0  0  0  0  0  0  0
  148.8102  132.7805  153.6755 C   0  0  0  0  0  0  0  0  0  0  0  0
  148.3207  131.4972  153.0084 C   0  0  0  0  0  0  0  0  0  0  0  0
  147.1246  132.0030  152.2019 C   0  0  1  0  0  0  0  0  0  0  0  0
  146.1464  130.9252  151.6907 C   0  0  0  0  0  0  0  0  0  0  0  0
  146.7942  129.9832  150.8607 O   0  0  0  0  0  0  0  0  0  0  0  0
  146.2452  135.0500  151.9142 N   0  3  0  0  0  0  0  0  0  0  0  0
  147.1233  137.2228  150.9304 H   0  0  0  0  0  0  0  0  0  0  0  0
  145.6042  137.8121  150.3211 H   0  0  0  0  0  0  0  0  0  0  0  0
  142.5018  134.6698  151.3902 H   0  0  0  0  0  0  0  0  0  0  0  0
  143.7659  132.8508  152.5965 H   0  0  0  0  0  0  0  0  0  0  0  0
  147.7113  134.6648  153.6261 H   0  0  0  0  0  0  0  0  0  0  0  0
  147.2155  133.5742  154.9135 H   0  0  0  0  0  0  0  0  0  0  0  0
  149.4909  133.3054  153.0042 H   0  0  0  0  0  0  0  0  0  0  0  0
  149.3411  132.5942  154.6096 H   0  0  0  0  0  0  0  0  0  0  0  0
  149.0816  131.0219  152.3889 H   0  0  0  0  0  0  0  0  0  0  0  0
  148.0093  130.7839  153.7726 H   0  0  0  0  0  0  0  0  0  0  0  0
  147.5244  132.5134  151.3247 H   0  0  0  0  0  0  0  0  0  0  0  0
  145.6639  130.4058  152.5192 H   0  0  0  0  0  0  0  0  0  0  0  0
  145.3530  131.3964  151.1102 H   0  0  0  0  0  0  0  0  0  0  0  0
  147.6845  130.2677  150.7186 H   0  0  0  0  0  0  0  0  0  0  0  0
  147.2490  135.1852  152.0367 H   0  0  0  0  0  0  0  0  0  0  0  0
  1  2  1  0  0  0  0
  1 15  1  0  0  0  0
  1 16  1  0  0  0  0
  2 14  1  0  0  0  0
  2  3  2  0  0  0  0
  3  4  1  0  0  0  0
  4  5  2  0  0  0  0
  4 17  1  0  0  0  0
  5  6  1  0  0  0  0
  5 18  1  0  0  0  0
  6  7  1  0  0  0  0
  6 14  2  0  0  0  0
  7 11  1  0  0  0  0
  7  8  1  0  0  0  0
  8  9  1  0  0  0  0
  8 19  1  0  0  0  0
  8 20  1  0  0  0  0
  9 10  1  0  0  0  0
  9 21  1  0  0  0  0
  9 22  1  0  0  0  0
 10 11  1  0  0  0  0
 10 23  1  0  0  0  0
 10 24  1  0  0  0  0
 11 12  1  0  0  0  0
 11 25  1  0  0  0  0
 12 13  1  0  0  0  0
 12 26  1  0  0  0  0
 12 27  1  0  0  0  0
 13 28  1  0  0  0  0
 14 29  1  0  0  0  0
M  CHG  1  14   1
M  END
> <s_m_source_file>
AV-unprocessed.smi

> <i_m_source_file_index>
61

> <i_lp_mmshare_version>
43012

> <i_f3d_flags>
0

> <s_epik_input>
W05IMl1jMW5bY0hdW2NIXWMobjEpTjJbQ0gyXVtDSDJdW0NIMl1bQ0BIXTJbQ0gyXVtPSF0=

> <s_epik_cmdline>
J2VwaWtfcHl0aG9uJywgJy1waCcsICc3LjAnLCAnLXRuJywgJzgnLCAnLW1hJywgJzIwMCcsICctbWV0YWxfYmluZGluZycsICctaW1hZScsICc8aW5maWxlLm1hZT4nLCAnLW9tYWUnLCAnPG91dGZpbGUubWFlPic=

> <r_lp_tautomer_probability>
0.424989

> <r_epik_Ionization_Penalty>
0.696162

> <r_epik_Ionization_Penalty_Charging>
0.696158

> <r_epik_Ionization_Penalty_Neutral>
4.43138e-06

> <r_epik_State_Penalty>
0.906374

> <r_epik_Charging_Adjusted_Penalty>
1.60253

> <i_epik_Tot_Q>
1

> <i_epik_Tot_abs_Q>
1

> <r_epik_Metal_State_Penalty>
1.16703

> <b_epik_Metal_Only>
0

> <s_lp_Force_Field>
OPLS_2005

> <r_lp_Energy>
33.2177

> <b_lp_Chiralities_Consistent>
1

> <s_lp_Variant>
AV-unprocessed.smi:61-5

> <Gold.Version>
5.8.1

> <Gold.Id.Protein>
6NUR|6NUR_protein|mol2

> <Gold.PLP.Fitness>
37.7499

> <Gold.PLP.PLP>
-22.2742

> <Gold.PLP.part.hbond>
-4.0000

> <Gold.PLP.part.metal>
0.0000

> <Gold.PLP.part.buried>
-4.0010

> <Gold.PLP.part.nonpolar>
-16.0201

> <Gold.PLP.part.repulsive>
0.4661

> <Gold.PLP.ligand.clash>
0.0428

> <Gold.PLP.ligand.torsion>
0.6828

> <Gold.PLP.Chemscore.Hbond>
5.2490

> <Gold.PLP.Chemscore.CHOScore>
0.3636

> <Gold.PLP.Chemscore.Metal>
0.0000

> <Gold.Chemscore.Hbonds>
donor molecule, donor type, donor heavy atom, donor atom, acceptor molecule, acceptor atom, score
      L1  H     1    15       P1  7948  0.85
      L1  H     1    16       P1 10171  1.00
      L1  H    13    28       P1 10747  0.84
      L1  H    14    29       P1  7948  2.00
      L1  C     4    17       P1 10186  0.33

> <Gold.PLP.Chemscore.Internal.Correction>
0.0461

> <Gold.Rescore>
     Score         DG    S(hbond)    S(metal)    S(lipo)     H(rot)  DE(clash)    DE(int)     intcor
     15.62     -16.30       3.48        0.00      36.61       1.98       0.00       0.69       ----

> <Gold.Chemscore.Fitness>
15.6175

> <Gold.Chemscore.DG>
-16.3034

> <Gold.Chemscore.ZeroCoef>
-5.4800

> <Gold.Chemscore.Hbond>
3.4786

> <Gold.Chemscore.Metal>
0.0000

> <Gold.Chemscore.Lipo>
36.6103

> <Gold.Chemscore.Internal_Hbond>
0.0000

> <Gold.Chemscore.DEClash>
0.0000

> <Gold.Chemscore.DEInternal>
0.6859

> <Gold.Chemscore.Rot>
1.9838

> <Gold.Chemscore.Internal.Correction>
   9.000000E+99

> <Gold.Chemscore.Hbonds>
donor molecule, donor type, donor heavy atom, donor atom, acceptor molecule, acceptor atom, score
      L1  H     1    15       P1  7948  0.42
      L1  H     1    16       P1 10171  0.93
      L1  H    13    28       P1 10747  0.82
      L1  H    14    29       P1  7948  0.95

> <Gold.Chemscore.Hbond.Weighted>
-11.6186

> <Gold.Chemscore.Metal.Weighted>
-0.0000

> <Gold.Chemscore.Lipo.Weighted>
-4.2834

> <Gold.Chemscore.Internal_Hbond.Weighted>
0.0000

> <Gold.Chemscore.DEClash.Weighted>
0.0000

> <Gold.Chemscore.DEInternal.Weighted>
0.6859

> <Gold.Chemscore.Rot.Weighted>
5.0786

> <Gold.Chemscore.Internal.Correction.Weighted>
   9.000000E+99

> <Gold.Protein.RotatedTorsions>
[ 6907 6896 6895 6894 ] final   36.58 input  -60.11 | X-H torsion
[ 7974 7965 7964 7962 ] final  157.76 input  175.53 | X-H torsion
[ 8008 7997 7996 7995 ] final  -28.34 input   59.86 | X-H torsion
[ 10167 10162 10161 10158 ] final   54.93 input  -65.29 | X-H torsion
[ 10718 10713 10712 10709 ] final  -13.35 input   66.30 | X-H torsion
[ 10763 10752 10751 10750 ] final  -36.00 input  -60.55 | X-H torsion
[ 11005 11000 10999 10996 ] final   90.10 input  -57.11 | X-H torsion

> <Gold.Protein.ActiveResidues>
 VAL166  LYS551  ARG553  GLY616  TRP617  ASP618  TYR619  PRO620  LYS621  CYS622 
 ASP623  PHE694  ASN695  SER759  ASP760  ASP761  ALA762  ILE779  LEU786  VAL792 
 PHE793  MET794  SER795  GLU796  ALA797  LYS798  CYS799  TRP800  GLU811  SER814 

> <Gold.Protein.RotatedAtoms>
  152.1317  134.9130  160.0558 H   0  0  0  0  0  0  0  0  0  0  0  0  # atno 6907 bound_to 6896
  152.0232  133.3902  159.4275 H   0  0  0  0  0  0  0  0  0  0  0  0  # atno 6908 bound_to 6896
  150.6857  134.3524  159.4958 H   0  0  0  0  0  0  0  0  0  0  0  0  # atno 6909 bound_to 6896
  144.7884  139.7385  143.6231 H   0  0  0  0  0  0  0  0  0  0  0  0  # atno 7974 bound_to 7965
  154.4336  140.1848  156.1075 H   0  0  0  0  0  0  0  0  0  0  0  0  # atno 8008 bound_to 7997
  156.0244  140.3337  155.7047 H   0  0  0  0  0  0  0  0  0  0  0  0  # atno 8009 bound_to 7997
  155.5930  140.0633  157.2744 H   0  0  0  0  0  0  0  0  0  0  0  0  # atno 8010 bound_to 7997
  140.2249  144.3749  150.6436 H   0  0  0  0  0  0  0  0  0  0  0  0  # atno 10167 bound_to 10162
  156.6314  130.4903  149.6127 H   0  0  0  0  0  0  0  0  0  0  0  0  # atno 10718 bound_to 10713
  153.8725  135.6829  153.4773 H   0  0  0  0  0  0  0  0  0  0  0  0  # atno 10763 bound_to 10752
  153.1279  135.4711  154.9300 H   0  0  0  0  0  0  0  0  0  0  0  0  # atno 10764 bound_to 10752
  154.7707  135.3238  154.8145 H   0  0  0  0  0  0  0  0  0  0  0  0  # atno 10765 bound_to 10752
  139.8862  134.8592  156.3236 H   0  0  0  0  0  0  0  0  0  0  0  0  # atno 11005 bound_to 11000
  146.2126  139.5494  142.9671 LP  0  0  0  0  0  0  0  0  0  0  0  0  # atno 17320 bound_to 7965
  145.5859  141.0376  143.2097 LP  0  0  0  0  0  0  0  0  0  0  0  0  # atno 17321 bound_to 7965
  140.6228  143.2178  151.6659 LP  0  0  0  0  0  0  0  0  0  0  0  0  # atno 17342 bound_to 10162
  139.5131  144.3455  152.0701 LP  0  0  0  0  0  0  0  0  0  0  0  0  # atno 17343 bound_to 10162
  156.2231  130.6749  151.1388 LP  0  0  0  0  0  0  0  0  0  0  0  0  # atno 17370 bound_to 10713
  157.7198  131.0688  150.6180 LP  0  0  0  0  0  0  0  0  0  0  0  0  # atno 17371 bound_to 10713
  140.9770  133.7291  156.0617 LP  0  0  0  0  0  0  0  0  0  0  0  0  # atno 17394 bound_to 11000
  140.7798  134.3738  157.5490 LP  0  0  0  0  0  0  0  0  0  0  0  0  # atno 17395 bound_to 11000

$$$$
