AV-unprocessed.smi:1973|AV-procd|sdf|7976|dock8
  -GOLD-   2272010153D 1   1.00000     0.00000
 Structure written by MMmdl.
 48 50  0  0  0  0  0  0  0  0  2 V2000
  152.3542  137.5569  155.5799 C   0  0  0  0  0  0  0  0  0  0  0  0
  152.0324  137.3983  154.2092 O   0  0  0  0  0  0  0  0  0  0  0  0
  150.6671  137.6665  153.9382 C   0  0  0  0  0  0  0  0  0  0  0  0
  150.4696  139.1865  153.8357 C   0  0  0  0  0  0  0  0  0  0  0  0
  149.0483  139.5486  153.8104 N   0  0  0  0  0  0  0  0  0  0  0  0
  148.1879  138.4632  153.8159 N   0  0  0  0  0  0  0  0  0  0  0  0
  146.9087  138.6453  153.7810 C   0  0  0  0  0  0  0  0  0  0  0  0
  145.9930  137.4686  153.7741 C   0  0  0  0  0  0  0  0  0  0  0  0
  146.3982  136.3456  154.0798 O   0  0  0  0  0  0  0  0  0  0  0  0
  144.7184  137.7035  153.4162 N   0  0  0  0  0  0  0  0  0  0  0  0
  143.6685  136.6942  153.3263 C   0  0  0  0  0  0  0  0  0  0  0  0
  144.1322  135.4396  152.5617 C   0  0  2  0  0  0  0  0  0  0  0  0
  144.5668  135.7131  151.1246 C   0  0  0  0  0  0  0  0  0  0  0  0
  144.4883  134.3289  150.4872 C   0  0  0  0  0  0  0  0  0  0  0  0
  143.3176  133.6765  151.1109 N   0  3  1  0  0  0  0  0  0  0  0  0
  143.4290  132.2052  151.2028 C   0  0  0  0  0  0  0  0  0  0  0  0
  144.8294  131.7230  151.4960 C   0  0  0  0  0  0  0  0  0  0  0  0
  144.2599  131.5943  150.0997 C   0  0  0  0  0  0  0  0  0  0  0  0
  143.0611  134.3483  152.4066 C   0  0  0  0  0  0  0  0  0  0  0  0
  146.3495  139.9910  153.7494 C   0  0  0  0  0  0  0  0  0  0  0  0
  147.2024  141.0386  153.7519 C   0  0  0  0  0  0  0  0  0  0  0  0
  148.6541  140.8572  153.7825 C   0  0  0  0  0  0  0  0  0  0  0  0
  149.4490  141.7965  153.7840 O   0  0  0  0  0  0  0  0  0  0  0  0
  153.4086  137.3296  155.7378 H   0  0  0  0  0  0  0  0  0  0  0  0
  151.7669  136.8824  156.2045 H   0  0  0  0  0  0  0  0  0  0  0  0
  152.1783  138.5818  155.9091 H   0  0  0  0  0  0  0  0  0  0  0  0
  150.3721  137.1853  153.0043 H   0  0  0  0  0  0  0  0  0  0  0  0
  150.0434  137.2543  154.7330 H   0  0  0  0  0  0  0  0  0  0  0  0
  150.9717  139.6855  154.6665 H   0  0  0  0  0  0  0  0  0  0  0  0
  150.9646  139.5550  152.9352 H   0  0  0  0  0  0  0  0  0  0  0  0
  144.4649  138.6498  153.1704 H   0  0  0  0  0  0  0  0  0  0  0  0
  143.3729  136.4262  154.3413 H   0  0  0  0  0  0  0  0  0  0  0  0
  142.7836  137.1213  152.8517 H   0  0  0  0  0  0  0  0  0  0  0  0
  144.9858  135.0012  153.0816 H   0  0  0  0  0  0  0  0  0  0  0  0
  143.8646  136.3896  150.6349 H   0  0  0  0  0  0  0  0  0  0  0  0
  145.5627  136.1524  151.0584 H   0  0  0  0  0  0  0  0  0  0  0  0
  144.3926  134.3702  149.4019 H   0  0  0  0  0  0  0  0  0  0  0  0
  145.3948  133.7688  150.7238 H   0  0  0  0  0  0  0  0  0  0  0  0
  142.5652  131.6758  151.6018 H   0  0  0  0  0  0  0  0  0  0  0  0
  145.6084  132.4670  151.6544 H   0  0  0  0  0  0  0  0  0  0  0  0
  144.9348  130.8091  152.0771 H   0  0  0  0  0  0  0  0  0  0  0  0
  143.9899  130.5956  149.7621 H   0  0  0  0  0  0  0  0  0  0  0  0
  144.6607  132.2526  149.3308 H   0  0  0  0  0  0  0  0  0  0  0  0
  143.0810  133.6544  153.2487 H   0  0  0  0  0  0  0  0  0  0  0  0
  142.0620  134.7835  152.3653 H   0  0  0  0  0  0  0  0  0  0  0  0
  145.2851  140.1703  153.7289 H   0  0  0  0  0  0  0  0  0  0  0  0
  146.8034  142.0421  153.7309 H   0  0  0  0  0  0  0  0  0  0  0  0
  142.5223  133.8830  150.5236 H   0  0  0  0  0  0  0  0  0  0  0  0
  1  2  1  0  0  0  0
  1 24  1  0  0  0  0
  1 25  1  0  0  0  0
  1 26  1  0  0  0  0
  2  3  1  0  0  0  0
  3  4  1  0  0  0  0
  3 27  1  0  0  0  0
  3 28  1  0  0  0  0
  4  5  1  0  0  0  0
  4 29  1  0  0  0  0
  4 30  1  0  0  0  0
  5 22  1  0  0  0  0
  5  6  1  0  0  0  0
  6  7  2  0  0  0  0
  7  8  1  0  0  0  0
  7 20  1  0  0  0  0
  8  9  2  0  0  0  0
  8 10  1  0  0  0  0
 10 11  1  0  0  0  0
 10 31  1  0  0  0  0
 11 12  1  0  0  0  0
 11 32  1  0  0  0  0
 11 33  1  0  0  0  0
 12 19  1  0  0  0  0
 12 13  1  0  0  0  0
 12 34  1  0  0  0  0
 13 14  1  0  0  0  0
 13 35  1  0  0  0  0
 13 36  1  0  0  0  0
 14 15  1  0  0  0  0
 14 37  1  0  0  0  0
 14 38  1  0  0  0  0
 15 16  1  0  0  0  0
 15 19  1  0  0  0  0
 15 48  1  0  0  0  0
 16 18  1  0  0  0  0
 16 17  1  0  0  0  0
 16 39  1  0  0  0  0
 17 18  1  0  0  0  0
 17 40  1  0  0  0  0
 17 41  1  0  0  0  0
 18 42  1  0  0  0  0
 18 43  1  0  0  0  0
 19 44  1  0  0  0  0
 19 45  1  0  0  0  0
 20 21  2  0  0  0  0
 20 46  1  0  0  0  0
 21 22  1  0  0  0  0
 21 47  1  0  0  0  0
 22 23  2  0  0  0  0
M  CHG  1  15   1
M  END
> <s_m_source_file>
AV-unprocessed.smi

> <i_m_source_file_index>
1973

> <i_lp_mmshare_version>
43012

> <i_f3d_flags>
0

> <s_epik_input>
W0NIM11PW0NIMl1bQ0gyXW4xbmMoW2NIXVtjSF1jMT1PKUMoPU8pW05IXVtDSDJdW0NAQEhdMltDSDJdW0NIMl1OKFtDSDJdMilbQ0hdM1tDSDJdW0NIMl0z

> <s_epik_cmdline>
J2VwaWtfcHl0aG9uJywgJy1waCcsICc3LjAnLCAnLXRuJywgJzgnLCAnLW1hJywgJzIwMCcsICctbWV0YWxfYmluZGluZycsICctaW1hZScsICc8aW5maWxlLm1hZT4nLCAnLW9tYWUnLCAnPG91dGZpbGUubWFlPic=

> <r_lp_tautomer_probability>
1

> <r_epik_Ionization_Penalty>
0.000225706

> <r_epik_Ionization_Penalty_Charging>
0.000223776

> <r_epik_Ionization_Penalty_Neutral>
1.93004e-06

> <r_epik_State_Penalty>
-0

> <r_epik_Charging_Adjusted_Penalty>
0.000223776

> <i_epik_Tot_Q>
1

> <i_epik_Tot_abs_Q>
1

> <r_epik_Metal_State_Penalty>
-0

> <b_epik_Metal_Only>
0

> <s_lp_Force_Field>
OPLS_2005

> <r_lp_Energy>
57.8958

> <b_lp_Chiralities_Consistent>
1

> <s_lp_Variant>
AV-unprocessed.smi:1973-1

> <Gold.Version>
5.8.1

> <Gold.Id.Protein>
6NUR|6NUR_protein|mol2

> <Gold.PLP.Fitness>
50.9658

> <Gold.PLP.PLP>
-38.3768

> <Gold.PLP.part.hbond>
-5.0000

> <Gold.PLP.part.metal>
0.0000

> <Gold.PLP.part.buried>
-2.1491

> <Gold.PLP.part.nonpolar>
-32.5334

> <Gold.PLP.part.repulsive>
0.5337

> <Gold.PLP.ligand.clash>
0.0000

> <Gold.PLP.ligand.torsion>
0.9459

> <Gold.PLP.Chemscore.Hbond>
4.4009

> <Gold.PLP.Chemscore.CHOScore>
0.0000

> <Gold.PLP.Chemscore.Metal>
0.0000

> <Gold.Chemscore.Hbonds>
donor molecule, donor type, donor heavy atom, donor atom, acceptor molecule, acceptor atom, score
      L1  H    10    31       P1 10175  0.84
      L1  H    15    48       P1 10186  2.00
      P1  H  7989  7998       L1    23  0.01
      P1  H  8011  8017       L1    23  0.58
      P1  H 10752 10765       L1     2  0.04

> <Gold.PLP.Chemscore.Internal.Correction>
1.2780

> <Gold.Rescore>
     Score         DG    S(hbond)    S(metal)    S(lipo)     H(rot)  DE(clash)    DE(int)     intcor
     16.01     -21.18       2.74        0.00      99.17       1.97       3.35       1.82       ----

> <Gold.Chemscore.Fitness>
16.0139

> <Gold.Chemscore.DG>
-21.1849

> <Gold.Chemscore.ZeroCoef>
-5.4800

> <Gold.Chemscore.Hbond>
2.7388

> <Gold.Chemscore.Metal>
0.0000

> <Gold.Chemscore.Lipo>
99.1733

> <Gold.Chemscore.Internal_Hbond>
0.0000

> <Gold.Chemscore.DEClash>
3.3487

> <Gold.Chemscore.DEInternal>
1.8223

> <Gold.Chemscore.Rot>
1.9711

> <Gold.Chemscore.Internal.Correction>
   9.000000E+99

> <Gold.Chemscore.Hbonds>
donor molecule, donor type, donor heavy atom, donor atom, acceptor molecule, acceptor atom, score
      L1  H    10    31       P1 10175  0.84
      L1  H    15    48       P1 10186  0.91
      P1  H  7989  7998       L1    23  0.01
      P1  H  8011  8017       L1    23  0.53

> <Gold.Chemscore.Hbond.Weighted>
-9.1477

> <Gold.Chemscore.Metal.Weighted>
-0.0000

> <Gold.Chemscore.Lipo.Weighted>
-11.6033

> <Gold.Chemscore.Internal_Hbond.Weighted>
0.0000

> <Gold.Chemscore.DEClash.Weighted>
3.3487

> <Gold.Chemscore.DEInternal.Weighted>
1.8223

> <Gold.Chemscore.Rot.Weighted>
5.0460

> <Gold.Chemscore.Internal.Correction.Weighted>
   9.000000E+99

> <Gold.Protein.RotatedTorsions>
[ 6907 6896 6895 6894 ] final  170.30 input  -60.11 | X-H torsion
[ 7974 7965 7964 7962 ] final  133.37 input  175.53 | X-H torsion
[ 8008 7997 7996 7995 ] final   -7.02 input   59.86 | X-H torsion
[ 10167 10162 10161 10158 ] final  111.97 input  -65.29 | X-H torsion
[ 10718 10713 10712 10709 ] final    5.77 input   66.30 | X-H torsion
[ 10763 10752 10751 10750 ] final  176.47 input  -60.55 | X-H torsion
[ 11005 11000 10999 10996 ] final -145.05 input  -57.11 | X-H torsion

> <Gold.Protein.ActiveResidues>
 VAL166  LYS551  ARG553  GLY616  TRP617  ASP618  TYR619  PRO620  LYS621  CYS622 
 ASP623  PHE694  ASN695  SER759  ASP760  ASP761  ALA762  ILE779  LEU786  VAL792 
 PHE793  MET794  SER795  GLU796  ALA797  LYS798  CYS799  TRP800  GLU811  SER814 

> <Gold.Protein.RotatedAtoms>
  151.8182  133.3391  159.3575 H   0  0  0  0  0  0  0  0  0  0  0  0  # atno 6907 bound_to 6896
  150.7303  134.5599  159.5846 H   0  0  0  0  0  0  0  0  0  0  0  0  # atno 6908 bound_to 6896
  152.3025  134.7595  160.0406 H   0  0  0  0  0  0  0  0  0  0  0  0  # atno 6909 bound_to 6896
  144.9872  139.4443  143.5357 H   0  0  0  0  0  0  0  0  0  0  0  0  # atno 7974 bound_to 7965
  154.5879  140.2418  155.7961 H   0  0  0  0  0  0  0  0  0  0  0  0  # atno 8008 bound_to 7997
  156.2226  140.2992  155.9945 H   0  0  0  0  0  0  0  0  0  0  0  0  # atno 8009 bound_to 7997
  155.2425  140.0407  157.2967 H   0  0  0  0  0  0  0  0  0  0  0  0  # atno 8010 bound_to 7997
  139.6571  144.7129  151.1936 H   0  0  0  0  0  0  0  0  0  0  0  0  # atno 10167 bound_to 10162
  156.9123  130.5760  149.5647 H   0  0  0  0  0  0  0  0  0  0  0  0  # atno 10718 bound_to 10713
  154.4815  135.2775  155.1567 H   0  0  0  0  0  0  0  0  0  0  0  0  # atno 10763 bound_to 10752
  154.3275  135.6197  153.5539 H   0  0  0  0  0  0  0  0  0  0  0  0  # atno 10764 bound_to 10752
  152.9876  135.5757  154.5217 H   0  0  0  0  0  0  0  0  0  0  0  0  # atno 10765 bound_to 10752
  140.7962  134.2910  157.4995 H   0  0  0  0  0  0  0  0  0  0  0  0  # atno 11005 bound_to 11000
  146.3423  139.9182  142.8770 LP  0  0  0  0  0  0  0  0  0  0  0  0  # atno 17320 bound_to 7965
  145.2336  140.9982  143.3976 LP  0  0  0  0  0  0  0  0  0  0  0  0  # atno 17321 bound_to 7965
  140.7564  143.6054  150.8658 LP  0  0  0  0  0  0  0  0  0  0  0  0  # atno 17342 bound_to 10162
  139.9708  143.6059  152.2974 LP  0  0  0  0  0  0  0  0  0  0  0  0  # atno 17343 bound_to 10162
  156.0530  130.5596  150.9031 LP  0  0  0  0  0  0  0  0  0  0  0  0  # atno 17370 bound_to 10713
  157.5960  131.0943  150.9040 LP  0  0  0  0  0  0  0  0  0  0  0  0  # atno 17371 bound_to 10713
  139.8726  134.9403  156.3766 LP  0  0  0  0  0  0  0  0  0  0  0  0  # atno 17394 bound_to 11000
  140.9340  133.7560  156.0061 LP  0  0  0  0  0  0  0  0  0  0  0  0  # atno 17395 bound_to 11000

$$$$
