AV-unprocessed.smi:1795|AV-procd|sdf|7242|dock2
  -GOLD-   22720 8493D 1   1.00000     0.00000
 Structure written by MMmdl.
 47 48  0  0  0  0  0  0  0  0  1 V2000
  144.9893  143.3769  160.2314 C   0  0  0  0  0  0  0  0  0  0  0  0
  145.0794  143.9273  158.8043 C   0  0  1  0  0  0  0  0  0  0  0  0
  145.5034  142.8466  157.7929 C   0  0  0  0  0  0  0  0  0  0  0  0
  145.5120  143.3326  156.4098 N   0  0  0  0  0  0  0  0  0  0  0  0
  145.9413  142.2991  155.4378 C   0  0  1  0  0  0  0  0  0  0  0  0
  146.4761  142.9070  154.1151 C   0  0  0  0  0  0  0  0  0  0  0  0
  147.0119  141.3280  156.0089 C   0  0  0  0  0  0  0  0  0  0  0  0
  148.3603  141.8844  155.9454 N   0  0  0  0  0  0  0  0  0  0  0  0
  149.4866  141.2170  156.2352 C   0  0  0  0  0  0  0  0  0  0  0  0
  149.5004  140.0350  156.5817 O   0  0  0  0  0  0  0  0  0  0  0  0
  150.7871  142.0263  156.1205 C   0  0  0  0  0  0  0  0  0  0  0  0
  151.4271  142.3056  157.4170 N   0  0  0  0  0  0  0  0  0  0  0  0
  151.1529  143.5547  158.0091 C   0  0  0  0  0  0  0  0  0  0  0  0
  151.6819  143.9127  159.1896 C   0  0  0  0  0  0  0  0  0  0  0  0
  152.5550  142.9771  159.8579 C   0  0  0  0  0  0  0  0  0  0  0  0
  152.8206  141.7779  159.3028 C   0  0  0  0  0  0  0  0  0  0  0  0
  152.2422  141.3814  158.0134 C   0  0  0  0  0  0  0  0  0  0  0  0
  152.4766  140.2865  157.5013 O   0  0  0  0  0  0  0  0  0  0  0  0
  144.1784  143.8685  156.1128 C   0  0  0  0  0  0  0  0  0  0  0  0
  143.7039  144.9369  157.1177 C   0  0  2  0  0  0  0  0  0  0  0  0
  144.4198  146.2890  156.9547 C   0  0  0  0  0  0  0  0  0  0  0  0
  143.7994  144.4398  158.4503 O   0  0  0  0  0  0  0  0  0  0  0  0
  145.9493  142.9787  160.5609 H   0  0  0  0  0  0  0  0  0  0  0  0
  144.2527  142.5757  160.2992 H   0  0  0  0  0  0  0  0  0  0  0  0
  144.6958  144.1591  160.9319 H   0  0  0  0  0  0  0  0  0  0  0  0
  145.8096  144.7368  158.7971 H   0  0  0  0  0  0  0  0  0  0  0  0
  146.4951  142.5137  158.0911 H   0  0  0  0  0  0  0  0  0  0  0  0
  144.8404  141.9839  157.8762 H   0  0  0  0  0  0  0  0  0  0  0  0
  145.0688  141.6960  155.1811 H   0  0  0  0  0  0  0  0  0  0  0  0
  146.8392  142.1491  153.4221 H   0  0  0  0  0  0  0  0  0  0  0  0
  147.2992  143.5970  154.3041 H   0  0  0  0  0  0  0  0  0  0  0  0
  145.7055  143.4432  153.5635 H   0  0  0  0  0  0  0  0  0  0  0  0
  146.7490  141.0612  157.0341 H   0  0  0  0  0  0  0  0  0  0  0  0
  147.0599  140.4003  155.4414 H   0  0  0  0  0  0  0  0  0  0  0  0
  148.4400  142.8527  155.6706 H   0  0  0  0  0  0  0  0  0  0  0  0
  151.4777  141.4946  155.4631 H   0  0  0  0  0  0  0  0  0  0  0  0
  150.5649  142.9605  155.6023 H   0  0  0  0  0  0  0  0  0  0  0  0
  150.4854  144.1929  157.4483 H   0  0  0  0  0  0  0  0  0  0  0  0
  151.4573  144.8733  159.6294 H   0  0  0  0  0  0  0  0  0  0  0  0
  152.9961  143.2395  160.8083 H   0  0  0  0  0  0  0  0  0  0  0  0
  153.4752  141.0902  159.8177 H   0  0  0  0  0  0  0  0  0  0  0  0
  144.1528  144.3240  155.1247 H   0  0  0  0  0  0  0  0  0  0  0  0
  143.4560  143.0507  156.0991 H   0  0  0  0  0  0  0  0  0  0  0  0
  142.6440  145.1174  156.9366 H   0  0  0  0  0  0  0  0  0  0  0  0
  144.2323  146.7092  155.9663 H   0  0  0  0  0  0  0  0  0  0  0  0
  145.4999  146.1993  157.0689 H   0  0  0  0  0  0  0  0  0  0  0  0
  144.0636  147.0089  157.6918 H   0  0  0  0  0  0  0  0  0  0  0  0
  1  2  1  0  0  0  0
  1 23  1  0  0  0  0
  1 24  1  0  0  0  0
  1 25  1  0  0  0  0
  2 22  1  0  0  0  0
  2  3  1  0  0  0  0
  2 26  1  0  0  0  0
  3  4  1  0  0  0  0
  3 27  1  0  0  0  0
  3 28  1  0  0  0  0
  4  5  1  0  0  0  0
  4 19  1  0  0  0  0
  5  6  1  0  0  0  0
  5  7  1  0  0  0  0
  5 29  1  0  0  0  0
  6 30  1  0  0  0  0
  6 31  1  0  0  0  0
  6 32  1  0  0  0  0
  7  8  1  0  0  0  0
  7 33  1  0  0  0  0
  7 34  1  0  0  0  0
  8  9  1  0  0  0  0
  8 35  1  0  0  0  0
  9 10  2  0  0  0  0
  9 11  1  0  0  0  0
 11 12  1  0  0  0  0
 11 36  1  0  0  0  0
 11 37  1  0  0  0  0
 12 17  1  0  0  0  0
 12 13  1  0  0  0  0
 13 14  2  0  0  0  0
 13 38  1  0  0  0  0
 14 15  1  0  0  0  0
 14 39  1  0  0  0  0
 15 16  2  0  0  0  0
 15 40  1  0  0  0  0
 16 17  1  0  0  0  0
 16 41  1  0  0  0  0
 17 18  2  0  0  0  0
 19 20  1  0  0  0  0
 19 42  1  0  0  0  0
 19 43  1  0  0  0  0
 20 21  1  0  0  0  0
 20 22  1  0  0  0  0
 20 44  1  0  0  0  0
 21 45  1  0  0  0  0
 21 46  1  0  0  0  0
 21 47  1  0  0  0  0
M  END
> <s_m_source_file>
AV-unprocessed.smi

> <i_m_source_file_index>
1795

> <i_lp_mmshare_version>
43012

> <i_f3d_flags>
0

> <s_epik_input>
W0NIM11bQ0BASF0xW0NIMl1OKFtDSDJdW0NASF0oTzEpW0NIM10pW0NASF0oW0NIM10pW0NIMl1bTkhdQyg9TylbQ0gyXW4yW2NIXVtjSF1bY0hdW2NIXWMyPU8=

> <s_epik_cmdline>
J2VwaWtfcHl0aG9uJywgJy1waCcsICc3LjAnLCAnLXRuJywgJzgnLCAnLW1hJywgJzIwMCcsICctbWV0YWxfYmluZGluZycsICctaW1hZScsICc8aW5maWxlLm1hZT4nLCAnLW9tYWUnLCAnPG91dGZpbGUubWFlPic=

> <r_lp_tautomer_probability>
1

> <r_epik_Ionization_Penalty>
0.237383

> <r_epik_Ionization_Penalty_Charging>
3.58805e-07

> <r_epik_Ionization_Penalty_Neutral>
0.237382

> <r_epik_State_Penalty>
0.228245

> <r_epik_Charging_Adjusted_Penalty>
0.228245

> <i_epik_Tot_Q>
0

> <i_epik_Tot_abs_Q>
0

> <r_epik_Metal_State_Penalty>
0.228221

> <b_epik_Metal_Only>
0

> <s_lp_Force_Field>
OPLS_2005

> <r_lp_Energy>
40.9254

> <b_lp_Chiralities_Consistent>
1

> <s_lp_Variant>
AV-unprocessed.smi:1795-6

> <Gold.Version>
5.8.1

> <Gold.Id.Protein>
6NUR|6NUR_protein|mol2

> <Gold.PLP.Fitness>
41.5016

> <Gold.PLP.PLP>
-35.0463

> <Gold.PLP.part.hbond>
-2.0000

> <Gold.PLP.part.metal>
0.0000

> <Gold.PLP.part.buried>
-6.0730

> <Gold.PLP.part.nonpolar>
-26.6691

> <Gold.PLP.part.repulsive>
0.2231

> <Gold.PLP.ligand.clash>
0.0000

> <Gold.PLP.ligand.torsion>
1.1003

> <Gold.PLP.Chemscore.Hbond>
1.8564

> <Gold.PLP.Chemscore.CHOScore>
1.0000

> <Gold.PLP.Chemscore.Metal>
0.0000

> <Gold.Chemscore.Hbonds>
donor molecule, donor type, donor heavy atom, donor atom, acceptor molecule, acceptor atom, score
      L1  H     8    35       P1  8028  1.00
      P1  H  7997  8010       L1    18  0.84
      L1  C    13    38       P1  8028  1.00

> <Gold.PLP.Chemscore.Internal.Correction>
0.0868

> <Gold.Rescore>
     Score         DG    S(hbond)    S(metal)    S(lipo)     H(rot)  DE(clash)    DE(int)     intcor
     15.57     -16.38       1.86        0.00      80.13       1.83       0.02       0.79       ----

> <Gold.Chemscore.Fitness>
15.5701

> <Gold.Chemscore.DG>
-16.3814

> <Gold.Chemscore.ZeroCoef>
-5.4800

> <Gold.Chemscore.Hbond>
1.8559

> <Gold.Chemscore.Metal>
0.0000

> <Gold.Chemscore.Lipo>
80.1294

> <Gold.Chemscore.Internal_Hbond>
0.0000

> <Gold.Chemscore.DEClash>
0.0200

> <Gold.Chemscore.DEInternal>
0.7913

> <Gold.Chemscore.Rot>
1.8251

> <Gold.Chemscore.Internal.Correction>
   9.000000E+99

> <Gold.Chemscore.Hbonds>
donor molecule, donor type, donor heavy atom, donor atom, acceptor molecule, acceptor atom, score
      L1  H     8    35       P1  8028  0.99
      P1  H  7997  8010       L1    18  0.69

> <Gold.Chemscore.Hbond.Weighted>
-6.1986

> <Gold.Chemscore.Metal.Weighted>
-0.0000

> <Gold.Chemscore.Lipo.Weighted>
-9.3751

> <Gold.Chemscore.Internal_Hbond.Weighted>
0.0000

> <Gold.Chemscore.DEClash.Weighted>
0.0200

> <Gold.Chemscore.DEInternal.Weighted>
0.7913

> <Gold.Chemscore.Rot.Weighted>
4.6724

> <Gold.Chemscore.Internal.Correction.Weighted>
   9.000000E+99

> <Gold.Protein.RotatedTorsions>
[ 6907 6896 6895 6894 ] final  172.11 input  -60.11 | X-H torsion
[ 7974 7965 7964 7962 ] final  145.27 input  175.53 | X-H torsion
[ 8008 7997 7996 7995 ] final   53.81 input   59.86 | X-H torsion
[ 10167 10162 10161 10158 ] final  148.73 input  -65.29 | X-H torsion
[ 10718 10713 10712 10709 ] final   64.44 input   66.30 | X-H torsion
[ 10763 10752 10751 10750 ] final  143.99 input  -60.55 | X-H torsion
[ 11005 11000 10999 10996 ] final -155.76 input  -57.11 | X-H torsion

> <Gold.Protein.ActiveResidues>
 VAL166  LYS551  ARG553  GLY616  TRP617  ASP618  TYR619  PRO620  LYS621  CYS622 
 ASP623  PHE694  ASN695  SER759  ASP760  ASP761  ALA762  ILE779  LEU786  VAL792 
 PHE793  MET794  SER795  GLU796  ALA797  LYS798  CYS799  TRP800  GLU811  SER814 

> <Gold.Protein.RotatedAtoms>
  151.7895  133.3358  159.3494 H   0  0  0  0  0  0  0  0  0  0  0  0  # atno 6907 bound_to 6896
  150.7397  134.5856  159.5970 H   0  0  0  0  0  0  0  0  0  0  0  0  # atno 6908 bound_to 6896
  152.3220  134.7370  160.0362 H   0  0  0  0  0  0  0  0  0  0  0  0  # atno 6909 bound_to 6896
  144.8766  139.5763  143.5862 H   0  0  0  0  0  0  0  0  0  0  0  0  # atno 7974 bound_to 7965
  155.4745  140.3466  155.4330 H   0  0  0  0  0  0  0  0  0  0  0  0  # atno 8008 bound_to 7997
  156.1079  140.1453  156.9407 H   0  0  0  0  0  0  0  0  0  0  0  0  # atno 8009 bound_to 7997
  154.4737  140.0892  156.7186 H   0  0  0  0  0  0  0  0  0  0  0  0  # atno 8010 bound_to 7997
  139.4871  144.5656  151.7150 H   0  0  0  0  0  0  0  0  0  0  0  0  # atno 10167 bound_to 10162
  157.6039  130.9160  149.9846 H   0  0  0  0  0  0  0  0  0  0  0  0  # atno 10718 bound_to 10713
  153.9815  135.2941  155.3419 H   0  0  0  0  0  0  0  0  0  0  0  0  # atno 10763 bound_to 10752
  154.7266  135.5086  153.8899 H   0  0  0  0  0  0  0  0  0  0  0  0  # atno 10764 bound_to 10752
  153.0852  135.6691  154.0078 H   0  0  0  0  0  0  0  0  0  0  0  0  # atno 10765 bound_to 10752
  140.6829  134.4125  157.5225 H   0  0  0  0  0  0  0  0  0  0  0  0  # atno 11005 bound_to 11000
  146.2967  139.7298  142.9122 LP  0  0  0  0  0  0  0  0  0  0  0  0  # atno 17320 bound_to 7965
  145.4031  141.0387  143.3059 LP  0  0  0  0  0  0  0  0  0  0  0  0  # atno 17321 bound_to 7965
  140.5234  144.0843  150.6030 LP  0  0  0  0  0  0  0  0  0  0  0  0  # atno 17342 bound_to 10162
  140.3809  143.2803  152.0171 LP  0  0  0  0  0  0  0  0  0  0  0  0  # atno 17343 bound_to 10162
  156.1120  130.3649  150.0033 LP  0  0  0  0  0  0  0  0  0  0  0  0  # atno 17370 bound_to 10713
  156.8129  130.9331  151.3643 LP  0  0  0  0  0  0  0  0  0  0  0  0  # atno 17371 bound_to 10713
  139.8946  134.8702  156.2169 LP  0  0  0  0  0  0  0  0  0  0  0  0  # atno 17394 bound_to 11000
  141.0303  133.6992  156.1418 LP  0  0  0  0  0  0  0  0  0  0  0  0  # atno 17395 bound_to 11000

$$$$
