AV-unprocessed.smi:1815|AV-procd|sdf|7361|dock1
  -GOLD-   22720 9 23D 1   1.00000     0.00000
 Structure written by MMmdl.
 39 40  0  0  0  0  0  0  0  0  3 V2000
  148.8985  141.6999  154.6924 C   0  0  0  0  0  0  0  0  0  0  0  0
  149.2915  140.2383  154.9327 C   0  0  1  0  0  0  0  0  0  0  0  0
  148.6918  139.2963  153.8661 C   0  0  0  0  0  0  0  0  0  0  0  0
  149.1758  137.9014  154.0309 N   0  3  2  0  0  0  0  0  0  0  0  0
  148.5298  137.1458  155.1358 C   0  0  0  0  0  0  0  0  0  0  0  0
  147.1108  136.6707  154.7710 C   0  0  0  0  0  0  0  0  0  0  0  0
  147.1535  135.5269  153.8683 N   0  0  0  0  0  0  0  0  0  0  0  0
  146.1282  135.0809  153.1283 C   0  0  0  0  0  0  0  0  0  0  0  0
  145.0399  135.6600  153.1745 O   0  0  0  0  0  0  0  0  0  0  0  0
  146.4257  133.9899  152.3881 N   0  5  0  0  0  0  0  0  0  0  0  0
  145.4718  133.3994  151.6499 C   0  0  0  0  0  0  0  0  0  0  0  0
  145.7425  132.5609  150.6433 N   0  0  0  0  0  0  0  0  0  0  0  0
  144.6005  132.0591  150.0165 C   0  0  0  0  0  0  0  0  0  0  0  0
  143.4329  132.5199  150.5643 C   0  0  0  0  0  0  0  0  0  0  0  0
  143.7347  133.6047  151.8915 S   0  0  0  0  0  0  0  0  0  0  0  0
  150.6576  137.8750  154.0850 C   0  0  0  0  0  0  0  0  0  0  0  0
  151.1953  138.8398  155.1618 C   0  0  1  0  0  0  0  0  0  0  0  0
  152.7270  138.8906  155.1762 C   0  0  0  0  0  0  0  0  0  0  0  0
  150.7121  140.1509  154.8884 O   0  0  0  0  0  0  0  0  0  0  0  0
  147.8162  141.8258  154.7282 H   0  0  0  0  0  0  0  0  0  0  0  0
  149.2445  142.0483  153.7189 H   0  0  0  0  0  0  0  0  0  0  0  0
  149.3330  142.3499  155.4521 H   0  0  0  0  0  0  0  0  0  0  0  0
  148.9457  139.9553  155.9276 H   0  0  0  0  0  0  0  0  0  0  0  0
  147.6037  139.3406  153.8835 H   0  0  0  0  0  0  0  0  0  0  0  0
  148.9910  139.6386  152.8744 H   0  0  0  0  0  0  0  0  0  0  0  0
  149.1285  136.2623  155.3619 H   0  0  0  0  0  0  0  0  0  0  0  0
  148.5186  137.7424  156.0476 H   0  0  0  0  0  0  0  0  0  0  0  0
  146.5323  136.4027  155.6551 H   0  0  0  0  0  0  0  0  0  0  0  0
  146.5655  137.4742  154.2757 H   0  0  0  0  0  0  0  0  0  0  0  0
  148.0285  135.0277  153.7979 H   0  0  0  0  0  0  0  0  0  0  0  0
  144.7125  131.3763  149.1874 H   0  0  0  0  0  0  0  0  0  0  0  0
  142.4201  132.2885  150.2715 H   0  0  0  0  0  0  0  0  0  0  0  0
  151.0160  136.8591  154.2566 H   0  0  0  0  0  0  0  0  0  0  0  0
  151.0392  138.1716  153.1069 H   0  0  0  0  0  0  0  0  0  0  0  0
  150.8539  138.5283  156.1503 H   0  0  0  0  0  0  0  0  0  0  0  0
  153.1500  137.9077  155.3848 H   0  0  0  0  0  0  0  0  0  0  0  0
  153.0866  139.5761  155.9440 H   0  0  0  0  0  0  0  0  0  0  0  0
  153.1212  139.2286  154.2173 H   0  0  0  0  0  0  0  0  0  0  0  0
  148.9204  137.4042  153.1897 H   0  0  0  0  0  0  0  0  0  0  0  0
  1  2  1  0  0  0  0
  1 20  1  0  0  0  0
  1 21  1  0  0  0  0
  1 22  1  0  0  0  0
  2 19  1  0  0  0  0
  2  3  1  0  0  0  0
  2 23  1  0  0  0  0
  3  4  1  0  0  0  0
  3 24  1  0  0  0  0
  3 25  1  0  0  0  0
  4  5  1  0  0  0  0
  4 16  1  0  0  0  0
  4 39  1  0  0  0  0
  5  6  1  0  0  0  0
  5 26  1  0  0  0  0
  5 27  1  0  0  0  0
  6  7  1  0  0  0  0
  6 28  1  0  0  0  0
  6 29  1  0  0  0  0
  7  8  1  0  0  0  0
  7 30  1  0  0  0  0
  8  9  2  0  0  0  0
  8 10  1  0  0  0  0
 10 11  1  0  0  0  0
 11 15  1  0  0  0  0
 11 12  2  0  0  0  0
 12 13  1  0  0  0  0
 13 14  2  0  0  0  0
 13 31  1  0  0  0  0
 14 15  1  0  0  0  0
 14 32  1  0  0  0  0
 16 17  1  0  0  0  0
 16 33  1  0  0  0  0
 16 34  1  0  0  0  0
 17 18  1  0  0  0  0
 17 19  1  0  0  0  0
 17 35  1  0  0  0  0
 18 36  1  0  0  0  0
 18 37  1  0  0  0  0
 18 38  1  0  0  0  0
M  CHG  1   4   1
M  CHG  1  10  -1
M  END
> <s_m_source_file>
AV-unprocessed.smi

> <i_m_source_file_index>
1815

> <i_lp_mmshare_version>
43012

> <i_f3d_flags>
0

> <s_epik_input>
W0NIM11bQ0BASF0xW0NIMl1OKFtDSDJdW0NASF0oTzEpW0NIM10pW0NIMl1bQ0gyXVtOSF1DKD1PKVtOSF1jMm5bY0hdW2NIXXMy

> <s_epik_cmdline>
J2VwaWtfcHl0aG9uJywgJy1waCcsICc3LjAnLCAnLXRuJywgJzgnLCAnLW1hJywgJzIwMCcsICctbWV0YWxfYmluZGluZycsICctaW1hZScsICc8aW5maWxlLm1hZT4nLCAnLW9tYWUnLCAnPG91dGZpbGUubWFlPic=

> <r_lp_tautomer_probability>
0.999

> <r_epik_Ionization_Penalty>
6.71699

> <r_epik_Ionization_Penalty_Charging>
5.88592

> <r_epik_Ionization_Penalty_Neutral>
0.831074

> <r_epik_State_Penalty>
6.08365

> <r_epik_Charging_Adjusted_Penalty>
11.9696

> <i_epik_Tot_Q>
0

> <i_epik_Tot_abs_Q>
2

> <r_epik_Metal_State_Penalty>
2.0947

> <b_epik_Metal_Only>
1

> <s_lp_Force_Field>
OPLS_2005

> <r_lp_Energy>
5.04414

> <b_lp_Chiralities_Consistent>
1

> <s_lp_Variant>
AV-unprocessed.smi:1815-12

> <Gold.Version>
5.8.1

> <Gold.Id.Protein>
6NUR|6NUR_protein|mol2

> <Gold.PLP.Fitness>
42.7696

> <Gold.PLP.PLP>
-30.6614

> <Gold.PLP.part.hbond>
-3.0000

> <Gold.PLP.part.metal>
0.0000

> <Gold.PLP.part.buried>
-0.4914

> <Gold.PLP.part.nonpolar>
-27.4853

> <Gold.PLP.part.repulsive>
0.4059

> <Gold.PLP.ligand.clash>
0.0000

> <Gold.PLP.ligand.torsion>
0.4465

> <Gold.PLP.Chemscore.Hbond>
3.0000

> <Gold.PLP.Chemscore.CHOScore>
1.2906

> <Gold.PLP.Chemscore.Metal>
0.0000

> <Gold.Chemscore.Hbonds>
donor molecule, donor type, donor heavy atom, donor atom, acceptor molecule, acceptor atom, score
      L1  H     4    39       P1  7948  2.00
      P1  H  7989  7998       L1    19  1.00
      L1  C    14    32       P1 10186  0.48
      L1  C    14    32       P1 10952  0.82

> <Gold.PLP.Chemscore.Internal.Correction>
0.1293

> <Gold.Rescore>
     Score         DG    S(hbond)    S(metal)    S(lipo)     H(rot)  DE(clash)    DE(int)     intcor
     13.98     -16.29       1.85        0.00      74.56       1.61       0.42       1.89       ----

> <Gold.Chemscore.Fitness>
13.9766

> <Gold.Chemscore.DG>
-16.2857

> <Gold.Chemscore.ZeroCoef>
-5.4800

> <Gold.Chemscore.Hbond>
1.8543

> <Gold.Chemscore.Metal>
0.0000

> <Gold.Chemscore.Lipo>
74.5602

> <Gold.Chemscore.Internal_Hbond>
0.0000

> <Gold.Chemscore.DEClash>
0.4175

> <Gold.Chemscore.DEInternal>
1.8916

> <Gold.Chemscore.Rot>
1.6060

> <Gold.Chemscore.Internal.Correction>
   9.000000E+99

> <Gold.Chemscore.Hbonds>
donor molecule, donor type, donor heavy atom, donor atom, acceptor molecule, acceptor atom, score
      L1  H     4    39       P1  7948  1.00
      P1  H  7989  7998       L1    19  0.73

> <Gold.Chemscore.Hbond.Weighted>
-6.1934

> <Gold.Chemscore.Metal.Weighted>
-0.0000

> <Gold.Chemscore.Lipo.Weighted>
-8.7235

> <Gold.Chemscore.Internal_Hbond.Weighted>
0.0000

> <Gold.Chemscore.DEClash.Weighted>
0.4175

> <Gold.Chemscore.DEInternal.Weighted>
1.8916

> <Gold.Chemscore.Rot.Weighted>
4.1112

> <Gold.Chemscore.Internal.Correction.Weighted>
   9.000000E+99

> <Gold.Protein.RotatedTorsions>
[ 6907 6896 6895 6894 ] final  127.16 input  -60.11 | X-H torsion
[ 7974 7965 7964 7962 ] final   39.28 input  175.53 | X-H torsion
[ 8008 7997 7996 7995 ] final  169.33 input   59.86 | X-H torsion
[ 10167 10162 10161 10158 ] final  151.56 input  -65.29 | X-H torsion
[ 10718 10713 10712 10709 ] final   85.04 input   66.30 | X-H torsion
[ 10763 10752 10751 10750 ] final  110.01 input  -60.55 | X-H torsion
[ 11005 11000 10999 10996 ] final  172.05 input  -57.11 | X-H torsion

> <Gold.Protein.ActiveResidues>
 VAL166  LYS551  ARG553  GLY616  TRP617  ASP618  TYR619  PRO620  LYS621  CYS622 
 ASP623  PHE694  ASN695  SER759  ASP760  ASP761  ALA762  ILE779  LEU786  VAL792 
 PHE793  MET794  SER795  GLU796  ALA797  LYS798  CYS799  TRP800  GLU811  SER814 

> <Gold.Protein.RotatedAtoms>
  152.3838  133.6583  159.6182 H   0  0  0  0  0  0  0  0  0  0  0  0  # atno 6907 bound_to 6896
  150.7762  133.9069  159.3367 H   0  0  0  0  0  0  0  0  0  0  0  0  # atno 6908 bound_to 6896
  151.6870  135.0954  160.0278 H   0  0  0  0  0  0  0  0  0  0  0  0  # atno 6909 bound_to 6896
  146.0997  139.5671  142.9422 H   0  0  0  0  0  0  0  0  0  0  0  0  # atno 7974 bound_to 7965
  156.1467  140.1567  156.8835 H   0  0  0  0  0  0  0  0  0  0  0  0  # atno 8008 bound_to 7997
  154.5034  140.0819  156.7883 H   0  0  0  0  0  0  0  0  0  0  0  0  # atno 8009 bound_to 7997
  155.3975  140.3413  155.4257 H   0  0  0  0  0  0  0  0  0  0  0  0  # atno 8010 bound_to 7997
  139.4839  144.5430  151.7531 H   0  0  0  0  0  0  0  0  0  0  0  0  # atno 10167 bound_to 10162
  157.6908  131.0158  150.2762 H   0  0  0  0  0  0  0  0  0  0  0  0  # atno 10718 bound_to 10713
  153.4429  135.3762  155.2238 H   0  0  0  0  0  0  0  0  0  0  0  0  # atno 10763 bound_to 10752
  154.8754  135.3867  154.4131 H   0  0  0  0  0  0  0  0  0  0  0  0  # atno 10764 bound_to 10752
  153.4679  135.7087  153.6074 H   0  0  0  0  0  0  0  0  0  0  0  0  # atno 10765 bound_to 10752
  140.3255  134.7401  157.4096 H   0  0  0  0  0  0  0  0  0  0  0  0  # atno 11005 bound_to 11000
  145.5879  141.0373  143.2086 LP  0  0  0  0  0  0  0  0  0  0  0  0  # atno 17320 bound_to 7965
  144.7423  139.7416  143.7306 LP  0  0  0  0  0  0  0  0  0  0  0  0  # atno 17321 bound_to 7965
  140.4973  144.1222  150.5963 LP  0  0  0  0  0  0  0  0  0  0  0  0  # atno 17342 bound_to 10162
  140.4103  143.2660  151.9841 LP  0  0  0  0  0  0  0  0  0  0  0  0  # atno 17343 bound_to 10162
  156.3317  130.3801  149.7485 LP  0  0  0  0  0  0  0  0  0  0  0  0  # atno 17370 bound_to 10713
  156.5023  130.8134  151.3137 LP  0  0  0  0  0  0  0  0  0  0  0  0  # atno 17371 bound_to 10713
  140.0905  134.5608  155.8449 LP  0  0  0  0  0  0  0  0  0  0  0  0  # atno 17394 bound_to 11000
  141.2076  133.6666  156.6317 LP  0  0  0  0  0  0  0  0  0  0  0  0  # atno 17395 bound_to 11000

$$$$
