AV-unprocessed.smi:553|AV-procd|sdf|2905|dock4
  -GOLD-   2262023393D 1   1.00000     0.00000
 Structure written by MMmdl.
 43 45  0  0  0  0  0  0  0  0  1 V2000
  150.3631  135.2196  157.5670 O   0  0  0  0  0  0  0  0  0  0  0  0
  150.4426  135.5611  156.3892 C   0  0  0  0  0  0  0  0  0  0  0  0
  150.7957  136.7910  155.9665 N   0  0  0  0  0  0  0  0  0  0  0  0
  151.1837  137.9252  156.7301 C   0  0  0  0  0  0  0  0  0  0  0  0
  150.8283  138.1439  158.0827 C   0  0  0  0  0  0  0  0  0  0  0  0
  151.2960  139.3038  158.7299 C   0  0  0  0  0  0  0  0  0  0  0  0
  152.1086  140.2047  158.0118 C   0  0  0  0  0  0  0  0  0  0  0  0
  152.5750  141.3610  158.6532 N   0  0  0  0  0  0  0  0  0  0  0  0
  152.7667  141.1897  160.0879 C   0  0  0  0  0  0  0  0  0  0  0  0
  153.4006  142.4566  160.6884 C   0  0  0  0  0  0  0  0  0  0  0  0
  152.5912  143.5884  160.3807 O   0  0  0  0  0  0  0  0  0  0  0  0
  152.4667  143.7915  158.9757 C   0  0  0  0  0  0  0  0  0  0  0  0
  151.8079  142.5586  158.3331 C   0  0  0  0  0  0  0  0  0  0  0  0
  152.4611  139.9969  156.7212 N   0  0  0  0  0  0  0  0  0  0  0  0
  152.0094  138.8834  156.1065 C   0  0  0  0  0  0  0  0  0  0  0  0
  150.1436  134.7030  155.3972 N   0  0  0  0  0  0  0  0  0  0  0  0
  149.7267  133.3039  155.5032 C   0  0  1  0  0  0  0  0  0  0  0  0
  149.5008  132.6880  154.1098 C   0  0  0  0  0  0  0  0  0  0  0  0
  149.4123  131.1635  154.2547 C   0  0  0  0  0  0  0  0  0  0  0  0
  150.4789  130.7260  155.6801 S   0  0  0  0  0  0  0  0  0  0  0  0
  149.6643  130.0302  156.6876 O   0  0  0  0  0  0  0  0  0  0  0  0
  151.7416  130.1484  155.1950 O   0  0  0  0  0  0  0  0  0  0  0  0
  150.7797  132.4483  156.2260 C   0  0  0  0  0  0  0  0  0  0  0  0
  150.7404  136.9441  154.9702 H   0  0  0  0  0  0  0  0  0  0  0  0
  150.2227  137.4477  158.6409 H   0  0  0  0  0  0  0  0  0  0  0  0
  151.0379  139.4929  159.7618 H   0  0  0  0  0  0  0  0  0  0  0  0
  151.8068  140.9939  160.5680 H   0  0  0  0  0  0  0  0  0  0  0  0
  153.4048  140.3253  160.2756 H   0  0  0  0  0  0  0  0  0  0  0  0
  153.4805  142.3603  161.7713 H   0  0  0  0  0  0  0  0  0  0  0  0
  154.4116  142.6050  160.3055 H   0  0  0  0  0  0  0  0  0  0  0  0
  151.8597  144.6791  158.7968 H   0  0  0  0  0  0  0  0  0  0  0  0
  153.4477  143.9817  158.5370 H   0  0  0  0  0  0  0  0  0  0  0  0
  151.7517  142.6837  157.2510 H   0  0  0  0  0  0  0  0  0  0  0  0
  150.7858  142.4532  158.7005 H   0  0  0  0  0  0  0  0  0  0  0  0
  152.3168  138.7556  155.0787 H   0  0  0  0  0  0  0  0  0  0  0  0
  150.1935  135.0731  154.4589 H   0  0  0  0  0  0  0  0  0  0  0  0
  148.7816  133.2347  156.0452 H   0  0  0  0  0  0  0  0  0  0  0  0
  148.6129  133.0948  153.6247 H   0  0  0  0  0  0  0  0  0  0  0  0
  150.3511  132.9272  153.4694 H   0  0  0  0  0  0  0  0  0  0  0  0
  148.3933  130.8565  154.4916 H   0  0  0  0  0  0  0  0  0  0  0  0
  149.7376  130.6306  153.3611 H   0  0  0  0  0  0  0  0  0  0  0  0
  151.7893  132.7220  155.9170 H   0  0  0  0  0  0  0  0  0  0  0  0
  150.7191  132.5132  157.3124 H   0  0  0  0  0  0  0  0  0  0  0  0
  1  2  2  0  0  0  0
  2  3  1  0  0  0  0
  2 16  1  0  0  0  0
  3  4  1  0  0  0  0
  3 24  1  0  0  0  0
  4 15  1  0  0  0  0
  4  5  2  0  0  0  0
  5  6  1  0  0  0  0
  5 25  1  0  0  0  0
  6  7  2  0  0  0  0
  6 26  1  0  0  0  0
  7  8  1  0  0  0  0
  7 14  1  0  0  0  0
  8 13  1  0  0  0  0
  8  9  1  0  0  0  0
  9 10  1  0  0  0  0
  9 27  1  0  0  0  0
  9 28  1  0  0  0  0
 10 11  1  0  0  0  0
 10 29  1  0  0  0  0
 10 30  1  0  0  0  0
 11 12  1  0  0  0  0
 12 13  1  0  0  0  0
 12 31  1  0  0  0  0
 12 32  1  0  0  0  0
 13 33  1  0  0  0  0
 13 34  1  0  0  0  0
 14 15  2  0  0  0  0
 15 35  1  0  0  0  0
 16 17  1  0  0  0  0
 16 36  1  0  0  0  0
 17 23  1  0  0  0  0
 17 18  1  0  0  0  0
 17 37  1  0  0  0  0
 18 19  1  0  0  0  0
 18 38  1  0  0  0  0
 18 39  1  0  0  0  0
 19 20  1  0  0  0  0
 19 40  1  0  0  0  0
 19 41  1  0  0  0  0
 20 21  2  0  0  0  0
 20 22  2  0  0  0  0
 20 23  1  0  0  0  0
 23 42  1  0  0  0  0
 23 43  1  0  0  0  0
M  END
> <s_m_source_file>
AV-unprocessed.smi

> <i_m_source_file_index>
553

> <i_lp_mmshare_version>
43012

> <i_f3d_flags>
0

> <s_epik_input>
Tz1TMSg9TylbQ0gyXVtDSDJdW0NASF0oW0NIMl0xKVtOSF1DKD1PKVtOSF1jMltjSF1bY0hdYyhuW2NIXTIpTjNbQ0gyXVtDSDJdT1tDSDJdW0NIMl0z

> <s_epik_cmdline>
J2VwaWtfcHl0aG9uJywgJy1waCcsICc3LjAnLCAnLXRuJywgJzgnLCAnLW1hJywgJzIwMCcsICctbWV0YWxfYmluZGluZycsICctaW1hZScsICc8aW5maWxlLm1hZT4nLCAnLW9tYWUnLCAnPG91dGZpbGUubWFlPic=

> <r_lp_tautomer_probability>
1

> <r_epik_Ionization_Penalty>
0.00171806

> <r_epik_Ionization_Penalty_Charging>
0

> <r_epik_Ionization_Penalty_Neutral>
0.00171806

> <r_epik_State_Penalty>
0.00114322

> <r_epik_Charging_Adjusted_Penalty>
0.00114322

> <i_epik_Tot_Q>
0

> <i_epik_Tot_abs_Q>
0

> <r_epik_Metal_State_Penalty>
-0

> <b_epik_Metal_Only>
0

> <s_lp_Force_Field>
OPLS_2005

> <r_lp_Energy>
34.1165

> <b_lp_Chiralities_Consistent>
1

> <s_lp_Variant>
AV-unprocessed.smi:553-2

> <Gold.Version>
5.8.1

> <Gold.Id.Protein>
6NUR|6NUR_protein|mol2

> <Gold.PLP.Fitness>
37.8425

> <Gold.PLP.PLP>
-34.6876

> <Gold.PLP.part.hbond>
-2.0000

> <Gold.PLP.part.metal>
0.0000

> <Gold.PLP.part.buried>
-5.8336

> <Gold.PLP.part.nonpolar>
-27.5385

> <Gold.PLP.part.repulsive>
0.2121

> <Gold.PLP.ligand.clash>
0.0000

> <Gold.PLP.ligand.torsion>
0.7897

> <Gold.PLP.Chemscore.Hbond>
1.5434

> <Gold.PLP.Chemscore.CHOScore>
0.0000

> <Gold.PLP.Chemscore.Metal>
0.0000

> <Gold.Chemscore.Hbonds>
donor molecule, donor type, donor heavy atom, donor atom, acceptor molecule, acceptor atom, score
      P1  H  6896  6907       L1     1  0.55
      P1  H  7997  8010       L1    14  1.00

> <Gold.PLP.Chemscore.Internal.Correction>
0.1041

> <Gold.Rescore>
     Score         DG    S(hbond)    S(metal)    S(lipo)     H(rot)  DE(clash)    DE(int)     intcor
     15.50     -17.34       1.83        0.00      76.76       1.27       0.00       1.83       ----

> <Gold.Chemscore.Fitness>
15.5036

> <Gold.Chemscore.DG>
-17.3357

> <Gold.Chemscore.ZeroCoef>
-5.4800

> <Gold.Chemscore.Hbond>
1.8342

> <Gold.Chemscore.Metal>
0.0000

> <Gold.Chemscore.Lipo>
76.7634

> <Gold.Chemscore.Internal_Hbond>
0.0000

> <Gold.Chemscore.DEClash>
0.0000

> <Gold.Chemscore.DEInternal>
1.8320

> <Gold.Chemscore.Rot>
1.2703

> <Gold.Chemscore.Internal.Correction>
   9.000000E+99

> <Gold.Chemscore.Hbonds>
donor molecule, donor type, donor heavy atom, donor atom, acceptor molecule, acceptor atom, score
      P1  H  6896  6907       L1     1  0.54
      P1  H  7997  8010       L1    14  0.55

> <Gold.Chemscore.Hbond.Weighted>
-6.1264

> <Gold.Chemscore.Metal.Weighted>
-0.0000

> <Gold.Chemscore.Lipo.Weighted>
-8.9813

> <Gold.Chemscore.Internal_Hbond.Weighted>
0.0000

> <Gold.Chemscore.DEClash.Weighted>
0.0000

> <Gold.Chemscore.DEInternal.Weighted>
1.8320

> <Gold.Chemscore.Rot.Weighted>
3.2520

> <Gold.Chemscore.Internal.Correction.Weighted>
   9.000000E+99

> <Gold.Protein.RotatedTorsions>
[ 6907 6896 6895 6894 ] final  -86.72 input  -60.11 | X-H torsion
[ 7974 7965 7964 7962 ] final  -89.96 input  175.53 | X-H torsion
[ 8008 7997 7996 7995 ] final   66.73 input   59.86 | X-H torsion
[ 10167 10162 10161 10158 ] final  -56.82 input  -65.29 | X-H torsion
[ 10718 10713 10712 10709 ] final -175.82 input   66.30 | X-H torsion
[ 10763 10752 10751 10750 ] final   26.69 input  -60.55 | X-H torsion
[ 11005 11000 10999 10996 ] final  134.93 input  -57.11 | X-H torsion

> <Gold.Protein.ActiveResidues>
 VAL166  LYS551  ARG553  GLY616  TRP617  ASP618  TYR619  PRO620  LYS621  CYS622 
 ASP623  PHE694  ASN695  SER759  ASP760  ASP761  ALA762  ILE779  LEU786  VAL792 
 PHE793  MET794  SER795  GLU796  ALA797  LYS798  CYS799  TRP800  GLU811  SER814 

> <Gold.Protein.RotatedAtoms>
  150.6866  134.3007  159.4704 H   0  0  0  0  0  0  0  0  0  0  0  0  # atno 6907 bound_to 6896
  152.0903  134.9409  160.0581 H   0  0  0  0  0  0  0  0  0  0  0  0  # atno 6908 bound_to 6896
  152.0728  133.4080  159.4503 H   0  0  0  0  0  0  0  0  0  0  0  0  # atno 6909 bound_to 6896
  145.4328  140.9556  143.2118 H   0  0  0  0  0  0  0  0  0  0  0  0  # atno 7974 bound_to 7965
  155.6820  140.3496  155.4859 H   0  0  0  0  0  0  0  0  0  0  0  0  # atno 8008 bound_to 7997
  155.9599  140.1135  157.0927 H   0  0  0  0  0  0  0  0  0  0  0  0  # atno 8009 bound_to 7997
  154.4140  140.1178  156.5151 H   0  0  0  0  0  0  0  0  0  0  0  0  # atno 8010 bound_to 7997
  140.6295  143.2453  151.5278 H   0  0  0  0  0  0  0  0  0  0  0  0  # atno 10167 bound_to 10162
  156.8056  130.9568  151.3117 H   0  0  0  0  0  0  0  0  0  0  0  0  # atno 10718 bound_to 10713
  153.0605  135.6554  154.0473 H   0  0  0  0  0  0  0  0  0  0  0  0  # atno 10763 bound_to 10752
  154.0142  135.2925  155.3390 H   0  0  0  0  0  0  0  0  0  0  0  0  # atno 10764 bound_to 10752
  154.6942  135.5271  153.8502 H   0  0  0  0  0  0  0  0  0  0  0  0  # atno 10765 bound_to 10752
  139.9947  134.9502  156.9936 H   0  0  0  0  0  0  0  0  0  0  0  0  # atno 11005 bound_to 11000
  144.8172  139.5856  143.7003 LP  0  0  0  0  0  0  0  0  0  0  0  0  # atno 17320 bound_to 7965
  146.2598  139.6384  142.9370 LP  0  0  0  0  0  0  0  0  0  0  0  0  # atno 17321 bound_to 7965
  139.5511  144.2394  152.1531 LP  0  0  0  0  0  0  0  0  0  0  0  0  # atno 17342 bound_to 10162
  140.1634  144.5004  150.6620 LP  0  0  0  0  0  0  0  0  0  0  0  0  # atno 17343 bound_to 10162
  157.6532  130.8902  149.9675 LP  0  0  0  0  0  0  0  0  0  0  0  0  # atno 17370 bound_to 10713
  156.1075  130.3652  150.0107 LP  0  0  0  0  0  0  0  0  0  0  0  0  # atno 17371 bound_to 10713
  140.4842  134.1259  155.7222 LP  0  0  0  0  0  0  0  0  0  0  0  0  # atno 17394 bound_to 11000
  141.1594  133.8821  157.1888 LP  0  0  0  0  0  0  0  0  0  0  0  0  # atno 17395 bound_to 11000

$$$$
