#       Name:                AV-unprocessed.smi:1738
#       Creating user name   scv26
#       Creation time:       Fri Mar 27 08:21:15 2020


#       File generated by GOLD software.
#

@<TRIPOS>MOLECULE
AV-unprocessed.smi:1738
    49    51     1
SMALL
NO_CHARGES


@<TRIPOS>ATOM
      1 ****        -7.4002   2.9085   0.6669 C.3            1 S1                 0.0000
      2 ****        -7.0137   1.1347   0.3719 S.o2           1 S1                 0.0000
      3 ****        -7.4271   0.3685   1.5578 O.2            1 S1                 0.0000
      4 ****        -7.5470   0.7707  -0.9502 O.2            1 S1                 0.0000
      5 ****        -5.2269   1.0967   0.2874 C.ar           1 S1                 0.0000
      6 ****        -4.5742   0.9415  -0.9521 C.ar           1 S1                 0.0000
      7 ****        -3.1665   0.9545  -0.9671 C.ar           1 S1                 0.0000
      8 ****        -2.4697   1.1249   0.2544 C.ar           1 S1                 0.0000
      9 ****        -1.0539   1.1725   0.3671 N.am           1 S1                 0.0000
     10 ****        -0.1311   0.6794  -0.4763 C.2            1 S1                 0.0000
     11 ****        -0.3690   0.0649  -1.5157 O.2            1 S1                 0.0000
     12 ****         1.1111   0.9158  -0.0313 N.am           1 S1                 0.0000
     13 ****         2.3321   0.5078  -0.7217 C.3            1 S1                 0.0000
     14 ****         3.5886   1.1716  -0.1734 C.3            1 S1                 0.0000
     15 ****         4.7120   0.2705  -0.6968 C.3            1 S1                 0.0000
     16 ****         4.1266  -1.0796  -0.8879 N.4            1 S1                 1.0000
     17 ****         4.8453  -2.1596  -0.1597 C.3            1 S1                 0.0000
     18 ****         3.9852  -3.4286  -0.0703 C.3            1 S1                 0.0000
     19 ****         2.6843  -3.1737   0.7144 C.3            1 S1                 0.0000
     20 ****         2.2670  -1.6903   0.6997 C.3            1 S1                 0.0000
     21 ****         2.6611  -0.9951  -0.6268 C.3            1 S1                 0.0000
     22 ****        -3.2319   1.3015   1.4294 C.ar           1 S1                 0.0000
     23 ****        -4.5810   1.2908   1.4566 N.ar           1 S1                 0.0000
     24 ****        -8.4803   3.0390   0.7277 H              1 S1                 0.0000
     25 ****        -7.0063   3.5079  -0.1534 H              1 S1                 0.0000
     26 ****        -6.9431   3.2293   1.6027 H              1 S1                 0.0000
     27 ****        -5.1307   0.8185  -1.8694 H              1 S1                 0.0000
     28 ****        -2.6546   0.8508  -1.9111 H              1 S1                 0.0000
     29 ****        -0.7030   1.5802   1.2217 H              1 S1                 0.0000
     30 ****         1.2204   1.4197   0.8369 H              1 S1                 0.0000
     31 ****         2.2466   0.7817  -1.7758 H              1 S1                 0.0000
     32 ****         3.6966   2.2081  -0.4944 H              1 S1                 0.0000
     33 ****         3.5799   1.1562   0.9177 H              1 S1                 0.0000
     34 ****         5.0543   0.6258  -1.6693 H              1 S1                 0.0000
     35 ****         5.5741   0.2756  -0.0284 H              1 S1                 0.0000
     36 ****         5.7857  -2.3676  -0.6711 H              1 S1                 0.0000
     37 ****         5.1005  -1.8296   0.8488 H              1 S1                 0.0000
     38 ****         3.7432  -3.7643  -1.0797 H              1 S1                 0.0000
     39 ****         4.5464  -4.2406   0.3934 H              1 S1                 0.0000
     40 ****         1.8898  -3.7903   0.2922 H              1 S1                 0.0000
     41 ****         2.8011  -3.4973   1.7492 H              1 S1                 0.0000
     42 ****         1.1934  -1.6241   0.8775 H              1 S1                 0.0000
     43 ****         2.7440  -1.1731   1.5333 H              1 S1                 0.0000
     44 ****         2.1460  -1.5174  -1.4345 H              1 S1                 0.0000
     45 ****        -2.7436   1.4541   2.3809 H              1 S1                 0.0000
     46 ****         4.2164  -1.2883  -1.8721 H              1 S1                 0.0000
     47 ****        -1.3153  -0.1028  -1.7919 LP             1 S1                 0.0000
     48 ****         0.3841  -0.2668  -2.0840 LP             1 S1                 0.0000
     49 ****        -5.0835   1.4217   2.3112 LP             1 S1                 0.0000
@<TRIPOS>BOND
    1    1    2 1     
    2    1   24 1     
    3    1   25 1     
    4    1   26 1     
    5    2    3 2     
    6    2    4 2     
    7    2    5 1     
    8    5   23 ar    
    9    5    6 ar    
   10    6    7 ar    
   11    6   27 1     
   12    7    8 ar    
   13    7   28 1     
   14    8    9 1     
   15    8   22 ar    
   16    9   10 am    
   17    9   29 1     
   18   10   11 2     
   19   10   12 am    
   20   12   13 1     
   21   12   30 1     
   22   13   21 1     
   23   13   14 1     
   24   13   31 1     
   25   14   15 1     
   26   14   32 1     
   27   14   33 1     
   28   15   16 1     
   29   15   34 1     
   30   15   35 1     
   31   16   21 1     
   32   16   17 1     
   33   16   46 1     
   34   17   18 1     
   35   17   36 1     
   36   17   37 1     
   37   18   19 1     
   38   18   38 1     
   39   18   39 1     
   40   19   20 1     
   41   19   40 1     
   42   19   41 1     
   43   20   21 1     
   44   20   42 1     
   45   20   43 1     
   46   21   44 1     
   47   22   23 ar    
   48   22   45 1     
   49   11   47 1     
   50   11   48 1     
   51   23   49 1     
@<TRIPOS>SUBSTRUCTURE
      1 S1             1
@<TRIPOS>SET
LONE_PAIRS      STATIC     ATOMS    <user>   **** ""
5 3 4 47 48 49
DONOR_HYDROGENS      STATIC     ATOMS    <user>   **** ""
3 29 30 46
ATOM$BLUE        STATIC     ATOMS    COLORGROUP SYSTEM
5 3 4 47 48 49
ATOM$RED        STATIC     ATOMS    COLORGROUP SYSTEM
3 29 30 46
