#       Name:                AV-unprocessed.smi:1151
#       Creating user name   scv26
#       Creation time:       Fri Mar 27 03:47:05 2020


#       File generated by GOLD software.
#

@<TRIPOS>MOLECULE
AV-unprocessed.smi:1151
    40    41     1
SMALL
NO_CHARGES


@<TRIPOS>ATOM
      1 ****        -3.1417   3.4379  -3.0069 C.3            1 S1                 0.0000
      2 ****        -2.8125   2.2263  -2.2043 C.2            1 S1                 0.0000
      3 ****        -2.2129   1.1461  -2.7116 N.2            1 S1                 0.0000
      4 ****        -2.0165   0.1427  -1.7579 C.2            1 S1                 0.0000
      5 ****        -1.3403  -1.1409  -2.1447 C.3            1 S1                 0.0000
      6 ****         0.1900  -1.0121  -2.2905 C.3            1 S1                 0.0000
      7 ****         0.8198  -0.3470  -1.1533 N.am           1 S1                 0.0000
      8 ****         0.9649  -0.8766   0.0710 C.2            1 S1                 0.0000
      9 ****         0.5970  -2.0172   0.3532 O.2            1 S1                 0.0000
     10 ****         1.5973   0.0373   1.1383 C.3            1 S1                 0.0000
     11 ****         2.9568  -0.4826   1.6432 C.3            1 S1                 0.0000
     12 ****         2.8455  -1.7344   2.5355 C.3            1 S1                 0.0000
     13 ****         1.6747  -1.6914   3.5293 C.2            1 S1                 0.0000
     14 ****         1.6458  -2.4916   4.4613 O.2            1 S1                 0.0000
     15 ****         0.6815  -0.8064   3.3343 N.am           1 S1                 0.0000
     16 ****         0.6597   0.2701   2.3430 C.3            1 S1                 0.0000
     17 ****        -2.4842   0.4806  -0.5121 C.2            1 S1                 0.0000
     18 ****        -3.1815   2.0760  -0.4904 S.3            1 S1                 0.0000
     19 ****        -2.5009   3.4993  -3.8870 H              1 S1                 0.0000
     20 ****        -2.9961   4.3365  -2.4071 H              1 S1                 0.0000
     21 ****        -4.1814   3.3974  -3.3316 H              1 S1                 0.0000
     22 ****        -1.5647  -1.9080  -1.4029 H              1 S1                 0.0000
     23 ****        -1.7569  -1.5150  -3.0804 H              1 S1                 0.0000
     24 ****         0.6421  -1.9917  -2.4524 H              1 S1                 0.0000
     25 ****         0.4175  -0.4180  -3.1759 H              1 S1                 0.0000
     26 ****         1.1435   0.5979  -1.3024 H              1 S1                 0.0000
     27 ****         1.7678   1.0069   0.6670 H              1 S1                 0.0000
     28 ****         3.6154  -0.6930   0.7997 H              1 S1                 0.0000
     29 ****         3.4476   0.3103   2.2093 H              1 S1                 0.0000
     30 ****         2.7159  -2.6197   1.9126 H              1 S1                 0.0000
     31 ****         3.7773  -1.8819   3.0822 H              1 S1                 0.0000
     32 ****        -0.0950  -0.8365   3.9793 H              1 S1                 0.0000
     33 ****         0.9470   1.1909   2.8518 H              1 S1                 0.0000
     34 ****        -0.3684   0.4183   2.0097 H              1 S1                 0.0000
     35 ****        -2.4529  -0.1095   0.3920 H              1 S1                 0.0000
     36 ****        -1.9349   1.0639  -3.6687 LP             1 S1                 0.0000
     37 ****         0.1690  -2.5916  -0.3447 LP             1 S1                 0.0000
     38 ****         0.7261  -2.3693   1.2802 LP             1 S1                 0.0000
     39 ****         2.3798  -3.1624   4.5673 LP             1 S1                 0.0000
     40 ****         0.8882  -2.4721   5.1137 LP             1 S1                 0.0000
@<TRIPOS>BOND
    1    1    2 1     
    2    1   19 1     
    3    1   20 1     
    4    1   21 1     
    5    2   18 1     
    6    2    3 2     
    7    3    4 1     
    8    4    5 1     
    9    4   17 2     
   10    5    6 1     
   11    5   22 1     
   12    5   23 1     
   13    6    7 1     
   14    6   24 1     
   15    6   25 1     
   16    7    8 am    
   17    7   26 1     
   18    8    9 2     
   19    8   10 1     
   20   10   16 1     
   21   10   11 1     
   22   10   27 1     
   23   11   12 1     
   24   11   28 1     
   25   11   29 1     
   26   12   13 1     
   27   12   30 1     
   28   12   31 1     
   29   13   14 2     
   30   13   15 am    
   31   15   16 1     
   32   15   32 1     
   33   16   33 1     
   34   16   34 1     
   35   17   18 1     
   36   17   35 1     
   37    3   36 1     
   38    9   37 1     
   39    9   38 1     
   40   14   39 1     
   41   14   40 1     
@<TRIPOS>SUBSTRUCTURE
      1 S1             1
@<TRIPOS>SET
LONE_PAIRS      STATIC     ATOMS    <user>   **** ""
5 36 37 38 39 40
DONOR_HYDROGENS      STATIC     ATOMS    <user>   **** ""
2 26 32
ATOM$BLUE        STATIC     ATOMS    COLORGROUP SYSTEM
5 36 37 38 39 40
ATOM$RED        STATIC     ATOMS    COLORGROUP SYSTEM
2 26 32
