#       Name:                AV-unprocessed.smi:2083
#       Creating user name   scv26
#       Creation time:       Fri Mar 27 11:22:13 2020


#       File generated by GOLD software.
#

@<TRIPOS>MOLECULE
AV-unprocessed.smi:2083
    50    51     1
SMALL
NO_CHARGES


@<TRIPOS>ATOM
      1 ****        -6.5919   5.4519   0.3281 C.3            1 S1                 0.0000
      2 ****        -5.6050   4.3586   0.1018 C.2            1 S1                 0.0000
      3 ****        -4.2404   4.3121   0.1523 C.2            1 S1                 0.0000
      4 ****        -3.9528   2.9588  -0.1690 C.2            1 S1                 0.0000
      5 ****        -2.6111   2.4960  -0.2186 N.am           1 S1                 0.0000
      6 ****        -2.1561   1.2594  -0.4926 C.2            1 S1                 0.0000
      7 ****        -2.9474   0.3520  -0.7760 O.2            1 S1                 0.0000
      8 ****        -0.7994   1.1803  -0.4124 N.pl3          1 S1                -1.0000
      9 ****        -0.0221  -0.0386  -0.6362 C.3            1 S1                 0.0000
     10 ****         1.2958   0.0014   0.1814 C.3            1 S1                 0.0000
     11 ****         2.3058   1.0792  -0.2879 C.3            1 S1                 0.0000
     12 ****         1.9005  -1.3648   0.2672 N.4            1 S1                 1.0000
     13 ****         2.5267  -1.6499   1.5857 C.3            1 S1                 0.0000
     14 ****         2.8642  -3.1436   1.7212 C.3            1 S1                 0.0000
     15 ****         3.7567  -3.6201   0.5658 C.3            1 S1                 0.0000
     16 ****         3.1428  -3.2638  -0.8014 C.3            1 S1                 0.0000
     17 ****         1.9396  -4.1504  -1.1679 C.3            1 S1                 0.0000
     18 ****         2.7974  -1.7622  -0.8595 C.3            1 S1                 0.0000
     19 ****        -5.0454   2.2441  -0.3945 N.2            1 S1                 0.0000
     20 ****        -6.1093   3.1375  -0.2226 O.3            1 S1                 0.0000
     21 ****        -6.0883   6.4089   0.4662 H              1 S1                 0.0000
     22 ****        -7.1904   5.2533   1.2171 H              1 S1                 0.0000
     23 ****        -7.2675   5.5451  -0.5221 H              1 S1                 0.0000
     24 ****        -3.5589   5.1172   0.3830 H              1 S1                 0.0000
     25 ****        -1.9049   3.1849  -0.0069 H              1 S1                 0.0000
     26 ****        -0.5781  -0.9294  -0.3385 H              1 S1                 0.0000
     27 ****         0.2128  -0.1816  -1.6913 H              1 S1                 0.0000
     28 ****         0.9998   0.2753   1.1956 H              1 S1                 0.0000
     29 ****         1.8953   2.0865  -0.1979 H              1 S1                 0.0000
     30 ****         2.6130   0.9478  -1.3269 H              1 S1                 0.0000
     31 ****         3.2070   1.0581   0.3249 H              1 S1                 0.0000
     32 ****         3.4260  -1.0436   1.7036 H              1 S1                 0.0000
     33 ****         1.8482  -1.3733   2.3934 H              1 S1                 0.0000
     34 ****         3.3625  -3.3258   2.6738 H              1 S1                 0.0000
     35 ****         1.9429  -3.7266   1.7440 H              1 S1                 0.0000
     36 ****         4.7347  -3.1452   0.6542 H              1 S1                 0.0000
     37 ****         3.9318  -4.6940   0.6399 H              1 S1                 0.0000
     38 ****         3.9053  -3.4536  -1.5580 H              1 S1                 0.0000
     39 ****         1.1069  -4.0154  -0.4775 H              1 S1                 0.0000
     40 ****         2.2130  -5.2057  -1.1559 H              1 S1                 0.0000
     41 ****         1.5751  -3.9185  -2.1690 H              1 S1                 0.0000
     42 ****         2.3374  -1.5345  -1.8218 H              1 S1                 0.0000
     43 ****         3.7201  -1.1820  -0.8117 H              1 S1                 0.0000
     44 ****         1.1059  -1.9867   0.2174 H              1 S1                 0.0000
     45 ****        -3.9300   0.5356  -0.8023 LP             1 S1                 0.0000
     46 ****        -2.6045  -0.5652  -0.9788 LP             1 S1                 0.0000
     47 ****        -0.2983   2.0151  -0.1842 LP             1 S1                 0.0000
     48 ****        -5.0986   1.2751  -0.6356 LP             1 S1                 0.0000
     49 ****        -6.6331   3.2045  -1.0718 LP             1 S1                 0.0000
     50 ****        -6.7054   2.8136   0.5120 LP             1 S1                 0.0000
@<TRIPOS>BOND
    1    1    2 1     
    2    1   21 1     
    3    1   22 1     
    4    1   23 1     
    5    2   20 1     
    6    2    3 2     
    7    3    4 1     
    8    3   24 1     
    9    4    5 1     
   10    4   19 2     
   11    5    6 am    
   12    5   25 1     
   13    6    7 2     
   14    6    8 1     
   15    8    9 1     
   16    9   10 1     
   17    9   26 1     
   18    9   27 1     
   19   10   11 1     
   20   10   12 1     
   21   10   28 1     
   22   11   29 1     
   23   11   30 1     
   24   11   31 1     
   25   12   18 1     
   26   12   13 1     
   27   12   44 1     
   28   13   14 1     
   29   13   32 1     
   30   13   33 1     
   31   14   15 1     
   32   14   34 1     
   33   14   35 1     
   34   15   16 1     
   35   15   36 1     
   36   15   37 1     
   37   16   17 1     
   38   16   18 1     
   39   16   38 1     
   40   17   39 1     
   41   17   40 1     
   42   17   41 1     
   43   18   42 1     
   44   18   43 1     
   45   19   20 1     
   46    7   45 1     
   47    7   46 1     
   48    8   47 1     
   49   19   48 1     
   50   20   49 1     
   51   20   50 1     
@<TRIPOS>SUBSTRUCTURE
      1 S1             1
@<TRIPOS>SET
LONE_PAIRS      STATIC     ATOMS    <user>   **** ""
6 45 46 47 48 49 50
DONOR_HYDROGENS      STATIC     ATOMS    <user>   **** ""
2 25 44
ATOM$BLUE        STATIC     ATOMS    COLORGROUP SYSTEM
6 45 46 47 48 49 50
ATOM$RED        STATIC     ATOMS    COLORGROUP SYSTEM
2 25 44
