AV-unprocessed.smi:3345|AV-procd|sdf|12903|dock10
  -GOLD-   2272019313D 1   1.00000     0.00000
 Structure written by MMmdl.
 41 42  0  0  0  0  0  0  0  0  2 V2000
  146.6059  138.5086  152.4286 C   0  0  0  0  0  0  0  0  0  0  0  0
  145.8456  137.7221  153.5045 C   0  0  2  0  0  0  0  0  0  0  0  0
  145.2926  136.3880  152.9534 C   0  0  0  0  0  0  0  0  0  0  0  0
  146.3127  135.3087  152.8946 N   0  3  0  0  0  0  0  0  0  0  0  0
  146.7631  134.8669  154.2353 C   0  0  0  0  0  0  0  0  0  0  0  0
  147.8678  133.8039  154.1067 C   0  0  0  0  0  0  0  0  0  0  0  0
  147.4015  132.7142  153.3204 O   0  0  0  0  0  0  0  0  0  0  0  0
  147.0438  133.1189  152.0044 C   0  0  0  0  0  0  0  0  0  0  0  0
  145.8990  134.1420  152.0786 C   0  0  0  0  0  0  0  0  0  0  0  0
  144.7607  138.5468  154.0353 N   0  0  0  0  0  0  0  0  0  0  0  0
  144.2404  138.4652  155.2711 C   0  0  0  0  0  0  0  0  0  0  0  0
  144.6903  137.7262  156.1469 O   0  0  0  0  0  0  0  0  0  0  0  0
  142.9898  139.3164  155.5321 C   0  0  2  0  0  0  0  0  0  0  0  0
  142.8389  139.7187  157.0130 C   0  0  0  0  0  0  0  0  0  0  0  0
  141.8129  138.6192  155.0273 N   0  0  0  0  0  0  0  0  0  0  0  0
  141.0985  138.8330  153.9203 C   0  0  0  0  0  0  0  0  0  0  0  0
  140.1178  137.9607  153.7353 N   0  0  0  0  0  0  0  0  0  0  0  0
  140.2921  137.1822  154.8439 C   0  0  0  0  0  0  0  0  0  0  0  0
  141.3086  137.5173  155.6375 N   0  0  0  0  0  0  0  0  0  0  0  0
  147.4342  137.9232  152.0283 H   0  0  0  0  0  0  0  0  0  0  0  0
  147.0227  139.4299  152.8374 H   0  0  0  0  0  0  0  0  0  0  0  0
  145.9556  138.7782  151.5956 H   0  0  0  0  0  0  0  0  0  0  0  0
  146.5628  137.4993  154.2955 H   0  0  0  0  0  0  0  0  0  0  0  0
  144.4842  136.0624  153.6101 H   0  0  0  0  0  0  0  0  0  0  0  0
  144.8454  136.5317  151.9687 H   0  0  0  0  0  0  0  0  0  0  0  0
  147.1421  135.7194  154.8000 H   0  0  0  0  0  0  0  0  0  0  0  0
  145.9158  134.4622  154.7910 H   0  0  0  0  0  0  0  0  0  0  0  0
  148.7663  134.2296  153.6595 H   0  0  0  0  0  0  0  0  0  0  0  0
  148.1494  133.4333  155.0924 H   0  0  0  0  0  0  0  0  0  0  0  0
  147.9092  133.5392  151.4892 H   0  0  0  0  0  0  0  0  0  0  0  0
  146.7292  132.2426  151.4378 H   0  0  0  0  0  0  0  0  0  0  0  0
  145.0125  133.6814  152.5174 H   0  0  0  0  0  0  0  0  0  0  0  0
  145.6285  134.4551  151.0709 H   0  0  0  0  0  0  0  0  0  0  0  0
  144.3335  139.1965  153.3907 H   0  0  0  0  0  0  0  0  0  0  0  0
  143.0927  140.2369  154.9548 H   0  0  0  0  0  0  0  0  0  0  0  0
  143.7138  140.2682  157.3622 H   0  0  0  0  0  0  0  0  0  0  0  0
  142.7119  138.8527  157.6640 H   0  0  0  0  0  0  0  0  0  0  0  0
  141.9717  140.3648  157.1525 H   0  0  0  0  0  0  0  0  0  0  0  0
  141.3061  139.6377  153.2302 H   0  0  0  0  0  0  0  0  0  0  0  0
  139.6650  136.3298  155.0608 H   0  0  0  0  0  0  0  0  0  0  0  0
  147.1233  135.7076  152.4426 H   0  0  0  0  0  0  0  0  0  0  0  0
  1  2  1  0  0  0  0
  1 20  1  0  0  0  0
  1 21  1  0  0  0  0
  1 22  1  0  0  0  0
  2  3  1  0  0  0  0
  2 10  1  0  0  0  0
  2 23  1  0  0  0  0
  3  4  1  0  0  0  0
  3 24  1  0  0  0  0
  3 25  1  0  0  0  0
  4  9  1  0  0  0  0
  4  5  1  0  0  0  0
  4 41  1  0  0  0  0
  5  6  1  0  0  0  0
  5 26  1  0  0  0  0
  5 27  1  0  0  0  0
  6  7  1  0  0  0  0
  6 28  1  0  0  0  0
  6 29  1  0  0  0  0
  7  8  1  0  0  0  0
  8  9  1  0  0  0  0
  8 30  1  0  0  0  0
  8 31  1  0  0  0  0
  9 32  1  0  0  0  0
  9 33  1  0  0  0  0
 10 11  1  0  0  0  0
 10 34  1  0  0  0  0
 11 12  2  0  0  0  0
 11 13  1  0  0  0  0
 13 14  1  0  0  0  0
 13 15  1  0  0  0  0
 13 35  1  0  0  0  0
 14 36  1  0  0  0  0
 14 37  1  0  0  0  0
 14 38  1  0  0  0  0
 15 19  1  0  0  0  0
 15 16  1  0  0  0  0
 16 17  2  0  0  0  0
 16 39  1  0  0  0  0
 17 18  1  0  0  0  0
 18 19  2  0  0  0  0
 18 40  1  0  0  0  0
M  CHG  1   4   1
M  END
> <s_m_source_file>
AV-unprocessed.smi

> <i_m_source_file_index>
3345

> <i_lp_mmshare_version>
43012

> <i_f3d_flags>
0

> <s_epik_input>
W0NIMl0xW0NIMl1PW0NIMl1bQ0gyXU4xW0NIMl1bQ0BASF0oW0NIM10pW05IXUMoPU8pW0NASF0oW0NIM10pbjJbY0hdbltjSF1uMg==

> <s_epik_cmdline>
J2VwaWtfcHl0aG9uJywgJy1waCcsICc3LjAnLCAnLXRuJywgJzgnLCAnLW1hJywgJzIwMCcsICctbWV0YWxfYmluZGluZycsICctaW1hZScsICc8aW5maWxlLm1hZT4nLCAnLW9tYWUnLCAnPG91dGZpbGUubWFlPic=

> <r_lp_tautomer_probability>
1

> <r_epik_Ionization_Penalty>
0.71326

> <r_epik_Ionization_Penalty_Charging>
0.713252

> <r_epik_Ionization_Penalty_Neutral>
8.27671e-06

> <r_epik_State_Penalty>
0.737017

> <r_epik_Charging_Adjusted_Penalty>
1.45027

> <i_epik_Tot_Q>
1

> <i_epik_Tot_abs_Q>
1

> <r_epik_Metal_State_Penalty>
0.73702

> <b_epik_Metal_Only>
0

> <s_lp_Force_Field>
OPLS_2005

> <r_lp_Energy>
25.9312

> <b_lp_Chiralities_Consistent>
1

> <s_lp_Variant>
AV-unprocessed.smi:3345-5

> <Gold.Version>
5.8.1

> <Gold.Id.Protein>
6NUR|6NUR_protein|mol2

> <Gold.PLP.Fitness>
34.9942

> <Gold.PLP.PLP>
-23.0828

> <Gold.PLP.part.hbond>
-2.0000

> <Gold.PLP.part.metal>
0.0000

> <Gold.PLP.part.buried>
-3.9964

> <Gold.PLP.part.nonpolar>
-17.9743

> <Gold.PLP.part.repulsive>
0.7770

> <Gold.PLP.ligand.clash>
0.0000

> <Gold.PLP.ligand.torsion>
1.5622

> <Gold.PLP.Chemscore.Hbond>
3.0000

> <Gold.PLP.Chemscore.CHOScore>
1.9621

> <Gold.PLP.Chemscore.Metal>
0.0000

> <Gold.Chemscore.Hbonds>
donor molecule, donor type, donor heavy atom, donor atom, acceptor molecule, acceptor atom, score
      L1  H     4    41       P1  7948  2.00
      L1  H    10    34       P1 10175  1.00
      L1  C    16    39       P1 10160  0.69
      L1  C    16    39       P1 10175  0.96

> <Gold.PLP.Chemscore.Internal.Correction>
0.1495

> <Gold.Rescore>
     Score         DG    S(hbond)    S(metal)    S(lipo)     H(rot)  DE(clash)    DE(int)     intcor
      8.27      -9.88       2.00        0.00      37.75       2.61       0.05       1.56       ----

> <Gold.Chemscore.Fitness>
8.2674

> <Gold.Chemscore.DG>
-9.8771

> <Gold.Chemscore.ZeroCoef>
-5.4800

> <Gold.Chemscore.Hbond>
1.9975

> <Gold.Chemscore.Metal>
0.0000

> <Gold.Chemscore.Lipo>
37.7484

> <Gold.Chemscore.Internal_Hbond>
0.0000

> <Gold.Chemscore.DEClash>
0.0519

> <Gold.Chemscore.DEInternal>
1.5578

> <Gold.Chemscore.Rot>
2.6138

> <Gold.Chemscore.Internal.Correction>
   9.000000E+99

> <Gold.Chemscore.Hbonds>
donor molecule, donor type, donor heavy atom, donor atom, acceptor molecule, acceptor atom, score
      L1  H     4    41       P1  7948  0.98
      L1  H    10    34       P1 10175  1.00

> <Gold.Chemscore.Hbond.Weighted>
-6.6718

> <Gold.Chemscore.Metal.Weighted>
-0.0000

> <Gold.Chemscore.Lipo.Weighted>
-4.4166

> <Gold.Chemscore.Internal_Hbond.Weighted>
0.0000

> <Gold.Chemscore.DEClash.Weighted>
0.0519

> <Gold.Chemscore.DEInternal.Weighted>
1.5578

> <Gold.Chemscore.Rot.Weighted>
6.6912

> <Gold.Chemscore.Internal.Correction.Weighted>
   9.000000E+99

> <Gold.Protein.RotatedTorsions>
[ 6907 6896 6895 6894 ] final   35.83 input  -60.11 | X-H torsion
[ 7974 7965 7964 7962 ] final  -86.90 input  175.53 | X-H torsion
[ 8008 7997 7996 7995 ] final -110.85 input   59.86 | X-H torsion
[ 10167 10162 10161 10158 ] final  165.40 input  -65.29 | X-H torsion
[ 10718 10713 10712 10709 ] final   87.44 input   66.30 | X-H torsion
[ 10763 10752 10751 10750 ] final  -94.44 input  -60.55 | X-H torsion
[ 11005 11000 10999 10996 ] final  132.89 input  -57.11 | X-H torsion

> <Gold.Protein.ActiveResidues>
 VAL166  LYS551  ARG553  GLY616  TRP617  ASP618  TYR619  PRO620  LYS621  CYS622 
 ASP623  PHE694  ASN695  SER759  ASP760  ASP761  ALA762  ILE779  LEU786  VAL792 
 PHE793  MET794  SER795  GLU796  ALA797  LYS798  CYS799  TRP800  GLU811  SER814 

> <Gold.Protein.RotatedAtoms>
  152.1214  134.9202  160.0562 H   0  0  0  0  0  0  0  0  0  0  0  0  # atno 6907 bound_to 6896
  152.0341  133.3945  159.4318 H   0  0  0  0  0  0  0  0  0  0  0  0  # atno 6908 bound_to 6896
  150.6849  134.3408  159.4911 H   0  0  0  0  0  0  0  0  0  0  0  0  # atno 6909 bound_to 6896
  145.4738  140.9559  143.1902 H   0  0  0  0  0  0  0  0  0  0  0  0  # atno 7974 bound_to 7965
  154.9809  140.0396  157.2277 H   0  0  0  0  0  0  0  0  0  0  0  0  # atno 8008 bound_to 7997
  154.7715  140.2802  155.6111 H   0  0  0  0  0  0  0  0  0  0  0  0  # atno 8009 bound_to 7997
  156.2922  140.2609  156.2519 H   0  0  0  0  0  0  0  0  0  0  0  0  # atno 8010 bound_to 7997
  139.4905  144.4136  151.9270 H   0  0  0  0  0  0  0  0  0  0  0  0  # atno 10167 bound_to 10162
  157.6940  131.0255  150.3123 H   0  0  0  0  0  0  0  0  0  0  0  0  # atno 10718 bound_to 10713
  154.7055  135.5157  153.8589 H   0  0  0  0  0  0  0  0  0  0  0  0  # atno 10763 bound_to 10752
  153.0738  135.6609  154.0199 H   0  0  0  0  0  0  0  0  0  0  0  0  # atno 10764 bound_to 10752
  154.0051  135.3007  155.3378 H   0  0  0  0  0  0  0  0  0  0  0  0  # atno 10765 bound_to 10752
  139.9818  134.9545  156.9647 H   0  0  0  0  0  0  0  0  0  0  0  0  # atno 11005 bound_to 11000
  144.7930  139.6291  143.7105 LP  0  0  0  0  0  0  0  0  0  0  0  0  # atno 17320 bound_to 7965
  146.2381  139.5946  142.9510 LP  0  0  0  0  0  0  0  0  0  0  0  0  # atno 17321 bound_to 7965
  140.3578  144.3010  150.5938 LP  0  0  0  0  0  0  0  0  0  0  0  0  # atno 17342 bound_to 10162
  140.5429  143.2220  151.8055 LP  0  0  0  0  0  0  0  0  0  0  0  0  # atno 17343 bound_to 10162
  156.3623  130.3849  149.7241 LP  0  0  0  0  0  0  0  0  0  0  0  0  # atno 17370 bound_to 10713
  156.4684  130.7985  151.3003 LP  0  0  0  0  0  0  0  0  0  0  0  0  # atno 17371 bound_to 10713
  140.5082  134.1029  155.7264 LP  0  0  0  0  0  0  0  0  0  0  0  0  # atno 17394 bound_to 11000
  141.1489  133.9005  157.2148 LP  0  0  0  0  0  0  0  0  0  0  0  0  # atno 17395 bound_to 11000

$$$$
