AV-unprocessed.smi:1456|AV-procd|sdf|5917|dock6
  -GOLD-   22720 6 03D 1   1.00000     0.00000
 Structure written by MMmdl.
 42 43  0  0  0  0  0  0  0  0  2 V2000
  147.3322  139.0501  155.7219 C   0  0  0  0  0  0  0  0  0  0  0  0
  148.0640  138.5827  154.4444 C   0  0  0  0  0  0  0  0  0  0  0  0
  146.9928  138.4619  153.3431 C   0  0  0  0  0  0  0  0  0  0  0  0
  149.1265  139.6033  153.9659 C   0  0  0  0  0  0  0  0  0  0  0  0
  150.4614  139.5681  154.7347 C   0  0  0  0  0  0  0  0  0  0  0  0
  150.3985  140.1977  156.0521 N   0  0  0  0  0  0  0  0  0  0  0  0
  151.4399  140.3844  156.8765 C   0  0  0  0  0  0  0  0  0  0  0  0
  152.5893  140.0366  156.6057 O   0  0  0  0  0  0  0  0  0  0  0  0
  151.0580  140.9957  158.0113 N   0  0  0  0  0  0  0  0  0  0  0  0
  151.8671  141.3898  159.1092 C   0  0  0  0  0  0  0  0  0  0  0  0
  151.4704  142.2228  160.0783 N   0  0  0  0  0  0  0  0  0  0  0  0
  152.4693  142.4307  161.0327 C   0  0  0  0  0  0  0  0  0  0  0  0
  153.6284  141.7425  160.7726 C   0  0  0  0  0  0  0  0  0  0  0  0
  153.5110  140.8015  159.3096 S   0  0  0  0  0  0  0  0  0  0  0  0
  150.9947  138.1281  154.8065 C   0  0  0  0  0  0  0  0  0  0  0  0
  149.9737  137.0684  155.2964 C   0  0  0  0  0  0  0  0  0  0  0  0
  150.5093  135.6771  154.9060 C   0  0  0  0  0  0  0  0  0  0  0  0
  149.8207  137.0652  156.8337 C   0  0  0  0  0  0  0  0  0  0  0  0
  148.6572  137.2266  154.6158 N   0  3  0  0  0  0  0  0  0  0  0  0
  146.7615  139.9596  155.5306 H   0  0  0  0  0  0  0  0  0  0  0  0
  147.9958  139.2830  156.5479 H   0  0  0  0  0  0  0  0  0  0  0  0
  146.6276  138.2952  156.0724 H   0  0  0  0  0  0  0  0  0  0  0  0
  146.5192  139.4234  153.1402 H   0  0  0  0  0  0  0  0  0  0  0  0
  146.2049  137.7627  153.6265 H   0  0  0  0  0  0  0  0  0  0  0  0
  147.4201  138.1058  152.4047 H   0  0  0  0  0  0  0  0  0  0  0  0
  149.3618  139.3917  152.9217 H   0  0  0  0  0  0  0  0  0  0  0  0
  148.7078  140.6106  153.9615 H   0  0  0  0  0  0  0  0  0  0  0  0
  151.1880  140.1459  154.1601 H   0  0  0  0  0  0  0  0  0  0  0  0
  149.4904  140.5103  156.3632 H   0  0  0  0  0  0  0  0  0  0  0  0
  150.0763  141.2130  158.0981 H   0  0  0  0  0  0  0  0  0  0  0  0
  152.2690  143.0855  161.8678 H   0  0  0  0  0  0  0  0  0  0  0  0
  154.5405  141.7322  161.3506 H   0  0  0  0  0  0  0  0  0  0  0  0
  151.3126  137.8600  153.7975 H   0  0  0  0  0  0  0  0  0  0  0  0
  151.9020  138.0909  155.4115 H   0  0  0  0  0  0  0  0  0  0  0  0
  151.4893  135.4886  155.3467 H   0  0  0  0  0  0  0  0  0  0  0  0
  150.6142  135.5757  153.8249 H   0  0  0  0  0  0  0  0  0  0  0  0
  149.8418  134.8824  155.2422 H   0  0  0  0  0  0  0  0  0  0  0  0
  150.7582  136.7855  157.3154 H   0  0  0  0  0  0  0  0  0  0  0  0
  149.0670  136.3449  157.1537 H   0  0  0  0  0  0  0  0  0  0  0  0
  149.5454  138.0285  157.2496 H   0  0  0  0  0  0  0  0  0  0  0  0
  147.9802  136.6268  155.0653 H   0  0  0  0  0  0  0  0  0  0  0  0
  148.7985  136.8784  153.6783 H   0  0  0  0  0  0  0  0  0  0  0  0
  1  2  1  0  0  0  0
  1 20  1  0  0  0  0
  1 21  1  0  0  0  0
  1 22  1  0  0  0  0
  2 19  1  0  0  0  0
  2  3  1  0  0  0  0
  2  4  1  0  0  0  0
  3 23  1  0  0  0  0
  3 24  1  0  0  0  0
  3 25  1  0  0  0  0
  4  5  1  0  0  0  0
  4 26  1  0  0  0  0
  4 27  1  0  0  0  0
  5  6  1  0  0  0  0
  5 15  1  0  0  0  0
  5 28  1  0  0  0  0
  6  7  1  0  0  0  0
  6 29  1  0  0  0  0
  7  8  2  0  0  0  0
  7  9  1  0  0  0  0
  9 10  1  0  0  0  0
  9 30  1  0  0  0  0
 10 14  1  0  0  0  0
 10 11  2  0  0  0  0
 11 12  1  0  0  0  0
 12 13  2  0  0  0  0
 12 31  1  0  0  0  0
 13 14  1  0  0  0  0
 13 32  1  0  0  0  0
 15 16  1  0  0  0  0
 15 33  1  0  0  0  0
 15 34  1  0  0  0  0
 16 17  1  0  0  0  0
 16 18  1  0  0  0  0
 16 19  1  0  0  0  0
 17 35  1  0  0  0  0
 17 36  1  0  0  0  0
 17 37  1  0  0  0  0
 18 38  1  0  0  0  0
 18 39  1  0  0  0  0
 18 40  1  0  0  0  0
 19 41  1  0  0  0  0
 19 42  1  0  0  0  0
M  CHG  1  19   1
M  END
> <s_m_source_file>
AV-unprocessed.smi

> <i_m_source_file_index>
1456

> <i_lp_mmshare_version>
43012

> <i_f3d_flags>
0

> <s_epik_input>
W0NIM11DMShbQ0gzXSlbQ0gyXVtDSF0oW0NIMl1DKFtDSDNdKShbQ0gzXSlbTkhdMSlbTkhdQyg9TylbTkhdYzJuW2NIXVtjSF1zMg==

> <s_epik_cmdline>
J2VwaWtfcHl0aG9uJywgJy1waCcsICc3LjAnLCAnLXRuJywgJzgnLCAnLW1hJywgJzIwMCcsICctbWV0YWxfYmluZGluZycsICctaW1hZScsICc8aW5maWxlLm1hZT4nLCAnLW9tYWUnLCAnPG91dGZpbGUubWFlPic=

> <r_lp_tautomer_probability>
1

> <r_epik_Ionization_Penalty>
0.000374891

> <r_epik_Ionization_Penalty_Charging>
0.000101406

> <r_epik_Ionization_Penalty_Neutral>
0.000273485

> <r_epik_State_Penalty>
-0

> <r_epik_Charging_Adjusted_Penalty>
0.000101406

> <i_epik_Tot_Q>
1

> <i_epik_Tot_abs_Q>
1

> <r_epik_Metal_State_Penalty>
0.0101225

> <b_epik_Metal_Only>
0

> <s_lp_Force_Field>
OPLS_2005

> <r_lp_Energy>
24.6198

> <b_lp_Chiralities_Consistent>
1

> <s_lp_Variant>
AV-unprocessed.smi:1456-1

> <Gold.Version>
5.8.1

> <Gold.Id.Protein>
6NUR|6NUR_protein|mol2

> <Gold.PLP.Fitness>
37.7219

> <Gold.PLP.PLP>
-28.8200

> <Gold.PLP.part.hbond>
-2.8446

> <Gold.PLP.part.metal>
0.0000

> <Gold.PLP.part.buried>
0.4539

> <Gold.PLP.part.nonpolar>
-26.1832

> <Gold.PLP.part.repulsive>
0.1673

> <Gold.PLP.ligand.clash>
0.0000

> <Gold.PLP.ligand.torsion>
0.0578

> <Gold.PLP.Chemscore.Hbond>
3.0000

> <Gold.PLP.Chemscore.CHOScore>
0.0000

> <Gold.PLP.Chemscore.Metal>
0.0000

> <Gold.Chemscore.Hbonds>
donor molecule, donor type, donor heavy atom, donor atom, acceptor molecule, acceptor atom, score
      L1  H    19    42       P1  7948  2.00
      P1  H  7997  8009       L1     8  1.00

> <Gold.PLP.Chemscore.Internal.Correction>
0.0176

> <Gold.Rescore>
     Score         DG    S(hbond)    S(metal)    S(lipo)     H(rot)  DE(clash)    DE(int)     intcor
     16.35     -17.89       1.87        0.00      74.48       1.00       0.28       1.26       ----

> <Gold.Chemscore.Fitness>
16.3455

> <Gold.Chemscore.DG>
-17.8866

> <Gold.Chemscore.ZeroCoef>
-5.4800

> <Gold.Chemscore.Hbond>
1.8721

> <Gold.Chemscore.Metal>
0.0000

> <Gold.Chemscore.Lipo>
74.4766

> <Gold.Chemscore.Internal_Hbond>
0.0000

> <Gold.Chemscore.DEClash>
0.2813

> <Gold.Chemscore.DEInternal>
1.2599

> <Gold.Chemscore.Rot>
1.0000

> <Gold.Chemscore.Internal.Correction>
   9.000000E+99

> <Gold.Chemscore.Hbonds>
donor molecule, donor type, donor heavy atom, donor atom, acceptor molecule, acceptor atom, score
      L1  H    19    42       P1  7948  1.00
      P1  H  7997  8009       L1     8  0.99

> <Gold.Chemscore.Hbond.Weighted>
-6.2528

> <Gold.Chemscore.Metal.Weighted>
-0.0000

> <Gold.Chemscore.Lipo.Weighted>
-8.7138

> <Gold.Chemscore.Internal_Hbond.Weighted>
0.0000

> <Gold.Chemscore.DEClash.Weighted>
0.2813

> <Gold.Chemscore.DEInternal.Weighted>
1.2599

> <Gold.Chemscore.Rot.Weighted>
2.5600

> <Gold.Chemscore.Internal.Correction.Weighted>
   9.000000E+99

> <Gold.Protein.RotatedTorsions>
[ 6907 6896 6895 6894 ] final   17.73 input  -60.11 | X-H torsion
[ 7974 7965 7964 7962 ] final   71.18 input  175.53 | X-H torsion
[ 8008 7997 7996 7995 ] final -173.06 input   59.86 | X-H torsion
[ 10167 10162 10161 10158 ] final -170.25 input  -65.29 | X-H torsion
[ 10718 10713 10712 10709 ] final   -7.07 input   66.30 | X-H torsion
[ 10763 10752 10751 10750 ] final  -14.90 input  -60.55 | X-H torsion
[ 11005 11000 10999 10996 ] final   40.40 input  -57.11 | X-H torsion

> <Gold.Protein.ActiveResidues>
 VAL166  LYS551  ARG553  GLY616  TRP617  ASP618  TYR619  PRO620  LYS621  CYS622 
 ASP623  PHE694  ASN695  SER759  ASP760  ASP761  ALA762  ILE779  LEU786  VAL792 
 PHE793  MET794  SER795  GLU796  ALA797  LYS798  CYS799  TRP800  GLU811  SER814 

> <Gold.Protein.RotatedAtoms>
  151.8542  135.0547  160.0461 H   0  0  0  0  0  0  0  0  0  0  0  0  # atno 6907 bound_to 6896
  152.2713  133.5381  159.5449 H   0  0  0  0  0  0  0  0  0  0  0  0  # atno 6908 bound_to 6896
  150.7153  134.0610  159.3873 H   0  0  0  0  0  0  0  0  0  0  0  0  # atno 6909 bound_to 6896
  145.7690  139.2835  143.1332 H   0  0  0  0  0  0  0  0  0  0  0  0  # atno 7974 bound_to 7965
  155.9525  140.1129  157.0964 H   0  0  0  0  0  0  0  0  0  0  0  0  # atno 8008 bound_to 7997
  154.4113  140.1197  156.5138 H   0  0  0  0  0  0  0  0  0  0  0  0  # atno 8009 bound_to 7997
  155.6823  140.3473  155.4862 H   0  0  0  0  0  0  0  0  0  0  0  0  # atno 8010 bound_to 7997
  139.5873  144.1290  152.1591 H   0  0  0  0  0  0  0  0  0  0  0  0  # atno 10167 bound_to 10162
  156.7227  130.5155  149.5864 H   0  0  0  0  0  0  0  0  0  0  0  0  # atno 10718 bound_to 10713
  153.5352  135.7014  153.5663 H   0  0  0  0  0  0  0  0  0  0  0  0  # atno 10763 bound_to 10752
  153.3653  135.3959  155.1749 H   0  0  0  0  0  0  0  0  0  0  0  0  # atno 10764 bound_to 10752
  154.8680  135.3798  154.4852 H   0  0  0  0  0  0  0  0  0  0  0  0  # atno 10765 bound_to 10752
  140.1935  134.3958  155.8134 H   0  0  0  0  0  0  0  0  0  0  0  0  # atno 11005 bound_to 11000
  146.0188  140.8367  142.9933 LP  0  0  0  0  0  0  0  0  0  0  0  0  # atno 17320 bound_to 7965
  144.6816  140.2598  143.7320 LP  0  0  0  0  0  0  0  0  0  0  0  0  # atno 17321 bound_to 7965
  140.0857  144.5663  150.7091 LP  0  0  0  0  0  0  0  0  0  0  0  0  # atno 17342 bound_to 10162
  140.7142  143.2531  151.4485 LP  0  0  0  0  0  0  0  0  0  0  0  0  # atno 17343 bound_to 10162
  156.1583  130.6357  151.0686 LP  0  0  0  0  0  0  0  0  0  0  0  0  # atno 17370 bound_to 10713
  157.6891  131.0815  150.7158 LP  0  0  0  0  0  0  0  0  0  0  0  0  # atno 17371 bound_to 10713
  141.2226  133.7058  156.8135 LP  0  0  0  0  0  0  0  0  0  0  0  0  # atno 17394 bound_to 11000
  140.2133  134.8811  157.3299 LP  0  0  0  0  0  0  0  0  0  0  0  0  # atno 17395 bound_to 11000

$$$$
