#       Name:                AV-unprocessed.smi:1083
#       Creating user name   scv26
#       Creation time:       Fri Mar 27 03:24:13 2020


#       File generated by GOLD software.
#

@<TRIPOS>MOLECULE
AV-unprocessed.smi:1083
    49    51     1
SMALL
NO_CHARGES


@<TRIPOS>ATOM
      1 ****         0.3736   2.7963   0.1739 O.2            1 S1                 0.0000
      2 ****        -0.0159   1.6856   0.5347 C.2            1 S1                 0.0000
      3 ****         0.7732   0.6197   0.7450 N.am           1 S1                 0.0000
      4 ****         2.1813   0.5273   0.5608 C.ar           1 S1                 0.0000
      5 ****         3.0475   1.6149   0.8269 C.ar           1 S1                 0.0000
      6 ****         4.4344   1.4404   0.6734 C.ar           1 S1                 0.0000
      7 ****         4.9078   0.1796   0.2697 C.ar           1 S1                 0.0000
      8 ****         4.0966  -0.8696   0.0249 N.ar           1 S1                 0.0000
      9 ****         2.7579  -0.7100   0.1661 C.ar           1 S1                 0.0000
     10 ****         1.9377  -1.8195  -0.1214 N.3            1 S1                 0.0000
     11 ****         1.2693  -1.7330  -1.4151 C.3            1 S1                 0.0000
     12 ****         0.2036  -2.8363  -1.5309 C.3            1 S1                 0.0000
     13 ****         0.8045  -4.1094  -1.3096 O.3            1 S1                 0.0000
     14 ****         1.3892  -4.2094  -0.0140 C.3            1 S1                 0.0000
     15 ****         2.4896  -3.1455   0.1394 C.3            1 S1                 0.0000
     16 ****        -1.3040   1.3813   0.7450 N.am           1 S1                 0.0000
     17 ****        -2.4256   2.2994   0.5664 C.3            1 S1                 0.0000
     18 ****        -3.6423   1.8440   1.3958 C.3            1 S1                 0.0000
     19 ****        -4.8347   1.8395   0.4371 C.3            1 S1                 0.0000
     20 ****        -4.2203   1.5688  -0.9324 C.3            1 S1                 0.0000
     21 ****        -2.8948   2.3292  -0.9016 C.3            1 S1                 0.0000
     22 ****         0.3038  -0.2518   0.9435 H              1 S1                 0.0000
     23 ****         2.6718   2.5695   1.1629 H              1 S1                 0.0000
     24 ****         5.1195   2.2520   0.8692 H              1 S1                 0.0000
     25 ****         5.9664   0.0067   0.1449 H              1 S1                 0.0000
     26 ****         0.8055  -0.7561  -1.5520 H              1 S1                 0.0000
     27 ****         2.0110  -1.8455  -2.2071 H              1 S1                 0.0000
     28 ****        -0.6032  -2.6733  -0.8144 H              1 S1                 0.0000
     29 ****        -0.2450  -2.8230  -2.5242 H              1 S1                 0.0000
     30 ****         0.6224  -4.0897   0.7531 H              1 S1                 0.0000
     31 ****         1.8110  -5.2070   0.1095 H              1 S1                 0.0000
     32 ****         3.3003  -3.3520  -0.5609 H              1 S1                 0.0000
     33 ****         2.9092  -3.1827   1.1454 H              1 S1                 0.0000
     34 ****        -1.5292   0.4415   1.0365 H              1 S1                 0.0000
     35 ****        -2.1314   3.3043   0.8755 H              1 S1                 0.0000
     36 ****        -3.4920   0.8340   1.7808 H              1 S1                 0.0000
     37 ****        -3.8176   2.4914   2.2557 H              1 S1                 0.0000
     38 ****        -5.5914   1.1042   0.7115 H              1 S1                 0.0000
     39 ****        -5.3097   2.8215   0.4369 H              1 S1                 0.0000
     40 ****        -4.0295   0.5008  -1.0457 H              1 S1                 0.0000
     41 ****        -4.8659   1.8824  -1.7532 H              1 S1                 0.0000
     42 ****        -3.0685   3.3637  -1.2004 H              1 S1                 0.0000
     43 ****        -2.1677   1.9139  -1.6010 H              1 S1                 0.0000
     44 ****         1.3476   2.9572   0.0144 LP             1 S1                 0.0000
     45 ****        -0.2840   3.5378   0.0403 LP             1 S1                 0.0000
     46 ****         4.4765  -1.7509  -0.2562 LP             1 S1                 0.0000
     47 ****         1.2350  -1.7328   0.5847 LP             1 S1                 0.0000
     48 ****         1.5168  -4.2533  -1.9966 LP             1 S1                 0.0000
     49 ****         0.1040  -4.8169  -1.4025 LP             1 S1                 0.0000
@<TRIPOS>BOND
    1    1    2 2     
    2    2    3 am    
    3    2   16 am    
    4    3    4 1     
    5    3   22 1     
    6    4    9 ar    
    7    4    5 ar    
    8    5    6 ar    
    9    5   23 1     
   10    6    7 ar    
   11    6   24 1     
   12    7    8 ar    
   13    7   25 1     
   14    8    9 ar    
   15    9   10 1     
   16   10   15 1     
   17   10   11 1     
   18   11   12 1     
   19   11   26 1     
   20   11   27 1     
   21   12   13 1     
   22   12   28 1     
   23   12   29 1     
   24   13   14 1     
   25   14   15 1     
   26   14   30 1     
   27   14   31 1     
   28   15   32 1     
   29   15   33 1     
   30   16   17 1     
   31   16   34 1     
   32   17   21 1     
   33   17   18 1     
   34   17   35 1     
   35   18   19 1     
   36   18   36 1     
   37   18   37 1     
   38   19   20 1     
   39   19   38 1     
   40   19   39 1     
   41   20   21 1     
   42   20   40 1     
   43   20   41 1     
   44   21   42 1     
   45   21   43 1     
   46    1   44 1     
   47    1   45 1     
   48    8   46 1     
   49   10   47 1     
   50   13   48 1     
   51   13   49 1     
@<TRIPOS>SUBSTRUCTURE
      1 S1             1
@<TRIPOS>SET
LONE_PAIRS      STATIC     ATOMS    <user>   **** ""
6 44 45 46 47 48 49
DONOR_HYDROGENS      STATIC     ATOMS    <user>   **** ""
2 22 34
ATOM$BLUE        STATIC     ATOMS    COLORGROUP SYSTEM
6 44 45 46 47 48 49
ATOM$RED        STATIC     ATOMS    COLORGROUP SYSTEM
2 22 34
