AV-unprocessed.smi:102|AV-procd|sdf|953|dock1
  -GOLD-   2262017483D 1   1.00000     0.00000
 Structure written by MMmdl.
 44 45  0  0  0  0  0  0  0  0  1 V2000
  147.5076  136.1570  161.1018 C   0  0  0  0  0  0  0  0  0  0  0  0
  148.2240  136.1555  159.7572 C   0  0  0  0  0  0  0  0  0  0  0  0
  148.9412  135.2153  159.4146 O   0  0  0  0  0  0  0  0  0  0  0  0
  147.9774  137.2618  159.0385 O   0  0  0  0  0  0  0  0  0  0  0  0
  148.8790  137.6444  158.0131 C   0  0  0  0  0  0  0  0  0  0  0  0
  148.0905  138.1629  156.8025 C   0  0  2  0  0  0  0  0  0  0  0  0
  147.5371  137.0820  156.0554 O   0  0  0  0  0  0  0  0  0  0  0  0
  147.4745  137.4017  154.6969 C   0  0  1  0  0  0  0  0  0  0  0  0
  146.0348  137.3218  154.2131 N   0  0  0  0  0  0  0  0  0  0  0  0
  145.0277  137.0216  155.1216 C   0  0  0  0  0  0  0  0  0  0  0  0
  143.7188  136.9495  154.7834 C   0  0  0  0  0  0  0  0  0  0  0  0
  142.8065  136.6451  155.7219 F   0  0  0  0  0  0  0  0  0  0  0  0
  143.2900  137.2011  153.4117 C   0  0  0  0  0  0  0  0  0  0  0  0
  142.1303  137.1548  153.0067 O   0  0  0  0  0  0  0  0  0  0  0  0
  144.3295  137.5178  152.5337 N   0  0  0  0  0  0  0  0  0  0  0  0
  145.6820  137.5982  152.8699 C   0  0  0  0  0  0  0  0  0  0  0  0
  146.5020  137.8910  152.0040 O   0  0  0  0  0  0  0  0  0  0  0  0
  148.1981  138.7506  154.4720 C   0  0  1  0  0  0  0  0  0  0  0  0
  147.3337  139.8460  154.1875 O   0  0  0  0  0  0  0  0  0  0  0  0
  147.8356  141.0779  153.9833 C   0  0  0  0  0  0  0  0  0  0  0  0
  146.7560  142.1512  153.9934 C   0  0  0  0  0  0  0  0  0  0  0  0
  149.0182  141.3565  153.7863 O   0  0  0  0  0  0  0  0  0  0  0  0
  148.9141  138.9748  155.7964 C   0  0  2  0  0  0  0  0  0  0  0  0
  150.2548  138.4994  155.7151 O   0  0  0  0  0  0  0  0  0  0  0  0
  151.2284  139.2904  155.2294 C   0  0  0  0  0  0  0  0  0  0  0  0
  152.5291  138.5336  154.9958 C   0  0  0  0  0  0  0  0  0  0  0  0
  151.1284  140.4915  154.9790 O   0  0  0  0  0  0  0  0  0  0  0  0
  144.0803  137.7066  151.5737 H   0  0  0  0  0  0  0  0  0  0  0  0
  146.9090  137.0599  161.2254 H   0  0  0  0  0  0  0  0  0  0  0  0
  148.2326  136.1101  161.9143 H   0  0  0  0  0  0  0  0  0  0  0  0
  146.8474  135.2928  161.1779 H   0  0  0  0  0  0  0  0  0  0  0  0
  149.5288  138.4334  158.3945 H   0  0  0  0  0  0  0  0  0  0  0  0
  149.5133  136.8041  157.7267 H   0  0  0  0  0  0  0  0  0  0  0  0
  147.2806  138.7991  157.1569 H   0  0  0  0  0  0  0  0  0  0  0  0
  147.9994  136.5976  154.1804 H   0  0  0  0  0  0  0  0  0  0  0  0
  145.2858  136.8229  156.1518 H   0  0  0  0  0  0  0  0  0  0  0  0
  148.9240  138.6305  153.6660 H   0  0  0  0  0  0  0  0  0  0  0  0
  145.9189  141.8532  153.3617 H   0  0  0  0  0  0  0  0  0  0  0  0
  147.1513  143.0958  153.6195 H   0  0  0  0  0  0  0  0  0  0  0  0
  146.3883  142.3070  155.0076 H   0  0  0  0  0  0  0  0  0  0  0  0
  148.9196  140.0281  156.0828 H   0  0  0  0  0  0  0  0  0  0  0  0
  152.8137  137.9818  155.8918 H   0  0  0  0  0  0  0  0  0  0  0  0
  153.3345  139.2248  154.7464 H   0  0  0  0  0  0  0  0  0  0  0  0
  152.4132  137.8267  154.1743 H   0  0  0  0  0  0  0  0  0  0  0  0
  1  2  1  0  0  0  0
  1 29  1  0  0  0  0
  1 30  1  0  0  0  0
  1 31  1  0  0  0  0
  2  3  2  0  0  0  0
  2  4  1  0  0  0  0
  4  5  1  0  0  0  0
  5  6  1  0  0  0  0
  5 32  1  0  0  0  0
  5 33  1  0  0  0  0
  6 23  1  0  0  0  0
  6  7  1  0  0  0  0
  6 34  1  0  0  0  0
  7  8  1  0  0  0  0
  8  9  1  0  0  0  0
  8 18  1  0  0  0  0
  8 35  1  0  0  0  0
  9 16  1  0  0  0  0
  9 10  1  0  0  0  0
 10 11  2  0  0  0  0
 10 36  1  0  0  0  0
 11 12  1  0  0  0  0
 11 13  1  0  0  0  0
 13 14  2  0  0  0  0
 13 15  1  0  0  0  0
 15 28  1  0  0  0  0
 15 16  1  0  0  0  0
 16 17  2  0  0  0  0
 18 19  1  0  0  0  0
 18 23  1  0  0  0  0
 18 37  1  0  0  0  0
 19 20  1  0  0  0  0
 20 21  1  0  0  0  0
 20 22  2  0  0  0  0
 21 38  1  0  0  0  0
 21 39  1  0  0  0  0
 21 40  1  0  0  0  0
 23 24  1  0  0  0  0
 23 41  1  0  0  0  0
 24 25  1  0  0  0  0
 25 26  1  0  0  0  0
 25 27  2  0  0  0  0
 26 42  1  0  0  0  0
 26 43  1  0  0  0  0
 26 44  1  0  0  0  0
M  END
> <s_m_source_file>
AV-unprocessed.smi

> <i_m_source_file_index>
102

> <i_lp_mmshare_version>
43012

> <i_f3d_flags>
0

> <s_epik_input>
W0NIM11DKD1PKU9bQ0gyXVtDQEBIXTFPW0NASF0oW0NAQEhdKE9DKD1PKVtDSDNdKVtDQEhdMU9DKD1PKVtDSDNdKW4yW2NIXWMoRiljKD1PKVtuSF1jMj1P

> <s_epik_cmdline>
J2VwaWtfcHl0aG9uJywgJy1waCcsICc3LjAnLCAnLXRuJywgJzgnLCAnLW1hJywgJzIwMCcsICctbWV0YWxfYmluZGluZycsICctaW1hZScsICc8aW5maWxlLm1hZT4nLCAnLW9tYWUnLCAnPG91dGZpbGUubWFlPic=

> <r_lp_tautomer_probability>
0.999537

> <r_epik_Ionization_Penalty>
0.058267

> <r_epik_Ionization_Penalty_Charging>
0.058267

> <r_epik_Ionization_Penalty_Neutral>
6.57791e-16

> <r_epik_State_Penalty>
0.0503774

> <r_epik_Charging_Adjusted_Penalty>
0.108644

> <i_epik_Tot_Q>
0

> <i_epik_Tot_abs_Q>
0

> <r_epik_Metal_State_Penalty>
2.6644

> <b_epik_Metal_Only>
0

> <s_epik_Chemistry_Notes>
This compound has an ester and may undergo hydrolysis at high or low pH. This compound contains an acetal/aminal-like group ( X-CH(R)-Y where X, Y are N, S, or O) that may be acid/base labile, releasing an aldehyde.

> <s_lp_Force_Field>
OPLS_2005

> <r_lp_Energy>
10.5548

> <b_lp_Chiralities_Consistent>
1

> <s_lp_Variant>
AV-unprocessed.smi:102-9

> <Gold.Version>
5.8.1

> <Gold.Id.Protein>
6NUR|6NUR_protein|mol2

> <Gold.PLP.Fitness>
40.0096

> <Gold.PLP.PLP>
-30.8230

> <Gold.PLP.part.hbond>
-6.2297

> <Gold.PLP.part.metal>
0.0000

> <Gold.PLP.part.buried>
-6.3780

> <Gold.PLP.part.nonpolar>
-20.3793

> <Gold.PLP.part.repulsive>
1.9012

> <Gold.PLP.ligand.clash>
0.0000

> <Gold.PLP.ligand.torsion>
1.2160

> <Gold.PLP.Chemscore.Hbond>
3.7440

> <Gold.PLP.Chemscore.CHOScore>
0.0000

> <Gold.PLP.Chemscore.Metal>
0.0000

> <Gold.Chemscore.Hbonds>
donor molecule, donor type, donor heavy atom, donor atom, acceptor molecule, acceptor atom, score
      L1  H    15    28       P1 10171  1.00
      P1  H  6896  6907       L1     3  0.99
      P1  H  7989  7998       L1    27  1.00
      P1  H  8011  8017       L1    22  0.82

> <Gold.PLP.Chemscore.Internal.Correction>
0.3865

> <Gold.Rescore>
     Score         DG    S(hbond)    S(metal)    S(lipo)     H(rot)  DE(clash)    DE(int)     intcor
      7.66     -10.70       3.61        0.00      30.10       4.05       0.41       2.63       ----

> <Gold.Chemscore.Fitness>
7.6576

> <Gold.Chemscore.DG>
-10.6967

> <Gold.Chemscore.ZeroCoef>
-5.4800

> <Gold.Chemscore.Hbond>
3.6134

> <Gold.Chemscore.Metal>
0.0000

> <Gold.Chemscore.Lipo>
30.0962

> <Gold.Chemscore.Internal_Hbond>
0.0000

> <Gold.Chemscore.DEClash>
0.4135

> <Gold.Chemscore.DEInternal>
2.6256

> <Gold.Chemscore.Rot>
4.0520

> <Gold.Chemscore.Internal.Correction>
   9.000000E+99

> <Gold.Chemscore.Hbonds>
donor molecule, donor type, donor heavy atom, donor atom, acceptor molecule, acceptor atom, score
      L1  H    15    28       P1 10171  0.98
      P1  H  6896  6907       L1     3  0.93
      P1  H  7989  7998       L1    27  0.83
      P1  H  8011  8017       L1    22  0.80

> <Gold.Chemscore.Hbond.Weighted>
-12.0687

> <Gold.Chemscore.Metal.Weighted>
-0.0000

> <Gold.Chemscore.Lipo.Weighted>
-3.5213

> <Gold.Chemscore.Internal_Hbond.Weighted>
0.0000

> <Gold.Chemscore.DEClash.Weighted>
0.4135

> <Gold.Chemscore.DEInternal.Weighted>
2.6256

> <Gold.Chemscore.Rot.Weighted>
10.3732

> <Gold.Chemscore.Internal.Correction.Weighted>
   9.000000E+99

> <Gold.Protein.RotatedTorsions>
[ 6907 6896 6895 6894 ] final  -53.84 input  -60.11 | X-H torsion
[ 7974 7965 7964 7962 ] final  -36.68 input  175.53 | X-H torsion
[ 8008 7997 7996 7995 ] final   76.63 input   59.86 | X-H torsion
[ 10167 10162 10161 10158 ] final  -94.54 input  -65.29 | X-H torsion
[ 10718 10713 10712 10709 ] final   76.75 input   66.30 | X-H torsion
[ 10763 10752 10751 10750 ] final -128.03 input  -60.55 | X-H torsion
[ 11005 11000 10999 10996 ] final  141.79 input  -57.11 | X-H torsion

> <Gold.Protein.ActiveResidues>
 VAL166  LYS551  ARG553  GLY616  TRP617  ASP618  TYR619  PRO620  LYS621  CYS622 
 ASP623  PHE694  ASN695  SER759  ASP760  ASP761  ALA762  ILE779  LEU786  VAL792 
 PHE793  MET794  SER795  GLU796  ALA797  LYS798  CYS799  TRP800  GLU811  SER814 

> <Gold.Protein.RotatedAtoms>
  150.8391  134.7675  159.6916 H   0  0  0  0  0  0  0  0  0  0  0  0  # atno 6907 bound_to 6896
  152.4482  134.5447  159.9859 H   0  0  0  0  0  0  0  0  0  0  0  0  # atno 6908 bound_to 6896
  151.5591  133.3368  159.3003 H   0  0  0  0  0  0  0  0  0  0  0  0  # atno 6909 bound_to 6896
  146.0640  140.6307  142.8983 H   0  0  0  0  0  0  0  0  0  0  0  0  # atno 7974 bound_to 7965
  155.8300  140.3466  155.5567 H   0  0  0  0  0  0  0  0  0  0  0  0  # atno 8008 bound_to 7997
  155.8252  140.0919  157.1845 H   0  0  0  0  0  0  0  0  0  0  0  0  # atno 8009 bound_to 7997
  154.4004  140.1422  156.3534 H   0  0  0  0  0  0  0  0  0  0  0  0  # atno 8010 bound_to 7997
  140.3133  143.3092  152.0125 H   0  0  0  0  0  0  0  0  0  0  0  0  # atno 10167 bound_to 10162
  157.6685  130.9789  150.1542 H   0  0  0  0  0  0  0  0  0  0  0  0  # atno 10718 bound_to 10713
  154.8755  135.3942  154.3691 H   0  0  0  0  0  0  0  0  0  0  0  0  # atno 10763 bound_to 10752
  153.4453  135.7027  153.6148 H   0  0  0  0  0  0  0  0  0  0  0  0  # atno 10764 bound_to 10752
  153.4711  135.3790  155.2360 H   0  0  0  0  0  0  0  0  0  0  0  0  # atno 10765 bound_to 10752
  140.0428  134.9296  157.0874 H   0  0  0  0  0  0  0  0  0  0  0  0  # atno 11005 bound_to 11000
  144.7191  140.4314  143.7021 LP  0  0  0  0  0  0  0  0  0  0  0  0  # atno 17320 bound_to 7965
  145.6509  139.1565  143.2862 LP  0  0  0  0  0  0  0  0  0  0  0  0  # atno 17321 bound_to 7965
  139.4889  144.6367  151.6960 LP  0  0  0  0  0  0  0  0  0  0  0  0  # atno 17342 bound_to 10162
  140.5548  144.0365  150.6143 LP  0  0  0  0  0  0  0  0  0  0  0  0  # atno 17343 bound_to 10162
  156.2334  130.3684  149.8419 LP  0  0  0  0  0  0  0  0  0  0  0  0  # atno 17370 bound_to 10713
  156.6239  130.8638  151.3481 LP  0  0  0  0  0  0  0  0  0  0  0  0  # atno 17371 bound_to 10713
  140.4042  134.2050  155.7163 LP  0  0  0  0  0  0  0  0  0  0  0  0  # atno 17394 bound_to 11000
  141.1892  133.8244  157.0967 LP  0  0  0  0  0  0  0  0  0  0  0  0  # atno 17395 bound_to 11000

$$$$
