AV-unprocessed.smi:3002|AV-procd|sdf|11433|dock7
  -GOLD-   2272016363D 1   1.00000     0.00000
 Structure written by MMmdl.
 34 35  0  0  0  0  0  0  0  0  1 V2000
  153.8847  141.7868  160.5861 C   0  0  0  0  0  0  0  0  0  0  0  0
  152.5193  141.5066  159.9198 C   0  0  2  0  0  0  0  0  0  0  0  0
  152.6749  140.5201  158.7507 C   0  0  0  0  0  0  0  0  0  0  0  0
  153.7920  140.2315  158.3207 O   0  0  0  0  0  0  0  0  0  0  0  0
  151.5412  140.0210  158.2366 N   0  0  0  0  0  0  0  0  0  0  0  0
  151.4757  139.1070  157.1040 C   0  0  0  0  0  0  0  0  0  0  0  0
  150.0776  139.1236  156.4637 C   0  0  2  0  0  0  0  0  0  0  0  0
  150.0854  138.5805  155.0216 C   0  0  0  0  0  0  0  0  0  0  0  0
  148.7290  138.8845  154.3788 C   0  0  0  0  0  0  0  0  0  0  0  0
  148.2087  140.4972  155.0727 S   0  0  0  0  0  0  0  0  0  0  0  0
  148.5360  141.5691  154.1204 O   0  0  0  0  0  0  0  0  0  0  0  0
  146.8536  140.3655  155.6287 O   0  0  0  0  0  0  0  0  0  0  0  0
  149.4339  140.5220  156.4371 C   0  0  0  0  0  0  0  0  0  0  0  0
  151.8237  142.7207  159.4840 N   0  0  0  0  0  0  0  0  0  0  0  0
  152.2343  143.9942  159.4596 C   0  0  0  0  0  0  0  0  0  0  0  0
  151.3610  144.8375  158.9282 N   0  0  0  0  0  0  0  0  0  0  0  0
  150.3697  143.9589  158.5990 C   0  0  0  0  0  0  0  0  0  0  0  0
  150.6042  142.6795  158.8888 N   0  0  0  0  0  0  0  0  0  0  0  0
  154.4036  140.8592  160.8310 H   0  0  0  0  0  0  0  0  0  0  0  0
  153.7622  142.3391  161.5183 H   0  0  0  0  0  0  0  0  0  0  0  0
  154.5392  142.3703  159.9371 H   0  0  0  0  0  0  0  0  0  0  0  0
  151.8822  141.0359  160.6705 H   0  0  0  0  0  0  0  0  0  0  0  0
  150.6640  140.3052  158.6483 H   0  0  0  0  0  0  0  0  0  0  0  0
  152.2272  139.3796  156.3608 H   0  0  0  0  0  0  0  0  0  0  0  0
  151.7183  138.1012  157.4495 H   0  0  0  0  0  0  0  0  0  0  0  0
  149.4231  138.4735  157.0467 H   0  0  0  0  0  0  0  0  0  0  0  0
  150.8661  139.0856  154.4510 H   0  0  0  0  0  0  0  0  0  0  0  0
  150.3090  137.5137  154.9922 H   0  0  0  0  0  0  0  0  0  0  0  0
  148.7702  138.9347  153.2906 H   0  0  0  0  0  0  0  0  0  0  0  0
  147.9890  138.1377  154.6675 H   0  0  0  0  0  0  0  0  0  0  0  0
  148.9440  140.7843  157.3749 H   0  0  0  0  0  0  0  0  0  0  0  0
  150.1723  141.2908  156.2062 H   0  0  0  0  0  0  0  0  0  0  0  0
  153.1953  144.3150  159.8346 H   0  0  0  0  0  0  0  0  0  0  0  0
  149.4527  144.2693  158.1199 H   0  0  0  0  0  0  0  0  0  0  0  0
  1  2  1  0  0  0  0
  1 19  1  0  0  0  0
  1 20  1  0  0  0  0
  1 21  1  0  0  0  0
  2  3  1  0  0  0  0
  2 14  1  0  0  0  0
  2 22  1  0  0  0  0
  3  4  2  0  0  0  0
  3  5  1  0  0  0  0
  5  6  1  0  0  0  0
  5 23  1  0  0  0  0
  6  7  1  0  0  0  0
  6 24  1  0  0  0  0
  6 25  1  0  0  0  0
  7 13  1  0  0  0  0
  7  8  1  0  0  0  0
  7 26  1  0  0  0  0
  8  9  1  0  0  0  0
  8 27  1  0  0  0  0
  8 28  1  0  0  0  0
  9 10  1  0  0  0  0
  9 29  1  0  0  0  0
  9 30  1  0  0  0  0
 10 11  2  0  0  0  0
 10 12  2  0  0  0  0
 10 13  1  0  0  0  0
 13 31  1  0  0  0  0
 13 32  1  0  0  0  0
 14 18  1  0  0  0  0
 14 15  1  0  0  0  0
 15 16  2  0  0  0  0
 15 33  1  0  0  0  0
 16 17  1  0  0  0  0
 17 18  2  0  0  0  0
 17 34  1  0  0  0  0
M  END
> <s_m_source_file>
AV-unprocessed.smi

> <i_m_source_file_index>
3002

> <i_lp_mmshare_version>
43012

> <i_f3d_flags>
0

> <s_epik_input>
bjFbY0hdbltjSF1uMVtDQEhdKFtDSDNdKUMoPU8pW05IXVtDSDJdW0NAQEhdKFtDSDJdMilbQ0gyXVtDSDJdUzIoPU8pPU8=

> <s_epik_cmdline>
J2VwaWtfcHl0aG9uJywgJy1waCcsICc3LjAnLCAnLXRuJywgJzgnLCAnLW1hJywgJzIwMCcsICctbWV0YWxfYmluZGluZycsICctaW1hZScsICc8aW5maWxlLm1hZT4nLCAnLW9tYWUnLCAnPG91dGZpbGUubWFlPic=

> <r_lp_tautomer_probability>
1

> <r_epik_Ionization_Penalty>
1.1748e-05

> <r_epik_Ionization_Penalty_Charging>
0

> <r_epik_Ionization_Penalty_Neutral>
1.1748e-05

> <r_epik_State_Penalty>
-0

> <r_epik_Charging_Adjusted_Penalty>
0

> <i_epik_Tot_Q>
0

> <i_epik_Tot_abs_Q>
0

> <r_epik_Metal_State_Penalty>
-0

> <b_epik_Metal_Only>
0

> <s_lp_Force_Field>
OPLS_2005

> <r_lp_Energy>
11.0715

> <b_lp_Chiralities_Consistent>
1

> <s_lp_Variant>
AV-unprocessed.smi:3002-1

> <Gold.Version>
5.8.1

> <Gold.Id.Protein>
6NUR|6NUR_protein|mol2

> <Gold.PLP.Fitness>
37.9720

> <Gold.PLP.PLP>
-30.7283

> <Gold.PLP.part.hbond>
-2.9690

> <Gold.PLP.part.metal>
0.0000

> <Gold.PLP.part.buried>
-4.1669

> <Gold.PLP.part.nonpolar>
-24.0603

> <Gold.PLP.part.repulsive>
0.5284

> <Gold.PLP.ligand.clash>
0.0000

> <Gold.PLP.ligand.torsion>
0.5254

> <Gold.PLP.Chemscore.Hbond>
1.6400

> <Gold.PLP.Chemscore.CHOScore>
1.0845

> <Gold.PLP.Chemscore.Metal>
0.0000

> <Gold.Chemscore.Hbonds>
donor molecule, donor type, donor heavy atom, donor atom, acceptor molecule, acceptor atom, score
      P1  H  7997  8008       L1     4  0.83
      P1  H  8011  8017       L1    11  0.13
      L1  C    17    34       P1  8028  0.47
      L1  C    17    34       P1  8029  0.70

> <Gold.PLP.Chemscore.Internal.Correction>
0.1209

> <Gold.Rescore>
     Score         DG    S(hbond)    S(metal)    S(lipo)     H(rot)  DE(clash)    DE(int)     intcor
      8.37     -10.36       1.78        0.00      43.24       2.39       0.23       1.76       ----

> <Gold.Chemscore.Fitness>
8.3683

> <Gold.Chemscore.DG>
-10.3563

> <Gold.Chemscore.ZeroCoef>
-5.4800

> <Gold.Chemscore.Hbond>
1.7807

> <Gold.Chemscore.Metal>
0.0000

> <Gold.Chemscore.Lipo>
43.2387

> <Gold.Chemscore.Internal_Hbond>
0.0000

> <Gold.Chemscore.DEClash>
0.2276

> <Gold.Chemscore.DEInternal>
1.7604

> <Gold.Chemscore.Rot>
2.3946

> <Gold.Chemscore.Internal.Correction>
   9.000000E+99

> <Gold.Chemscore.Hbonds>
donor molecule, donor type, donor heavy atom, donor atom, acceptor molecule, acceptor atom, score
      P1  H  7997  8008       L1     4  0.77
      P1  H  8011  8017       L1    11  0.14

> <Gold.Chemscore.Hbond.Weighted>
-5.9475

> <Gold.Chemscore.Metal.Weighted>
-0.0000

> <Gold.Chemscore.Lipo.Weighted>
-5.0589

> <Gold.Chemscore.Internal_Hbond.Weighted>
0.0000

> <Gold.Chemscore.DEClash.Weighted>
0.2276

> <Gold.Chemscore.DEInternal.Weighted>
1.7604

> <Gold.Chemscore.Rot.Weighted>
6.1301

> <Gold.Chemscore.Internal.Correction.Weighted>
   9.000000E+99

> <Gold.Protein.RotatedTorsions>
[ 6907 6896 6895 6894 ] final  -11.26 input  -60.11 | X-H torsion
[ 7974 7965 7964 7962 ] final  -83.50 input  175.53 | X-H torsion
[ 8008 7997 7996 7995 ] final  -87.54 input   59.86 | X-H torsion
[ 10167 10162 10161 10158 ] final  154.01 input  -65.29 | X-H torsion
[ 10718 10713 10712 10709 ] final -147.59 input   66.30 | X-H torsion
[ 10763 10752 10751 10750 ] final   44.50 input  -60.55 | X-H torsion
[ 11005 11000 10999 10996 ] final -162.20 input  -57.11 | X-H torsion

> <Gold.Protein.ActiveResidues>
 VAL166  LYS551  ARG553  GLY616  TRP617  ASP618  TYR619  PRO620  LYS621  CYS622 
 ASP623  PHE694  ASN695  SER759  ASP760  ASP761  ALA762  ILE779  LEU786  VAL792 
 PHE793  MET794  SER795  GLU796  ALA797  LYS798  CYS799  TRP800  GLU811  SER814 

> <Gold.Protein.RotatedAtoms>
  151.3891  135.0953  159.9520 H   0  0  0  0  0  0  0  0  0  0  0  0  # atno 6907 bound_to 6896
  152.5085  133.8998  159.7445 H   0  0  0  0  0  0  0  0  0  0  0  0  # atno 6908 bound_to 6896
  150.9447  133.6561  159.2812 H   0  0  0  0  0  0  0  0  0  0  0  0  # atno 6909 bound_to 6896
  145.5192  140.9533  143.1664 H   0  0  0  0  0  0  0  0  0  0  0  0  # atno 7974 bound_to 7965
  154.6644  140.0564  157.0097 H   0  0  0  0  0  0  0  0  0  0  0  0  # atno 8008 bound_to 7997
  155.1181  140.3245  155.4485 H   0  0  0  0  0  0  0  0  0  0  0  0  # atno 8009 bound_to 7997
  156.2631  140.2002  156.6304 H   0  0  0  0  0  0  0  0  0  0  0  0  # atno 8010 bound_to 7997
  139.4825  144.5224  151.7855 H   0  0  0  0  0  0  0  0  0  0  0  0  # atno 10167 bound_to 10162
  156.4095  130.7974  151.2191 H   0  0  0  0  0  0  0  0  0  0  0  0  # atno 10718 bound_to 10713
  152.9840  135.6069  154.3284 H   0  0  0  0  0  0  0  0  0  0  0  0  # atno 10763 bound_to 10752
  154.2989  135.2773  155.2622 H   0  0  0  0  0  0  0  0  0  0  0  0  # atno 10764 bound_to 10752
  154.4884  135.5899  153.6497 H   0  0  0  0  0  0  0  0  0  0  0  0  # atno 10765 bound_to 10752
  140.6119  134.4840  157.5216 H   0  0  0  0  0  0  0  0  0  0  0  0  # atno 11005 bound_to 11000
  144.7685  139.6789  143.7204 LP  0  0  0  0  0  0  0  0  0  0  0  0  # atno 17320 bound_to 7965
  146.2117  139.5478  142.9677 LP  0  0  0  0  0  0  0  0  0  0  0  0  # atno 17321 bound_to 7965
  140.4739  144.1546  150.5922 LP  0  0  0  0  0  0  0  0  0  0  0  0  # atno 17342 bound_to 10162
  140.4352  143.2551  151.9545 LP  0  0  0  0  0  0  0  0  0  0  0  0  # atno 17343 bound_to 10162
  157.7506  131.0262  150.3952 LP  0  0  0  0  0  0  0  0  0  0  0  0  # atno 17370 bound_to 10713
  156.4247  130.3960  149.6801 LP  0  0  0  0  0  0  0  0  0  0  0  0  # atno 17371 bound_to 10713
  139.9188  134.8190  156.1277 LP  0  0  0  0  0  0  0  0  0  0  0  0  # atno 17394 bound_to 11000
  141.0802  133.6758  156.2320 LP  0  0  0  0  0  0  0  0  0  0  0  0  # atno 17395 bound_to 11000

$$$$
