AV-unprocessed.smi:58|AV-procd|sdf|584|dock3
  -GOLD-   2262016483D 1   1.00000     0.00000
 Structure written by MMmdl.
 32 33  0  0  0  0  0  0  0  0  1 V2000
  151.6385  144.5848  159.1590 C   0  0  0  0  0  0  0  0  0  0  0  0
  151.6639  143.2564  158.5858 N   0  0  0  0  0  0  0  0  0  0  0  0
  152.1965  142.1005  159.1138 C   0  0  0  0  0  0  0  0  0  0  0  0
  151.9878  141.1023  158.2048 C   0  0  0  0  0  0  0  0  0  0  0  0
  152.3864  139.7574  158.3520 N   0  0  0  0  0  0  0  0  0  0  0  0
  151.2897  141.7531  157.1409 C   0  0  0  0  0  0  0  0  0  0  0  0
  150.9008  141.0103  155.8944 C   0  0  0  0  0  0  0  0  0  0  0  0
  151.7056  140.2332  155.3799 O   0  0  0  0  0  0  0  0  0  0  0  0
  149.6503  141.2053  155.4146 N   0  0  0  0  0  0  0  0  0  0  0  0
  148.6638  142.1382  155.9661 C   0  0  0  0  0  0  0  0  0  0  0  0
  147.3680  141.9044  155.1903 C   0  0  0  0  0  0  0  0  0  0  0  0
  147.8231  141.3009  153.8686 C   0  0  0  0  0  0  0  0  0  0  0  0
  149.1197  140.5539  154.2093 C   0  0  2  0  0  0  0  0  0  0  0  0
  148.9332  139.0267  154.3805 C   0  0  0  0  0  0  0  0  0  0  0  0
  148.5126  138.4012  153.1850 O   0  0  0  0  0  0  0  0  0  0  0  0
  151.1193  143.0485  157.3700 N   0  0  0  0  0  0  0  0  0  0  0  0
  152.0684  144.5680  160.1608 H   0  0  0  0  0  0  0  0  0  0  0  0
  150.6100  144.9419  159.2209 H   0  0  0  0  0  0  0  0  0  0  0  0
  152.2181  145.2659  158.5354 H   0  0  0  0  0  0  0  0  0  0  0  0
  152.6792  142.0855  160.0799 H   0  0  0  0  0  0  0  0  0  0  0  0
  152.8732  139.4334  159.1759 H   0  0  0  0  0  0  0  0  0  0  0  0
  152.1563  139.0538  157.6650 H   0  0  0  0  0  0  0  0  0  0  0  0
  148.5121  141.9904  157.0364 H   0  0  0  0  0  0  0  0  0  0  0  0
  149.0106  143.1602  155.8080 H   0  0  0  0  0  0  0  0  0  0  0  0
  146.7449  141.1874  155.7260 H   0  0  0  0  0  0  0  0  0  0  0  0
  146.7845  142.8161  155.0594 H   0  0  0  0  0  0  0  0  0  0  0  0
  147.0639  140.6653  153.4116 H   0  0  0  0  0  0  0  0  0  0  0  0
  148.0430  142.1049  153.1650 H   0  0  0  0  0  0  0  0  0  0  0  0
  149.8271  140.7102  153.3929 H   0  0  0  0  0  0  0  0  0  0  0  0
  149.8787  138.5753  154.6825 H   0  0  0  0  0  0  0  0  0  0  0  0
  148.2185  138.7962  155.1699 H   0  0  0  0  0  0  0  0  0  0  0  0
  149.0766  138.6863  152.4824 H   0  0  0  0  0  0  0  0  0  0  0  0
  1  2  1  0  0  0  0
  1 17  1  0  0  0  0
  1 18  1  0  0  0  0
  1 19  1  0  0  0  0
  2 16  1  0  0  0  0
  2  3  1  0  0  0  0
  3  4  2  0  0  0  0
  3 20  1  0  0  0  0
  4  5  1  0  0  0  0
  4  6  1  0  0  0  0
  5 21  1  0  0  0  0
  5 22  1  0  0  0  0
  6  7  1  0  0  0  0
  6 16  2  0  0  0  0
  7  8  2  0  0  0  0
  7  9  1  0  0  0  0
  9 13  1  0  0  0  0
  9 10  1  0  0  0  0
 10 11  1  0  0  0  0
 10 23  1  0  0  0  0
 10 24  1  0  0  0  0
 11 12  1  0  0  0  0
 11 25  1  0  0  0  0
 11 26  1  0  0  0  0
 12 13  1  0  0  0  0
 12 27  1  0  0  0  0
 12 28  1  0  0  0  0
 13 14  1  0  0  0  0
 13 29  1  0  0  0  0
 14 15  1  0  0  0  0
 14 30  1  0  0  0  0
 14 31  1  0  0  0  0
 15 32  1  0  0  0  0
M  END
> <s_m_source_file>
AV-unprocessed.smi

> <i_m_source_file_index>
58

> <i_lp_mmshare_version>
43012

> <i_f3d_flags>
0

> <s_epik_input>
W0NIM11uMVtjSF1jKFtOSDJdKWMobjEpQyg9TylOMltDSDJdW0NIMl1bQ0gyXVtDQEhdMltDSDJdW09IXQ==

> <s_epik_cmdline>
J2VwaWtfcHl0aG9uJywgJy1waCcsICc3LjAnLCAnLXRuJywgJzgnLCAnLW1hJywgJzIwMCcsICctbWV0YWxfYmluZGluZycsICctaW1hZScsICc8aW5maWxlLm1hZT4nLCAnLW9tYWUnLCAnPG91dGZpbGUubWFlPic=

> <r_lp_tautomer_probability>
1

> <r_epik_Ionization_Penalty>
5.64206e-05

> <r_epik_Ionization_Penalty_Charging>
0

> <r_epik_Ionization_Penalty_Neutral>
5.64206e-05

> <r_epik_State_Penalty>
-0

> <r_epik_Charging_Adjusted_Penalty>
0

> <i_epik_Tot_Q>
0

> <i_epik_Tot_abs_Q>
0

> <r_epik_Metal_State_Penalty>
-0

> <b_epik_Metal_Only>
0

> <s_lp_Force_Field>
OPLS_2005

> <r_lp_Energy>
44.4621

> <b_lp_Chiralities_Consistent>
1

> <s_lp_Variant>
AV-unprocessed.smi:58-2

> <Gold.Version>
5.8.1

> <Gold.Id.Protein>
6NUR|6NUR_protein|mol2

> <Gold.PLP.Fitness>
35.3608

> <Gold.PLP.PLP>
-30.8113

> <Gold.PLP.part.hbond>
-3.0000

> <Gold.PLP.part.metal>
0.0000

> <Gold.PLP.part.buried>
-0.5833

> <Gold.PLP.part.nonpolar>
-28.2457

> <Gold.PLP.part.repulsive>
0.2324

> <Gold.PLP.ligand.clash>
0.0000

> <Gold.PLP.ligand.torsion>
0.7718

> <Gold.PLP.Chemscore.Hbond>
1.8800

> <Gold.PLP.Chemscore.CHOScore>
0.0000

> <Gold.PLP.Chemscore.Metal>
0.0000

> <Gold.Chemscore.Hbonds>
donor molecule, donor type, donor heavy atom, donor atom, acceptor molecule, acceptor atom, score
      L1  H    15    32       P1  7957  1.00
      P1  H  7989  7998       L1     8  0.88

> <Gold.PLP.Chemscore.Internal.Correction>
0.4532

> <Gold.Rescore>
     Score         DG    S(hbond)    S(metal)    S(lipo)     H(rot)  DE(clash)    DE(int)     intcor
     13.16     -14.92       1.85        0.00      60.49       1.49       0.69       1.07       ----

> <Gold.Chemscore.Fitness>
13.1597

> <Gold.Chemscore.DG>
-14.9163

> <Gold.Chemscore.ZeroCoef>
-5.4800

> <Gold.Chemscore.Hbond>
1.8487

> <Gold.Chemscore.Metal>
0.0000

> <Gold.Chemscore.Lipo>
60.4947

> <Gold.Chemscore.Internal_Hbond>
0.0000

> <Gold.Chemscore.DEClash>
0.6893

> <Gold.Chemscore.DEInternal>
1.0673

> <Gold.Chemscore.Rot>
1.4907

> <Gold.Chemscore.Internal.Correction>
   9.000000E+99

> <Gold.Chemscore.Hbonds>
donor molecule, donor type, donor heavy atom, donor atom, acceptor molecule, acceptor atom, score
      L1  H    15    32       P1  7957  0.83
      P1  H  7989  7998       L1     8  0.22

> <Gold.Chemscore.Hbond.Weighted>
-6.1747

> <Gold.Chemscore.Metal.Weighted>
-0.0000

> <Gold.Chemscore.Lipo.Weighted>
-7.0779

> <Gold.Chemscore.Internal_Hbond.Weighted>
0.0000

> <Gold.Chemscore.DEClash.Weighted>
0.6893

> <Gold.Chemscore.DEInternal.Weighted>
1.0673

> <Gold.Chemscore.Rot.Weighted>
3.8163

> <Gold.Chemscore.Internal.Correction.Weighted>
   9.000000E+99

> <Gold.Protein.RotatedTorsions>
[ 6907 6896 6895 6894 ] final   23.07 input  -60.11 | X-H torsion
[ 7974 7965 7964 7962 ] final -119.82 input  175.53 | X-H torsion
[ 8008 7997 7996 7995 ] final -161.06 input   59.86 | X-H torsion
[ 10167 10162 10161 10158 ] final  160.17 input  -65.29 | X-H torsion
[ 10718 10713 10712 10709 ] final -132.74 input   66.30 | X-H torsion
[ 10763 10752 10751 10750 ] final   85.94 input  -60.55 | X-H torsion
[ 11005 11000 10999 10996 ] final  103.17 input  -57.11 | X-H torsion

> <Gold.Protein.ActiveResidues>
 VAL166  LYS551  ARG553  GLY616  TRP617  ASP618  TYR619  PRO620  LYS621  CYS622 
 ASP623  PHE694  ASN695  SER759  ASP760  ASP761  ALA762  ILE779  LEU786  VAL792 
 PHE793  MET794  SER795  GLU796  ALA797  LYS798  CYS799  TRP800  GLU811  SER814 

> <Gold.Protein.RotatedAtoms>
  151.9368  135.0231  160.0532 H   0  0  0  0  0  0  0  0  0  0  0  0  # atno 6907 bound_to 6896
  152.2071  133.4879  159.5098 H   0  0  0  0  0  0  0  0  0  0  0  0  # atno 6908 bound_to 6896
  150.6967  134.1433  159.4156 H   0  0  0  0  0  0  0  0  0  0  0  0  # atno 6909 bound_to 6896
  145.0582  140.8270  143.4168 H   0  0  0  0  0  0  0  0  0  0  0  0  # atno 7974 bound_to 7965
  155.7866  140.0872  157.2031 H   0  0  0  0  0  0  0  0  0  0  0  0  # atno 8008 bound_to 7997
  154.3987  140.1498  156.3172 H   0  0  0  0  0  0  0  0  0  0  0  0  # atno 8009 bound_to 7997
  155.8600  140.3430  155.5753 H   0  0  0  0  0  0  0  0  0  0  0  0  # atno 8010 bound_to 7997
  139.4838  144.4660  151.8641 H   0  0  0  0  0  0  0  0  0  0  0  0  # atno 10167 bound_to 10162
  156.2377  130.7076  151.0924 H   0  0  0  0  0  0  0  0  0  0  0  0  # atno 10718 bound_to 10713
  153.1523  135.4599  154.9654 H   0  0  0  0  0  0  0  0  0  0  0  0  # atno 10763 bound_to 10752
  154.7834  135.3196  154.7942 H   0  0  0  0  0  0  0  0  0  0  0  0  # atno 10764 bound_to 10752
  153.8446  135.6927  153.4853 H   0  0  0  0  0  0  0  0  0  0  0  0  # atno 10765 bound_to 10752
  139.8782  134.9253  156.5169 H   0  0  0  0  0  0  0  0  0  0  0  0  # atno 11005 bound_to 11000
  145.1441  139.2554  143.5475 LP  0  0  0  0  0  0  0  0  0  0  0  0  # atno 17320 bound_to 7965
  146.3523  140.1126  142.8603 LP  0  0  0  0  0  0  0  0  0  0  0  0  # atno 17321 bound_to 7965
  140.4125  144.2350  150.5888 LP  0  0  0  0  0  0  0  0  0  0  0  0  # atno 17342 bound_to 10162
  140.4952  143.2335  151.8759 LP  0  0  0  0  0  0  0  0  0  0  0  0  # atno 17343 bound_to 10162
  157.7161  131.0708  150.6319 LP  0  0  0  0  0  0  0  0  0  0  0  0  # atno 17370 bound_to 10713
  156.6391  130.4453  149.5759 LP  0  0  0  0  0  0  0  0  0  0  0  0  # atno 17371 bound_to 10713
  140.8479  133.8155  155.9139 LP  0  0  0  0  0  0  0  0  0  0  0  0  # atno 17394 bound_to 11000
  140.9173  134.2185  157.4948 LP  0  0  0  0  0  0  0  0  0  0  0  0  # atno 17395 bound_to 11000

$$$$
