AV-unprocessed.smi:217|AV-procd|sdf|1661|dock3
  -GOLD-   2262020 53D 1   1.00000     0.00000
 Structure written by MMmdl.
 57 61  0  0  0  0  0  0  0  0  1 V2000
  146.9925  132.7618  156.9941 O   0  0  0  0  0  0  0  0  0  0  0  0
  147.5161  132.0104  155.9184 C   0  0  0  0  0  0  0  0  0  0  0  0
  148.7130  132.7240  155.2685 C   0  0  0  0  0  0  0  0  0  0  0  0
  149.2744  131.8477  154.1298 C   0  0  0  0  0  0  0  0  0  0  0  0
  148.2906  131.5677  153.1544 O   0  0  0  0  0  0  0  0  0  0  0  0
  148.4821  134.2079  154.9041 C   0  0  0  0  0  0  0  0  0  0  0  0
  149.8842  134.5449  155.4168 C   0  0  0  0  0  0  0  0  0  0  0  0
  150.1679  135.8125  156.0238 N   0  0  0  0  0  0  0  0  0  0  0  0
  150.4734  136.0427  157.3461 C   0  0  0  0  0  0  0  0  0  0  0  0
  150.7471  137.2830  157.6465 N   0  0  0  0  0  0  0  0  0  0  0  0
  150.6535  137.9559  156.4337 C   0  0  0  0  0  0  0  0  0  0  0  0
  150.8440  139.3090  156.0320 C   0  0  0  0  0  0  0  0  0  0  0  0
  151.1676  140.2979  156.9049 N   0  0  0  0  0  0  0  0  0  0  0  0
  151.3731  141.6094  156.2921 C   0  0  0  0  0  0  0  0  0  0  0  0
  151.3512  142.7223  157.3526 C   0  0  0  0  0  0  0  0  0  0  0  0
  152.3716  142.4516  158.4766 C   0  0  0  0  0  0  0  0  0  0  0  0
  152.3380  143.5569  159.5514 C   0  0  1  0  0  0  0  0  0  0  0  0
  152.3489  144.9852  159.0043 C   0  0  0  0  0  0  0  0  0  0  0  0
  151.7038  145.7984  160.1149 C   0  0  0  0  0  0  0  0  0  0  0  0
  151.0001  144.7510  160.9823 C   0  0  0  0  0  0  0  0  0  0  0  0
  151.1085  143.5322  160.2600 O   0  0  0  0  0  0  0  0  0  0  0  0
  152.0926  141.0562  159.0713 C   0  0  0  0  0  0  0  0  0  0  0  0
  152.1018  139.9703  157.9834 C   0  0  0  0  0  0  0  0  0  0  0  0
  150.6931  139.5936  154.7101 N   0  0  0  0  0  0  0  0  0  0  0  0
  150.3732  138.6297  153.8423 C   0  0  0  0  0  0  0  0  0  0  0  0
  150.1604  137.3340  154.0763 N   0  0  0  0  0  0  0  0  0  0  0  0
  150.3109  137.0391  155.3992 C   0  0  0  0  0  0  0  0  0  0  0  0
  149.7678  133.2703  156.2562 C   0  0  0  0  0  0  0  0  0  0  0  0
  147.6875  132.9238  157.6139 H   0  0  0  0  0  0  0  0  0  0  0  0
  147.7858  131.0168  156.2768 H   0  0  0  0  0  0  0  0  0  0  0  0
  146.7139  131.8647  155.1942 H   0  0  0  0  0  0  0  0  0  0  0  0
  150.1057  132.3416  153.6266 H   0  0  0  0  0  0  0  0  0  0  0  0
  149.6710  130.9055  154.5088 H   0  0  0  0  0  0  0  0  0  0  0  0
  148.7225  131.4208  152.3267 H   0  0  0  0  0  0  0  0  0  0  0  0
  148.3328  134.4069  153.8423 H   0  0  0  0  0  0  0  0  0  0  0  0
  147.6981  134.6783  155.5009 H   0  0  0  0  0  0  0  0  0  0  0  0
  150.6240  134.4197  154.6243 H   0  0  0  0  0  0  0  0  0  0  0  0
  150.4840  135.2575  158.0882 H   0  0  0  0  0  0  0  0  0  0  0  0
  152.3344  141.6074  155.7768 H   0  0  0  0  0  0  0  0  0  0  0  0
  150.6167  141.8204  155.5370 H   0  0  0  0  0  0  0  0  0  0  0  0
  151.5600  143.6795  156.8745 H   0  0  0  0  0  0  0  0  0  0  0  0
  150.3483  142.8004  157.7746 H   0  0  0  0  0  0  0  0  0  0  0  0
  153.3681  142.4398  158.0323 H   0  0  0  0  0  0  0  0  0  0  0  0
  153.1566  143.4242  160.2617 H   0  0  0  0  0  0  0  0  0  0  0  0
  153.3507  145.3348  158.7535 H   0  0  0  0  0  0  0  0  0  0  0  0
  151.7355  145.0482  158.1043 H   0  0  0  0  0  0  0  0  0  0  0  0
  152.4514  146.3374  160.6981 H   0  0  0  0  0  0  0  0  0  0  0  0
  151.0031  146.5289  159.7095 H   0  0  0  0  0  0  0  0  0  0  0  0
  151.5063  144.6460  161.9429 H   0  0  0  0  0  0  0  0  0  0  0  0
  149.9559  144.9991  161.1732 H   0  0  0  0  0  0  0  0  0  0  0  0
  152.8351  140.8073  159.8298 H   0  0  0  0  0  0  0  0  0  0  0  0
  151.1248  141.0572  159.5748 H   0  0  0  0  0  0  0  0  0  0  0  0
  151.8353  139.0117  158.4307 H   0  0  0  0  0  0  0  0  0  0  0  0
  153.1066  139.8668  157.5712 H   0  0  0  0  0  0  0  0  0  0  0  0
  150.2723  138.9413  152.8132 H   0  0  0  0  0  0  0  0  0  0  0  0
  149.3591  133.4600  157.2508 H   0  0  0  0  0  0  0  0  0  0  0  0
  150.6850  132.6838  156.3174 H   0  0  0  0  0  0  0  0  0  0  0  0
  1  2  1  0  0  0  0
  1 29  1  0  0  0  0
  2  3  1  0  0  0  0
  2 30  1  0  0  0  0
  2 31  1  0  0  0  0
  3 28  1  0  0  0  0
  3  4  1  0  0  0  0
  3  6  1  0  0  0  0
  4  5  1  0  0  0  0
  4 32  1  0  0  0  0
  4 33  1  0  0  0  0
  5 34  1  0  0  0  0
  6  7  1  0  0  0  0
  6 35  1  0  0  0  0
  6 36  1  0  0  0  0
  7  8  1  0  0  0  0
  7 28  1  0  0  0  0
  7 37  1  0  0  0  0
  8 27  1  0  0  0  0
  8  9  1  0  0  0  0
  9 10  2  0  0  0  0
  9 38  1  0  0  0  0
 10 11  1  0  0  0  0
 11 27  2  0  0  0  0
 11 12  1  0  0  0  0
 12 13  1  0  0  0  0
 12 24  2  0  0  0  0
 13 23  1  0  0  0  0
 13 14  1  0  0  0  0
 14 15  1  0  0  0  0
 14 39  1  0  0  0  0
 14 40  1  0  0  0  0
 15 16  1  0  0  0  0
 15 41  1  0  0  0  0
 15 42  1  0  0  0  0
 16 17  1  0  0  0  0
 16 22  1  0  0  0  0
 16 43  1  0  0  0  0
 17 21  1  0  0  0  0
 17 18  1  0  0  0  0
 17 44  1  0  0  0  0
 18 19  1  0  0  0  0
 18 45  1  0  0  0  0
 18 46  1  0  0  0  0
 19 20  1  0  0  0  0
 19 47  1  0  0  0  0
 19 48  1  0  0  0  0
 20 21  1  0  0  0  0
 20 49  1  0  0  0  0
 20 50  1  0  0  0  0
 22 23  1  0  0  0  0
 22 51  1  0  0  0  0
 22 52  1  0  0  0  0
 23 53  1  0  0  0  0
 23 54  1  0  0  0  0
 24 25  1  0  0  0  0
 25 26  2  0  0  0  0
 25 55  1  0  0  0  0
 26 27  1  0  0  0  0
 28 56  1  0  0  0  0
 28 57  1  0  0  0  0
M  END
> <s_m_source_file>
AV-unprocessed.smi

> <i_m_source_file_index>
217

> <i_lp_mmshare_version>
43012

> <i_f3d_flags>
0

> <s_epik_input>
W09IXVtDSDJdQzEoW0NIMl1bT0hdKVtDSDJdW0NIXShbQ0gyXTEpbihbY0hdbjIpYyhjMjMpbltjSF1uYzNONFtDSDJdW0NIMl1bQ0hdKFtDSDJdW0NIMl00KVtDQEBIXTVbQ0gyXVtDSDJdW0NIMl1PNQ==

> <s_epik_cmdline>
J2VwaWtfcHl0aG9uJywgJy1waCcsICc3LjAnLCAnLXRuJywgJzgnLCAnLW1hJywgJzIwMCcsICctbWV0YWxfYmluZGluZycsICctaW1hZScsICc8aW5maWxlLm1hZT4nLCAnLW9tYWUnLCAnPG91dGZpbGUubWFlPic=

> <r_lp_tautomer_probability>
1

> <r_epik_Ionization_Penalty>
0.0037022

> <r_epik_Ionization_Penalty_Charging>
0

> <r_epik_Ionization_Penalty_Neutral>
0.0037022

> <r_epik_State_Penalty>
0.00257654

> <r_epik_Charging_Adjusted_Penalty>
0.00257654

> <i_epik_Tot_Q>
0

> <i_epik_Tot_abs_Q>
0

> <r_epik_Metal_State_Penalty>
-0

> <b_epik_Metal_Only>
0

> <s_lp_Force_Field>
OPLS_2005

> <r_lp_Energy>
55.0996

> <b_lp_Chiralities_Consistent>
1

> <s_lp_Variant>
AV-unprocessed.smi:217-2

> <Gold.Version>
5.8.1

> <Gold.Id.Protein>
6NUR|6NUR_protein|mol2

> <Gold.PLP.Fitness>
47.4749

> <Gold.PLP.PLP>
-38.9462

> <Gold.PLP.part.hbond>
-2.8009

> <Gold.PLP.part.metal>
0.0000

> <Gold.PLP.part.buried>
-4.1197

> <Gold.PLP.part.nonpolar>
-35.4250

> <Gold.PLP.part.repulsive>
3.4108

> <Gold.PLP.ligand.clash>
0.0000

> <Gold.PLP.ligand.torsion>
0.6865

> <Gold.PLP.Chemscore.Hbond>
1.9913

> <Gold.PLP.Chemscore.CHOScore>
1.0000

> <Gold.PLP.Chemscore.Metal>
0.0000

> <Gold.Chemscore.Hbonds>
donor molecule, donor type, donor heavy atom, donor atom, acceptor molecule, acceptor atom, score
      L1  H     5    34       P1 10747  0.78
      P1  H  7989  7998       L1    24  1.00
      L1  C    25    55       P1  7957  1.00

> <Gold.PLP.Chemscore.Internal.Correction>
0.9279

> <Gold.Rescore>
     Score         DG    S(hbond)    S(metal)    S(lipo)     H(rot)  DE(clash)    DE(int)     intcor
     11.76     -14.52       1.11        0.00     117.45       3.28       1.44       1.33       ----

> <Gold.Chemscore.Fitness>
11.7605

> <Gold.Chemscore.DG>
-14.5223

> <Gold.Chemscore.ZeroCoef>
-5.4800

> <Gold.Chemscore.Hbond>
1.1107

> <Gold.Chemscore.Metal>
0.0000

> <Gold.Chemscore.Lipo>
117.4508

> <Gold.Chemscore.Internal_Hbond>
0.0000

> <Gold.Chemscore.DEClash>
1.4354

> <Gold.Chemscore.DEInternal>
1.3263

> <Gold.Chemscore.Rot>
3.2848

> <Gold.Chemscore.Internal.Correction>
   9.000000E+99

> <Gold.Chemscore.Hbonds>
donor molecule, donor type, donor heavy atom, donor atom, acceptor molecule, acceptor atom, score
      L1  H     5    34       P1 10747  0.69
      P1  H  7989  7998       L1    24  0.25

> <Gold.Chemscore.Hbond.Weighted>
-3.7097

> <Gold.Chemscore.Metal.Weighted>
-0.0000

> <Gold.Chemscore.Lipo.Weighted>
-13.7417

> <Gold.Chemscore.Internal_Hbond.Weighted>
0.0000

> <Gold.Chemscore.DEClash.Weighted>
1.4354

> <Gold.Chemscore.DEInternal.Weighted>
1.3263

> <Gold.Chemscore.Rot.Weighted>
8.4092

> <Gold.Chemscore.Internal.Correction.Weighted>
   9.000000E+99

> <Gold.Protein.RotatedTorsions>
[ 6907 6896 6895 6894 ] final  -96.88 input  -60.11 | X-H torsion
[ 7974 7965 7964 7962 ] final  -31.14 input  175.53 | X-H torsion
[ 8008 7997 7996 7995 ] final  -62.53 input   59.86 | X-H torsion
[ 10167 10162 10161 10158 ] final  -66.70 input  -65.29 | X-H torsion
[ 10718 10713 10712 10709 ] final  -61.79 input   66.30 | X-H torsion
[ 10763 10752 10751 10750 ] final  -71.79 input  -60.55 | X-H torsion
[ 11005 11000 10999 10996 ] final  150.73 input  -57.11 | X-H torsion

> <Gold.Protein.ActiveResidues>
 VAL166  LYS551  ARG553  GLY616  TRP617  ASP618  TYR619  PRO620  LYS621  CYS622 
 ASP623  PHE694  ASN695  SER759  ASP760  ASP761  ALA762  ILE779  LEU786  VAL792 
 PHE793  MET794  SER795  GLU796  ALA797  LYS798  CYS799  TRP800  GLU811  SER814 

> <Gold.Protein.RotatedAtoms>
  150.7000  134.1435  159.4113 H   0  0  0  0  0  0  0  0  0  0  0  0  # atno 6907 bound_to 6896
  151.9419  135.0207  160.0545 H   0  0  0  0  0  0  0  0  0  0  0  0  # atno 6908 bound_to 6896
  152.2086  133.4859  159.5134 H   0  0  0  0  0  0  0  0  0  0  0  0  # atno 6909 bound_to 6896
  146.1090  140.5630  142.8787 H   0  0  0  0  0  0  0  0  0  0  0  0  # atno 7974 bound_to 7965
  154.4505  140.0994  156.6601 H   0  0  0  0  0  0  0  0  0  0  0  0  # atno 8008 bound_to 7997
  155.5302  140.3481  155.4406 H   0  0  0  0  0  0  0  0  0  0  0  0  # atno 8009 bound_to 7997
  156.0669  140.1340  156.9864 H   0  0  0  0  0  0  0  0  0  0  0  0  # atno 8010 bound_to 7997
  140.5637  143.2314  151.6676 H   0  0  0  0  0  0  0  0  0  0  0  0  # atno 10167 bound_to 10162
  156.0898  130.4202  150.1044 H   0  0  0  0  0  0  0  0  0  0  0  0  # atno 10718 bound_to 10713
  154.4366  135.5951  153.6102 H   0  0  0  0  0  0  0  0  0  0  0  0  # atno 10763 bound_to 10752
  152.9802  135.5988  154.3774 H   0  0  0  0  0  0  0  0  0  0  0  0  # atno 10764 bound_to 10752
  154.3618  135.2841  155.2294 H   0  0  0  0  0  0  0  0  0  0  0  0  # atno 10765 bound_to 10752
  140.1156  134.8896  157.2000 H   0  0  0  0  0  0  0  0  0  0  0  0  # atno 11005 bound_to 11000
  144.7495  140.5154  143.6812 LP  0  0  0  0  0  0  0  0  0  0  0  0  # atno 17320 bound_to 7965
  145.5703  139.1483  143.3292 LP  0  0  0  0  0  0  0  0  0  0  0  0  # atno 17321 bound_to 7965
  139.5082  144.3617  152.0555 LP  0  0  0  0  0  0  0  0  0  0  0  0  # atno 17342 bound_to 10162
  140.2747  144.3926  150.6139 LP  0  0  0  0  0  0  0  0  0  0  0  0  # atno 17343 bound_to 10162
  156.9056  130.9635  151.3570 LP  0  0  0  0  0  0  0  0  0  0  0  0  # atno 17370 bound_to 10713
  157.6044  130.8536  149.8852 LP  0  0  0  0  0  0  0  0  0  0  0  0  # atno 17371 bound_to 10713
  140.3032  134.3108  155.7284 LP  0  0  0  0  0  0  0  0  0  0  0  0  # atno 17394 bound_to 11000
  141.2140  133.7605  156.9671 LP  0  0  0  0  0  0  0  0  0  0  0  0  # atno 17395 bound_to 11000

$$$$
