AV-unprocessed.smi:332|AV-procd|sdf|2359|dock3
  -GOLD-   2262022273D 1   1.00000     0.00000
 Structure written by MMmdl.
 42 44  0  0  0  0  0  0  0  0  1 V2000
  153.9504  141.5663  161.2870 C   0  0  0  0  0  0  0  0  0  0  0  0
  153.4637  141.8587  159.8581 C   0  0  1  0  0  0  0  0  0  0  0  0
  153.3965  140.5950  159.1263 N   0  0  0  0  0  0  0  0  0  0  0  0
  152.4069  139.6916  159.2024 C   0  0  0  0  0  0  0  0  0  0  0  0
  151.3930  139.8486  159.8841 O   0  0  0  0  0  0  0  0  0  0  0  0
  152.5966  138.4172  158.3685 C   0  0  0  0  0  0  0  0  0  0  0  0
  151.5746  138.2601  157.3206 N   0  0  0  0  0  0  0  0  0  0  0  0
  150.8524  139.4116  156.9485 C   0  0  0  0  0  0  0  0  0  0  0  0
  149.8967  139.3764  156.0066 C   0  0  0  0  0  0  0  0  0  0  0  0
  149.6143  138.1130  155.3675 C   0  0  0  0  0  0  0  0  0  0  0  0
  150.2966  137.0047  155.7183 C   0  0  0  0  0  0  0  0  0  0  0  0
  151.3413  137.0382  156.7485 C   0  0  0  0  0  0  0  0  0  0  0  0
  151.9682  136.0302  157.0771 O   0  0  0  0  0  0  0  0  0  0  0  0
  152.0818  142.5586  159.8361 C   0  0  1  0  0  0  0  0  0  0  0  0
  152.0606  143.9091  160.5930 C   0  0  0  0  0  0  0  0  0  0  0  0
  151.5027  144.8934  159.5500 C   0  0  2  0  0  0  0  0  0  0  0  0
  150.0159  144.5870  159.2953 C   0  0  0  0  0  0  0  0  0  0  0  0
  150.0750  143.2740  158.4931 C   0  0  0  0  0  0  0  0  0  0  0  0
  151.5866  142.9835  158.4278 C   0  0  1  0  0  0  0  0  0  0  0  0
  152.1582  144.3887  158.2717 C   0  0  0  0  0  0  0  0  0  0  0  0
  154.0720  142.4820  161.8653 H   0  0  0  0  0  0  0  0  0  0  0  0
  154.9171  141.0618  161.2746 H   0  0  0  0  0  0  0  0  0  0  0  0
  153.2486  140.9261  161.8227 H   0  0  0  0  0  0  0  0  0  0  0  0
  154.1945  142.5209  159.3918 H   0  0  0  0  0  0  0  0  0  0  0  0
  154.1849  140.3771  158.5340 H   0  0  0  0  0  0  0  0  0  0  0  0
  153.5970  138.4421  157.9343 H   0  0  0  0  0  0  0  0  0  0  0  0
  152.5902  137.5432  159.0231 H   0  0  0  0  0  0  0  0  0  0  0  0
  151.1184  140.3145  157.4788 H   0  0  0  0  0  0  0  0  0  0  0  0
  149.3506  140.2685  155.7372 H   0  0  0  0  0  0  0  0  0  0  0  0
  148.8510  138.0560  154.6056 H   0  0  0  0  0  0  0  0  0  0  0  0
  150.0700  136.0679  155.2306 H   0  0  0  0  0  0  0  0  0  0  0  0
  151.3541  141.8774  160.2804 H   0  0  0  0  0  0  0  0  0  0  0  0
  151.4492  143.8691  161.4951 H   0  0  0  0  0  0  0  0  0  0  0  0
  153.0637  144.2194  160.8886 H   0  0  0  0  0  0  0  0  0  0  0  0
  151.6995  145.9390  159.7876 H   0  0  0  0  0  0  0  0  0  0  0  0
  149.4515  144.4833  160.2227 H   0  0  0  0  0  0  0  0  0  0  0  0
  149.5501  145.3768  158.7046 H   0  0  0  0  0  0  0  0  0  0  0  0
  149.5135  142.4680  158.9665 H   0  0  0  0  0  0  0  0  0  0  0  0
  149.6659  143.4192  157.4923 H   0  0  0  0  0  0  0  0  0  0  0  0
  151.8447  142.2956  157.6229 H   0  0  0  0  0  0  0  0  0  0  0  0
  151.8075  144.9019  157.3747 H   0  0  0  0  0  0  0  0  0  0  0  0
  153.2484  144.4227  158.2985 H   0  0  0  0  0  0  0  0  0  0  0  0
  1  2  1  0  0  0  0
  1 21  1  0  0  0  0
  1 22  1  0  0  0  0
  1 23  1  0  0  0  0
  2  3  1  0  0  0  0
  2 14  1  0  0  0  0
  2 24  1  0  0  0  0
  3  4  1  0  0  0  0
  3 25  1  0  0  0  0
  4  5  2  0  0  0  0
  4  6  1  0  0  0  0
  6  7  1  0  0  0  0
  6 26  1  0  0  0  0
  6 27  1  0  0  0  0
  7 12  1  0  0  0  0
  7  8  1  0  0  0  0
  8  9  2  0  0  0  0
  8 28  1  0  0  0  0
  9 10  1  0  0  0  0
  9 29  1  0  0  0  0
 10 11  2  0  0  0  0
 10 30  1  0  0  0  0
 11 12  1  0  0  0  0
 11 31  1  0  0  0  0
 12 13  2  0  0  0  0
 14 19  1  0  0  0  0
 14 15  1  0  0  0  0
 14 32  1  0  0  0  0
 15 16  1  0  0  0  0
 15 33  1  0  0  0  0
 15 34  1  0  0  0  0
 16 20  1  0  0  0  0
 16 17  1  0  0  0  0
 16 35  1  0  0  0  0
 17 18  1  0  0  0  0
 17 36  1  0  0  0  0
 17 37  1  0  0  0  0
 18 19  1  0  0  0  0
 18 38  1  0  0  0  0
 18 39  1  0  0  0  0
 19 20  1  0  0  0  0
 19 40  1  0  0  0  0
 20 41  1  0  0  0  0
 20 42  1  0  0  0  0
M  END
> <s_m_source_file>
AV-unprocessed.smi

> <i_m_source_file_index>
332

> <i_lp_mmshare_version>
43012

> <i_f3d_flags>
0

> <s_epik_input>
W0NIMl0xW0NIMl1bQ0BIXShbQ0gyXTIpW0NAQEhdKFtDSDJdW0NAQEhdMTIpW0NASF0oW0NIM10pW05IXUMoPU8pW0NIMl1uM1tjSF1bY0hdW2NIXVtjSF1jMz1P

> <s_epik_cmdline>
J2VwaWtfcHl0aG9uJywgJy1waCcsICc3LjAnLCAnLXRuJywgJzgnLCAnLW1hJywgJzIwMCcsICctbWV0YWxfYmluZGluZycsICctaW1hZScsICc8aW5maWxlLm1hZT4nLCAnLW9tYWUnLCAnPG91dGZpbGUubWFlPic=

> <r_lp_tautomer_probability>
1

> <r_epik_Ionization_Penalty>
4.05802e-07

> <r_epik_Ionization_Penalty_Charging>
3.84175e-07

> <r_epik_Ionization_Penalty_Neutral>
2.16269e-08

> <r_epik_State_Penalty>
-0

> <r_epik_Charging_Adjusted_Penalty>
3.84175e-07

> <i_epik_Tot_Q>
0

> <i_epik_Tot_abs_Q>
0

> <r_epik_Metal_State_Penalty>
-0

> <b_epik_Metal_Only>
0

> <s_lp_Force_Field>
OPLS_2005

> <r_lp_Energy>
59.7004

> <b_lp_Chiralities_Consistent>
1

> <s_lp_Variant>
AV-unprocessed.smi:332-8

> <Gold.Version>
5.8.1

> <Gold.Id.Protein>
6NUR|6NUR_protein|mol2

> <Gold.PLP.Fitness>
49.0908

> <Gold.PLP.PLP>
-47.1363

> <Gold.PLP.part.hbond>
-1.0000

> <Gold.PLP.part.metal>
0.0000

> <Gold.PLP.part.buried>
-2.4846

> <Gold.PLP.part.nonpolar>
-43.1532

> <Gold.PLP.part.repulsive>
0.0975

> <Gold.PLP.ligand.clash>
0.0000

> <Gold.PLP.ligand.torsion>
0.5302

> <Gold.PLP.Chemscore.Hbond>
1.0000

> <Gold.PLP.Chemscore.CHOScore>
0.0000

> <Gold.PLP.Chemscore.Metal>
0.0000

> <Gold.Chemscore.Hbonds>
donor molecule, donor type, donor heavy atom, donor atom, acceptor molecule, acceptor atom, score
      P1  H 10752 10763       L1    13  0.13

> <Gold.PLP.Chemscore.Internal.Correction>
0.0150

> <Gold.Rescore>
     Score         DG    S(hbond)    S(metal)    S(lipo)     H(rot)  DE(clash)    DE(int)     intcor
     15.25     -17.29       0.34        0.00     124.91       1.54       1.00       1.04       ----

> <Gold.Chemscore.Fitness>
15.2505

> <Gold.Chemscore.DG>
-17.2862

> <Gold.Chemscore.ZeroCoef>
-5.4800

> <Gold.Chemscore.Hbond>
0.3393

> <Gold.Chemscore.Metal>
0.0000

> <Gold.Chemscore.Lipo>
124.9124

> <Gold.Chemscore.Internal_Hbond>
0.0000

> <Gold.Chemscore.DEClash>
0.9951

> <Gold.Chemscore.DEInternal>
1.0406

> <Gold.Chemscore.Rot>
1.5398

> <Gold.Chemscore.Internal.Correction>
   9.000000E+99

> <Gold.Chemscore.Hbonds>
donor molecule, donor type, donor heavy atom, donor atom, acceptor molecule, acceptor atom, score
      P1  H 10752 10763       L1    13  0.09

> <Gold.Chemscore.Hbond.Weighted>
-1.1333

> <Gold.Chemscore.Metal.Weighted>
-0.0000

> <Gold.Chemscore.Lipo.Weighted>
-14.6148

> <Gold.Chemscore.Internal_Hbond.Weighted>
0.0000

> <Gold.Chemscore.DEClash.Weighted>
0.9951

> <Gold.Chemscore.DEInternal.Weighted>
1.0406

> <Gold.Chemscore.Rot.Weighted>
3.9419

> <Gold.Chemscore.Internal.Correction.Weighted>
   9.000000E+99

> <Gold.Protein.RotatedTorsions>
[ 6907 6896 6895 6894 ] final -120.71 input  -60.11 | X-H torsion
[ 7974 7965 7964 7962 ] final   27.82 input  175.53 | X-H torsion
[ 8008 7997 7996 7995 ] final   94.71 input   59.86 | X-H torsion
[ 10167 10162 10161 10158 ] final   45.57 input  -65.29 | X-H torsion
[ 10718 10713 10712 10709 ] final  174.91 input   66.30 | X-H torsion
[ 10763 10752 10751 10750 ] final  107.79 input  -60.55 | X-H torsion
[ 11005 11000 10999 10996 ] final -155.11 input  -57.11 | X-H torsion

> <Gold.Protein.ActiveResidues>
 VAL166  LYS551  ARG553  GLY616  TRP617  ASP618  TYR619  PRO620  LYS621  CYS622 
 ASP623  PHE694  ASN695  SER759  ASP760  ASP761  ALA762  ILE779  LEU786  VAL792 
 PHE793  MET794  SER795  GLU796  ALA797  LYS798  CYS799  TRP800  GLU811  SER814 

> <Gold.Protein.RotatedAtoms>
  150.8417  133.7925  159.3058 H   0  0  0  0  0  0  0  0  0  0  0  0  # atno 6907 bound_to 6896
  151.5625  135.1063  159.9985 H   0  0  0  0  0  0  0  0  0  0  0  0  # atno 6908 bound_to 6896
  152.4479  133.7530  159.6761 H   0  0  0  0  0  0  0  0  0  0  0  0  # atno 6909 bound_to 6896
  146.1763  139.7139  142.8932 H   0  0  0  0  0  0  0  0  0  0  0  0  # atno 7974 bound_to 7965
  156.0609  140.3296  155.7460 H   0  0  0  0  0  0  0  0  0  0  0  0  # atno 8008 bound_to 7997
  155.5456  140.0605  157.2878 H   0  0  0  0  0  0  0  0  0  0  0  0  # atno 8009 bound_to 7997
  154.4481  140.1903  156.0623 H   0  0  0  0  0  0  0  0  0  0  0  0  # atno 8010 bound_to 7997
  140.3228  144.2684  150.6180 H   0  0  0  0  0  0  0  0  0  0  0  0  # atno 10167 bound_to 10162
  156.9426  131.0006  151.2965 H   0  0  0  0  0  0  0  0  0  0  0  0  # atno 10718 bound_to 10713
  153.4116  135.3833  155.2054 H   0  0  0  0  0  0  0  0  0  0  0  0  # atno 10763 bound_to 10752
  154.8738  135.3795  154.4494 H   0  0  0  0  0  0  0  0  0  0  0  0  # atno 10764 bound_to 10752
  153.5003  135.7088  153.5898 H   0  0  0  0  0  0  0  0  0  0  0  0  # atno 10765 bound_to 10752
  140.6900  134.4052  157.5220 H   0  0  0  0  0  0  0  0  0  0  0  0  # atno 11005 bound_to 11000
  145.4203  141.0406  143.2968 LP  0  0  0  0  0  0  0  0  0  0  0  0  # atno 17320 bound_to 7965
  144.8241  139.5740  143.6973 LP  0  0  0  0  0  0  0  0  0  0  0  0  # atno 17321 bound_to 7965
  140.5468  143.2213  151.7994 LP  0  0  0  0  0  0  0  0  0  0  0  0  # atno 17342 bound_to 10162
  139.4871  144.4529  151.9633 LP  0  0  0  0  0  0  0  0  0  0  0  0  # atno 17343 bound_to 10162
  157.5775  130.8353  149.8476 LP  0  0  0  0  0  0  0  0  0  0  0  0  # atno 17370 bound_to 10713
  156.0398  130.3742  150.1466 LP  0  0  0  0  0  0  0  0  0  0  0  0  # atno 17371 bound_to 10713
  139.8926  134.8750  156.2262 LP  0  0  0  0  0  0  0  0  0  0  0  0  # atno 17394 bound_to 11000
  141.0249  133.7020  156.1331 LP  0  0  0  0  0  0  0  0  0  0  0  0  # atno 17395 bound_to 11000

$$$$
