AV-unprocessed.smi:223|AV-procd|sdf|1706|dock2
  -GOLD-   2262020163D 1   1.00000     0.00000
 Structure written by MMmdl.
 47 50  0  0  0  0  0  0  0  0  1 V2000
  150.5603  140.9944  157.9389 C   0  0  0  0  0  0  0  0  0  0  0  0
  150.0780  140.9478  156.4844 C   0  0  1  0  0  0  0  0  0  0  0  0
  151.0779  140.2825  155.6329 C   0  0  0  0  0  0  0  0  0  0  0  0
  151.8651  139.7608  154.9642 N   0  0  0  0  0  0  0  0  0  0  0  0
  148.6866  140.2889  156.3842 C   0  0  0  0  0  0  0  0  0  0  0  0
  148.3546  139.8031  155.0446 N   0  0  0  0  0  0  0  0  0  0  0  0
  147.4865  138.7578  154.9598 C   0  0  0  0  0  0  0  0  0  0  0  0
  147.2135  138.0304  156.0767 N   0  0  0  0  0  0  0  0  0  0  0  0
  146.3829  136.9860  156.0231 C   0  0  0  0  0  0  0  0  0  0  0  0
  145.7219  136.5006  154.9721 N   0  0  0  0  0  0  0  0  0  0  0  0
  145.9784  137.2283  153.8482 C   0  0  0  0  0  0  0  0  0  0  0  0
  146.8422  138.3574  153.7518 C   0  0  0  0  0  0  0  0  0  0  0  0
  146.8464  138.8296  152.4440 N   0  0  0  0  0  0  0  0  0  0  0  0
  146.0425  138.0247  151.8059 C   0  0  0  0  0  0  0  0  0  0  0  0
  145.4664  137.0402  152.5757 N   0  0  0  0  0  0  0  0  0  0  0  0
  144.5308  136.0176  152.1305 C   0  0  0  0  0  0  0  0  0  0  0  0
  145.1068  135.0765  151.0437 C   0  0  2  0  0  0  0  0  0  0  0  0
  145.3635  135.8292  149.8723 O   0  0  0  0  0  0  0  0  0  0  0  0
  144.1541  133.9291  150.6996 C   0  0  0  0  0  0  0  0  0  0  0  0
  144.8358  132.7035  151.2960 C   0  0  0  0  0  0  0  0  0  0  0  0
  146.2095  132.9933  151.1110 O   0  0  0  0  0  0  0  0  0  0  0  0
  146.3995  134.3534  151.4724 C   0  0  0  0  0  0  0  0  0  0  0  0
  148.3704  140.7758  153.9543 C   0  0  0  0  0  0  0  0  0  0  0  0
  148.0646  142.2258  154.2573 C   0  0  0  0  0  0  0  0  0  0  0  0
  147.0615  141.3827  153.5064 C   0  0  0  0  0  0  0  0  0  0  0  0
  151.5275  141.4922  158.0139 H   0  0  0  0  0  0  0  0  0  0  0  0
  150.6693  139.9907  158.3509 H   0  0  0  0  0  0  0  0  0  0  0  0
  149.8574  141.5411  158.5679 H   0  0  0  0  0  0  0  0  0  0  0  0
  150.0153  141.9760  156.1280 H   0  0  0  0  0  0  0  0  0  0  0  0
  148.6435  139.4477  157.0771 H   0  0  0  0  0  0  0  0  0  0  0  0
  147.9146  140.9767  156.7253 H   0  0  0  0  0  0  0  0  0  0  0  0
  146.2271  136.4641  156.9557 H   0  0  0  0  0  0  0  0  0  0  0  0
  145.8435  138.1330  150.7498 H   0  0  0  0  0  0  0  0  0  0  0  0
  144.2224  135.4379  153.0015 H   0  0  0  0  0  0  0  0  0  0  0  0
  143.6318  136.5139  151.7623 H   0  0  0  0  0  0  0  0  0  0  0  0
  145.4879  135.2297  149.1527 H   0  0  0  0  0  0  0  0  0  0  0  0
  143.1443  134.0704  151.0868 H   0  0  0  0  0  0  0  0  0  0  0  0
  144.0732  133.7973  149.6191 H   0  0  0  0  0  0  0  0  0  0  0  0
  144.6167  132.6111  152.3609 H   0  0  0  0  0  0  0  0  0  0  0  0
  144.5478  131.7763  150.8002 H   0  0  0  0  0  0  0  0  0  0  0  0
  147.3026  134.7644  151.0193 H   0  0  0  0  0  0  0  0  0  0  0  0
  146.5292  134.3868  152.5544 H   0  0  0  0  0  0  0  0  0  0  0  0
  149.1082  140.6028  153.1737 H   0  0  0  0  0  0  0  0  0  0  0  0
  147.8269  142.4919  155.2856 H   0  0  0  0  0  0  0  0  0  0  0  0
  148.6112  142.9799  153.6949 H   0  0  0  0  0  0  0  0  0  0  0  0
  146.9373  141.5744  152.4427 H   0  0  0  0  0  0  0  0  0  0  0  0
  146.1571  141.0905  154.0365 H   0  0  0  0  0  0  0  0  0  0  0  0
  1  2  1  0  0  0  0
  1 26  1  0  0  0  0
  1 27  1  0  0  0  0
  1 28  1  0  0  0  0
  2  3  1  0  0  0  0
  2  5  1  0  0  0  0
  2 29  1  0  0  0  0
  3  4  3  0  0  0  0
  5  6  1  0  0  0  0
  5 30  1  0  0  0  0
  5 31  1  0  0  0  0
  6  7  1  0  0  0  0
  6 23  1  0  0  0  0
  7 12  1  0  0  0  0
  7  8  2  0  0  0  0
  8  9  1  0  0  0  0
  9 10  2  0  0  0  0
  9 32  1  0  0  0  0
 10 11  1  0  0  0  0
 11 15  1  0  0  0  0
 11 12  2  0  0  0  0
 12 13  1  0  0  0  0
 13 14  2  0  0  0  0
 14 15  1  0  0  0  0
 14 33  1  0  0  0  0
 15 16  1  0  0  0  0
 16 17  1  0  0  0  0
 16 34  1  0  0  0  0
 16 35  1  0  0  0  0
 17 22  1  0  0  0  0
 17 18  1  0  0  0  0
 17 19  1  0  0  0  0
 18 36  1  0  0  0  0
 19 20  1  0  0  0  0
 19 37  1  0  0  0  0
 19 38  1  0  0  0  0
 20 21  1  0  0  0  0
 20 39  1  0  0  0  0
 20 40  1  0  0  0  0
 21 22  1  0  0  0  0
 22 41  1  0  0  0  0
 22 42  1  0  0  0  0
 23 25  1  0  0  0  0
 23 24  1  0  0  0  0
 23 43  1  0  0  0  0
 24 25  1  0  0  0  0
 24 44  1  0  0  0  0
 24 45  1  0  0  0  0
 25 46  1  0  0  0  0
 25 47  1  0  0  0  0
M  END
> <s_m_source_file>
AV-unprocessed.smi

> <i_m_source_file_index>
223

> <i_lp_mmshare_version>
43012

> <i_f3d_flags>
0

> <s_epik_input>
TiNDW0NAQEhdKFtDSDNdKVtDSDJdTihbQ0hdMVtDSDJdW0NIMl0xKWMobltjSF1uMiljKGMyMyluW2NIXW4zW0NIMl1bQ0BAXTQoW09IXSlbQ0gyXVtDSDJdT1tDSDJdNA==

> <s_epik_cmdline>
J2VwaWtfcHl0aG9uJywgJy1waCcsICc3LjAnLCAnLXRuJywgJzgnLCAnLW1hJywgJzIwMCcsICctbWV0YWxfYmluZGluZycsICctaW1hZScsICc8aW5maWxlLm1hZT4nLCAnLW9tYWUnLCAnPG91dGZpbGUubWFlPic=

> <r_lp_tautomer_probability>
1

> <r_epik_Ionization_Penalty>
0.000756152

> <r_epik_Ionization_Penalty_Charging>
0

> <r_epik_Ionization_Penalty_Neutral>
0.000756152

> <r_epik_State_Penalty>
0.00038036

> <r_epik_Charging_Adjusted_Penalty>
0.00038036

> <i_epik_Tot_Q>
0

> <i_epik_Tot_abs_Q>
0

> <r_epik_Metal_State_Penalty>
-0

> <b_epik_Metal_Only>
0

> <s_lp_Force_Field>
OPLS_2005

> <r_lp_Energy>
37.1983

> <b_lp_Chiralities_Consistent>
1

> <s_lp_Variant>
AV-unprocessed.smi:223-4

> <Gold.Version>
5.8.1

> <Gold.Id.Protein>
6NUR|6NUR_protein|mol2

> <Gold.PLP.Fitness>
42.3528

> <Gold.PLP.PLP>
-33.7991

> <Gold.PLP.part.hbond>
-3.0000

> <Gold.PLP.part.metal>
0.0000

> <Gold.PLP.part.buried>
-2.4780

> <Gold.PLP.part.nonpolar>
-29.6179

> <Gold.PLP.part.repulsive>
0.5755

> <Gold.PLP.ligand.clash>
0.0000

> <Gold.PLP.ligand.torsion>
0.9065

> <Gold.PLP.Chemscore.Hbond>
2.0000

> <Gold.PLP.Chemscore.CHOScore>
0.9807

> <Gold.PLP.Chemscore.Metal>
0.0000

> <Gold.Chemscore.Hbonds>
donor molecule, donor type, donor heavy atom, donor atom, acceptor molecule, acceptor atom, score
      L1  H    18    36       P1  7921  1.00
      P1  H  7989  7998       L1     4  0.83
      L1  C    14    33       P1 10171  0.94

> <Gold.PLP.Chemscore.Internal.Correction>
1.4248

> <Gold.Rescore>
     Score         DG    S(hbond)    S(metal)    S(lipo)     H(rot)  DE(clash)    DE(int)     intcor
      7.03     -12.03       1.89        0.00      61.57       2.72       1.75       3.26       ----

> <Gold.Chemscore.Fitness>
7.0285

> <Gold.Chemscore.DG>
-12.0341

> <Gold.Chemscore.ZeroCoef>
-5.4800

> <Gold.Chemscore.Hbond>
1.8880

> <Gold.Chemscore.Metal>
0.0000

> <Gold.Chemscore.Lipo>
61.5718

> <Gold.Chemscore.Internal_Hbond>
0.0000

> <Gold.Chemscore.DEClash>
1.7464

> <Gold.Chemscore.DEInternal>
3.2592

> <Gold.Chemscore.Rot>
2.7171

> <Gold.Chemscore.Internal.Correction>
   9.000000E+99

> <Gold.Chemscore.Hbonds>
donor molecule, donor type, donor heavy atom, donor atom, acceptor molecule, acceptor atom, score
      L1  H    18    36       P1  7921  0.95
      P1  H  7989  7998       L1     4  0.14

> <Gold.Chemscore.Hbond.Weighted>
-6.3060

> <Gold.Chemscore.Metal.Weighted>
-0.0000

> <Gold.Chemscore.Lipo.Weighted>
-7.2039

> <Gold.Chemscore.Internal_Hbond.Weighted>
0.0000

> <Gold.Chemscore.DEClash.Weighted>
1.7464

> <Gold.Chemscore.DEInternal.Weighted>
3.2592

> <Gold.Chemscore.Rot.Weighted>
6.9558

> <Gold.Chemscore.Internal.Correction.Weighted>
   9.000000E+99

> <Gold.Protein.RotatedTorsions>
[ 6907 6896 6895 6894 ] final -177.17 input  -60.11 | X-H torsion
[ 7974 7965 7964 7962 ] final  -14.82 input  175.53 | X-H torsion
[ 8008 7997 7996 7995 ] final   50.58 input   59.86 | X-H torsion
[ 10167 10162 10161 10158 ] final -144.63 input  -65.29 | X-H torsion
[ 10718 10713 10712 10709 ] final  161.51 input   66.30 | X-H torsion
[ 10763 10752 10751 10750 ] final  -96.72 input  -60.55 | X-H torsion
[ 11005 11000 10999 10996 ] final   78.43 input  -57.11 | X-H torsion

> <Gold.Protein.ActiveResidues>
 VAL166  LYS551  ARG553  GLY616  TRP617  ASP618  TYR619  PRO620  LYS621  CYS622 
 ASP623  PHE694  ASN695  SER759  ASP760  ASP761  ALA762  ILE779  LEU786  VAL792 
 PHE793  MET794  SER795  GLU796  ALA797  LYS798  CYS799  TRP800  GLU811  SER814 

> <Gold.Protein.RotatedAtoms>
  151.6167  133.3342  159.3078 H   0  0  0  0  0  0  0  0  0  0  0  0  # atno 6907 bound_to 6896
  150.8128  134.7296  159.6714 H   0  0  0  0  0  0  0  0  0  0  0  0  # atno 6908 bound_to 6896
  152.4224  134.5936  160.0032 H   0  0  0  0  0  0  0  0  0  0  0  0  # atno 6909 bound_to 6896
  146.2058  140.3404  142.8407 H   0  0  0  0  0  0  0  0  0  0  0  0  # atno 7974 bound_to 7965
  155.4212  140.3446  155.4271 H   0  0  0  0  0  0  0  0  0  0  0  0  # atno 8008 bound_to 7997
  156.1392  140.1537  156.8978 H   0  0  0  0  0  0  0  0  0  0  0  0  # atno 8009 bound_to 7997
  154.4957  140.0828  156.7671 H   0  0  0  0  0  0  0  0  0  0  0  0  # atno 8010 bound_to 7997
  139.7881  143.8005  152.2647 H   0  0  0  0  0  0  0  0  0  0  0  0  # atno 10167 bound_to 10162
  157.1355  131.0527  151.2351 H   0  0  0  0  0  0  0  0  0  0  0  0  # atno 10718 bound_to 10713
  154.7265  135.5073  153.8894 H   0  0  0  0  0  0  0  0  0  0  0  0  # atno 10763 bound_to 10752
  153.0909  135.6659  153.9864 H   0  0  0  0  0  0  0  0  0  0  0  0  # atno 10764 bound_to 10752
  153.9675  135.3041  155.3409 H   0  0  0  0  0  0  0  0  0  0  0  0  # atno 10765 bound_to 10752
  139.9213  134.7763  156.1649 H   0  0  0  0  0  0  0  0  0  0  0  0  # atno 11005 bound_to 11000
  144.8789  140.7374  143.5999 LP  0  0  0  0  0  0  0  0  0  0  0  0  # atno 17320 bound_to 7965
  145.3324  139.1755  143.4529 LP  0  0  0  0  0  0  0  0  0  0  0  0  # atno 17321 bound_to 7965
  139.8088  144.7344  150.9726 LP  0  0  0  0  0  0  0  0  0  0  0  0  # atno 17342 bound_to 10162
  140.7820  143.4272  151.0750 LP  0  0  0  0  0  0  0  0  0  0  0  0  # atno 17343 bound_to 10162
  157.4354  130.7514  149.7025 LP  0  0  0  0  0  0  0  0  0  0  0  0  # atno 17370 bound_to 10713
  155.9799  130.4035  150.3560 LP  0  0  0  0  0  0  0  0  0  0  0  0  # atno 17371 bound_to 10713
  141.0736  133.6786  156.2190 LP  0  0  0  0  0  0  0  0  0  0  0  0  # atno 17394 bound_to 11000
  140.6466  134.5110  157.5574 LP  0  0  0  0  0  0  0  0  0  0  0  0  # atno 17395 bound_to 11000

$$$$
