#       Name:                AV-unprocessed.smi:1856
#       Creating user name   scv26
#       Creation time:       Fri Mar 27 09:25:07 2020


#       File generated by GOLD software.
#

@<TRIPOS>MOLECULE
AV-unprocessed.smi:1856
    49    50     1
SMALL
NO_CHARGES


@<TRIPOS>ATOM
      1 ****        -1.7063   4.8321   0.5140 C.3            1 S1                 0.0000
      2 ****        -1.8078   4.1722  -0.8696 C.3            1 S1                 0.0000
      3 ****        -2.7535   2.9561  -0.9379 C.3            1 S1                 0.0000
      4 ****        -2.1921   1.6917  -0.2778 C.2            1 S1                 0.0000
      5 ****        -1.8791   1.6937   0.9126 O.2            1 S1                 0.0000
      6 ****        -2.0820   0.6077  -1.0622 N.am           1 S1                 0.0000
      7 ****        -1.5585  -0.6886  -0.6374 C.3            1 S1                 0.0000
      8 ****        -2.0862  -1.8036  -1.5508 C.3            1 S1                 0.0000
      9 ****        -0.0512  -0.6196  -0.6376 C.2            1 S1                 0.0000
     10 ****         0.6360  -0.2684  -1.7281 N.2            1 S1                 0.0000
     11 ****         1.9465  -0.3329  -1.3014 C.ar           1 S1                 0.0000
     12 ****         3.1510  -0.0805  -1.9960 C.ar           1 S1                 0.0000
     13 ****         4.3934  -0.2179  -1.3434 C.ar           1 S1                 0.0000
     14 ****         4.4488  -0.6090   0.0099 C.ar           1 S1                 0.0000
     15 ****         3.2601  -0.8632   0.7204 C.ar           1 S1                 0.0000
     16 ****         2.0218  -0.7241   0.0645 C.ar           1 S1                 0.0000
     17 ****         0.6986  -0.8964   0.4617 N.pl3          1 S1                 0.0000
     18 ****         0.2520  -1.2901   1.7916 C.3            1 S1                 0.0000
     19 ****        -0.1409  -2.7783   1.8767 C.3            1 S1                 0.0000
     20 ****         0.9786  -3.7435   1.4557 C.3            1 S1                 0.0000
     21 ****        -0.5098  -3.0679   3.2082 O.3            1 S1                 0.0000
     22 ****        -1.1103   5.7434   0.4618 H              1 S1                 0.0000
     23 ****        -1.2319   4.1779   1.2445 H              1 S1                 0.0000
     24 ****        -2.6915   5.1033   0.8942 H              1 S1                 0.0000
     25 ****        -2.1623   4.9203  -1.5794 H              1 S1                 0.0000
     26 ****        -0.8115   3.8890  -1.2120 H              1 S1                 0.0000
     27 ****        -3.7111   3.1988  -0.4760 H              1 S1                 0.0000
     28 ****        -2.9709   2.7405  -1.9852 H              1 S1                 0.0000
     29 ****        -2.3599   0.6911  -2.0291 H              1 S1                 0.0000
     30 ****        -1.9314  -0.8933   0.3650 H              1 S1                 0.0000
     31 ****        -1.7096  -2.7768  -1.2348 H              1 S1                 0.0000
     32 ****        -1.7818  -1.6506  -2.5868 H              1 S1                 0.0000
     33 ****        -3.1755  -1.8474  -1.5266 H              1 S1                 0.0000
     34 ****         3.1191   0.2183  -3.0333 H              1 S1                 0.0000
     35 ****         5.3081  -0.0236  -1.8841 H              1 S1                 0.0000
     36 ****         5.4044  -0.7135   0.5024 H              1 S1                 0.0000
     37 ****         3.3021  -1.1647   1.7563 H              1 S1                 0.0000
     38 ****         1.0542  -1.0787   2.4993 H              1 S1                 0.0000
     39 ****        -0.5767  -0.6490   2.0929 H              1 S1                 0.0000
     40 ****        -1.0138  -2.9608   1.2498 H              1 S1                 0.0000
     41 ****         1.2475  -3.6088   0.4078 H              1 S1                 0.0000
     42 ****         0.6678  -4.7816   1.5785 H              1 S1                 0.0000
     43 ****         1.8788  -3.5914   2.0521 H              1 S1                 0.0000
     44 ****         0.2359  -2.9134   3.7679 H              1 S1                 0.0000
     45 ****        -1.9903   2.5249   1.4575 LP             1 S1                 0.0000
     46 ****        -1.5136   0.8642   1.3349 LP             1 S1                 0.0000
     47 ****         0.2865  -0.0198  -2.6314 LP             1 S1                 0.0000
     48 ****        -0.7919  -4.0246   3.2792 LP             1 S1                 0.0000
     49 ****        -1.2668  -2.4758   3.4845 LP             1 S1                 0.0000
@<TRIPOS>BOND
    1    1    2 1     
    2    1   22 1     
    3    1   23 1     
    4    1   24 1     
    5    2    3 1     
    6    2   25 1     
    7    2   26 1     
    8    3    4 1     
    9    3   27 1     
   10    3   28 1     
   11    4    5 2     
   12    4    6 am    
   13    6    7 1     
   14    6   29 1     
   15    7    8 1     
   16    7    9 1     
   17    7   30 1     
   18    8   31 1     
   19    8   32 1     
   20    8   33 1     
   21    9   17 1     
   22    9   10 2     
   23   10   11 1     
   24   11   16 ar    
   25   11   12 ar    
   26   12   13 ar    
   27   12   34 1     
   28   13   14 ar    
   29   13   35 1     
   30   14   15 ar    
   31   14   36 1     
   32   15   16 ar    
   33   15   37 1     
   34   16   17 1     
   35   17   18 1     
   36   18   19 1     
   37   18   38 1     
   38   18   39 1     
   39   19   20 1     
   40   19   21 1     
   41   19   40 1     
   42   20   41 1     
   43   20   42 1     
   44   20   43 1     
   45   21   44 1     
   46    5   45 1     
   47    5   46 1     
   48   10   47 1     
   49   21   48 1     
   50   21   49 1     
@<TRIPOS>SUBSTRUCTURE
      1 S1             1
@<TRIPOS>SET
LONE_PAIRS      STATIC     ATOMS    <user>   **** ""
5 45 46 47 48 49
DONOR_HYDROGENS      STATIC     ATOMS    <user>   **** ""
2 29 44
ATOM$BLUE        STATIC     ATOMS    COLORGROUP SYSTEM
5 45 46 47 48 49
ATOM$RED        STATIC     ATOMS    COLORGROUP SYSTEM
2 29 44
