AV-unprocessed.smi:625|AV-procd|sdf|3104|dock3
  -GOLD-   22720 0 23D 1   1.00000     0.00000
 Structure written by MMmdl.
 49 51  0  0  0  0  0  0  0  0  1 V2000
  152.9061  142.4925  159.8500 C   0  0  0  0  0  0  0  0  0  0  0  0
  152.0843  142.0633  158.7286 N   0  0  0  0  0  0  0  0  0  0  0  0
  152.2557  140.9129  158.0543 C   0  0  0  0  0  0  0  0  0  0  0  0
  153.1470  140.1171  158.3536 O   0  0  0  0  0  0  0  0  0  0  0  0
  151.3047  140.7085  156.9576 C   0  0  0  0  0  0  0  0  0  0  0  0
  150.1473  141.5765  156.8547 C   0  0  0  0  0  0  0  0  0  0  0  0
  149.2407  141.4047  155.8729 C   0  0  0  0  0  0  0  0  0  0  0  0
  149.3816  140.3440  154.8721 C   0  0  0  0  0  0  0  0  0  0  0  0
  148.5458  140.1666  153.9860 O   0  0  0  0  0  0  0  0  0  0  0  0
  150.4952  139.5583  154.9919 N   0  0  0  0  0  0  0  0  0  0  0  0
  150.7420  138.4497  154.0507 C   0  0  0  0  0  0  0  0  0  0  0  0
  150.9501  137.0774  154.7148 C   0  0  0  0  0  0  0  0  0  0  0  0
  151.8055  136.9594  155.5911 O   0  0  0  0  0  0  0  0  0  0  0  0
  150.1835  136.0545  154.3006 N   0  0  0  0  0  0  0  0  0  0  0  0
  150.2661  134.6718  154.7621 C   0  0  1  0  0  0  0  0  0  0  0  0
  149.8411  134.6103  156.2404 C   0  0  0  0  0  0  0  0  0  0  0  0
  149.3896  133.7829  153.8453 C   0  0  1  0  0  0  0  0  0  0  0  0
  149.4881  132.2691  154.1663 C   0  0  0  0  0  0  0  0  0  0  0  0
  148.0197  131.8480  154.3478 C   0  0  2  0  0  0  0  0  0  0  0  0
  147.2953  131.8990  152.9905 C   0  0  0  0  0  0  0  0  0  0  0  0
  147.1631  133.4118  152.7354 C   0  0  0  0  0  0  0  0  0  0  0  0
  147.8635  134.0270  153.9625 C   0  0  1  0  0  0  0  0  0  0  0  0
  147.4423  133.0605  155.0650 C   0  0  0  0  0  0  0  0  0  0  0  0
  151.4361  139.7392  156.0253 C   0  0  0  0  0  0  0  0  0  0  0  0
  152.5475  143.4494  160.2289 H   0  0  0  0  0  0  0  0  0  0  0  0
  153.9456  142.6149  159.5440 H   0  0  0  0  0  0  0  0  0  0  0  0
  152.8649  141.7668  160.6630 H   0  0  0  0  0  0  0  0  0  0  0  0
  151.3373  142.6793  158.4422 H   0  0  0  0  0  0  0  0  0  0  0  0
  149.9978  142.3750  157.5672 H   0  0  0  0  0  0  0  0  0  0  0  0
  148.3877  142.0651  155.8208 H   0  0  0  0  0  0  0  0  0  0  0  0
  149.9198  138.3679  153.3375 H   0  0  0  0  0  0  0  0  0  0  0  0
  151.6196  138.6642  153.4394 H   0  0  0  0  0  0  0  0  0  0  0  0
  149.5045  136.2444  153.5778 H   0  0  0  0  0  0  0  0  0  0  0  0
  151.3014  134.3354  154.6849 H   0  0  0  0  0  0  0  0  0  0  0  0
  149.9547  133.6091  156.6538 H   0  0  0  0  0  0  0  0  0  0  0  0
  148.7993  134.9069  156.3666 H   0  0  0  0  0  0  0  0  0  0  0  0
  150.4507  135.2759  156.8523 H   0  0  0  0  0  0  0  0  0  0  0  0
  149.7057  133.9533  152.8147 H   0  0  0  0  0  0  0  0  0  0  0  0
  149.9876  131.7086  153.3752 H   0  0  0  0  0  0  0  0  0  0  0  0
  150.0368  132.0880  155.0918 H   0  0  0  0  0  0  0  0  0  0  0  0
  147.8990  130.9004  154.8736 H   0  0  0  0  0  0  0  0  0  0  0  0
  147.8554  131.3902  152.2049 H   0  0  0  0  0  0  0  0  0  0  0  0
  146.3108  131.4342  153.0562 H   0  0  0  0  0  0  0  0  0  0  0  0
  147.6195  133.7186  151.7936 H   0  0  0  0  0  0  0  0  0  0  0  0
  146.1122  133.7031  152.7048 H   0  0  0  0  0  0  0  0  0  0  0  0
  147.5772  135.0640  154.1331 H   0  0  0  0  0  0  0  0  0  0  0  0
  146.3611  133.0060  155.2039 H   0  0  0  0  0  0  0  0  0  0  0  0
  147.9154  133.2611  156.0274 H   0  0  0  0  0  0  0  0  0  0  0  0
  152.2485  139.0270  156.0014 H   0  0  0  0  0  0  0  0  0  0  0  0
  1  2  1  0  0  0  0
  1 25  1  0  0  0  0
  1 26  1  0  0  0  0
  1 27  1  0  0  0  0
  2  3  1  0  0  0  0
  2 28  1  0  0  0  0
  3  4  2  0  0  0  0
  3  5  1  0  0  0  0
  5 24  2  0  0  0  0
  5  6  1  0  0  0  0
  6  7  2  0  0  0  0
  6 29  1  0  0  0  0
  7  8  1  0  0  0  0
  7 30  1  0  0  0  0
  8  9  2  0  0  0  0
  8 10  1  0  0  0  0
 10 11  1  0  0  0  0
 10 24  1  0  0  0  0
 11 12  1  0  0  0  0
 11 31  1  0  0  0  0
 11 32  1  0  0  0  0
 12 13  2  0  0  0  0
 12 14  1  0  0  0  0
 14 15  1  0  0  0  0
 14 33  1  0  0  0  0
 15 16  1  0  0  0  0
 15 17  1  0  0  0  0
 15 34  1  0  0  0  0
 16 35  1  0  0  0  0
 16 36  1  0  0  0  0
 16 37  1  0  0  0  0
 17 22  1  0  0  0  0
 17 18  1  0  0  0  0
 17 38  1  0  0  0  0
 18 19  1  0  0  0  0
 18 39  1  0  0  0  0
 18 40  1  0  0  0  0
 19 23  1  0  0  0  0
 19 20  1  0  0  0  0
 19 41  1  0  0  0  0
 20 21  1  0  0  0  0
 20 42  1  0  0  0  0
 20 43  1  0  0  0  0
 21 22  1  0  0  0  0
 21 44  1  0  0  0  0
 21 45  1  0  0  0  0
 22 23  1  0  0  0  0
 22 46  1  0  0  0  0
 23 47  1  0  0  0  0
 23 48  1  0  0  0  0
 24 49  1  0  0  0  0
M  END
> <s_m_source_file>
AV-unprocessed.smi

> <i_m_source_file_index>
625

> <i_lp_mmshare_version>
43012

> <i_f3d_flags>
0

> <s_epik_input>
W0NIM11bTkhdQyg9TyljMVtjSF1bY0hdYyg9TyluKFtjSF0xKVtDSDJdQyg9TylbTkhdW0NASF0oW0NIM10pW0NASF0oW0NIMl1bQ0BIXTIzKVtDQEhdKFtDSDJdMylbQ0gyXVtDSDJdMg==

> <s_epik_cmdline>
J2VwaWtfcHl0aG9uJywgJy1waCcsICc3LjAnLCAnLXRuJywgJzgnLCAnLW1hJywgJzIwMCcsICctbWV0YWxfYmluZGluZycsICctaW1hZScsICc8aW5maWxlLm1hZT4nLCAnLW9tYWUnLCAnPG91dGZpbGUubWFlPic=

> <r_lp_tautomer_probability>
1

> <r_epik_Ionization_Penalty>
3.7129e-07

> <r_epik_Ionization_Penalty_Charging>
5.04114e-08

> <r_epik_Ionization_Penalty_Neutral>
3.20879e-07

> <r_epik_State_Penalty>
-0

> <r_epik_Charging_Adjusted_Penalty>
5.04114e-08

> <i_epik_Tot_Q>
0

> <i_epik_Tot_abs_Q>
0

> <r_epik_Metal_State_Penalty>
-0

> <b_epik_Metal_Only>
0

> <s_lp_Force_Field>
OPLS_2005

> <r_lp_Energy>
63.0032

> <b_lp_Chiralities_Consistent>
1

> <s_lp_Variant>
AV-unprocessed.smi:625-4

> <Gold.Version>
5.8.1

> <Gold.Id.Protein>
6NUR|6NUR_protein|mol2

> <Gold.PLP.Fitness>
50.2379

> <Gold.PLP.PLP>
-42.0484

> <Gold.PLP.part.hbond>
-3.9939

> <Gold.PLP.part.metal>
0.0000

> <Gold.PLP.part.buried>
-3.8869

> <Gold.PLP.part.nonpolar>
-34.3415

> <Gold.PLP.part.repulsive>
0.8910

> <Gold.PLP.ligand.clash>
0.4114

> <Gold.PLP.ligand.torsion>
0.2429

> <Gold.PLP.Chemscore.Hbond>
3.0000

> <Gold.PLP.Chemscore.CHOScore>
0.0000

> <Gold.PLP.Chemscore.Metal>
0.0000

> <Gold.Chemscore.Hbonds>
donor molecule, donor type, donor heavy atom, donor atom, acceptor molecule, acceptor atom, score
      L1  H    14    33       P1  7948  1.00
      P1  H  7997  8008       L1     4  1.00
      P1  H 10752 10765       L1    13  0.89

> <Gold.PLP.Chemscore.Internal.Correction>
0.0866

> <Gold.Rescore>
     Score         DG    S(hbond)    S(metal)    S(lipo)     H(rot)  DE(clash)    DE(int)     intcor
     12.92     -15.50       1.48        0.00      79.86       1.67       0.17       2.41       ----

> <Gold.Chemscore.Fitness>
12.9159

> <Gold.Chemscore.DG>
-15.4989

> <Gold.Chemscore.ZeroCoef>
-5.4800

> <Gold.Chemscore.Hbond>
1.4830

> <Gold.Chemscore.Metal>
0.0000

> <Gold.Chemscore.Lipo>
79.8568

> <Gold.Chemscore.Internal_Hbond>
0.0000

> <Gold.Chemscore.DEClash>
0.1743

> <Gold.Chemscore.DEInternal>
2.4087

> <Gold.Chemscore.Rot>
1.6709

> <Gold.Chemscore.Internal.Correction>
   9.000000E+99

> <Gold.Chemscore.Hbonds>
donor molecule, donor type, donor heavy atom, donor atom, acceptor molecule, acceptor atom, score
      L1  H    14    33       P1  7948  0.58
      P1  H  7997  8008       L1     4  0.80
      P1  H 10752 10765       L1    13  0.57

> <Gold.Chemscore.Hbond.Weighted>
-4.9531

> <Gold.Chemscore.Metal.Weighted>
-0.0000

> <Gold.Chemscore.Lipo.Weighted>
-9.3432

> <Gold.Chemscore.Internal_Hbond.Weighted>
0.0000

> <Gold.Chemscore.DEClash.Weighted>
0.1743

> <Gold.Chemscore.DEInternal.Weighted>
2.4087

> <Gold.Chemscore.Rot.Weighted>
4.2774

> <Gold.Chemscore.Internal.Correction.Weighted>
   9.000000E+99

> <Gold.Protein.RotatedTorsions>
[ 6907 6896 6895 6894 ] final   24.12 input  -60.11 | X-H torsion
[ 7974 7965 7964 7962 ] final  -98.67 input  175.53 | X-H torsion
[ 8008 7997 7996 7995 ] final  -85.75 input   59.86 | X-H torsion
[ 10167 10162 10161 10158 ] final -160.61 input  -65.29 | X-H torsion
[ 10718 10713 10712 10709 ] final  -50.90 input   66.30 | X-H torsion
[ 10763 10752 10751 10750 ] final -150.50 input  -60.55 | X-H torsion
[ 11005 11000 10999 10996 ] final   95.76 input  -57.11 | X-H torsion

> <Gold.Protein.ActiveResidues>
 VAL166  LYS551  ARG553  GLY616  TRP617  ASP618  TYR619  PRO620  LYS621  CYS622 
 ASP623  PHE694  ASN695  SER759  ASP760  ASP761  ALA762  ILE779  LEU786  VAL792 
 PHE793  MET794  SER795  GLU796  ALA797  LYS798  CYS799  TRP800  GLU811  SER814 

> <Gold.Protein.RotatedAtoms>
  151.9527  135.0161  160.0542 H   0  0  0  0  0  0  0  0  0  0  0  0  # atno 6907 bound_to 6896
  152.1938  133.4787  159.5030 H   0  0  0  0  0  0  0  0  0  0  0  0  # atno 6908 bound_to 6896
  150.6940  134.1595  159.4214 H   0  0  0  0  0  0  0  0  0  0  0  0  # atno 6909 bound_to 6896
  145.3176  140.9414  143.2734 H   0  0  0  0  0  0  0  0  0  0  0  0  # atno 7974 bound_to 7965
  154.6442  140.0587  156.9881 H   0  0  0  0  0  0  0  0  0  0  0  0  # atno 8008 bound_to 7997
  155.1469  140.3270  155.4421 H   0  0  0  0  0  0  0  0  0  0  0  0  # atno 8009 bound_to 7997
  156.2546  140.1954  156.6583 H   0  0  0  0  0  0  0  0  0  0  0  0  # atno 8010 bound_to 7997
  139.6526  144.0056  152.2172 H   0  0  0  0  0  0  0  0  0  0  0  0  # atno 10167 bound_to 10162
  156.1759  130.4150  149.9578 H   0  0  0  0  0  0  0  0  0  0  0  0  # atno 10718 bound_to 10713
  154.8115  135.3283  154.7292 H   0  0  0  0  0  0  0  0  0  0  0  0  # atno 10763 bound_to 10752
  153.7940  135.6909  153.4871 H   0  0  0  0  0  0  0  0  0  0  0  0  # atno 10764 bound_to 10752
  153.1898  135.4555  155.0081 H   0  0  0  0  0  0  0  0  0  0  0  0  # atno 10765 bound_to 10752
  139.8786  134.8916  156.4059 H   0  0  0  0  0  0  0  0  0  0  0  0  # atno 11005 bound_to 11000
  144.8965  139.4705  143.6653 LP  0  0  0  0  0  0  0  0  0  0  0  0  # atno 17320 bound_to 7965
  146.3094  139.7694  142.9031 LP  0  0  0  0  0  0  0  0  0  0  0  0  # atno 17321 bound_to 7965
  139.9774  144.6452  150.7932 LP  0  0  0  0  0  0  0  0  0  0  0  0  # atno 17342 bound_to 10162
  140.7545  143.3027  151.3038 LP  0  0  0  0  0  0  0  0  0  0  0  0  # atno 17343 bound_to 10162
  156.7364  130.9063  151.3629 LP  0  0  0  0  0  0  0  0  0  0  0  0  # atno 17370 bound_to 10713
  157.6835  130.9163  150.0327 LP  0  0  0  0  0  0  0  0  0  0  0  0  # atno 17371 bound_to 10713
  140.9235  133.7629  155.9935 LP  0  0  0  0  0  0  0  0  0  0  0  0  # atno 17394 bound_to 11000
  140.8413  134.3063  157.5312 LP  0  0  0  0  0  0  0  0  0  0  0  0  # atno 17395 bound_to 11000

$$$$
