AV-unprocessed.smi:3085|AV-procd|sdf|11760|dock4
  -GOLD-   2272017143D 1   1.00000     0.00000
 Structure written by MMmdl.
 27 28  0  0  0  0  0  0  0  0  3 V2000
  155.8100  139.9689  162.0491 C   0  0  0  0  0  0  0  0  0  0  0  0
  155.4990  139.3568  160.6795 C   0  0  0  0  0  0  0  0  0  0  0  0
  154.4135  140.1171  159.9495 C   0  0  0  0  0  0  0  0  0  0  0  0
  153.7980  141.2106  160.3883 N   0  0  0  0  0  0  0  0  0  0  0  0
  152.8969  141.5244  159.4468 C   0  0  0  0  0  0  0  0  0  0  0  0
  151.9350  142.6902  159.5400 C   0  0  2  0  0  0  0  0  0  0  0  0
  151.2165  142.9236  158.1967 C   0  0  0  0  0  0  0  0  0  0  0  0
  150.2930  144.0695  158.3030 N   0  3  0  0  0  0  0  0  0  0  0  0
  150.9843  145.2814  158.7829 C   0  0  0  0  0  0  0  0  0  0  0  0
  151.7134  144.9835  160.1039 C   0  0  0  0  0  0  0  0  0  0  0  0
  152.6059  143.8902  159.9208 O   0  0  0  0  0  0  0  0  0  0  0  0
  152.9231  140.6306  158.4464 N   0  0  0  0  0  0  0  0  0  0  0  0
  153.8653  139.7695  158.7718 N   0  5  0  0  0  0  0  0  0  0  0  0
  156.5919  139.4060  162.5590 H   0  0  0  0  0  0  0  0  0  0  0  0
  154.9260  139.9677  162.6875 H   0  0  0  0  0  0  0  0  0  0  0  0
  156.1503  141.0000  161.9500 H   0  0  0  0  0  0  0  0  0  0  0  0
  156.3981  139.3456  160.0630 H   0  0  0  0  0  0  0  0  0  0  0  0
  155.1851  138.3191  160.7968 H   0  0  0  0  0  0  0  0  0  0  0  0
  151.2018  142.4421  160.3099 H   0  0  0  0  0  0  0  0  0  0  0  0
  151.9424  143.1198  157.4062 H   0  0  0  0  0  0  0  0  0  0  0  0
  150.6534  142.0372  157.9029 H   0  0  0  0  0  0  0  0  0  0  0  0
  149.8791  144.2513  157.3998 H   0  0  0  0  0  0  0  0  0  0  0  0
  151.6963  145.6115  158.0252 H   0  0  0  0  0  0  0  0  0  0  0  0
  150.2589  146.0842  158.9158 H   0  0  0  0  0  0  0  0  0  0  0  0
  152.2841  145.8558  160.4230 H   0  0  0  0  0  0  0  0  0  0  0  0
  151.0026  144.7585  160.9007 H   0  0  0  0  0  0  0  0  0  0  0  0
  149.5628  143.8321  158.9592 H   0  0  0  0  0  0  0  0  0  0  0  0
  1  2  1  0  0  0  0
  1 14  1  0  0  0  0
  1 15  1  0  0  0  0
  1 16  1  0  0  0  0
  2  3  1  0  0  0  0
  2 17  1  0  0  0  0
  2 18  1  0  0  0  0
  3 13  1  0  0  0  0
  3  4  2  0  0  0  0
  4  5  1  0  0  0  0
  5  6  1  0  0  0  0
  5 12  2  0  0  0  0
  6 11  1  0  0  0  0
  6  7  1  0  0  0  0
  6 19  1  0  0  0  0
  7  8  1  0  0  0  0
  7 20  1  0  0  0  0
  7 21  1  0  0  0  0
  8  9  1  0  0  0  0
  8 22  1  0  0  0  0
  8 27  1  0  0  0  0
  9 10  1  0  0  0  0
  9 23  1  0  0  0  0
  9 24  1  0  0  0  0
 10 11  1  0  0  0  0
 10 25  1  0  0  0  0
 10 26  1  0  0  0  0
 12 13  1  0  0  0  0
M  CHG  1   8   1
M  CHG  1  13  -1
M  END
> <s_m_source_file>
AV-unprocessed.smi

> <i_m_source_file_index>
3085

> <i_lp_mmshare_version>
43012

> <i_f3d_flags>
0

> <s_epik_input>
W0NIM11bQ0gyXWMxbmMobltuSF0xKVtDQEBIXTJbQ0gyXVtOSF1bQ0gyXVtDSDJdTzI=

> <s_epik_cmdline>
J2VwaWtfcHl0aG9uJywgJy1waCcsICc3LjAnLCAnLXRuJywgJzgnLCAnLW1hJywgJzIwMCcsICctbWV0YWxfYmluZGluZycsICctaW1hZScsICc8aW5maWxlLm1hZT4nLCAnLW9tYWUnLCAnPG91dGZpbGUubWFlPic=

> <r_lp_tautomer_probability>
0.948284

> <r_epik_Ionization_Penalty>
5.24708

> <r_epik_Ionization_Penalty_Charging>
5.24708

> <r_epik_Ionization_Penalty_Neutral>
2.10756e-13

> <r_epik_State_Penalty>
3.12001

> <r_epik_Charging_Adjusted_Penalty>
8.36709

> <i_epik_Tot_Q>
0

> <i_epik_Tot_abs_Q>
2

> <r_epik_Metal_State_Penalty>
0.69864

> <b_epik_Metal_Only>
1

> <s_lp_Force_Field>
OPLS_2005

> <r_lp_Energy>
4.6385

> <b_lp_Chiralities_Consistent>
1

> <s_lp_Variant>
AV-unprocessed.smi:3085-11

> <Gold.Version>
5.8.1

> <Gold.Id.Protein>
6NUR|6NUR_protein|mol2

> <Gold.PLP.Fitness>
35.9469

> <Gold.PLP.PLP>
-24.5213

> <Gold.PLP.part.hbond>
-3.1357

> <Gold.PLP.part.metal>
0.0000

> <Gold.PLP.part.buried>
-3.8792

> <Gold.PLP.part.nonpolar>
-17.8443

> <Gold.PLP.part.repulsive>
0.0809

> <Gold.PLP.ligand.clash>
0.0000

> <Gold.PLP.ligand.torsion>
0.2966

> <Gold.PLP.Chemscore.Hbond>
4.0000

> <Gold.PLP.Chemscore.CHOScore>
0.0000

> <Gold.PLP.Chemscore.Metal>
0.0000

> <Gold.Chemscore.Hbonds>
donor molecule, donor type, donor heavy atom, donor atom, acceptor molecule, acceptor atom, score
      L1  H     8    22       P1  8028  2.00
      P1  H  7997  8008       L1    13  1.90

> <Gold.PLP.Chemscore.Internal.Correction>
0.0187

> <Gold.Rescore>
     Score         DG    S(hbond)    S(metal)    S(lipo)     H(rot)  DE(clash)    DE(int)     intcor
     11.67     -11.88       1.00        0.00      54.36       1.28       0.01       0.20       ----

> <Gold.Chemscore.Fitness>
11.6736

> <Gold.Chemscore.DG>
-11.8781

> <Gold.Chemscore.ZeroCoef>
-5.4800

> <Gold.Chemscore.Hbond>
0.9952

> <Gold.Chemscore.Metal>
0.0000

> <Gold.Chemscore.Lipo>
54.3551

> <Gold.Chemscore.Internal_Hbond>
0.0000

> <Gold.Chemscore.DEClash>
0.0073

> <Gold.Chemscore.DEInternal>
0.1972

> <Gold.Chemscore.Rot>
1.2833

> <Gold.Chemscore.Internal.Correction>
   9.000000E+99

> <Gold.Chemscore.Hbonds>
donor molecule, donor type, donor heavy atom, donor atom, acceptor molecule, acceptor atom, score
      L1  H     8    22       P1  8028  0.37
      P1  H  7997  8008       L1    13  0.18

> <Gold.Chemscore.Hbond.Weighted>
-3.3239

> <Gold.Chemscore.Metal.Weighted>
-0.0000

> <Gold.Chemscore.Lipo.Weighted>
-6.3595

> <Gold.Chemscore.Internal_Hbond.Weighted>
0.0000

> <Gold.Chemscore.DEClash.Weighted>
0.0073

> <Gold.Chemscore.DEInternal.Weighted>
0.1972

> <Gold.Chemscore.Rot.Weighted>
3.2853

> <Gold.Chemscore.Internal.Correction.Weighted>
   9.000000E+99

> <Gold.Protein.RotatedTorsions>
[ 6907 6896 6895 6894 ] final -173.66 input  -60.11 | X-H torsion
[ 7974 7965 7964 7962 ] final   97.65 input  175.53 | X-H torsion
[ 8008 7997 7996 7995 ] final -116.08 input   59.86 | X-H torsion
[ 10167 10162 10161 10158 ] final  134.21 input  -65.29 | X-H torsion
[ 10718 10713 10712 10709 ] final   63.20 input   66.30 | X-H torsion
[ 10763 10752 10751 10750 ] final -141.58 input  -60.55 | X-H torsion
[ 11005 11000 10999 10996 ] final -118.21 input  -57.11 | X-H torsion

> <Gold.Protein.ActiveResidues>
 VAL166  LYS551  ARG553  GLY616  TRP617  ASP618  TYR619  PRO620  LYS621  CYS622 
 ASP623  PHE694  ASN695  SER759  ASP760  ASP761  ALA762  ILE779  LEU786  VAL792 
 PHE793  MET794  SER795  GLU796  ALA797  LYS798  CYS799  TRP800  GLU811  SER814 

> <Gold.Protein.RotatedAtoms>
  151.5598  133.3405  159.2968 H   0  0  0  0  0  0  0  0  0  0  0  0  # atno 6907 bound_to 6896
  150.8429  134.7731  159.6958 H   0  0  0  0  0  0  0  0  0  0  0  0  # atno 6908 bound_to 6896
  152.4493  134.5435  159.9897 H   0  0  0  0  0  0  0  0  0  0  0  0  # atno 6909 bound_to 6896
  145.4226  139.2319  143.3188 H   0  0  0  0  0  0  0  0  0  0  0  0  # atno 7974 bound_to 7965
  155.0622  140.0393  157.2580 H   0  0  0  0  0  0  0  0  0  0  0  0  # atno 8008 bound_to 7997
  154.7051  140.2681  155.6658 H   0  0  0  0  0  0  0  0  0  0  0  0  # atno 8009 bound_to 7997
  156.2772  140.2733  156.1674 H   0  0  0  0  0  0  0  0  0  0  0  0  # atno 8010 bound_to 7997
  139.5265  144.6578  151.5107 H   0  0  0  0  0  0  0  0  0  0  0  0  # atno 10167 bound_to 10162
  157.5954  130.9092  149.9685 H   0  0  0  0  0  0  0  0  0  0  0  0  # atno 10718 bound_to 10713
  154.8540  135.3520  154.5890 H   0  0  0  0  0  0  0  0  0  0  0  0  # atno 10763 bound_to 10752
  153.6500  135.6994  153.5217 H   0  0  0  0  0  0  0  0  0  0  0  0  # atno 10764 bound_to 10752
  153.2901  135.4237  155.1117 H   0  0  0  0  0  0  0  0  0  0  0  0  # atno 10765 bound_to 10752
  141.0302  133.9993  157.3155 H   0  0  0  0  0  0  0  0  0  0  0  0  # atno 11005 bound_to 11000
  146.2649  140.4952  142.8838 LP  0  0  0  0  0  0  0  0  0  0  0  0  # atno 17320 bound_to 7965
  144.8235  140.6590  143.6337 LP  0  0  0  0  0  0  0  0  0  0  0  0  # atno 17321 bound_to 7965
  140.6412  143.8885  150.6694 LP  0  0  0  0  0  0  0  0  0  0  0  0  # atno 17342 bound_to 10162
  140.2220  143.3801  152.1635 LP  0  0  0  0  0  0  0  0  0  0  0  0  # atno 17343 bound_to 10162
  156.1016  130.3655  150.0208 LP  0  0  0  0  0  0  0  0  0  0  0  0  # atno 17370 bound_to 10713
  156.8322  130.9396  151.3636 LP  0  0  0  0  0  0  0  0  0  0  0  0  # atno 17371 bound_to 10713
  139.9202  135.0200  156.8037 LP  0  0  0  0  0  0  0  0  0  0  0  0  # atno 17394 bound_to 11000
  140.6421  133.9809  155.7712 LP  0  0  0  0  0  0  0  0  0  0  0  0  # atno 17395 bound_to 11000

$$$$
