#       Name:                AV-unprocessed.smi:1641
#       Creating user name   scv26
#       Creation time:       Fri Mar 27 07:24:57 2020


#       File generated by GOLD software.
#

@<TRIPOS>MOLECULE
AV-unprocessed.smi:1641
    48    49     1
SMALL
NO_CHARGES


@<TRIPOS>ATOM
      1 ****        -6.8196   5.1935   0.6223 C.3            1 S1                 0.0000
      2 ****        -5.5537   4.7137  -0.0006 C.2            1 S1                 0.0000
      3 ****        -5.3305   4.7604  -1.3164 N.2            1 S1                 0.0000
      4 ****        -4.0824   4.2563  -1.6530 N.2            1 S1                 0.0000
      5 ****        -3.3860   3.8246  -0.5917 C.2            1 S1                 0.0000
      6 ****        -2.1528   3.3032  -0.7009 N.pl3          1 S1                -1.0000
      7 ****        -1.9869   1.9612  -0.7354 C.2            1 S1                 0.0000
      8 ****        -2.8828   1.1149  -0.6952 O.2            1 S1                 0.0000
      9 ****        -0.7041   1.5813  -0.8187 N.am           1 S1                 0.0000
     10 ****        -0.2083   0.2099  -0.8539 C.3            1 S1                 0.0000
     11 ****         1.0593   0.0873   0.0070 C.3            1 S1                 0.0000
     12 ****         1.6040  -1.2653   0.1157 N.3            1 S1                 0.0000
     13 ****         2.6455  -1.3274   1.1325 C.3            1 S1                 0.0000
     14 ****         3.2028  -2.7523   1.2990 C.3            1 S1                 0.0000
     15 ****         4.3525  -2.8074   2.3102 C.3            1 S1                 0.0000
     16 ****         3.6931  -3.2179   0.0429 O.3            1 S1                 0.0000
     17 ****         2.7546  -3.1665  -1.0331 C.3            1 S1                 0.0000
     18 ****         1.6961  -4.2769  -0.9196 C.3            1 S1                 0.0000
     19 ****         2.1467  -1.7538  -1.1502 C.3            1 S1                 0.0000
     20 ****        -4.2356   4.0346   0.9391 S.3            1 S1                 0.0000
     21 ****        -7.5463   4.3818   0.6596 H              1 S1                 0.0000
     22 ****        -7.2406   6.0165   0.0441 H              1 S1                 0.0000
     23 ****        -6.6306   5.5427   1.6375 H              1 S1                 0.0000
     24 ****        -0.0107   2.3141  -0.8532 H              1 S1                 0.0000
     25 ****        -0.9589  -0.4954  -0.4938 H              1 S1                 0.0000
     26 ****        -0.0053  -0.0425  -1.8942 H              1 S1                 0.0000
     27 ****         1.8266   0.7647  -0.3709 H              1 S1                 0.0000
     28 ****         0.8110   0.4452   1.0075 H              1 S1                 0.0000
     29 ****         3.4563  -0.6449   0.8723 H              1 S1                 0.0000
     30 ****         2.2467  -0.9863   2.0887 H              1 S1                 0.0000
     31 ****         2.4098  -3.4150   1.6468 H              1 S1                 0.0000
     32 ****         4.0255  -2.4709   3.2944 H              1 S1                 0.0000
     33 ****         5.1838  -2.1743   1.9985 H              1 S1                 0.0000
     34 ****         4.7298  -3.8249   2.4156 H              1 S1                 0.0000
     35 ****         3.3224  -3.3624  -1.9431 H              1 S1                 0.0000
     36 ****         1.0574  -4.2943  -1.8028 H              1 S1                 0.0000
     37 ****         1.0484  -4.1395  -0.0539 H              1 S1                 0.0000
     38 ****         2.1672  -5.2562  -0.8335 H              1 S1                 0.0000
     39 ****         1.3751  -1.7651  -1.9193 H              1 S1                 0.0000
     40 ****         2.9190  -1.0670  -1.5003 H              1 S1                 0.0000
     41 ****        -5.9864   5.1171  -1.9816 LP             1 S1                 0.0000
     42 ****        -3.7376   4.2188  -2.5909 LP             1 S1                 0.0000
     43 ****        -1.3576   3.9070  -0.7567 LP             1 S1                 0.0000
     44 ****        -3.8387   1.4014  -0.6308 LP             1 S1                 0.0000
     45 ****        -2.6534   0.1421  -0.7270 LP             1 S1                 0.0000
     46 ****         0.8383  -1.8534   0.3760 LP             1 S1                 0.0000
     47 ****         3.9818  -4.1686   0.1566 LP             1 S1                 0.0000
     48 ****         4.4825  -2.6576  -0.2080 LP             1 S1                 0.0000
@<TRIPOS>BOND
    1    1    2 1     
    2    1   21 1     
    3    1   22 1     
    4    1   23 1     
    5    2   20 1     
    6    2    3 2     
    7    3    4 1     
    8    4    5 2     
    9    5    6 1     
   10    5   20 1     
   11    6    7 1     
   12    7    8 2     
   13    7    9 am    
   14    9   10 1     
   15    9   24 1     
   16   10   11 1     
   17   10   25 1     
   18   10   26 1     
   19   11   12 1     
   20   11   27 1     
   21   11   28 1     
   22   12   19 1     
   23   12   13 1     
   24   13   14 1     
   25   13   29 1     
   26   13   30 1     
   27   14   15 1     
   28   14   16 1     
   29   14   31 1     
   30   15   32 1     
   31   15   33 1     
   32   15   34 1     
   33   16   17 1     
   34   17   18 1     
   35   17   19 1     
   36   17   35 1     
   37   18   36 1     
   38   18   37 1     
   39   18   38 1     
   40   19   39 1     
   41   19   40 1     
   42    3   41 1     
   43    4   42 1     
   44    6   43 1     
   45    8   44 1     
   46    8   45 1     
   47   12   46 1     
   48   16   47 1     
   49   16   48 1     
@<TRIPOS>SUBSTRUCTURE
      1 S1             1
@<TRIPOS>SET
LONE_PAIRS      STATIC     ATOMS    <user>   **** ""
8 41 42 43 44 45 46 47 48
DONOR_HYDROGENS      STATIC     ATOMS    <user>   **** ""
1 24
ATOM$BLUE        STATIC     ATOMS    COLORGROUP SYSTEM
8 41 42 43 44 45 46 47 48
ATOM$RED        STATIC     ATOMS    COLORGROUP SYSTEM
1 24
