#       Name:                AV-unprocessed.smi:2346
#       Creating user name   scv26
#       Creation time:       Fri Mar 27 12:58:54 2020


#       File generated by GOLD software.
#

@<TRIPOS>MOLECULE
AV-unprocessed.smi:2346
    52    54     1
SMALL
NO_CHARGES


@<TRIPOS>ATOM
      1 ****        -5.6450   0.2207  -0.5898 C.3            1 S1                 0.0000
      2 ****        -4.2349   0.2053  -0.4215 O.3            1 S1                 0.0000
      3 ****        -3.5929   1.3972  -0.1541 C.ar           1 S1                 0.0000
      4 ****        -4.2662   2.6385  -0.0219 C.ar           1 S1                 0.0000
      5 ****        -3.5469   3.8177   0.2534 C.ar           1 S1                 0.0000
      6 ****        -4.2468   5.0844   0.3874 C.1            1 S1                 0.0000
      7 ****        -4.8039   6.0928   0.4940 N.1            1 S1                 0.0000
      8 ****        -2.1487   3.7668   0.3983 C.ar           1 S1                 0.0000
      9 ****        -1.4719   2.5409   0.2682 C.ar           1 S1                 0.0000
     10 ****        -2.1870   1.3480  -0.0083 C.ar           1 S1                 0.0000
     11 ****        -1.5881   0.1127  -0.1481 O.3            1 S1                 0.0000
     12 ****        -0.1775   0.0241  -0.0083 C.3            1 S1                 0.0000
     13 ****         0.2395  -1.4395  -0.1951 C.3            1 S1                 0.0000
     14 ****         1.6827  -1.6096  -0.1055 N.pl3          1 S1                 0.0000
     15 ****         2.4643  -1.6951   1.0041 C.2            1 S1                 0.0000
     16 ****         1.9173  -1.6027   2.4036 C.3            1 S1                 0.0000
     17 ****         2.2919  -0.2767   3.0807 C.3            1 S1                 0.0000
     18 ****         2.3731  -2.6611   3.2212 O.3            1 S1                 0.0000
     19 ****         3.7689  -1.8641   0.7759 N.2            1 S1                 0.0000
     20 ****         3.8426  -1.8786  -0.6020 C.ar           1 S1                 0.0000
     21 ****         4.9568  -2.0212  -1.4596 C.ar           1 S1                 0.0000
     22 ****         4.7870  -2.0028  -2.8594 C.ar           1 S1                 0.0000
     23 ****         3.5037  -1.8408  -3.4200 C.ar           1 S1                 0.0000
     24 ****         2.3803  -1.6979  -2.5828 C.ar           1 S1                 0.0000
     25 ****         2.5547  -1.7186  -1.1855 C.ar           1 S1                 0.0000
     26 ****        -5.9931  -0.7913  -0.7958 H              1 S1                 0.0000
     27 ****        -5.9388   0.8476  -1.4328 H              1 S1                 0.0000
     28 ****        -6.1519   0.5653   0.3126 H              1 S1                 0.0000
     29 ****        -5.3388   2.7060  -0.1282 H              1 S1                 0.0000
     30 ****        -1.5871   4.6656   0.6099 H              1 S1                 0.0000
     31 ****        -0.3991   2.5438   0.3859 H              1 S1                 0.0000
     32 ****         0.3154   0.6460  -0.7574 H              1 S1                 0.0000
     33 ****         0.1223   0.3739   0.9796 H              1 S1                 0.0000
     34 ****        -0.2497  -2.0845   0.5342 H              1 S1                 0.0000
     35 ****        -0.0934  -1.7932  -1.1712 H              1 S1                 0.0000
     36 ****         0.8321  -1.6783   2.3870 H              1 S1                 0.0000
     37 ****         1.9288   0.5764   2.5079 H              1 S1                 0.0000
     38 ****         3.3731  -0.1721   3.1780 H              1 S1                 0.0000
     39 ****         1.8610  -0.2102   4.0802 H              1 S1                 0.0000
     40 ****         2.0957  -3.4776   2.8349 H              1 S1                 0.0000
     41 ****         5.9439  -2.1443  -1.0394 H              1 S1                 0.0000
     42 ****         5.6453  -2.1130  -3.5060 H              1 S1                 0.0000
     43 ****         3.3822  -1.8265  -4.4932 H              1 S1                 0.0000
     44 ****         1.3975  -1.5735  -3.0121 H              1 S1                 0.0000
     45 ****        -3.8405  -0.1603  -1.2645 LP             1 S1                 0.0000
     46 ****        -4.0344  -0.4151   0.3367 LP             1 S1                 0.0000
     47 ****        -5.2854   6.9644   0.5862 LP             1 S1                 0.0000
     48 ****        -1.8160  -0.2243  -1.0616 LP             1 S1                 0.0000
     49 ****        -1.9914  -0.4906   0.5399 LP             1 S1                 0.0000
     50 ****         1.9834  -2.5716   4.1378 LP             1 S1                 0.0000
     51 ****         3.3711  -2.6370   3.2795 LP             1 S1                 0.0000
     52 ****         4.5105  -1.9573   1.4403 LP             1 S1                 0.0000
@<TRIPOS>BOND
    1    1    2 1     
    2    1   26 1     
    3    1   27 1     
    4    1   28 1     
    5    2    3 1     
    6    3   10 ar    
    7    3    4 ar    
    8    4    5 ar    
    9    4   29 1     
   10    5    6 1     
   11    5    8 ar    
   12    6    7 3     
   13    8    9 ar    
   14    8   30 1     
   15    9   10 ar    
   16    9   31 1     
   17   10   11 1     
   18   11   12 1     
   19   12   13 1     
   20   12   32 1     
   21   12   33 1     
   22   13   14 1     
   23   13   34 1     
   24   13   35 1     
   25   14   25 1     
   26   14   15 1     
   27   15   16 1     
   28   15   19 2     
   29   16   17 1     
   30   16   18 1     
   31   16   36 1     
   32   17   37 1     
   33   17   38 1     
   34   17   39 1     
   35   18   40 1     
   36   19   20 1     
   37   20   25 ar    
   38   20   21 ar    
   39   21   22 ar    
   40   21   41 1     
   41   22   23 ar    
   42   22   42 1     
   43   23   24 ar    
   44   23   43 1     
   45   24   25 ar    
   46   24   44 1     
   47    2   45 1     
   48    2   46 1     
   49    7   47 1     
   50   11   48 1     
   51   11   49 1     
   52   18   50 1     
   53   18   51 1     
   54   19   52 1     
@<TRIPOS>SUBSTRUCTURE
      1 S1             1
@<TRIPOS>SET
LONE_PAIRS      STATIC     ATOMS    <user>   **** ""
8 45 46 47 48 49 50 51 52
DONOR_HYDROGENS      STATIC     ATOMS    <user>   **** ""
1 40
ATOM$BLUE        STATIC     ATOMS    COLORGROUP SYSTEM
8 45 46 47 48 49 50 51 52
ATOM$RED        STATIC     ATOMS    COLORGROUP SYSTEM
1 40
