AV-unprocessed.smi:1929|AV-procd|sdf|7805|dock6
  -GOLD-   22720 9543D 1   1.00000     0.00000
 Structure written by MMmdl.
 42 43  0  0  0  0  0  0  0  0  3 V2000
  146.4318  143.0683  158.6187 C   0  0  0  0  0  0  0  0  0  0  0  0
  146.1502  141.6671  158.9056 N   0  5  0  0  0  0  0  0  0  0  0  0
  145.8506  140.7499  157.9471 C   0  0  0  0  0  0  0  0  0  0  0  0
  145.3503  139.6237  158.0366 O   0  0  0  0  0  0  0  0  0  0  0  0
  146.2498  141.2547  156.5558 C   0  0  0  0  0  0  0  0  0  0  0  0
  146.4751  140.1080  155.6406 N   0  3  2  0  0  0  0  0  0  0  0  0
  147.2621  140.4668  154.4294 C   0  0  0  0  0  0  0  0  0  0  0  0
  147.5806  139.2222  153.5847 C   0  0  0  0  0  0  0  0  0  0  0  0
  146.2981  138.4719  153.1928 C   0  0  1  0  0  0  0  0  0  0  0  0
  146.6392  137.2495  152.4710 N   0  0  0  0  0  0  0  0  0  0  0  0
  145.7698  136.2877  152.1283 C   0  0  0  0  0  0  0  0  0  0  0  0
  144.5699  136.3319  152.3995 O   0  0  0  0  0  0  0  0  0  0  0  0
  146.3863  135.2818  151.4839 N   0  0  0  0  0  0  0  0  0  0  0  0
  145.8179  134.1016  150.9318 C   0  0  0  0  0  0  0  0  0  0  0  0
  144.4120  134.0238  150.8528 C   0  0  0  0  0  0  0  0  0  0  0  0
  143.8249  132.8552  150.3276 C   0  0  0  0  0  0  0  0  0  0  0  0
  144.5398  131.7928  149.9016 N   0  0  0  0  0  0  0  0  0  0  0  0
  145.8848  131.8630  149.9914 C   0  0  0  0  0  0  0  0  0  0  0  0
  146.5718  132.9841  150.4988 C   0  0  0  0  0  0  0  0  0  0  0  0
  145.4831  138.1490  154.4579 C   0  0  0  0  0  0  0  0  0  0  0  0
  145.2104  139.4174  155.2828 C   0  0  0  0  0  0  0  0  0  0  0  0
  146.6876  143.6226  159.5213 H   0  0  0  0  0  0  0  0  0  0  0  0
  145.5781  143.5802  158.1737 H   0  0  0  0  0  0  0  0  0  0  0  0
  147.2688  143.1936  157.9311 H   0  0  0  0  0  0  0  0  0  0  0  0
  145.4212  141.8639  156.1920 H   0  0  0  0  0  0  0  0  0  0  0  0
  147.1248  141.9086  156.5760 H   0  0  0  0  0  0  0  0  0  0  0  0
  146.7055  141.1927  153.8347 H   0  0  0  0  0  0  0  0  0  0  0  0
  148.1988  140.9466  154.7134 H   0  0  0  0  0  0  0  0  0  0  0  0
  148.1302  139.5167  152.6899 H   0  0  0  0  0  0  0  0  0  0  0  0
  148.2404  138.5624  154.1503 H   0  0  0  0  0  0  0  0  0  0  0  0
  145.7072  139.1214  152.5434 H   0  0  0  0  0  0  0  0  0  0  0  0
  147.6078  137.1281  152.2134 H   0  0  0  0  0  0  0  0  0  0  0  0
  147.3914  135.3459  151.4182 H   0  0  0  0  0  0  0  0  0  0  0  0
  143.7902  134.8434  151.1824 H   0  0  0  0  0  0  0  0  0  0  0  0
  142.7509  132.7708  150.2508 H   0  0  0  0  0  0  0  0  0  0  0  0
  146.4321  130.9950  149.6549 H   0  0  0  0  0  0  0  0  0  0  0  0
  147.6489  132.9572  150.5570 H   0  0  0  0  0  0  0  0  0  0  0  0
  144.5368  137.6786  154.1876 H   0  0  0  0  0  0  0  0  0  0  0  0
  146.0225  137.4273  155.0733 H   0  0  0  0  0  0  0  0  0  0  0  0
  144.6701  139.1430  156.1896 H   0  0  0  0  0  0  0  0  0  0  0  0
  144.5680  140.1000  154.7243 H   0  0  0  0  0  0  0  0  0  0  0  0
  147.0263  139.4432  156.1645 H   0  0  0  0  0  0  0  0  0  0  0  0
  1  2  1  0  0  0  0
  1 22  1  0  0  0  0
  1 23  1  0  0  0  0
  1 24  1  0  0  0  0
  2  3  1  0  0  0  0
  3  4  2  0  0  0  0
  3  5  1  0  0  0  0
  5  6  1  0  0  0  0
  5 25  1  0  0  0  0
  5 26  1  0  0  0  0
  6 21  1  0  0  0  0
  6  7  1  0  0  0  0
  6 42  1  0  0  0  0
  7  8  1  0  0  0  0
  7 27  1  0  0  0  0
  7 28  1  0  0  0  0
  8  9  1  0  0  0  0
  8 29  1  0  0  0  0
  8 30  1  0  0  0  0
  9 10  1  0  0  0  0
  9 20  1  0  0  0  0
  9 31  1  0  0  0  0
 10 11  1  0  0  0  0
 10 32  1  0  0  0  0
 11 12  2  0  0  0  0
 11 13  1  0  0  0  0
 13 14  1  0  0  0  0
 13 33  1  0  0  0  0
 14 19  1  0  0  0  0
 14 15  2  0  0  0  0
 15 16  1  0  0  0  0
 15 34  1  0  0  0  0
 16 17  2  0  0  0  0
 16 35  1  0  0  0  0
 17 18  1  0  0  0  0
 18 19  2  0  0  0  0
 18 36  1  0  0  0  0
 19 37  1  0  0  0  0
 20 21  1  0  0  0  0
 20 38  1  0  0  0  0
 20 39  1  0  0  0  0
 21 40  1  0  0  0  0
 21 41  1  0  0  0  0
M  CHG  1   2  -1
M  CHG  1   6   1
M  END
> <s_m_source_file>
AV-unprocessed.smi

> <i_m_source_file_index>
1929

> <i_lp_mmshare_version>
43012

> <i_f3d_flags>
0

> <s_epik_input>
W0NIM11bTkhdQyg9TylbQ0gyXU4xW0NIMl1bQ0gyXVtDSF0oW0NIMl1bQ0gyXTEpW05IXUMoPU8pW05IXWMyW2NIXVtjSF1uW2NIXVtjSF0y

> <s_epik_cmdline>
J2VwaWtfcHl0aG9uJywgJy1waCcsICc3LjAnLCAnLXRuJywgJzgnLCAnLW1hJywgJzIwMCcsICctbWV0YWxfYmluZGluZycsICctaW1hZScsICc8aW5maWxlLm1hZT4nLCAnLW9tYWUnLCAnPG91dGZpbGUubWFlPic=

> <r_epik_Ionization_Penalty>
6.23856

> <r_epik_Ionization_Penalty_Charging>
6.13946

> <r_epik_Ionization_Penalty_Neutral>
0.0990993

> <r_epik_State_Penalty>
7.04382

> <r_epik_Charging_Adjusted_Penalty>
13.1833

> <i_epik_Tot_Q>
0

> <i_epik_Tot_abs_Q>
2

> <r_epik_Metal_State_Penalty>
3.07449

> <b_epik_Metal_Only>
1

> <s_lp_Force_Field>
OPLS_2005

> <r_lp_Energy>
14.2578

> <b_lp_Chiralities_Consistent>
1

> <s_lp_Variant>
AV-unprocessed.smi:1929-7

> <Gold.Version>
5.8.1

> <Gold.Id.Protein>
6NUR|6NUR_protein|mol2

> <Gold.PLP.Fitness>
41.6168

> <Gold.PLP.PLP>
-27.0639

> <Gold.PLP.part.hbond>
-3.7120

> <Gold.PLP.part.metal>
0.0000

> <Gold.PLP.part.buried>
-4.3254

> <Gold.PLP.part.nonpolar>
-20.1281

> <Gold.PLP.part.repulsive>
0.4251

> <Gold.PLP.ligand.clash>
0.0000

> <Gold.PLP.ligand.torsion>
0.6113

> <Gold.PLP.Chemscore.Hbond>
3.6257

> <Gold.PLP.Chemscore.CHOScore>
1.6163

> <Gold.PLP.Chemscore.Metal>
0.0000

> <Gold.Chemscore.Hbonds>
donor molecule, donor type, donor heavy atom, donor atom, acceptor molecule, acceptor atom, score
      L1  H    10    32       P1  7948  1.00
      L1  H    13    33       P1  7948  1.00
      P1  H  6934  6946       L1     2  1.33
      P1  H 10785 10796       L1    17  0.03
      L1  C    16    35       P1 10186  1.00
      L1  C    18    36       P1 10747  0.63

> <Gold.PLP.Chemscore.Internal.Correction>
0.0494

> <Gold.Rescore>
     Score         DG    S(hbond)    S(metal)    S(lipo)     H(rot)  DE(clash)    DE(int)     intcor
     12.85     -17.39       2.60        0.00      63.19       1.63       0.08       4.46       ----

> <Gold.Chemscore.Fitness>
12.8469

> <Gold.Chemscore.DG>
-17.3912

> <Gold.Chemscore.ZeroCoef>
-5.4800

> <Gold.Chemscore.Hbond>
2.6038

> <Gold.Chemscore.Metal>
0.0000

> <Gold.Chemscore.Lipo>
63.1886

> <Gold.Chemscore.Internal_Hbond>
0.0000

> <Gold.Chemscore.DEClash>
0.0829

> <Gold.Chemscore.DEInternal>
4.4614

> <Gold.Chemscore.Rot>
1.6323

> <Gold.Chemscore.Internal.Correction>
   9.000000E+99

> <Gold.Chemscore.Hbonds>
donor molecule, donor type, donor heavy atom, donor atom, acceptor molecule, acceptor atom, score
      L1  H    10    32       P1  7948  0.98
      L1  H    13    33       P1  7948  0.81
      P1  H  6934  6946       L1     2  0.56
      P1  H 10785 10796       L1    17  0.05

> <Gold.Chemscore.Hbond.Weighted>
-8.6967

> <Gold.Chemscore.Metal.Weighted>
-0.0000

> <Gold.Chemscore.Lipo.Weighted>
-7.3931

> <Gold.Chemscore.Internal_Hbond.Weighted>
0.0000

> <Gold.Chemscore.DEClash.Weighted>
0.0829

> <Gold.Chemscore.DEInternal.Weighted>
4.4614

> <Gold.Chemscore.Rot.Weighted>
4.1786

> <Gold.Chemscore.Internal.Correction.Weighted>
   9.000000E+99

> <Gold.Protein.RotatedTorsions>
[ 6907 6896 6895 6894 ] final   -0.04 input  -60.11 | X-H torsion
[ 7974 7965 7964 7962 ] final   25.51 input  175.53 | X-H torsion
[ 8008 7997 7996 7995 ] final  -80.61 input   59.86 | X-H torsion
[ 10167 10162 10161 10158 ] final -117.61 input  -65.29 | X-H torsion
[ 10718 10713 10712 10709 ] final  -99.64 input   66.30 | X-H torsion
[ 10763 10752 10751 10750 ] final   -0.32 input  -60.55 | X-H torsion
[ 11005 11000 10999 10996 ] final  -96.03 input  -57.11 | X-H torsion

> <Gold.Protein.ActiveResidues>
 VAL166  LYS551  ARG553  GLY616  TRP617  ASP618  TYR619  PRO620  LYS621  CYS622 
 ASP623  PHE694  ASN695  SER759  ASP760  ASP761  ALA762  ILE779  LEU786  VAL792 
 PHE793  MET794  SER795  GLU796  ALA797  LYS798  CYS799  TRP800  GLU811  SER814 

> <Gold.Protein.RotatedAtoms>
  151.5687  135.1063  159.9989 H   0  0  0  0  0  0  0  0  0  0  0  0  # atno 6907 bound_to 6896
  152.4411  133.7446  159.6671 H   0  0  0  0  0  0  0  0  0  0  0  0  # atno 6908 bound_to 6896
  150.8317  133.8011  159.3119 H   0  0  0  0  0  0  0  0  0  0  0  0  # atno 6909 bound_to 6896
  146.1885  139.7455  142.8849 H   0  0  0  0  0  0  0  0  0  0  0  0  # atno 7974 bound_to 7965
  154.5900  140.0660  156.9225 H   0  0  0  0  0  0  0  0  0  0  0  0  # atno 8008 bound_to 7997
  155.2312  140.3337  155.4285 H   0  0  0  0  0  0  0  0  0  0  0  0  # atno 8009 bound_to 7997
  156.2249  140.1815  156.7372 H   0  0  0  0  0  0  0  0  0  0  0  0  # atno 8010 bound_to 7997
  140.0665  143.4918  152.2003 H   0  0  0  0  0  0  0  0  0  0  0  0  # atno 10167 bound_to 10162
  156.0140  130.5292  150.6700 H   0  0  0  0  0  0  0  0  0  0  0  0  # atno 10718 bound_to 10713
  153.3303  135.6974  153.6953 H   0  0  0  0  0  0  0  0  0  0  0  0  # atno 10763 bound_to 10752
  153.5758  135.3507  155.2856 H   0  0  0  0  0  0  0  0  0  0  0  0  # atno 10764 bound_to 10752
  154.8616  135.4283  154.2490 H   0  0  0  0  0  0  0  0  0  0  0  0  # atno 10765 bound_to 10752
  141.1424  133.8068  157.0515 H   0  0  0  0  0  0  0  0  0  0  0  0  # atno 11005 bound_to 11000
  145.3867  141.0366  143.3147 LP  0  0  0  0  0  0  0  0  0  0  0  0  # atno 17320 bound_to 7965
  144.8441  139.5425  143.6887 LP  0  0  0  0  0  0  0  0  0  0  0  0  # atno 17321 bound_to 7965
  139.5862  144.7532  151.3514 LP  0  0  0  0  0  0  0  0  0  0  0  0  # atno 17342 bound_to 10162
  140.7147  143.7299  150.7632 LP  0  0  0  0  0  0  0  0  0  0  0  0  # atno 17343 bound_to 10162
  157.4425  131.0863  151.0929 LP  0  0  0  0  0  0  0  0  0  0  0  0  # atno 17370 bound_to 10713
  157.1469  130.6167  149.5571 LP  0  0  0  0  0  0  0  0  0  0  0  0  # atno 17371 bound_to 10713
  140.0629  134.9745  157.1335 LP  0  0  0  0  0  0  0  0  0  0  0  0  # atno 17394 bound_to 11000
  140.3823  134.2274  155.7170 LP  0  0  0  0  0  0  0  0  0  0  0  0  # atno 17395 bound_to 11000

$$$$
