AV-unprocessed.smi:172|AV-procd|sdf|1422|dock8
  -GOLD-   2262019193D 1   1.00000     0.00000
 Structure written by MMmdl.
 56 60  0  0  0  0  0  0  0  0  1 V2000
  147.1564  132.0460  151.3477 O   0  0  0  0  0  0  0  0  0  0  0  0
  147.4173  133.1227  152.2271 C   0  0  0  0  0  0  0  0  0  0  0  0
  146.1824  134.0179  152.4548 C   0  0  0  0  0  0  0  0  0  0  0  0
  146.4376  135.0260  153.5963 C   0  0  0  0  0  0  0  0  0  0  0  0
  146.6668  134.4271  154.9014 N   0  0  0  0  0  0  0  0  0  0  0  0
  145.7715  133.6693  155.6243 C   0  0  0  0  0  0  0  0  0  0  0  0
  146.2026  133.2482  156.7818 N   0  0  0  0  0  0  0  0  0  0  0  0
  147.4971  133.7441  156.8549 C   0  0  0  0  0  0  0  0  0  0  0  0
  148.5240  133.6733  157.8318 C   0  0  0  0  0  0  0  0  0  0  0  0
  148.3478  133.0281  159.0102 N   0  0  0  0  0  0  0  0  0  0  0  0
  148.0453  131.6050  158.8049 C   0  0  0  0  0  0  0  0  0  0  0  0
  149.1524  130.8186  158.1139 C   0  0  0  0  0  0  0  0  0  0  0  0
  149.3921  129.3705  158.4706 C   0  0  0  0  0  0  0  0  0  0  0  0
  150.4020  130.4215  158.8632 C   0  0  0  0  0  0  0  0  0  0  0  0
  147.5254  133.7825  159.9764 C   0  0  0  0  0  0  0  0  0  0  0  0
  148.0815  135.2124  160.2322 C   0  0  0  0  0  0  0  0  0  0  0  0
  147.2419  135.9969  161.2516 C   0  0  0  0  0  0  0  0  0  0  0  0
  147.1349  135.2419  162.5810 C   0  0  0  0  0  0  0  0  0  0  0  0
  146.5612  133.8384  162.3558 C   0  0  0  0  0  0  0  0  0  0  0  0
  147.3936  133.0462  161.3346 C   0  0  0  0  0  0  0  0  0  0  0  0
  149.7048  134.2912  157.5645 N   0  0  0  0  0  0  0  0  0  0  0  0
  149.8682  134.9384  156.4067 C   0  0  0  0  0  0  0  0  0  0  0  0
  148.9984  135.0918  155.4052 N   0  0  0  0  0  0  0  0  0  0  0  0
  147.8118  134.4765  155.6772 C   0  0  0  0  0  0  0  0  0  0  0  0
  145.6319  134.6528  151.1689 C   0  0  0  0  0  0  0  0  0  0  0  0
  144.5692  133.6819  151.0761 O   0  0  0  0  0  0  0  0  0  0  0  0
  144.8237  133.2977  152.4432 C   0  0  0  0  0  0  0  0  0  0  0  0
  147.9489  131.5413  151.2456 H   0  0  0  0  0  0  0  0  0  0  0  0
  147.7927  132.7245  153.1702 H   0  0  0  0  0  0  0  0  0  0  0  0
  148.2345  133.6988  151.7919 H   0  0  0  0  0  0  0  0  0  0  0  0
  147.2982  135.6519  153.3569 H   0  0  0  0  0  0  0  0  0  0  0  0
  145.5959  135.7132  153.6936 H   0  0  0  0  0  0  0  0  0  0  0  0
  144.7754  133.4491  155.2689 H   0  0  0  0  0  0  0  0  0  0  0  0
  147.8652  131.1233  159.7639 H   0  0  0  0  0  0  0  0  0  0  0  0
  147.1260  131.5060  158.2259 H   0  0  0  0  0  0  0  0  0  0  0  0
  149.2772  131.0498  157.0574 H   0  0  0  0  0  0  0  0  0  0  0  0
  148.7879  128.9348  159.2639 H   0  0  0  0  0  0  0  0  0  0  0  0
  149.6607  128.6925  157.6629 H   0  0  0  0  0  0  0  0  0  0  0  0
  151.3414  130.4524  158.3151 H   0  0  0  0  0  0  0  0  0  0  0  0
  150.4666  130.6915  159.9154 H   0  0  0  0  0  0  0  0  0  0  0  0
  146.5243  133.8775  159.5527 H   0  0  0  0  0  0  0  0  0  0  0  0
  149.1113  135.1459  160.5862 H   0  0  0  0  0  0  0  0  0  0  0  0
  148.1118  135.7953  159.3115 H   0  0  0  0  0  0  0  0  0  0  0  0
  147.6841  136.9794  161.4183 H   0  0  0  0  0  0  0  0  0  0  0  0
  146.2442  136.1711  160.8468 H   0  0  0  0  0  0  0  0  0  0  0  0
  148.1199  135.1683  163.0438 H   0  0  0  0  0  0  0  0  0  0  0  0
  146.5042  135.7965  163.2764 H   0  0  0  0  0  0  0  0  0  0  0  0
  146.5230  133.2977  163.3019 H   0  0  0  0  0  0  0  0  0  0  0  0
  145.5318  133.9165  162.0037 H   0  0  0  0  0  0  0  0  0  0  0  0
  146.9091  132.0791  161.2080 H   0  0  0  0  0  0  0  0  0  0  0  0
  148.3848  132.8494  161.7455 H   0  0  0  0  0  0  0  0  0  0  0  0
  150.8324  135.4030  156.2634 H   0  0  0  0  0  0  0  0  0  0  0  0
  145.2427  135.6635  151.3037 H   0  0  0  0  0  0  0  0  0  0  0  0
  146.3147  134.6127  150.3195 H   0  0  0  0  0  0  0  0  0  0  0  0
  144.8822  132.2163  152.5707 H   0  0  0  0  0  0  0  0  0  0  0  0
  144.0851  133.7282  153.1202 H   0  0  0  0  0  0  0  0  0  0  0  0
  1  2  1  0  0  0  0
  1 28  1  0  0  0  0
  2  3  1  0  0  0  0
  2 29  1  0  0  0  0
  2 30  1  0  0  0  0
  3 27  1  0  0  0  0
  3  4  1  0  0  0  0
  3 25  1  0  0  0  0
  4  5  1  0  0  0  0
  4 31  1  0  0  0  0
  4 32  1  0  0  0  0
  5 24  1  0  0  0  0
  5  6  1  0  0  0  0
  6  7  2  0  0  0  0
  6 33  1  0  0  0  0
  7  8  1  0  0  0  0
  8 24  2  0  0  0  0
  8  9  1  0  0  0  0
  9 10  1  0  0  0  0
  9 21  2  0  0  0  0
 10 11  1  0  0  0  0
 10 15  1  0  0  0  0
 11 12  1  0  0  0  0
 11 34  1  0  0  0  0
 11 35  1  0  0  0  0
 12 14  1  0  0  0  0
 12 13  1  0  0  0  0
 12 36  1  0  0  0  0
 13 14  1  0  0  0  0
 13 37  1  0  0  0  0
 13 38  1  0  0  0  0
 14 39  1  0  0  0  0
 14 40  1  0  0  0  0
 15 20  1  0  0  0  0
 15 16  1  0  0  0  0
 15 41  1  0  0  0  0
 16 17  1  0  0  0  0
 16 42  1  0  0  0  0
 16 43  1  0  0  0  0
 17 18  1  0  0  0  0
 17 44  1  0  0  0  0
 17 45  1  0  0  0  0
 18 19  1  0  0  0  0
 18 46  1  0  0  0  0
 18 47  1  0  0  0  0
 19 20  1  0  0  0  0
 19 48  1  0  0  0  0
 19 49  1  0  0  0  0
 20 50  1  0  0  0  0
 20 51  1  0  0  0  0
 21 22  1  0  0  0  0
 22 23  2  0  0  0  0
 22 52  1  0  0  0  0
 23 24  1  0  0  0  0
 25 26  1  0  0  0  0
 25 53  1  0  0  0  0
 25 54  1  0  0  0  0
 26 27  1  0  0  0  0
 27 55  1  0  0  0  0
 27 56  1  0  0  0  0
M  END
> <s_m_source_file>
AV-unprocessed.smi

> <i_m_source_file_index>
172

> <i_lp_mmshare_version>
43012

> <i_f3d_flags>
0

> <s_epik_input>
W0NIMl0xT1tDSDJdQzEoW0NIMl1bT0hdKVtDSDJdbihbY0hdbjIpYyhjMjMpbltjSF1uYzNOKFtDSDJdW0NIXTRbQ0gyXVtDSDJdNClbQ0hdNVtDSDJdW0NIMl1bQ0gyXVtDSDJdW0NIMl01

> <s_epik_cmdline>
J2VwaWtfcHl0aG9uJywgJy1waCcsICc3LjAnLCAnLXRuJywgJzgnLCAnLW1hJywgJzIwMCcsICctbWV0YWxfYmluZGluZycsICctaW1hZScsICc8aW5maWxlLm1hZT4nLCAnLW9tYWUnLCAnPG91dGZpbGUubWFlPic=

> <r_lp_tautomer_probability>
1

> <r_epik_Ionization_Penalty>
0.0023612

> <r_epik_Ionization_Penalty_Charging>
0

> <r_epik_Ionization_Penalty_Neutral>
0.0023612

> <r_epik_State_Penalty>
0.00145434

> <r_epik_Charging_Adjusted_Penalty>
0.00145434

> <i_epik_Tot_Q>
0

> <i_epik_Tot_abs_Q>
0

> <r_epik_Metal_State_Penalty>
-0

> <b_epik_Metal_Only>
0

> <s_lp_Force_Field>
OPLS_2005

> <r_lp_Energy>
48.1575

> <b_lp_Chiralities_Consistent>
1

> <s_lp_Variant>
AV-unprocessed.smi:172-1

> <Gold.Version>
5.8.1

> <Gold.Id.Protein>
6NUR|6NUR_protein|mol2

> <Gold.PLP.Fitness>
38.1157

> <Gold.PLP.PLP>
-31.5098

> <Gold.PLP.part.hbond>
-1.8115

> <Gold.PLP.part.metal>
0.0000

> <Gold.PLP.part.buried>
-5.5515

> <Gold.PLP.part.nonpolar>
-25.4959

> <Gold.PLP.part.repulsive>
0.2529

> <Gold.PLP.ligand.clash>
0.0000

> <Gold.PLP.ligand.torsion>
0.8905

> <Gold.PLP.Chemscore.Hbond>
1.9760

> <Gold.PLP.Chemscore.CHOScore>
0.3569

> <Gold.PLP.Chemscore.Metal>
0.0000

> <Gold.Chemscore.Hbonds>
donor molecule, donor type, donor heavy atom, donor atom, acceptor molecule, acceptor atom, score
      L1  H     1    28       P1 10747  0.96
      P1  H  6896  6908       L1    21  1.00
      L1  C     6    33       P1 10957  0.50

> <Gold.PLP.Chemscore.Internal.Correction>
1.3880

> <Gold.Rescore>
     Score         DG    S(hbond)    S(metal)    S(lipo)     H(rot)  DE(clash)    DE(int)     intcor
     10.81     -12.30       1.90        0.00      67.06       2.87       0.00       1.49       ----

> <Gold.Chemscore.Fitness>
10.8132

> <Gold.Chemscore.DG>
-12.3037

> <Gold.Chemscore.ZeroCoef>
-5.4800

> <Gold.Chemscore.Hbond>
1.8972

> <Gold.Chemscore.Metal>
0.0000

> <Gold.Chemscore.Lipo>
67.0561

> <Gold.Chemscore.Internal_Hbond>
0.0000

> <Gold.Chemscore.DEClash>
0.0047

> <Gold.Chemscore.DEInternal>
1.4858

> <Gold.Chemscore.Rot>
2.8744

> <Gold.Chemscore.Internal.Correction>
   9.000000E+99

> <Gold.Chemscore.Hbonds>
donor molecule, donor type, donor heavy atom, donor atom, acceptor molecule, acceptor atom, score
      L1  H     1    28       P1 10747  0.89
      P1  H  6896  6908       L1    21  0.27

> <Gold.Chemscore.Hbond.Weighted>
-6.3365

> <Gold.Chemscore.Metal.Weighted>
-0.0000

> <Gold.Chemscore.Lipo.Weighted>
-7.8456

> <Gold.Chemscore.Internal_Hbond.Weighted>
0.0000

> <Gold.Chemscore.DEClash.Weighted>
0.0047

> <Gold.Chemscore.DEInternal.Weighted>
1.4858

> <Gold.Chemscore.Rot.Weighted>
7.3584

> <Gold.Chemscore.Internal.Correction.Weighted>
   9.000000E+99

> <Gold.Protein.RotatedTorsions>
[ 6907 6896 6895 6894 ] final  134.18 input  -60.11 | X-H torsion
[ 7974 7965 7964 7962 ] final  -18.90 input  175.53 | X-H torsion
[ 8008 7997 7996 7995 ] final  -92.64 input   59.86 | X-H torsion
[ 10167 10162 10161 10158 ] final -111.33 input  -65.29 | X-H torsion
[ 10718 10713 10712 10709 ] final   43.66 input   66.30 | X-H torsion
[ 10763 10752 10751 10750 ] final  129.44 input  -60.55 | X-H torsion
[ 11005 11000 10999 10996 ] final  111.53 input  -57.11 | X-H torsion

> <Gold.Protein.ActiveResidues>
 VAL166  LYS551  ARG553  GLY616  TRP617  ASP618  TYR619  PRO620  LYS621  CYS622 
 ASP623  PHE694  ASN695  SER759  ASP760  ASP761  ALA762  ILE779  LEU786  VAL792 
 PHE793  MET794  SER795  GLU796  ALA797  LYS798  CYS799  TRP800  GLU811  SER814 

> <Gold.Protein.RotatedAtoms>
  152.3140  133.5783  159.5699 H   0  0  0  0  0  0  0  0  0  0  0  0  # atno 6907 bound_to 6896
  150.7337  134.0109  159.3678 H   0  0  0  0  0  0  0  0  0  0  0  0  # atno 6908 bound_to 6896
  151.8000  135.0712  160.0450 H   0  0  0  0  0  0  0  0  0  0  0  0  # atno 6909 bound_to 6896
  146.1869  140.3986  142.8473 H   0  0  0  0  0  0  0  0  0  0  0  0  # atno 7974 bound_to 7965
  154.7256  140.0507  157.0680 H   0  0  0  0  0  0  0  0  0  0  0  0  # atno 8008 bound_to 7997
  155.0369  140.3164  155.4719 H   0  0  0  0  0  0  0  0  0  0  0  0  # atno 8009 bound_to 7997
  156.2828  140.2140  156.5492 H   0  0  0  0  0  0  0  0  0  0  0  0  # atno 8010 bound_to 7997
  140.1348  143.4330  152.1603 H   0  0  0  0  0  0  0  0  0  0  0  0  # atno 10167 bound_to 10162
  157.4183  130.7954  149.7492 H   0  0  0  0  0  0  0  0  0  0  0  0  # atno 10718 bound_to 10713
  153.7418  135.3223  155.3305 H   0  0  0  0  0  0  0  0  0  0  0  0  # atno 10763 bound_to 10752
  154.8292  135.4546  154.1018 H   0  0  0  0  0  0  0  0  0  0  0  0  # atno 10764 bound_to 10752
  153.2196  135.6946  153.8098 H   0  0  0  0  0  0  0  0  0  0  0  0  # atno 10765 bound_to 10752
  139.8906  134.9510  156.6447 H   0  0  0  0  0  0  0  0  0  0  0  0  # atno 11005 bound_to 11000
  144.8414  140.6862  143.6227 LP  0  0  0  0  0  0  0  0  0  0  0  0  # atno 17320 bound_to 7965
  145.3911  139.1616  143.4228 LP  0  0  0  0  0  0  0  0  0  0  0  0  # atno 17321 bound_to 7965
  139.5501  144.7331  151.4460 LP  0  0  0  0  0  0  0  0  0  0  0  0  # atno 17342 bound_to 10162
  140.6796  143.8113  150.7103 LP  0  0  0  0  0  0  0  0  0  0  0  0  # atno 17343 bound_to 10162
  155.9872  130.3968  150.3175 LP  0  0  0  0  0  0  0  0  0  0  0  0  # atno 17370 bound_to 10713
  157.1320  131.0274  151.2965 LP  0  0  0  0  0  0  0  0  0  0  0  0  # atno 17371 bound_to 10713
  140.7567  133.8852  155.8387 LP  0  0  0  0  0  0  0  0  0  0  0  0  # atno 17394 bound_to 11000
  140.9956  134.1220  157.4367 LP  0  0  0  0  0  0  0  0  0  0  0  0  # atno 17395 bound_to 11000

$$$$
