AV-unprocessed.smi:109|AV-procd|sdf|1053|dock4
  -GOLD-   2262018113D 1   1.00000     0.00000
 Structure written by MMmdl.
 58 61  0  0  0  0  0  0  0  0  1 V2000
  149.8433  140.5158  153.8745 O   0  0  0  0  0  0  0  0  0  0  0  0
  148.7612  141.1223  154.5474 C   0  0  0  0  0  0  0  0  0  0  0  0
  149.2867  142.0227  155.6787 C   0  0  0  0  0  0  0  0  0  0  0  0
  150.4966  141.4377  156.4492 C   0  0  2  0  0  0  0  0  0  0  0  0
  150.1764  140.0851  156.9104 N   0  0  0  0  0  0  0  0  0  0  0  0
  150.6846  138.9791  156.3218 C   0  0  0  0  0  0  0  0  0  0  0  0
  151.9639  138.9380  155.8662 N   0  0  0  0  0  0  0  0  0  0  0  0
  152.4316  137.8317  155.2796 C   0  0  0  0  0  0  0  0  0  0  0  0
  151.8009  136.6770  155.0530 N   0  0  0  0  0  0  0  0  0  0  0  0
  150.5170  136.7145  155.5124 C   0  0  0  0  0  0  0  0  0  0  0  0
  149.8886  137.8174  156.1526 C   0  0  0  0  0  0  0  0  0  0  0  0
  148.5783  137.4888  156.4762 N   0  0  0  0  0  0  0  0  0  0  0  0
  148.4456  136.2614  156.0490 C   0  0  0  0  0  0  0  0  0  0  0  0
  149.5655  135.7215  155.4517 N   0  0  0  0  0  0  0  0  0  0  0  0
  149.7585  134.3685  154.8490 C   0  0  1  0  0  0  0  0  0  0  0  0
  150.5177  133.6114  155.7449 O   0  0  0  0  0  0  0  0  0  0  0  0
  149.8192  132.4309  156.1250 C   0  0  1  0  0  0  0  0  0  0  0  0
  150.2182  131.9823  157.5420 C   0  0  0  0  0  0  0  0  0  0  0  0
  149.8961  132.9850  158.4819 O   0  0  0  0  0  0  0  0  0  0  0  0
  148.3364  132.7427  155.8792 C   0  0  1  0  0  0  0  0  0  0  0  0
  147.7420  133.3918  156.9883 O   0  0  0  0  0  0  0  0  0  0  0  0
  148.3925  133.6819  154.6834 C   0  0  2  0  0  0  0  0  0  0  0  0
  148.3273  132.9624  153.4686 O   0  0  0  0  0  0  0  0  0  0  0  0
  150.9386  142.3004  157.6663 C   0  0  0  0  0  0  0  0  0  0  0  0
  151.4026  143.7256  157.2739 C   0  0  0  0  0  0  0  0  0  0  0  0
  151.8763  144.5444  158.4860 C   0  0  0  0  0  0  0  0  0  0  0  0
  152.9932  143.8227  159.2492 C   0  0  0  0  0  0  0  0  0  0  0  0
  152.5366  142.4218  159.6726 C   0  0  0  0  0  0  0  0  0  0  0  0
  152.0720  141.6005  158.4599 C   0  0  0  0  0  0  0  0  0  0  0  0
  150.2910  134.5555  153.9153 H   0  0  0  0  0  0  0  0  0  0  0  0
  150.1257  131.6619  155.4133 H   0  0  0  0  0  0  0  0  0  0  0  0
  147.7606  131.8388  155.6751 H   0  0  0  0  0  0  0  0  0  0  0  0
  147.5793  134.4102  154.6806 H   0  0  0  0  0  0  0  0  0  0  0  0
  149.5116  140.0761  153.1067 H   0  0  0  0  0  0  0  0  0  0  0  0
  148.1813  141.6942  153.8230 H   0  0  0  0  0  0  0  0  0  0  0  0
  148.1121  140.3424  154.9465 H   0  0  0  0  0  0  0  0  0  0  0  0
  149.5663  142.9689  155.2181 H   0  0  0  0  0  0  0  0  0  0  0  0
  148.4786  142.2460  156.3768 H   0  0  0  0  0  0  0  0  0  0  0  0
  151.3430  141.4176  155.7630 H   0  0  0  0  0  0  0  0  0  0  0  0
  149.5453  140.0362  157.6974 H   0  0  0  0  0  0  0  0  0  0  0  0
  153.4566  137.8794  154.9422 H   0  0  0  0  0  0  0  0  0  0  0  0
  147.5179  135.7183  156.1564 H   0  0  0  0  0  0  0  0  0  0  0  0
  149.6715  131.0782  157.8109 H   0  0  0  0  0  0  0  0  0  0  0  0
  151.2790  131.7399  157.6055 H   0  0  0  0  0  0  0  0  0  0  0  0
  148.9565  133.0162  158.5785 H   0  0  0  0  0  0  0  0  0  0  0  0
  147.3751  132.7341  157.5591 H   0  0  0  0  0  0  0  0  0  0  0  0
  149.1629  133.0322  153.0325 H   0  0  0  0  0  0  0  0  0  0  0  0
  150.0803  142.4076  158.3318 H   0  0  0  0  0  0  0  0  0  0  0  0
  152.2056  143.6626  156.5383 H   0  0  0  0  0  0  0  0  0  0  0  0
  150.5923  144.2817  156.8053 H   0  0  0  0  0  0  0  0  0  0  0  0
  152.2247  145.5243  158.1582 H   0  0  0  0  0  0  0  0  0  0  0  0
  151.0345  144.7248  159.1558 H   0  0  0  0  0  0  0  0  0  0  0  0
  153.8801  143.7468  158.6190 H   0  0  0  0  0  0  0  0  0  0  0  0
  153.2825  144.4030  160.1257 H   0  0  0  0  0  0  0  0  0  0  0  0
  153.3505  141.9047  160.1815 H   0  0  0  0  0  0  0  0  0  0  0  0
  151.7226  142.5028  160.3939 H   0  0  0  0  0  0  0  0  0  0  0  0
  151.7497  140.6212  158.8142 H   0  0  0  0  0  0  0  0  0  0  0  0
  152.9218  141.4192  157.8001 H   0  0  0  0  0  0  0  0  0  0  0  0
  1  2  1  0  0  0  0
  1 34  1  0  0  0  0
  2  3  1  0  0  0  0
  2 35  1  0  0  0  0
  2 36  1  0  0  0  0
  3  4  1  0  0  0  0
  3 37  1  0  0  0  0
  3 38  1  0  0  0  0
  4  5  1  0  0  0  0
  4 24  1  0  0  0  0
  4 39  1  0  0  0  0
  5  6  1  0  0  0  0
  5 40  1  0  0  0  0
  6 11  1  0  0  0  0
  6  7  2  0  0  0  0
  7  8  1  0  0  0  0
  8  9  2  0  0  0  0
  8 41  1  0  0  0  0
  9 10  1  0  0  0  0
 10 14  1  0  0  0  0
 10 11  2  0  0  0  0
 11 12  1  0  0  0  0
 12 13  2  0  0  0  0
 13 14  1  0  0  0  0
 13 42  1  0  0  0  0
 14 15  1  0  0  0  0
 15 30  1  0  0  0  0
 15 22  1  0  0  0  0
 15 16  1  0  0  0  0
 16 17  1  0  0  0  0
 17 31  1  0  0  0  0
 17 18  1  0  0  0  0
 17 20  1  0  0  0  0
 18 19  1  0  0  0  0
 18 43  1  0  0  0  0
 18 44  1  0  0  0  0
 19 45  1  0  0  0  0
 20 32  1  0  0  0  0
 20 21  1  0  0  0  0
 20 22  1  0  0  0  0
 21 46  1  0  0  0  0
 22 33  1  0  0  0  0
 22 23  1  0  0  0  0
 23 47  1  0  0  0  0
 24 29  1  0  0  0  0
 24 25  1  0  0  0  0
 24 48  1  0  0  0  0
 25 26  1  0  0  0  0
 25 49  1  0  0  0  0
 25 50  1  0  0  0  0
 26 27  1  0  0  0  0
 26 51  1  0  0  0  0
 26 52  1  0  0  0  0
 27 28  1  0  0  0  0
 27 53  1  0  0  0  0
 27 54  1  0  0  0  0
 28 29  1  0  0  0  0
 28 55  1  0  0  0  0
 28 56  1  0  0  0  0
 29 57  1  0  0  0  0
 29 58  1  0  0  0  0
M  END
> <s_m_source_file>
AV-unprocessed.smi

> <i_m_source_file_index>
109

> <i_lp_mmshare_version>
43012

> <i_f3d_flags>
0

> <s_epik_input>
W0NIMl0xW0NIMl1bQ0gyXVtDSDJdW0NIMl1bQ0hdMVtDQEhdKFtDSDJdW0NIMl1bT0hdKVtOSF1jKG5bY0hdbjIpYyhjMjMpbltjSF1uM1tDQEBIXTRPW0NASF0oW0NIMl1bT0hdKVtDQEBIXShbT0hdKVtDQEhdNFtPSF0=

> <s_epik_cmdline>
J2VwaWtfcHl0aG9uJywgJy1waCcsICc3LjAnLCAnLXRuJywgJzgnLCAnLW1hJywgJzIwMCcsICctbWV0YWxfYmluZGluZycsICctaW1hZScsICc8aW5maWxlLm1hZT4nLCAnLW9tYWUnLCAnPG91dGZpbGUubWFlPic=

> <r_lp_tautomer_probability>
1

> <r_epik_Ionization_Penalty>
0.000793976

> <r_epik_Ionization_Penalty_Charging>
0

> <r_epik_Ionization_Penalty_Neutral>
0.000793976

> <r_epik_State_Penalty>
-0

> <r_epik_Charging_Adjusted_Penalty>
0

> <i_epik_Tot_Q>
0

> <i_epik_Tot_abs_Q>
0

> <r_epik_Metal_State_Penalty>
-0

> <b_epik_Metal_Only>
0

> <s_epik_Chemistry_Notes>
This compound contains an acetal/aminal-like group ( X-CH(R)-Y where X, Y are N, S, or O) that may be acid/base labile, releasing an aldehyde.

> <s_lp_Force_Field>
OPLS_2005

> <r_lp_Energy>
46.6527

> <b_lp_Chiralities_Consistent>
1

> <s_lp_Variant>
AV-unprocessed.smi:109-23

> <Gold.Version>
5.8.1

> <Gold.Id.Protein>
6NUR|6NUR_protein|mol2

> <Gold.PLP.Fitness>
51.7241

> <Gold.PLP.PLP>
-42.6688

> <Gold.PLP.part.hbond>
-4.4957

> <Gold.PLP.part.metal>
0.0000

> <Gold.PLP.part.buried>
-0.1208

> <Gold.PLP.part.nonpolar>
-38.8318

> <Gold.PLP.part.repulsive>
0.2052

> <Gold.PLP.ligand.clash>
0.0000

> <Gold.PLP.ligand.torsion>
0.9213

> <Gold.PLP.Chemscore.Hbond>
3.5760

> <Gold.PLP.Chemscore.CHOScore>
0.0000

> <Gold.PLP.Chemscore.Metal>
0.0000

> <Gold.Chemscore.Hbonds>
donor molecule, donor type, donor heavy atom, donor atom, acceptor molecule, acceptor atom, score
      L1  H     1    34       P1  7957  0.86
      P1  H  6896  6907       L1    19  0.73
      P1  H  7989  7998       L1     1  0.64
      P1  H 10752 10764       L1     9  1.00

> <Gold.PLP.Chemscore.Internal.Correction>
0.1698

> <Gold.Rescore>
     Score         DG    S(hbond)    S(metal)    S(lipo)     H(rot)  DE(clash)    DE(int)     intcor
     11.37     -13.36       2.98        0.00     101.76       5.47       1.14       0.85       ----

> <Gold.Chemscore.Fitness>
11.3661

> <Gold.Chemscore.DG>
-13.3623

> <Gold.Chemscore.ZeroCoef>
-5.4800

> <Gold.Chemscore.Hbond>
2.9850

> <Gold.Chemscore.Metal>
0.0000

> <Gold.Chemscore.Lipo>
101.7615

> <Gold.Chemscore.Internal_Hbond>
0.0000

> <Gold.Chemscore.DEClash>
1.1440

> <Gold.Chemscore.DEInternal>
0.8523

> <Gold.Chemscore.Rot>
5.4662

> <Gold.Chemscore.Internal.Correction>
   9.000000E+99

> <Gold.Chemscore.Hbonds>
donor molecule, donor type, donor heavy atom, donor atom, acceptor molecule, acceptor atom, score
      L1  H     1    34       P1  7957  0.84
      P1  H  6896  6907       L1    19  0.70
      P1  H  7989  7998       L1     1  0.29
      P1  H 10752 10764       L1     9  0.60

> <Gold.Chemscore.Hbond.Weighted>
-9.9698

> <Gold.Chemscore.Metal.Weighted>
-0.0000

> <Gold.Chemscore.Lipo.Weighted>
-11.9061

> <Gold.Chemscore.Internal_Hbond.Weighted>
0.0000

> <Gold.Chemscore.DEClash.Weighted>
1.1440

> <Gold.Chemscore.DEInternal.Weighted>
0.8523

> <Gold.Chemscore.Rot.Weighted>
13.9935

> <Gold.Chemscore.Internal.Correction.Weighted>
   9.000000E+99

> <Gold.Protein.RotatedTorsions>
[ 6907 6896 6895 6894 ] final -135.75 input  -60.11 | X-H torsion
[ 7974 7965 7964 7962 ] final -150.80 input  175.53 | X-H torsion
[ 8008 7997 7996 7995 ] final   73.55 input   59.86 | X-H torsion
[ 10167 10162 10161 10158 ] final  -50.59 input  -65.29 | X-H torsion
[ 10718 10713 10712 10709 ] final  128.67 input   66.30 | X-H torsion
[ 10763 10752 10751 10750 ] final  -57.40 input  -60.55 | X-H torsion
[ 11005 11000 10999 10996 ] final  155.90 input  -57.11 | X-H torsion

> <Gold.Protein.ActiveResidues>
 VAL166  LYS551  ARG553  GLY616  TRP617  ASP618  TYR619  PRO620  LYS621  CYS622 
 ASP623  PHE694  ASN695  SER759  ASP760  ASP761  ALA762  ILE779  LEU786  VAL792 
 PHE793  MET794  SER795  GLU796  ALA797  LYS798  CYS799  TRP800  GLU811  SER814 

> <Gold.Protein.RotatedAtoms>
  151.0017  133.6050  159.2693 H   0  0  0  0  0  0  0  0  0  0  0  0  # atno 6907 bound_to 6896
  151.3233  135.0823  159.9323 H   0  0  0  0  0  0  0  0  0  0  0  0  # atno 6908 bound_to 6896
  152.5275  133.9660  159.7794 H   0  0  0  0  0  0  0  0  0  0  0  0  # atno 6909 bound_to 6896
  144.7887  140.4884  143.5788 H   0  0  0  0  0  0  0  0  0  0  0  0  # atno 7974 bound_to 7965
  155.7853  140.3481  155.5319 H   0  0  0  0  0  0  0  0  0  0  0  0  # atno 8008 bound_to 7997
  155.8688  140.0983  157.1585 H   0  0  0  0  0  0  0  0  0  0  0  0  # atno 8009 bound_to 7997
  154.4016  140.1344  156.4039 H   0  0  0  0  0  0  0  0  0  0  0  0  # atno 8010 bound_to 7997
  140.6630  143.2652  151.4381 H   0  0  0  0  0  0  0  0  0  0  0  0  # atno 10167 bound_to 10162
  157.5223  131.1098  150.9135 H   0  0  0  0  0  0  0  0  0  0  0  0  # atno 10718 bound_to 10713
  154.2218  135.6376  153.5147 H   0  0  0  0  0  0  0  0  0  0  0  0  # atno 10763 bound_to 10752
  152.9967  135.5498  154.6106 H   0  0  0  0  0  0  0  0  0  0  0  0  # atno 10764 bound_to 10752
  154.5568  135.2906  155.0931 H   0  0  0  0  0  0  0  0  0  0  0  0  # atno 10765 bound_to 10752
  140.1625  134.8600  157.2591 H   0  0  0  0  0  0  0  0  0  0  0  0  # atno 11005 bound_to 11000
  145.5853  139.1491  143.3212 LP  0  0  0  0  0  0  0  0  0  0  0  0  # atno 17320 bound_to 7965
  146.2129  140.5981  142.9051 LP  0  0  0  0  0  0  0  0  0  0  0  0  # atno 17321 bound_to 7965
  139.5870  144.1583  152.2041 LP  0  0  0  0  0  0  0  0  0  0  0  0  # atno 17342 bound_to 10162
  140.0925  144.5608  150.7044 LP  0  0  0  0  0  0  0  0  0  0  0  0  # atno 17343 bound_to 10162
  156.9741  130.5502  149.5292 LP  0  0  0  0  0  0  0  0  0  0  0  0  # atno 17370 bound_to 10713
  156.0362  130.5449  150.8659 LP  0  0  0  0  0  0  0  0  0  0  0  0  # atno 17371 bound_to 10713
  140.2473  134.3724  155.7456 LP  0  0  0  0  0  0  0  0  0  0  0  0  # atno 17394 bound_to 11000
  141.2210  133.7297  156.8881 LP  0  0  0  0  0  0  0  0  0  0  0  0  # atno 17395 bound_to 11000

$$$$
