AV-unprocessed.smi:216|AV-procd|sdf|1659|dock1
  -GOLD-   2262020 53D 1   1.00000     0.00000
 Structure written by MMmdl.
 65 69  0  0  0  0  0  0  0  0  1 V2000
  153.7800  141.3433  160.4278 C   0  0  0  0  0  0  0  0  0  0  0  0
  152.9103  141.3850  159.1526 C   0  0  1  0  0  0  0  0  0  0  0  0
  151.9480  140.1801  159.1489 C   0  0  0  0  0  0  0  0  0  0  0  0
  151.1395  140.1104  157.8508 C   0  0  0  0  0  0  0  0  0  0  0  0
  150.4510  141.3743  157.6067 N   0  0  0  0  0  0  0  0  0  0  0  0
  149.4728  141.3720  156.6643 C   0  0  0  0  0  0  0  0  0  0  0  0
  149.7894  141.1704  155.3565 N   0  0  0  0  0  0  0  0  0  0  0  0
  148.8357  141.1710  154.4211 C   0  0  0  0  0  0  0  0  0  0  0  0
  147.5218  141.3450  154.5703 N   0  0  0  0  0  0  0  0  0  0  0  0
  147.1942  141.5405  155.8795 C   0  0  0  0  0  0  0  0  0  0  0  0
  148.0990  141.5747  156.9784 C   0  0  0  0  0  0  0  0  0  0  0  0
  147.3984  141.7968  158.1570 N   0  0  0  0  0  0  0  0  0  0  0  0
  146.1548  141.9006  157.7767 C   0  0  0  0  0  0  0  0  0  0  0  0
  145.9379  141.7376  156.4270 N   0  0  0  0  0  0  0  0  0  0  0  0
  144.6576  141.7898  155.7353 C   0  0  0  0  0  0  0  0  0  0  0  0
  143.4482  141.2557  156.5604 C   0  0  0  0  0  0  0  0  0  0  0  0
  142.1816  141.1256  155.6660 C   0  0  0  0  0  0  0  0  0  0  0  0
  142.2740  140.0449  154.7591 O   0  0  0  0  0  0  0  0  0  0  0  0
  143.8424  139.8911  157.1793 C   0  0  0  0  0  0  0  0  0  0  0  0
  142.8437  139.4025  158.2443 C   0  0  0  0  0  0  0  0  0  0  0  0
  142.7049  140.3821  159.2651 O   0  0  0  0  0  0  0  0  0  0  0  0
  142.1891  141.6147  158.7802 C   0  0  0  0  0  0  0  0  0  0  0  0
  143.1505  142.2168  157.7392 C   0  0  0  0  0  0  0  0  0  0  0  0
  151.3256  142.5467  157.5691 C   0  0  0  0  0  0  0  0  0  0  0  0
  152.1512  142.7315  158.8782 C   0  0  0  0  0  0  0  0  0  0  0  0
  151.2209  143.1302  160.0638 C   0  0  0  0  0  0  0  0  0  0  0  0
  150.5890  144.5279  159.9204 C   0  0  0  0  0  0  0  0  0  0  0  0
  151.6542  145.6087  159.6979 C   0  0  0  0  0  0  0  0  0  0  0  0
  152.5370  145.2676  158.4909 C   0  0  0  0  0  0  0  0  0  0  0  0
  153.1790  143.8778  158.6523 C   0  0  0  0  0  0  0  0  0  0  0  0
  153.1839  141.4314  161.3354 H   0  0  0  0  0  0  0  0  0  0  0  0
  154.5412  142.1210  160.4443 H   0  0  0  0  0  0  0  0  0  0  0  0
  154.3115  140.3934  160.4929 H   0  0  0  0  0  0  0  0  0  0  0  0
  153.5957  141.2342  158.3169 H   0  0  0  0  0  0  0  0  0  0  0  0
  152.5088  139.2523  159.2677 H   0  0  0  0  0  0  0  0  0  0  0  0
  151.2704  140.2345  160.0012 H   0  0  0  0  0  0  0  0  0  0  0  0
  151.8024  139.8906  157.0127 H   0  0  0  0  0  0  0  0  0  0  0  0
  150.4179  139.2947  157.9166 H   0  0  0  0  0  0  0  0  0  0  0  0
  149.1736  141.0084  153.4084 H   0  0  0  0  0  0  0  0  0  0  0  0
  145.3544  142.0878  158.4777 H   0  0  0  0  0  0  0  0  0  0  0  0
  144.4838  142.8219  155.4279 H   0  0  0  0  0  0  0  0  0  0  0  0
  144.7584  141.2241  154.8080 H   0  0  0  0  0  0  0  0  0  0  0  0
  141.2818  140.9760  156.2600 H   0  0  0  0  0  0  0  0  0  0  0  0
  142.0112  142.0397  155.0973 H   0  0  0  0  0  0  0  0  0  0  0  0
  142.9980  140.2059  154.1732 H   0  0  0  0  0  0  0  0  0  0  0  0
  143.9576  139.1335  156.4038 H   0  0  0  0  0  0  0  0  0  0  0  0
  144.8204  139.9789  157.6546 H   0  0  0  0  0  0  0  0  0  0  0  0
  141.8720  139.1684  157.8087 H   0  0  0  0  0  0  0  0  0  0  0  0
  143.2095  138.4812  158.6979 H   0  0  0  0  0  0  0  0  0  0  0  0
  141.1894  141.4700  158.3694 H   0  0  0  0  0  0  0  0  0  0  0  0
  142.0812  142.2993  159.6216 H   0  0  0  0  0  0  0  0  0  0  0  0
  144.0827  142.4650  158.2481 H   0  0  0  0  0  0  0  0  0  0  0  0
  142.7433  143.1604  157.3744 H   0  0  0  0  0  0  0  0  0  0  0  0
  152.0059  142.4205  156.7255 H   0  0  0  0  0  0  0  0  0  0  0  0
  150.7486  143.4420  157.3468 H   0  0  0  0  0  0  0  0  0  0  0  0
  150.4264  142.3958  160.1957 H   0  0  0  0  0  0  0  0  0  0  0  0
  151.7852  143.1291  160.9951 H   0  0  0  0  0  0  0  0  0  0  0  0
  149.8795  144.5421  159.0954 H   0  0  0  0  0  0  0  0  0  0  0  0
  150.0116  144.7617  160.8150 H   0  0  0  0  0  0  0  0  0  0  0  0
  151.1778  146.5784  159.5509 H   0  0  0  0  0  0  0  0  0  0  0  0
  152.2737  145.6997  160.5912 H   0  0  0  0  0  0  0  0  0  0  0  0
  151.9496  145.3142  157.5738 H   0  0  0  0  0  0  0  0  0  0  0  0
  153.3181  146.0211  158.3856 H   0  0  0  0  0  0  0  0  0  0  0  0
  153.8640  143.9436  159.4958 H   0  0  0  0  0  0  0  0  0  0  0  0
  153.7994  143.6608  157.7820 H   0  0  0  0  0  0  0  0  0  0  0  0
  1  2  1  0  0  0  0
  1 31  1  0  0  0  0
  1 32  1  0  0  0  0
  1 33  1  0  0  0  0
  2 25  1  0  0  0  0
  2  3  1  0  0  0  0
  2 34  1  0  0  0  0
  3  4  1  0  0  0  0
  3 35  1  0  0  0  0
  3 36  1  0  0  0  0
  4  5  1  0  0  0  0
  4 37  1  0  0  0  0
  4 38  1  0  0  0  0
  5  6  1  0  0  0  0
  5 24  1  0  0  0  0
  6 11  1  0  0  0  0
  6  7  2  0  0  0  0
  7  8  1  0  0  0  0
  8  9  2  0  0  0  0
  8 39  1  0  0  0  0
  9 10  1  0  0  0  0
 10 14  1  0  0  0  0
 10 11  2  0  0  0  0
 11 12  1  0  0  0  0
 12 13  2  0  0  0  0
 13 14  1  0  0  0  0
 13 40  1  0  0  0  0
 14 15  1  0  0  0  0
 15 16  1  0  0  0  0
 15 41  1  0  0  0  0
 15 42  1  0  0  0  0
 16 23  1  0  0  0  0
 16 17  1  0  0  0  0
 16 19  1  0  0  0  0
 17 18  1  0  0  0  0
 17 43  1  0  0  0  0
 17 44  1  0  0  0  0
 18 45  1  0  0  0  0
 19 20  1  0  0  0  0
 19 46  1  0  0  0  0
 19 47  1  0  0  0  0
 20 21  1  0  0  0  0
 20 48  1  0  0  0  0
 20 49  1  0  0  0  0
 21 22  1  0  0  0  0
 22 23  1  0  0  0  0
 22 50  1  0  0  0  0
 22 51  1  0  0  0  0
 23 52  1  0  0  0  0
 23 53  1  0  0  0  0
 24 25  1  0  0  0  0
 24 54  1  0  0  0  0
 24 55  1  0  0  0  0
 25 30  1  0  0  0  0
 25 26  1  0  0  0  0
 26 27  1  0  0  0  0
 26 56  1  0  0  0  0
 26 57  1  0  0  0  0
 27 28  1  0  0  0  0
 27 58  1  0  0  0  0
 27 59  1  0  0  0  0
 28 29  1  0  0  0  0
 28 60  1  0  0  0  0
 28 61  1  0  0  0  0
 29 30  1  0  0  0  0
 29 62  1  0  0  0  0
 29 63  1  0  0  0  0
 30 64  1  0  0  0  0
 30 65  1  0  0  0  0
M  END
> <s_m_source_file>
AV-unprocessed.smi

> <i_m_source_file_index>
216

> <i_lp_mmshare_version>
43012

> <i_f3d_flags>
0

> <s_epik_input>
W0NIMl0xW0NIMl1bQ0gyXVtDSDJdW0NIMl1DMTJbQ0BIXShbQ0gzXSlbQ0gyXVtDSDJdTihbQ0gyXTIpYyhuW2NIXW4zKWMoYzM0KW5bY0hdbjRbQ0gyXUM1KFtDSDJdW09IXSlbQ0gyXVtDSDJdT1tDSDJdW0NIMl01

> <s_epik_cmdline>
J2VwaWtfcHl0aG9uJywgJy1waCcsICc3LjAnLCAnLXRuJywgJzgnLCAnLW1hJywgJzIwMCcsICctbWV0YWxfYmluZGluZycsICctaW1hZScsICc8aW5maWxlLm1hZT4nLCAnLW9tYWUnLCAnPG91dGZpbGUubWFlPic=

> <r_lp_tautomer_probability>
1

> <r_epik_Ionization_Penalty>
0.00291566

> <r_epik_Ionization_Penalty_Charging>
0

> <r_epik_Ionization_Penalty_Neutral>
0.00291566

> <r_epik_State_Penalty>
0.00199166

> <r_epik_Charging_Adjusted_Penalty>
0.00199166

> <i_epik_Tot_Q>
0

> <i_epik_Tot_abs_Q>
0

> <r_epik_Metal_State_Penalty>
-0

> <b_epik_Metal_Only>
0

> <s_lp_Force_Field>
OPLS_2005

> <r_lp_Energy>
50.0726

> <b_lp_Chiralities_Consistent>
1

> <s_lp_Variant>
AV-unprocessed.smi:216-2

> <Gold.Version>
5.8.1

> <Gold.Id.Protein>
6NUR|6NUR_protein|mol2

> <Gold.PLP.Fitness>
45.7908

> <Gold.PLP.PLP>
-40.9044

> <Gold.PLP.part.hbond>
-1.0153

> <Gold.PLP.part.metal>
0.0000

> <Gold.PLP.part.buried>
-6.8086

> <Gold.PLP.part.nonpolar>
-33.5587

> <Gold.PLP.part.repulsive>
0.3678

> <Gold.PLP.ligand.clash>
0.0000

> <Gold.PLP.ligand.torsion>
0.7233

> <Gold.PLP.Chemscore.Hbond>
0.9920

> <Gold.PLP.Chemscore.CHOScore>
1.0000

> <Gold.PLP.Chemscore.Metal>
0.0000

> <Gold.Chemscore.Hbonds>
donor molecule, donor type, donor heavy atom, donor atom, acceptor molecule, acceptor atom, score
      L1  H    18    45       P1 10175  0.99
      L1  C     8    39       P1  7957  1.00

> <Gold.PLP.Chemscore.Internal.Correction>
0.3570

> <Gold.Rescore>
     Score         DG    S(hbond)    S(metal)    S(lipo)     H(rot)  DE(clash)    DE(int)     intcor
     14.66     -16.48       0.94        0.00     115.30       2.20       0.28       1.55       ----

> <Gold.Chemscore.Fitness>
14.6571

> <Gold.Chemscore.DG>
-16.4821

> <Gold.Chemscore.ZeroCoef>
-5.4800

> <Gold.Chemscore.Hbond>
0.9429

> <Gold.Chemscore.Metal>
0.0000

> <Gold.Chemscore.Lipo>
115.2987

> <Gold.Chemscore.Internal_Hbond>
0.0000

> <Gold.Chemscore.DEClash>
0.2790

> <Gold.Chemscore.DEInternal>
1.5460

> <Gold.Chemscore.Rot>
2.2019

> <Gold.Chemscore.Internal.Correction>
   9.000000E+99

> <Gold.Chemscore.Hbonds>
donor molecule, donor type, donor heavy atom, donor atom, acceptor molecule, acceptor atom, score
      L1  H    18    45       P1 10175  0.93

> <Gold.Chemscore.Hbond.Weighted>
-3.1491

> <Gold.Chemscore.Metal.Weighted>
-0.0000

> <Gold.Chemscore.Lipo.Weighted>
-13.4900

> <Gold.Chemscore.Internal_Hbond.Weighted>
0.0000

> <Gold.Chemscore.DEClash.Weighted>
0.2790

> <Gold.Chemscore.DEInternal.Weighted>
1.5460

> <Gold.Chemscore.Rot.Weighted>
5.6370

> <Gold.Chemscore.Internal.Correction.Weighted>
   9.000000E+99

> <Gold.Protein.RotatedTorsions>
[ 6907 6896 6895 6894 ] final  151.45 input  -60.11 | X-H torsion
[ 7974 7965 7964 7962 ] final   97.70 input  175.53 | X-H torsion
[ 8008 7997 7996 7995 ] final  -54.61 input   59.86 | X-H torsion
[ 10167 10162 10161 10158 ] final -120.95 input  -65.29 | X-H torsion
[ 10718 10713 10712 10709 ] final  -46.54 input   66.30 | X-H torsion
[ 10763 10752 10751 10750 ] final -158.37 input  -60.55 | X-H torsion
[ 11005 11000 10999 10996 ] final   42.74 input  -57.11 | X-H torsion

> <Gold.Protein.ActiveResidues>
 VAL166  LYS551  ARG553  GLY616  TRP617  ASP618  TYR619  PRO620  LYS621  CYS622 
 ASP623  PHE694  ASN695  SER759  ASP760  ASP761  ALA762  ILE779  LEU786  VAL792 
 PHE793  MET794  SER795  GLU796  ALA797  LYS798  CYS799  TRP800  GLU811  SER814 

> <Gold.Protein.RotatedAtoms>
  152.1005  133.4247  159.4584 H   0  0  0  0  0  0  0  0  0  0  0  0  # atno 6907 bound_to 6896
  150.6864  134.2766  159.4619 H   0  0  0  0  0  0  0  0  0  0  0  0  # atno 6908 bound_to 6896
  152.0625  134.9584  160.0625 H   0  0  0  0  0  0  0  0  0  0  0  0  # atno 6909 bound_to 6896
  145.4220  139.2320  143.3191 H   0  0  0  0  0  0  0  0  0  0  0  0  # atno 7974 bound_to 7965
  154.4168  140.1172  156.5343 H   0  0  0  0  0  0  0  0  0  0  0  0  # atno 8008 bound_to 7997
  155.6573  140.3496  155.4750 H   0  0  0  0  0  0  0  0  0  0  0  0  # atno 8009 bound_to 7997
  155.9743  140.1147  157.0774 H   0  0  0  0  0  0  0  0  0  0  0  0  # atno 8010 bound_to 7997
  140.0303  143.5255  152.2179 H   0  0  0  0  0  0  0  0  0  0  0  0  # atno 10167 bound_to 10162
  156.2173  130.4164  149.9038 H   0  0  0  0  0  0  0  0  0  0  0  0  # atno 10718 bound_to 10713
  154.7562  135.3105  154.8465 H   0  0  0  0  0  0  0  0  0  0  0  0  # atno 10763 bound_to 10752
  153.9238  135.6792  153.4751 H   0  0  0  0  0  0  0  0  0  0  0  0  # atno 10764 bound_to 10752
  153.1160  135.4844  154.9045 H   0  0  0  0  0  0  0  0  0  0  0  0  # atno 10765 bound_to 10752
  140.1711  134.4221  155.8257 H   0  0  0  0  0  0  0  0  0  0  0  0  # atno 11005 bound_to 11000
  146.2651  140.4946  142.8837 LP  0  0  0  0  0  0  0  0  0  0  0  0  # atno 17320 bound_to 7965
  144.8239  140.6595  143.6335 LP  0  0  0  0  0  0  0  0  0  0  0  0  # atno 17321 bound_to 7965
  139.6080  144.7601  151.3017 LP  0  0  0  0  0  0  0  0  0  0  0  0  # atno 17342 bound_to 10162
  140.7305  143.6879  150.7946 LP  0  0  0  0  0  0  0  0  0  0  0  0  # atno 17343 bound_to 10162
  156.6696  130.8815  151.3560 LP  0  0  0  0  0  0  0  0  0  0  0  0  # atno 17370 bound_to 10713
  157.7069  130.9396  150.0962 LP  0  0  0  0  0  0  0  0  0  0  0  0  # atno 17371 bound_to 10713
  141.2217  133.6956  156.7764 LP  0  0  0  0  0  0  0  0  0  0  0  0  # atno 17394 bound_to 11000
  140.2377  134.8637  157.3541 LP  0  0  0  0  0  0  0  0  0  0  0  0  # atno 17395 bound_to 11000

$$$$
