AV-unprocessed.smi:1236|AV-procd|sdf|5179|dock7
  -GOLD-   22720 4263D 1   1.00000     0.00000
 Structure written by MMmdl.
 39 40  0  0  0  0  0  0  0  0  1 V2000
  147.1537  139.6595  151.7408 C   0  0  0  0  0  0  0  0  0  0  0  0
  146.3964  138.7139  152.6827 C   0  0  2  0  0  0  0  0  0  0  0  0
  146.8654  138.8865  154.1435 C   0  0  0  0  0  0  0  0  0  0  0  0
  148.2354  139.3723  154.3167 N   0  0  0  0  0  0  0  0  0  0  0  0
  149.1561  138.3254  154.7545 C   0  0  0  0  0  0  0  0  0  0  0  0
  150.5858  138.8629  154.9371 C   0  0  0  0  0  0  0  0  0  0  0  0
  150.5749  139.9475  155.8599 O   0  0  0  0  0  0  0  0  0  0  0  0
  149.7192  141.0090  155.4497 C   0  0  0  0  0  0  0  0  0  0  0  0
  148.2875  140.4761  155.2687 C   0  0  0  0  0  0  0  0  0  0  0  0
  146.6058  137.3344  152.2445 N   0  0  0  0  0  0  0  0  0  0  0  0
  145.6475  136.4789  151.8574 C   0  0  0  0  0  0  0  0  0  0  0  0
  144.4535  136.7736  151.7949 O   0  0  0  0  0  0  0  0  0  0  0  0
  146.1659  135.2746  151.5593 N   0  0  0  0  0  0  0  0  0  0  0  0
  145.4828  134.1073  151.1254 C   0  0  0  0  0  0  0  0  0  0  0  0
  146.2808  132.9441  151.0393 C   0  0  0  0  0  0  0  0  0  0  0  0
  145.6976  131.7331  150.6192 C   0  0  0  0  0  0  0  0  0  0  0  0
  144.3295  131.7164  150.2942 C   0  0  0  0  0  0  0  0  0  0  0  0
  143.6070  132.9186  150.4062 C   0  0  0  0  0  0  0  0  0  0  0  0
  144.1638  134.0800  150.8091 N   0  0  0  0  0  0  0  0  0  0  0  0
  147.0045  140.7004  152.0287 H   0  0  0  0  0  0  0  0  0  0  0  0
  146.8067  139.5503  150.7126 H   0  0  0  0  0  0  0  0  0  0  0  0
  148.2259  139.4613  151.7539 H   0  0  0  0  0  0  0  0  0  0  0  0
  145.3415  138.9801  152.6085 H   0  0  0  0  0  0  0  0  0  0  0  0
  146.1827  139.5852  154.6293 H   0  0  0  0  0  0  0  0  0  0  0  0
  146.7470  137.9409  154.6746 H   0  0  0  0  0  0  0  0  0  0  0  0
  148.8086  137.8953  155.6948 H   0  0  0  0  0  0  0  0  0  0  0  0
  149.1824  137.5125  154.0306 H   0  0  0  0  0  0  0  0  0  0  0  0
  151.2411  138.0785  155.3156 H   0  0  0  0  0  0  0  0  0  0  0  0
  150.9979  139.1918  153.9820 H   0  0  0  0  0  0  0  0  0  0  0  0
  149.7394  141.7957  156.2039 H   0  0  0  0  0  0  0  0  0  0  0  0
  150.0888  141.4451  154.5205 H   0  0  0  0  0  0  0  0  0  0  0  0
  147.6427  141.2880  154.9304 H   0  0  0  0  0  0  0  0  0  0  0  0
  147.8989  140.1508  156.2350 H   0  0  0  0  0  0  0  0  0  0  0  0
  147.5569  136.9977  152.2642 H   0  0  0  0  0  0  0  0  0  0  0  0
  147.1652  135.1790  151.6626 H   0  0  0  0  0  0  0  0  0  0  0  0
  147.3305  132.9749  151.2926 H   0  0  0  0  0  0  0  0  0  0  0  0
  146.2903  130.8332  150.5475 H   0  0  0  0  0  0  0  0  0  0  0  0
  143.8465  130.8074  149.9676 H   0  0  0  0  0  0  0  0  0  0  0  0
  142.5546  132.9491  150.1655 H   0  0  0  0  0  0  0  0  0  0  0  0
  1  2  1  0  0  0  0
  1 20  1  0  0  0  0
  1 21  1  0  0  0  0
  1 22  1  0  0  0  0
  2  3  1  0  0  0  0
  2 10  1  0  0  0  0
  2 23  1  0  0  0  0
  3  4  1  0  0  0  0
  3 24  1  0  0  0  0
  3 25  1  0  0  0  0
  4  9  1  0  0  0  0
  4  5  1  0  0  0  0
  5  6  1  0  0  0  0
  5 26  1  0  0  0  0
  5 27  1  0  0  0  0
  6  7  1  0  0  0  0
  6 28  1  0  0  0  0
  6 29  1  0  0  0  0
  7  8  1  0  0  0  0
  8  9  1  0  0  0  0
  8 30  1  0  0  0  0
  8 31  1  0  0  0  0
  9 32  1  0  0  0  0
  9 33  1  0  0  0  0
 10 11  1  0  0  0  0
 10 34  1  0  0  0  0
 11 12  2  0  0  0  0
 11 13  1  0  0  0  0
 13 14  1  0  0  0  0
 13 35  1  0  0  0  0
 14 19  1  0  0  0  0
 14 15  2  0  0  0  0
 15 16  1  0  0  0  0
 15 36  1  0  0  0  0
 16 17  2  0  0  0  0
 16 37  1  0  0  0  0
 17 18  1  0  0  0  0
 17 38  1  0  0  0  0
 18 19  2  0  0  0  0
 18 39  1  0  0  0  0
M  END
> <s_m_source_file>
AV-unprocessed.smi

> <i_m_source_file_index>
1236

> <i_lp_mmshare_version>
43012

> <i_f3d_flags>
0

> <s_epik_input>
W0NIMl0xW0NIMl1PW0NIMl1bQ0gyXU4xW0NIMl1bQ0BASF0oW0NIM10pW05IXUMoPU8pW05IXWMyW2NIXVtjSF1bY0hdW2NIXW4y

> <s_epik_cmdline>
J2VwaWtfcHl0aG9uJywgJy1waCcsICc3LjAnLCAnLXRuJywgJzgnLCAnLW1hJywgJzIwMCcsICctbWV0YWxfYmluZGluZycsICctaW1hZScsICc8aW5maWxlLm1hZT4nLCAnLW9tYWUnLCAnPG91dGZpbGUubWFlPic=

> <r_epik_Ionization_Penalty>
0.26604

> <r_epik_Ionization_Penalty_Charging>
0

> <r_epik_Ionization_Penalty_Neutral>
0.26604

> <r_epik_State_Penalty>
0.257924

> <r_epik_Charging_Adjusted_Penalty>
0.257924

> <i_epik_Tot_Q>
0

> <i_epik_Tot_abs_Q>
0

> <r_epik_Metal_State_Penalty>
0.257923

> <b_epik_Metal_Only>
0

> <s_lp_Force_Field>
OPLS_2005

> <r_lp_Energy>
27.6221

> <b_lp_Chiralities_Consistent>
1

> <s_lp_Variant>
AV-unprocessed.smi:1236-1

> <Gold.Version>
5.8.1

> <Gold.Id.Protein>
6NUR|6NUR_protein|mol2

> <Gold.PLP.Fitness>
38.6607

> <Gold.PLP.PLP>
-32.1309

> <Gold.PLP.part.hbond>
-2.9489

> <Gold.PLP.part.metal>
0.0000

> <Gold.PLP.part.buried>
-0.9968

> <Gold.PLP.part.nonpolar>
-29.3487

> <Gold.PLP.part.repulsive>
1.1469

> <Gold.PLP.ligand.clash>
0.0000

> <Gold.PLP.ligand.torsion>
1.1299

> <Gold.PLP.Chemscore.Hbond>
1.9280

> <Gold.PLP.Chemscore.CHOScore>
0.9985

> <Gold.PLP.Chemscore.Metal>
0.0000

> <Gold.Chemscore.Hbonds>
donor molecule, donor type, donor heavy atom, donor atom, acceptor molecule, acceptor atom, score
      L1  H    10    34       P1  7948  1.00
      L1  H    13    35       P1  7948  0.87
      L1  C    18    39       P1 10186  1.00

> <Gold.PLP.Chemscore.Internal.Correction>
0.0103

> <Gold.Rescore>
     Score         DG    S(hbond)    S(metal)    S(lipo)     H(rot)  DE(clash)    DE(int)     intcor
     14.28     -17.57       1.91        0.00      81.86       1.51       1.17       2.12       ----

> <Gold.Chemscore.Fitness>
14.2841

> <Gold.Chemscore.DG>
-17.5734

> <Gold.Chemscore.ZeroCoef>
-5.4800

> <Gold.Chemscore.Hbond>
1.9108

> <Gold.Chemscore.Metal>
0.0000

> <Gold.Chemscore.Lipo>
81.8629

> <Gold.Chemscore.Internal_Hbond>
0.0000

> <Gold.Chemscore.DEClash>
1.1736

> <Gold.Chemscore.DEInternal>
2.1157

> <Gold.Chemscore.Rot>
1.5104

> <Gold.Chemscore.Internal.Correction>
   9.000000E+99

> <Gold.Chemscore.Hbonds>
donor molecule, donor type, donor heavy atom, donor atom, acceptor molecule, acceptor atom, score
      L1  H    10    34       P1  7948  0.99
      L1  H    13    35       P1  7948  0.77

> <Gold.Chemscore.Hbond.Weighted>
-6.3820

> <Gold.Chemscore.Metal.Weighted>
-0.0000

> <Gold.Chemscore.Lipo.Weighted>
-9.5780

> <Gold.Chemscore.Internal_Hbond.Weighted>
0.0000

> <Gold.Chemscore.DEClash.Weighted>
1.1736

> <Gold.Chemscore.DEInternal.Weighted>
2.1157

> <Gold.Chemscore.Rot.Weighted>
3.8665

> <Gold.Chemscore.Internal.Correction.Weighted>
   9.000000E+99

> <Gold.Protein.RotatedTorsions>
[ 6907 6896 6895 6894 ] final -167.16 input  -60.11 | X-H torsion
[ 7974 7965 7964 7962 ] final  -97.48 input  175.53 | X-H torsion
[ 8008 7997 7996 7995 ] final  -72.25 input   59.86 | X-H torsion
[ 10167 10162 10161 10158 ] final   81.92 input  -65.29 | X-H torsion
[ 10718 10713 10712 10709 ] final  -59.12 input   66.30 | X-H torsion
[ 10763 10752 10751 10750 ] final  102.47 input  -60.55 | X-H torsion
[ 11005 11000 10999 10996 ] final  -36.32 input  -57.11 | X-H torsion

> <Gold.Protein.ActiveResidues>
 VAL166  LYS551  ARG553  GLY616  TRP617  ASP618  TYR619  PRO620  LYS621  CYS622 
 ASP623  PHE694  ASN695  SER759  ASP760  ASP761  ALA762  ILE779  LEU786  VAL792 
 PHE793  MET794  SER795  GLU796  ALA797  LYS798  CYS799  TRP800  GLU811  SER814 

> <Gold.Protein.RotatedAtoms>
  151.4550  133.3607  159.2800 H   0  0  0  0  0  0  0  0  0  0  0  0  # atno 6907 bound_to 6896
  150.9064  134.8481  159.7406 H   0  0  0  0  0  0  0  0  0  0  0  0  # atno 6908 bound_to 6896
  152.4908  134.4476  159.9616 H   0  0  0  0  0  0  0  0  0  0  0  0  # atno 6909 bound_to 6896
  145.3332  140.9445  143.2650 H   0  0  0  0  0  0  0  0  0  0  0  0  # atno 7974 bound_to 7965
  154.5152  140.0800  156.8066 H   0  0  0  0  0  0  0  0  0  0  0  0  # atno 8008 bound_to 7997
  155.3697  140.3422  155.4225 H   0  0  0  0  0  0  0  0  0  0  0  0  # atno 8009 bound_to 7997
  156.1619  140.1591  156.8585 H   0  0  0  0  0  0  0  0  0  0  0  0  # atno 8010 bound_to 7997
  139.9342  144.6132  150.8315 H   0  0  0  0  0  0  0  0  0  0  0  0  # atno 10167 bound_to 10162
  156.1085  130.4177  150.0671 H   0  0  0  0  0  0  0  0  0  0  0  0  # atno 10718 bound_to 10713
  153.3400  135.4009  155.1564 H   0  0  0  0  0  0  0  0  0  0  0  0  # atno 10763 bound_to 10752
  154.8641  135.3631  154.5358 H   0  0  0  0  0  0  0  0  0  0  0  0  # atno 10764 bound_to 10752
  153.5802  135.7077  153.5526 H   0  0  0  0  0  0  0  0  0  0  0  0  # atno 10765 bound_to 10752
  140.9866  133.7027  156.1776 H   0  0  0  0  0  0  0  0  0  0  0  0  # atno 11005 bound_to 11000
  144.8848  139.4855  143.6706 LP  0  0  0  0  0  0  0  0  0  0  0  0  # atno 17320 bound_to 7965
  146.3037  139.7510  142.9072 LP  0  0  0  0  0  0  0  0  0  0  0  0  # atno 17321 bound_to 7965
  140.7629  143.3209  151.2623 LP  0  0  0  0  0  0  0  0  0  0  0  0  # atno 17342 bound_to 10162
  139.6757  143.9942  152.2779 LP  0  0  0  0  0  0  0  0  0  0  0  0  # atno 17343 bound_to 10162
  156.8641  130.9502  151.3615 LP  0  0  0  0  0  0  0  0  0  0  0  0  # atno 17370 bound_to 10713
  157.6264  130.8695  149.9196 LP  0  0  0  0  0  0  0  0  0  0  0  0  # atno 17371 bound_to 10713
  140.7105  134.4466  157.5582 LP  0  0  0  0  0  0  0  0  0  0  0  0  # atno 17394 bound_to 11000
  139.8973  134.8639  156.2050 LP  0  0  0  0  0  0  0  0  0  0  0  0  # atno 17395 bound_to 11000

$$$$
