AV-unprocessed.smi:178|AV-procd|sdf|1446|dock10
  -GOLD-   2262019243D 1   1.00000     0.00000
 Structure written by MMmdl.
 50 52  0  0  0  0  0  0  0  0  1 V2000
  153.0768  142.5950  161.3432 C   0  0  0  0  0  0  0  0  0  0  0  0
  153.0804  141.5419  160.3955 O   0  0  0  0  0  0  0  0  0  0  0  0
  153.9907  140.5102  160.7341 C   0  0  0  0  0  0  0  0  0  0  0  0
  153.9947  139.4689  159.6042 C   0  0  0  0  0  0  0  0  0  0  0  0
  153.1077  138.3348  159.8746 N   0  0  0  0  0  0  0  0  0  0  0  0
  153.4849  137.3898  160.9229 C   0  0  0  0  0  0  0  0  0  0  0  0
  154.8015  136.6635  160.6169 C   0  0  0  0  0  0  0  0  0  0  0  0
  154.5872  135.3817  159.9302 C   0  0  0  0  0  0  0  0  0  0  0  0
  154.4184  134.3727  159.3897 N   0  0  0  0  0  0  0  0  0  0  0  0
  152.0389  138.0975  159.0588 C   0  0  0  0  0  0  0  0  0  0  0  0
  151.0418  137.3019  159.5318 N   0  0  0  0  0  0  0  0  0  0  0  0
  149.9723  137.0199  158.7846 C   0  0  0  0  0  0  0  0  0  0  0  0
  149.6934  137.4229  157.5458 N   0  0  0  0  0  0  0  0  0  0  0  0
  150.6780  138.2286  157.0574 C   0  0  0  0  0  0  0  0  0  0  0  0
  151.8725  138.6152  157.7354 C   0  0  0  0  0  0  0  0  0  0  0  0
  152.6158  139.4513  156.9070 N   0  0  0  0  0  0  0  0  0  0  0  0
  151.9146  139.5413  155.8115 C   0  0  0  0  0  0  0  0  0  0  0  0
  150.7323  138.8403  155.8172 N   0  0  0  0  0  0  0  0  0  0  0  0
  149.7620  138.7647  154.7358 C   0  0  0  0  0  0  0  0  0  0  0  0
  149.0012  140.0903  154.4969 C   0  0  2  0  0  0  0  0  0  0  0  0
  149.5917  140.7567  153.3918 O   0  0  0  0  0  0  0  0  0  0  0  0
  149.0080  141.0337  155.6904 C   0  0  0  0  0  0  0  0  0  0  0  0
  147.7735  141.8905  155.4405 C   0  0  0  0  0  0  0  0  0  0  0  0
  146.8244  140.9997  154.8692 O   0  0  0  0  0  0  0  0  0  0  0  0
  147.4867  139.8878  154.2677 C   0  0  1  0  0  0  0  0  0  0  0  0
  147.0283  139.7009  152.8123 C   0  0  0  0  0  0  0  0  0  0  0  0
  152.3593  143.3576  161.0408 H   0  0  0  0  0  0  0  0  0  0  0  0
  154.0586  143.0652  161.4133 H   0  0  0  0  0  0  0  0  0  0  0  0
  152.7890  142.2354  162.3319 H   0  0  0  0  0  0  0  0  0  0  0  0
  154.9890  140.9274  160.8735 H   0  0  0  0  0  0  0  0  0  0  0  0
  153.6932  140.0505  161.6769 H   0  0  0  0  0  0  0  0  0  0  0  0
  153.6749  139.9514  158.6802 H   0  0  0  0  0  0  0  0  0  0  0  0
  155.0101  139.1202  159.4132 H   0  0  0  0  0  0  0  0  0  0  0  0
  153.5926  137.9387  161.8589 H   0  0  0  0  0  0  0  0  0  0  0  0
  152.6802  136.6793  161.1080 H   0  0  0  0  0  0  0  0  0  0  0  0
  155.4484  137.2733  159.9869 H   0  0  0  0  0  0  0  0  0  0  0  0
  155.3476  136.4552  161.5364 H   0  0  0  0  0  0  0  0  0  0  0  0
  149.2358  136.3785  159.2456 H   0  0  0  0  0  0  0  0  0  0  0  0
  152.2394  140.1299  154.9656 H   0  0  0  0  0  0  0  0  0  0  0  0
  150.2842  138.4613  153.8273 H   0  0  0  0  0  0  0  0  0  0  0  0
  149.0603  137.9618  154.9652 H   0  0  0  0  0  0  0  0  0  0  0  0
  149.5707  140.1744  152.6474 H   0  0  0  0  0  0  0  0  0  0  0  0
  148.8697  140.4714  156.6147 H   0  0  0  0  0  0  0  0  0  0  0  0
  149.9250  141.6169  155.7870 H   0  0  0  0  0  0  0  0  0  0  0  0
  147.3909  142.3537  156.3501 H   0  0  0  0  0  0  0  0  0  0  0  0
  147.9936  142.6812  154.7221 H   0  0  0  0  0  0  0  0  0  0  0  0
  147.1626  139.0167  154.8387 H   0  0  0  0  0  0  0  0  0  0  0  0
  147.5386  138.8581  152.3457 H   0  0  0  0  0  0  0  0  0  0  0  0
  147.2214  140.5892  152.2105 H   0  0  0  0  0  0  0  0  0  0  0  0
  145.9567  139.5050  152.7691 H   0  0  0  0  0  0  0  0  0  0  0  0
  1  2  1  0  0  0  0
  1 27  1  0  0  0  0
  1 28  1  0  0  0  0
  1 29  1  0  0  0  0
  2  3  1  0  0  0  0
  3  4  1  0  0  0  0
  3 30  1  0  0  0  0
  3 31  1  0  0  0  0
  4  5  1  0  0  0  0
  4 32  1  0  0  0  0
  4 33  1  0  0  0  0
  5  6  1  0  0  0  0
  5 10  1  0  0  0  0
  6  7  1  0  0  0  0
  6 34  1  0  0  0  0
  6 35  1  0  0  0  0
  7  8  1  0  0  0  0
  7 36  1  0  0  0  0
  7 37  1  0  0  0  0
  8  9  3  0  0  0  0
 10 15  1  0  0  0  0
 10 11  2  0  0  0  0
 11 12  1  0  0  0  0
 12 13  2  0  0  0  0
 12 38  1  0  0  0  0
 13 14  1  0  0  0  0
 14 18  1  0  0  0  0
 14 15  2  0  0  0  0
 15 16  1  0  0  0  0
 16 17  2  0  0  0  0
 17 18  1  0  0  0  0
 17 39  1  0  0  0  0
 18 19  1  0  0  0  0
 19 20  1  0  0  0  0
 19 40  1  0  0  0  0
 19 41  1  0  0  0  0
 20 25  1  0  0  0  0
 20 21  1  0  0  0  0
 20 22  1  0  0  0  0
 21 42  1  0  0  0  0
 22 23  1  0  0  0  0
 22 43  1  0  0  0  0
 22 44  1  0  0  0  0
 23 24  1  0  0  0  0
 23 45  1  0  0  0  0
 23 46  1  0  0  0  0
 24 25  1  0  0  0  0
 25 26  1  0  0  0  0
 25 47  1  0  0  0  0
 26 48  1  0  0  0  0
 26 49  1  0  0  0  0
 26 50  1  0  0  0  0
M  END
> <s_m_source_file>
AV-unprocessed.smi

> <i_m_source_file_index>
178

> <i_lp_mmshare_version>
43012

> <i_f3d_flags>
0

> <s_epik_input>
W0NIM11PW0NIMl1bQ0gyXU4oW0NIMl1bQ0gyXUMjTiljKG5bY0hdbjEpYyhjMTIpbltjSF1uMltDSDJdW0NAQF0zKFtPSF0pW0NIMl1bQ0gyXU9bQ0BIXTNbQ0gzXQ==

> <s_epik_cmdline>
J2VwaWtfcHl0aG9uJywgJy1waCcsICc3LjAnLCAnLXRuJywgJzgnLCAnLW1hJywgJzIwMCcsICctbWV0YWxfYmluZGluZycsICctaW1hZScsICc8aW5maWxlLm1hZT4nLCAnLW9tYWUnLCAnPG91dGZpbGUubWFlPic=

> <r_lp_tautomer_probability>
1

> <r_epik_Ionization_Penalty>
0.000885317

> <r_epik_Ionization_Penalty_Charging>
0

> <r_epik_Ionization_Penalty_Neutral>
0.000885317

> <r_epik_State_Penalty>
0.00047273

> <r_epik_Charging_Adjusted_Penalty>
0.00047273

> <i_epik_Tot_Q>
0

> <i_epik_Tot_abs_Q>
0

> <r_epik_Metal_State_Penalty>
-0

> <b_epik_Metal_Only>
0

> <s_lp_Force_Field>
OPLS_2005

> <r_lp_Energy>
29.3608

> <b_lp_Chiralities_Consistent>
1

> <s_lp_Variant>
AV-unprocessed.smi:178-2

> <Gold.Version>
5.8.1

> <Gold.Id.Protein>
6NUR|6NUR_protein|mol2

> <Gold.PLP.Fitness>
47.4162

> <Gold.PLP.PLP>
-37.8590

> <Gold.PLP.part.hbond>
-5.0946

> <Gold.PLP.part.metal>
0.0000

> <Gold.PLP.part.buried>
-3.8415

> <Gold.PLP.part.nonpolar>
-29.8678

> <Gold.PLP.part.repulsive>
0.0981

> <Gold.PLP.ligand.clash>
0.0000

> <Gold.PLP.ligand.torsion>
1.7361

> <Gold.PLP.Chemscore.Hbond>
4.2400

> <Gold.PLP.Chemscore.CHOScore>
0.0000

> <Gold.PLP.Chemscore.Metal>
0.0000

> <Gold.Chemscore.Hbonds>
donor molecule, donor type, donor heavy atom, donor atom, acceptor molecule, acceptor atom, score
      L1  H    21    42       P1  7957  0.84
      P1  H  6896  6908       L1    11  0.36
      P1  H  6896  6909       L1     9  1.00
      P1  H  7989  7998       L1    21  0.24
      P1  H  7997  8009       L1    16  1.00
      P1  H  8011  8017       L1    21  0.75

> <Gold.PLP.Chemscore.Internal.Correction>
0.3094

> <Gold.Rescore>
     Score         DG    S(hbond)    S(metal)    S(lipo)     H(rot)  DE(clash)    DE(int)     intcor
     12.79     -15.69       2.89        0.00      78.67       3.37       0.17       2.73       ----

> <Gold.Chemscore.Fitness>
12.7869

> <Gold.Chemscore.DG>
-15.6905

> <Gold.Chemscore.ZeroCoef>
-5.4800

> <Gold.Chemscore.Hbond>
2.8868

> <Gold.Chemscore.Metal>
0.0000

> <Gold.Chemscore.Lipo>
78.6662

> <Gold.Chemscore.Internal_Hbond>
0.0000

> <Gold.Chemscore.DEClash>
0.1740

> <Gold.Chemscore.DEInternal>
2.7296

> <Gold.Chemscore.Rot>
3.3732

> <Gold.Chemscore.Internal.Correction>
   9.000000E+99

> <Gold.Chemscore.Hbonds>
donor molecule, donor type, donor heavy atom, donor atom, acceptor molecule, acceptor atom, score
      L1  H    21    42       P1  7957  0.79
      P1  H  6896  6908       L1    11  0.03
      P1  H  6896  6909       L1     9  0.56
      P1  H  7989  7998       L1    21  0.03
      P1  H  7997  8009       L1    16  0.92
      P1  H  8011  8017       L1    21  0.09

> <Gold.Chemscore.Hbond.Weighted>
-9.6419

> <Gold.Chemscore.Metal.Weighted>
-0.0000

> <Gold.Chemscore.Lipo.Weighted>
-9.2039

> <Gold.Chemscore.Internal_Hbond.Weighted>
0.0000

> <Gold.Chemscore.DEClash.Weighted>
0.1740

> <Gold.Chemscore.DEInternal.Weighted>
2.7296

> <Gold.Chemscore.Rot.Weighted>
8.6354

> <Gold.Chemscore.Internal.Correction.Weighted>
   9.000000E+99

> <Gold.Protein.RotatedTorsions>
[ 6907 6896 6895 6894 ] final -127.63 input  -60.11 | X-H torsion
[ 7974 7965 7964 7962 ] final   64.94 input  175.53 | X-H torsion
[ 8008 7997 7996 7995 ] final  165.57 input   59.86 | X-H torsion
[ 10167 10162 10161 10158 ] final  -45.06 input  -65.29 | X-H torsion
[ 10718 10713 10712 10709 ] final -146.16 input   66.30 | X-H torsion
[ 10763 10752 10751 10750 ] final  117.11 input  -60.55 | X-H torsion
[ 11005 11000 10999 10996 ] final -107.51 input  -57.11 | X-H torsion

> <Gold.Protein.ActiveResidues>
 VAL166  LYS551  ARG553  GLY616  TRP617  ASP618  TYR619  PRO620  LYS621  CYS622 
 ASP623  PHE694  ASN695  SER759  ASP760  ASP761  ALA762  ILE779  LEU786  VAL792 
 PHE793  MET794  SER795  GLU796  ALA797  LYS798  CYS799  TRP800  GLU811  SER814 

> <Gold.Protein.RotatedAtoms>
  150.9094  133.7017  159.2858 H   0  0  0  0  0  0  0  0  0  0  0  0  # atno 6907 bound_to 6896
  151.4509  135.1028  159.9707 H   0  0  0  0  0  0  0  0  0  0  0  0  # atno 6908 bound_to 6896
  152.4921  133.8480  159.7242 H   0  0  0  0  0  0  0  0  0  0  0  0  # atno 6909 bound_to 6896
  145.8443  139.3214  143.0913 H   0  0  0  0  0  0  0  0  0  0  0  0  # atno 7974 bound_to 7965
  156.1790  140.1666  156.8309 H   0  0  0  0  0  0  0  0  0  0  0  0  # atno 8008 bound_to 7997
  154.5339  140.0751  156.8426 H   0  0  0  0  0  0  0  0  0  0  0  0  # atno 8009 bound_to 7997
  155.3351  140.3381  155.4241 H   0  0  0  0  0  0  0  0  0  0  0  0  # atno 8010 bound_to 7997
  140.6873  143.2899  151.3584 H   0  0  0  0  0  0  0  0  0  0  0  0  # atno 10167 bound_to 10162
  156.3915  130.7888  151.2090 H   0  0  0  0  0  0  0  0  0  0  0  0  # atno 10718 bound_to 10713
  153.5475  135.3546  155.2745 H   0  0  0  0  0  0  0  0  0  0  0  0  # atno 10763 bound_to 10752
  154.8710  135.4106  154.2975 H   0  0  0  0  0  0  0  0  0  0  0  0  # atno 10764 bound_to 10752
  153.3694  135.7063  153.6718 H   0  0  0  0  0  0  0  0  0  0  0  0  # atno 10765 bound_to 10752
  141.0950  133.8987  157.1985 H   0  0  0  0  0  0  0  0  0  0  0  0  # atno 11005 bound_to 11000
  145.9430  140.8965  143.0298 LP  0  0  0  0  0  0  0  0  0  0  0  0  # atno 17320 bound_to 7965
  144.6732  140.1575  143.7425 LP  0  0  0  0  0  0  0  0  0  0  0  0  # atno 17321 bound_to 7965
  139.6243  144.0846  152.2419 LP  0  0  0  0  0  0  0  0  0  0  0  0  # atno 17342 bound_to 10162
  140.0300  144.6088  150.7496 LP  0  0  0  0  0  0  0  0  0  0  0  0  # atno 17343 bound_to 10162
  157.7499  131.0314  150.4180 LP  0  0  0  0  0  0  0  0  0  0  0  0  # atno 17370 bound_to 10713
  156.4442  130.3998  149.6677 LP  0  0  0  0  0  0  0  0  0  0  0  0  # atno 17371 bound_to 10713
  139.9784  135.0106  156.9690 LP  0  0  0  0  0  0  0  0  0  0  0  0  # atno 17394 bound_to 11000
  140.5162  134.0953  155.7281 LP  0  0  0  0  0  0  0  0  0  0  0  0  # atno 17395 bound_to 11000

$$$$
