AV-unprocessed.smi:581|AV-procd|sdf|2991|dock8
  -GOLD-   2262023493D 1   1.00000     0.00000
 Structure written by MMmdl.
 35 36  0  0  0  0  0  0  0  0  2 V2000
  149.7005  134.1168  154.7249 C   0  0  0  0  0  0  0  0  0  0  0  0
  148.9354  133.0002  154.0368 C   0  0  0  0  0  0  0  0  0  0  0  0
  147.9217  133.4106  153.1616 N   0  0  0  0  0  0  0  0  0  0  0  0
  147.2149  132.5323  152.5222 C   0  0  0  0  0  0  0  0  0  0  0  0
  146.1749  132.8104  151.6317 N   0  0  0  0  0  0  0  0  0  0  0  0
  145.6802  131.8058  150.6866 C   0  0  0  0  0  0  0  0  0  0  0  0
  144.2448  132.1219  150.2343 C   0  0  0  0  0  0  0  0  0  0  0  0
  144.1911  133.4332  149.6899 O   0  0  0  0  0  0  0  0  0  0  0  0
  144.5501  134.4101  150.6572 C   0  0  0  0  0  0  0  0  0  0  0  0
  145.9957  134.1707  151.1241 C   0  0  0  0  0  0  0  0  0  0  0  0
  147.4546  131.1669  152.7106 N   0  0  0  0  0  0  0  0  0  0  0  0
  148.4080  130.6697  153.5293 C   0  0  0  0  0  0  0  0  0  0  0  0
  148.5620  129.4542  153.6375 O   0  0  0  0  0  0  0  0  0  0  0  0
  149.2062  131.6807  154.2419 C   0  0  0  0  0  0  0  0  0  0  0  0
  150.2887  131.1892  155.1995 C   0  0  0  0  0  0  0  0  0  0  0  0
  150.1549  131.8206  156.6012 C   0  0  0  0  0  0  0  0  0  0  0  0
  151.2946  131.4330  157.5529 C   0  0  0  0  0  0  0  0  0  0  0  0
  151.4829  130.2222  157.8073 O   0  0  0  0  0  0  0  0  0  0  0  0
  151.9695  132.3766  158.0186 O   0  5  0  0  0  0  0  0  0  0  0  0
  146.8849  130.5038  152.2064 H   0  0  0  0  0  0  0  0  0  0  0  0
  150.7749  133.9862  154.5931 H   0  0  0  0  0  0  0  0  0  0  0  0
  149.4799  134.1265  155.7924 H   0  0  0  0  0  0  0  0  0  0  0  0
  149.4312  135.0917  154.3168 H   0  0  0  0  0  0  0  0  0  0  0  0
  146.3442  131.7874  149.8213 H   0  0  0  0  0  0  0  0  0  0  0  0
  145.6977  130.8033  151.1139 H   0  0  0  0  0  0  0  0  0  0  0  0
  143.9266  131.4096  149.4731 H   0  0  0  0  0  0  0  0  0  0  0  0
  143.5458  132.0306  151.0672 H   0  0  0  0  0  0  0  0  0  0  0  0
  144.4595  135.4005  150.2112 H   0  0  0  0  0  0  0  0  0  0  0  0
  143.8587  134.3766  151.5008 H   0  0  0  0  0  0  0  0  0  0  0  0
  146.2448  134.9028  151.8936 H   0  0  0  0  0  0  0  0  0  0  0  0
  146.6869  134.3320  150.2959 H   0  0  0  0  0  0  0  0  0  0  0  0
  150.2476  130.1026  155.2760 H   0  0  0  0  0  0  0  0  0  0  0  0
  151.2705  131.4088  154.7764 H   0  0  0  0  0  0  0  0  0  0  0  0
  150.1314  132.9079  156.5202 H   0  0  0  0  0  0  0  0  0  0  0  0
  149.2109  131.5187  157.0561 H   0  0  0  0  0  0  0  0  0  0  0  0
  1  2  1  0  0  0  0
  1 21  1  0  0  0  0
  1 22  1  0  0  0  0
  1 23  1  0  0  0  0
  2 14  2  0  0  0  0
  2  3  1  0  0  0  0
  3  4  2  0  0  0  0
  4  5  1  0  0  0  0
  4 11  1  0  0  0  0
  5 10  1  0  0  0  0
  5  6  1  0  0  0  0
  6  7  1  0  0  0  0
  6 24  1  0  0  0  0
  6 25  1  0  0  0  0
  7  8  1  0  0  0  0
  7 26  1  0  0  0  0
  7 27  1  0  0  0  0
  8  9  1  0  0  0  0
  9 10  1  0  0  0  0
  9 28  1  0  0  0  0
  9 29  1  0  0  0  0
 10 30  1  0  0  0  0
 10 31  1  0  0  0  0
 11 20  1  0  0  0  0
 11 12  1  0  0  0  0
 12 13  2  0  0  0  0
 12 14  1  0  0  0  0
 14 15  1  0  0  0  0
 15 16  1  0  0  0  0
 15 32  1  0  0  0  0
 15 33  1  0  0  0  0
 16 17  1  0  0  0  0
 16 34  1  0  0  0  0
 16 35  1  0  0  0  0
 17 18  2  0  0  0  0
 17 19  1  0  0  0  0
M  CHG  1  19  -1
M  END
> <s_m_source_file>
AV-unprocessed.smi

> <i_m_source_file_index>
581

> <i_lp_mmshare_version>
43012

> <i_f3d_flags>
0

> <s_epik_input>
W0NIMl0xW0NIMl1PW0NIMl1bQ0gyXU4xYyhuYzJbQ0gzXSlbbkhdYyg9TyljMltDSDJdW0NIMl1DKD1PKVtPSF0=

> <s_epik_cmdline>
J2VwaWtfcHl0aG9uJywgJy1waCcsICc3LjAnLCAnLXRuJywgJzgnLCAnLW1hJywgJzIwMCcsICctbWV0YWxfYmluZGluZycsICctaW1hZScsICc8aW5maWxlLm1hZT4nLCAnLW9tYWUnLCAnPG91dGZpbGUubWFlPic=

> <r_lp_tautomer_probability>
0.878553

> <r_epik_Ionization_Penalty>
0.00211884

> <r_epik_Ionization_Penalty_Charging>
0.00208365

> <r_epik_Ionization_Penalty_Neutral>
3.51846e-05

> <r_epik_State_Penalty>
0.0663044

> <r_epik_Charging_Adjusted_Penalty>
0.0683881

> <i_epik_Tot_Q>
-1

> <i_epik_Tot_abs_Q>
1

> <r_epik_Metal_State_Penalty>
0.312881

> <b_epik_Metal_Only>
0

> <s_lp_Force_Field>
OPLS_2005

> <r_lp_Energy>
24.7506

> <b_lp_Chiralities_Consistent>
1

> <s_lp_Variant>
AV-unprocessed.smi:581-1

> <Gold.Version>
5.8.1

> <Gold.Id.Protein>
6NUR|6NUR_protein|mol2

> <Gold.PLP.Fitness>
39.0725

> <Gold.PLP.PLP>
-33.2111

> <Gold.PLP.part.hbond>
-2.0000

> <Gold.PLP.part.metal>
0.0000

> <Gold.PLP.part.buried>
-5.2861

> <Gold.PLP.part.nonpolar>
-27.0019

> <Gold.PLP.part.repulsive>
0.9513

> <Gold.PLP.ligand.clash>
0.0012

> <Gold.PLP.ligand.torsion>
0.1763

> <Gold.PLP.Chemscore.Hbond>
2.0000

> <Gold.PLP.Chemscore.CHOScore>
0.0000

> <Gold.PLP.Chemscore.Metal>
0.0000

> <Gold.Chemscore.Hbonds>
donor molecule, donor type, donor heavy atom, donor atom, acceptor molecule, acceptor atom, score
      P1  H  6896  6908       L1    19  2.00

> <Gold.PLP.Chemscore.Internal.Correction>
0.2152

> <Gold.Rescore>
     Score         DG    S(hbond)    S(metal)    S(lipo)     H(rot)  DE(clash)    DE(int)     intcor
     10.69     -10.81       0.99        0.00      58.77       1.89       0.00       0.12       ----

> <Gold.Chemscore.Fitness>
10.6856

> <Gold.Chemscore.DG>
-10.8141

> <Gold.Chemscore.ZeroCoef>
-5.4800

> <Gold.Chemscore.Hbond>
0.9862

> <Gold.Chemscore.Metal>
0.0000

> <Gold.Chemscore.Lipo>
58.7699

> <Gold.Chemscore.Internal_Hbond>
0.0000

> <Gold.Chemscore.DEClash>
0.0048

> <Gold.Chemscore.DEInternal>
0.1236

> <Gold.Chemscore.Rot>
1.8890

> <Gold.Chemscore.Internal.Correction>
   9.000000E+99

> <Gold.Chemscore.Hbonds>
donor molecule, donor type, donor heavy atom, donor atom, acceptor molecule, acceptor atom, score
      P1  H  6896  6908       L1    19  0.96

> <Gold.Chemscore.Hbond.Weighted>
-3.2938

> <Gold.Chemscore.Metal.Weighted>
-0.0000

> <Gold.Chemscore.Lipo.Weighted>
-6.8761

> <Gold.Chemscore.Internal_Hbond.Weighted>
0.0000

> <Gold.Chemscore.DEClash.Weighted>
0.0048

> <Gold.Chemscore.DEInternal.Weighted>
0.1236

> <Gold.Chemscore.Rot.Weighted>
4.8357

> <Gold.Chemscore.Internal.Correction.Weighted>
   9.000000E+99

> <Gold.Protein.RotatedTorsions>
[ 6907 6896 6895 6894 ] final   42.41 input  -60.11 | X-H torsion
[ 7974 7965 7964 7962 ] final  115.63 input  175.53 | X-H torsion
[ 8008 7997 7996 7995 ] final  -93.62 input   59.86 | X-H torsion
[ 10167 10162 10161 10158 ] final   23.47 input  -65.29 | X-H torsion
[ 10718 10713 10712 10709 ] final  -99.98 input   66.30 | X-H torsion
[ 10763 10752 10751 10750 ] final -110.99 input  -60.55 | X-H torsion
[ 11005 11000 10999 10996 ] final  -48.86 input  -57.11 | X-H torsion

> <Gold.Protein.ActiveResidues>
 VAL166  LYS551  ARG553  GLY616  TRP617  ASP618  TYR619  PRO620  LYS621  CYS622 
 ASP623  PHE694  ASN695  SER759  ASP760  ASP761  ALA762  ILE779  LEU786  VAL792 
 PHE793  MET794  SER795  GLU796  ALA797  LYS798  CYS799  TRP800  GLU811  SER814 

> <Gold.Protein.RotatedAtoms>
  152.2075  134.8532  160.0500 H   0  0  0  0  0  0  0  0  0  0  0  0  # atno 6907 bound_to 6896
  151.9363  133.3620  159.3957 H   0  0  0  0  0  0  0  0  0  0  0  0  # atno 6908 bound_to 6896
  150.6968  134.4410  159.5336 H   0  0  0  0  0  0  0  0  0  0  0  0  # atno 6909 bound_to 6896
  145.1896  139.3007  143.4375 H   0  0  0  0  0  0  0  0  0  0  0  0  # atno 7974 bound_to 7965
  154.7380  140.0497  157.0786 H   0  0  0  0  0  0  0  0  0  0  0  0  # atno 8008 bound_to 7997
  155.0215  140.3147  155.4772 H   0  0  0  0  0  0  0  0  0  0  0  0  # atno 8009 bound_to 7997
  156.2857  140.2166  156.5333 H   0  0  0  0  0  0  0  0  0  0  0  0  # atno 8010 bound_to 7997
  140.5266  143.9913  150.6443 H   0  0  0  0  0  0  0  0  0  0  0  0  # atno 10167 bound_to 10162
  156.0149  130.5307  150.6750 H   0  0  0  0  0  0  0  0  0  0  0  0  # atno 10718 bound_to 10713
  154.8277  135.4544  154.0971 H   0  0  0  0  0  0  0  0  0  0  0  0  # atno 10763 bound_to 10752
  153.2270  135.6901  153.7939 H   0  0  0  0  0  0  0  0  0  0  0  0  # atno 10764 bound_to 10752
  153.7336  135.3323  155.3267 H   0  0  0  0  0  0  0  0  0  0  0  0  # atno 10765 bound_to 10752
  141.0725  133.6675  156.3501 H   0  0  0  0  0  0  0  0  0  0  0  0  # atno 11005 bound_to 11000
  146.3438  140.2104  142.8590 LP  0  0  0  0  0  0  0  0  0  0  0  0  # atno 17320 bound_to 7965
  145.0054  140.8668  143.5256 LP  0  0  0  0  0  0  0  0  0  0  0  0  # atno 17321 bound_to 7965
  140.3276  143.3098  152.0720 LP  0  0  0  0  0  0  0  0  0  0  0  0  # atno 17342 bound_to 10162
  139.4940  144.6531  151.6632 LP  0  0  0  0  0  0  0  0  0  0  0  0  # atno 17343 bound_to 10162
  157.4465  131.0867  151.0890 LP  0  0  0  0  0  0  0  0  0  0  0  0  # atno 17370 bound_to 10713
  157.1419  130.6146  149.5557 LP  0  0  0  0  0  0  0  0  0  0  0  0  # atno 17371 bound_to 10713
  140.5643  134.5903  157.5441 LP  0  0  0  0  0  0  0  0  0  0  0  0  # atno 17394 bound_to 11000
  139.9538  134.7570  156.0388 LP  0  0  0  0  0  0  0  0  0  0  0  0  # atno 17395 bound_to 11000

$$$$
