AV-unprocessed.smi:2944|AV-procd|sdf|11274|dock9
  -GOLD-   2272016163D 1   1.00000     0.00000
 Structure written by MMmdl.
 45 47  0  0  0  0  0  0  0  0  2 V2000
  150.3942  138.5371  154.6889 C   0  0  0  0  0  0  0  0  0  0  0  0
  151.4224  139.5072  154.7805 O   0  0  0  0  0  0  0  0  0  0  0  0
  151.9444  139.6258  156.0942 C   0  0  0  0  0  0  0  0  0  0  0  0
  150.9840  140.4419  156.9715 C   0  0  0  0  0  0  0  0  0  0  0  0
  151.6426  141.0071  158.1592 N   0  0  0  0  0  0  0  0  0  0  0  0
  152.2583  140.3877  159.2043 C   0  0  0  0  0  0  0  0  0  0  0  0
  152.4852  138.6515  159.4138 S   0  0  0  0  0  0  0  0  0  0  0  0
  153.3501  138.4543  161.0034 C   0  0  2  0  0  0  0  0  0  0  0  0
  154.6504  139.2748  161.0000 C   0  0  0  0  0  0  0  0  0  0  0  0
  153.6288  136.9680  161.3178 C   0  0  0  0  0  0  0  0  0  0  0  0
  153.4420  136.1560  160.4079 O   0  0  0  0  0  0  0  0  0  0  0  0
  154.0142  136.6084  162.5754 N   0  0  0  0  0  0  0  0  0  0  0  0
  154.3027  137.5559  163.6533 C   0  0  0  0  0  0  0  0  0  0  0  0
  154.6455  136.6853  164.8544 C   0  0  0  0  0  0  0  0  0  0  0  0
  154.5294  135.3603  164.3020 N   0  0  0  0  0  0  0  0  0  0  0  0
  154.1739  135.3363  163.0154 C   0  0  0  0  0  0  0  0  0  0  0  0
  154.0130  134.2947  162.3787 O   0  0  0  0  0  0  0  0  0  0  0  0
  152.7028  141.3519  160.0561 N   0  3  0  0  0  0  0  0  0  0  0  0
  152.3937  142.6091  159.5373 C   0  0  0  0  0  0  0  0  0  0  0  0
  152.6568  143.8842  160.0276 C   0  0  0  0  0  0  0  0  0  0  0  0
  152.2070  144.9676  159.2447 C   0  0  0  0  0  0  0  0  0  0  0  0
  151.5259  144.7613  158.0276 C   0  0  0  0  0  0  0  0  0  0  0  0
  151.2643  143.4636  157.5410 C   0  0  0  0  0  0  0  0  0  0  0  0
  151.7118  142.3967  158.3201 C   0  0  0  0  0  0  0  0  0  0  0  0
  150.0417  138.4744  153.6595 H   0  0  0  0  0  0  0  0  0  0  0  0
  149.5459  138.8018  155.3212 H   0  0  0  0  0  0  0  0  0  0  0  0
  150.7544  137.5501  154.9813 H   0  0  0  0  0  0  0  0  0  0  0  0
  152.0882  138.6359  156.5294 H   0  0  0  0  0  0  0  0  0  0  0  0
  152.9209  140.1108  156.0644 H   0  0  0  0  0  0  0  0  0  0  0  0
  150.5247  141.2482  156.3999 H   0  0  0  0  0  0  0  0  0  0  0  0
  150.1659  139.8087  157.3158 H   0  0  0  0  0  0  0  0  0  0  0  0
  152.7122  138.9038  161.7604 H   0  0  0  0  0  0  0  0  0  0  0  0
  155.1942  139.1608  161.9386 H   0  0  0  0  0  0  0  0  0  0  0  0
  154.4381  140.3367  160.8735 H   0  0  0  0  0  0  0  0  0  0  0  0
  155.3161  138.9754  160.1893 H   0  0  0  0  0  0  0  0  0  0  0  0
  155.1423  138.2017  163.3915 H   0  0  0  0  0  0  0  0  0  0  0  0
  153.4370  138.1780  163.8732 H   0  0  0  0  0  0  0  0  0  0  0  0
  155.6571  136.8660  165.2192 H   0  0  0  0  0  0  0  0  0  0  0  0
  153.9395  136.8226  165.6746 H   0  0  0  0  0  0  0  0  0  0  0  0
  154.7079  134.5305  164.8492 H   0  0  0  0  0  0  0  0  0  0  0  0
  153.1804  144.0445  160.9588 H   0  0  0  0  0  0  0  0  0  0  0  0
  152.3892  145.9770  159.5839 H   0  0  0  0  0  0  0  0  0  0  0  0
  151.1979  145.6163  157.4539 H   0  0  0  0  0  0  0  0  0  0  0  0
  150.7479  143.3186  156.6037 H   0  0  0  0  0  0  0  0  0  0  0  0
  153.1972  141.1607  160.9184 H   0  0  0  0  0  0  0  0  0  0  0  0
  1  2  1  0  0  0  0
  1 25  1  0  0  0  0
  1 26  1  0  0  0  0
  1 27  1  0  0  0  0
  2  3  1  0  0  0  0
  3  4  1  0  0  0  0
  3 28  1  0  0  0  0
  3 29  1  0  0  0  0
  4  5  1  0  0  0  0
  4 30  1  0  0  0  0
  4 31  1  0  0  0  0
  5 24  1  0  0  0  0
  5  6  1  0  0  0  0
  6  7  1  0  0  0  0
  6 18  2  0  0  0  0
  7  8  1  0  0  0  0
  8  9  1  0  0  0  0
  8 10  1  0  0  0  0
  8 32  1  0  0  0  0
  9 33  1  0  0  0  0
  9 34  1  0  0  0  0
  9 35  1  0  0  0  0
 10 11  2  0  0  0  0
 10 12  1  0  0  0  0
 12 16  1  0  0  0  0
 12 13  1  0  0  0  0
 13 14  1  0  0  0  0
 13 36  1  0  0  0  0
 13 37  1  0  0  0  0
 14 15  1  0  0  0  0
 14 38  1  0  0  0  0
 14 39  1  0  0  0  0
 15 16  1  0  0  0  0
 15 40  1  0  0  0  0
 16 17  2  0  0  0  0
 18 19  1  0  0  0  0
 18 45  1  0  0  0  0
 19 24  2  0  0  0  0
 19 20  1  0  0  0  0
 20 21  2  0  0  0  0
 20 41  1  0  0  0  0
 21 22  1  0  0  0  0
 21 42  1  0  0  0  0
 22 23  2  0  0  0  0
 22 43  1  0  0  0  0
 23 24  1  0  0  0  0
 23 44  1  0  0  0  0
M  CHG  1  18   1
M  END
> <s_m_source_file>
AV-unprocessed.smi

> <i_m_source_file_index>
2944

> <i_lp_mmshare_version>
43012

> <i_f3d_flags>
0

> <s_epik_input>
W2NIXTFbY0hdW2NIXVtjSF1jKGMxMiluKFtDSDJdW0NIMl1PW0NIM10pYyhuMilTW0NASF0oW0NIM10pQyg9TylOM1tDSDJdW0NIMl1bTkhdQzM9Tw==

> <s_epik_cmdline>
J2VwaWtfcHl0aG9uJywgJy1waCcsICc3LjAnLCAnLXRuJywgJzgnLCAnLW1hJywgJzIwMCcsICctbWV0YWxfYmluZGluZycsICctaW1hZScsICc8aW5maWxlLm1hZT4nLCAnLW9tYWUnLCAnPG91dGZpbGUubWFlPic=

> <r_lp_tautomer_probability>
0.9999

> <r_epik_Ionization_Penalty>
1.88808

> <r_epik_Ionization_Penalty_Charging>
1.88806

> <r_epik_Ionization_Penalty_Neutral>
2.68145e-05

> <r_epik_State_Penalty>
2.00836

> <r_epik_Charging_Adjusted_Penalty>
3.89641

> <i_epik_Tot_Q>
1

> <i_epik_Tot_abs_Q>
1

> <r_epik_Metal_State_Penalty>
2.03272

> <b_epik_Metal_Only>
0

> <s_lp_Force_Field>
OPLS_2005

> <r_lp_Energy>
42.6194

> <b_lp_Chiralities_Consistent>
1

> <s_lp_Variant>
AV-unprocessed.smi:2944-3

> <Gold.Version>
5.8.1

> <Gold.Id.Protein>
6NUR|6NUR_protein|mol2

> <Gold.PLP.Fitness>
55.3002

> <Gold.PLP.PLP>
-50.0112

> <Gold.PLP.part.hbond>
-2.0000

> <Gold.PLP.part.metal>
0.0000

> <Gold.PLP.part.buried>
-7.2255

> <Gold.PLP.part.nonpolar>
-41.7911

> <Gold.PLP.part.repulsive>
0.1759

> <Gold.PLP.ligand.clash>
0.0100

> <Gold.PLP.ligand.torsion>
0.4064

> <Gold.PLP.Chemscore.Hbond>
2.0000

> <Gold.PLP.Chemscore.CHOScore>
0.0000

> <Gold.PLP.Chemscore.Metal>
0.0000

> <Gold.Chemscore.Hbonds>
donor molecule, donor type, donor heavy atom, donor atom, acceptor molecule, acceptor atom, score
      P1  H  6896  6907       L1    11  1.00
      P1  H  7989  7998       L1     2  1.00

> <Gold.PLP.Chemscore.Internal.Correction>
0.1117

> <Gold.Rescore>
     Score         DG    S(hbond)    S(metal)    S(lipo)     H(rot)  DE(clash)    DE(int)     intcor
     18.27     -19.94       1.98        0.00     117.43       2.30       0.00       1.67       ----

> <Gold.Chemscore.Fitness>
18.2655

> <Gold.Chemscore.DG>
-19.9351

> <Gold.Chemscore.ZeroCoef>
-5.4800

> <Gold.Chemscore.Hbond>
1.9762

> <Gold.Chemscore.Metal>
0.0000

> <Gold.Chemscore.Lipo>
117.4312

> <Gold.Chemscore.Internal_Hbond>
0.0000

> <Gold.Chemscore.DEClash>
0.0038

> <Gold.Chemscore.DEInternal>
1.6658

> <Gold.Chemscore.Rot>
2.2988

> <Gold.Chemscore.Internal.Correction>
   9.000000E+99

> <Gold.Chemscore.Hbonds>
donor molecule, donor type, donor heavy atom, donor atom, acceptor molecule, acceptor atom, score
      P1  H  6896  6907       L1    11  1.00
      P1  H  7989  7998       L1     2  0.98

> <Gold.Chemscore.Hbond.Weighted>
-6.6006

> <Gold.Chemscore.Metal.Weighted>
-0.0000

> <Gold.Chemscore.Lipo.Weighted>
-13.7394

> <Gold.Chemscore.Internal_Hbond.Weighted>
0.0000

> <Gold.Chemscore.DEClash.Weighted>
0.0038

> <Gold.Chemscore.DEInternal.Weighted>
1.6658

> <Gold.Chemscore.Rot.Weighted>
5.8850

> <Gold.Chemscore.Internal.Correction.Weighted>
   9.000000E+99

> <Gold.Protein.RotatedTorsions>
[ 6907 6896 6895 6894 ] final   44.55 input  -60.11 | X-H torsion
[ 7974 7965 7964 7962 ] final   23.74 input  175.53 | X-H torsion
[ 8008 7997 7996 7995 ] final  160.93 input   59.86 | X-H torsion
[ 10167 10162 10161 10158 ] final   66.30 input  -65.29 | X-H torsion
[ 10718 10713 10712 10709 ] final  177.50 input   66.30 | X-H torsion
[ 10763 10752 10751 10750 ] final  157.96 input  -60.55 | X-H torsion
[ 11005 11000 10999 10996 ] final    4.66 input  -57.11 | X-H torsion

> <Gold.Protein.ActiveResidues>
 VAL166  LYS551  ARG553  GLY616  TRP617  ASP618  TYR619  PRO620  LYS621  CYS622 
 ASP623  PHE694  ASN695  SER759  ASP760  ASP761  ALA762  ILE779  LEU786  VAL792 
 PHE793  MET794  SER795  GLU796  ALA797  LYS798  CYS799  TRP800  GLU811  SER814 

> <Gold.Protein.RotatedAtoms>
  152.2339  134.8295  160.0469 H   0  0  0  0  0  0  0  0  0  0  0  0  # atno 6907 bound_to 6896
  151.9034  133.3538  159.3846 H   0  0  0  0  0  0  0  0  0  0  0  0  # atno 6908 bound_to 6896
  150.7033  134.4731  159.5479 H   0  0  0  0  0  0  0  0  0  0  0  0  # atno 6909 bound_to 6896
  146.1970  139.7702  142.8789 H   0  0  0  0  0  0  0  0  0  0  0  0  # atno 7974 bound_to 7965
  156.2138  140.1791  156.7635 H   0  0  0  0  0  0  0  0  0  0  0  0  # atno 8008 bound_to 7997
  154.5762  140.0674  156.9066 H   0  0  0  0  0  0  0  0  0  0  0  0  # atno 8009 bound_to 7997
  155.2585  140.3334  155.4278 H   0  0  0  0  0  0  0  0  0  0  0  0  # atno 8010 bound_to 7997
  140.1020  144.4896  150.7032 H   0  0  0  0  0  0  0  0  0  0  0  0  # atno 10167 bound_to 10162
  156.9044  130.9889  151.3031 H   0  0  0  0  0  0  0  0  0  0  0  0  # atno 10718 bound_to 10713
  154.2085  135.2787  155.2966 H   0  0  0  0  0  0  0  0  0  0  0  0  # atno 10763 bound_to 10752
  154.5798  135.5593  153.7177 H   0  0  0  0  0  0  0  0  0  0  0  0  # atno 10764 bound_to 10752
  153.0070  135.6342  154.2223 H   0  0  0  0  0  0  0  0  0  0  0  0  # atno 10765 bound_to 10752
  140.5794  134.0027  155.8041 H   0  0  0  0  0  0  0  0  0  0  0  0  # atno 11005 bound_to 11000
  145.3610  141.0325  143.3285 LP  0  0  0  0  0  0  0  0  0  0  0  0  # atno 17320 bound_to 7965
  144.8602  139.5189  143.6816 LP  0  0  0  0  0  0  0  0  0  0  0  0  # atno 17321 bound_to 7965
  140.6973  143.2412  151.4965 LP  0  0  0  0  0  0  0  0  0  0  0  0  # atno 17342 bound_to 10162
  139.5666  144.2027  152.1774 LP  0  0  0  0  0  0  0  0  0  0  0  0  # atno 17343 bound_to 10162
  157.6006  130.8510  149.8797 LP  0  0  0  0  0  0  0  0  0  0  0  0  # atno 17370 bound_to 10713
  156.0566  130.3707  150.1077 LP  0  0  0  0  0  0  0  0  0  0  0  0  # atno 17371 bound_to 10713
  141.1006  133.9774  157.3086 LP  0  0  0  0  0  0  0  0  0  0  0  0  # atno 17394 bound_to 11000
  139.9324  135.0199  156.8445 LP  0  0  0  0  0  0  0  0  0  0  0  0  # atno 17395 bound_to 11000

$$$$
