AV-unprocessed.smi:258|AV-procd|sdf|1967|dock7
  -GOLD-   2262021123D 1   1.00000     0.00000
 Structure written by MMmdl.
 57 60  0  0  0  0  0  0  0  0  1 V2000
  143.4578  133.4886  152.6767 O   0  0  0  0  0  0  0  0  0  0  0  0
  143.6792  132.9764  151.3798 C   0  0  0  0  0  0  0  0  0  0  0  0
  145.0725  132.3416  151.2905 C   0  0  0  0  0  0  0  0  0  0  0  0
  145.9182  132.9487  152.2567 O   0  0  0  0  0  0  0  0  0  0  0  0
  147.0909  132.2075  152.5673 C   0  0  2  0  0  0  0  0  0  0  0  0
  146.7616  130.7265  152.8405 C   0  0  0  0  0  0  0  0  0  0  0  0
  148.0196  129.9837  153.3140 C   0  0  0  0  0  0  0  0  0  0  0  0
  148.6412  130.6707  154.5405 C   0  0  0  0  0  0  0  0  0  0  0  0
  148.8782  132.0920  154.2806 N   0  0  0  0  0  0  0  0  0  0  0  0
  149.7799  132.7032  155.0932 C   0  0  0  0  0  0  0  0  0  0  0  0
  150.6032  131.9026  155.8198 N   0  0  0  0  0  0  0  0  0  0  0  0
  151.5215  132.4303  156.6332 C   0  0  0  0  0  0  0  0  0  0  0  0
  151.7854  133.7156  156.8696 N   0  0  0  0  0  0  0  0  0  0  0  0
  150.9631  134.5296  156.1489 C   0  0  0  0  0  0  0  0  0  0  0  0
  149.9416  134.1145  155.2451 C   0  0  0  0  0  0  0  0  0  0  0  0
  149.3110  135.2362  154.7144 N   0  0  0  0  0  0  0  0  0  0  0  0
  149.9279  136.2473  155.2602 C   0  0  0  0  0  0  0  0  0  0  0  0
  150.9398  135.9136  156.1288 N   0  0  0  0  0  0  0  0  0  0  0  0
  151.7833  136.8383  156.8666 C   0  0  0  0  0  0  0  0  0  0  0  0
  150.9788  137.9104  157.6420 C   0  0  1  0  0  0  0  0  0  0  0  0
  151.0504  137.6479  159.1648 C   0  0  0  0  0  0  0  0  0  0  0  0
  150.2696  136.5231  159.5117 O   0  0  0  0  0  0  0  0  0  0  0  0
  151.3772  139.3590  157.2416 C   0  0  2  0  0  0  0  0  0  0  0  0
  150.3643  140.4485  157.5800 C   0  0  0  0  0  0  0  0  0  0  0  0
  150.6389  141.4933  156.5083 C   0  0  0  0  0  0  0  0  0  0  0  0
  150.8728  140.7003  155.3569 O   0  0  0  0  0  0  0  0  0  0  0  0
  151.6573  139.5774  155.7436 C   0  0  0  0  0  0  0  0  0  0  0  0
  147.7195  132.8525  153.8150 C   0  0  0  0  0  0  0  0  0  0  0  0
  143.1716  132.7811  153.2342 H   0  0  0  0  0  0  0  0  0  0  0  0
  142.9170  132.2203  151.1905 H   0  0  0  0  0  0  0  0  0  0  0  0
  143.5504  133.7594  150.6316 H   0  0  0  0  0  0  0  0  0  0  0  0
  145.0146  131.2597  151.4130 H   0  0  0  0  0  0  0  0  0  0  0  0
  145.4845  132.5330  150.2987 H   0  0  0  0  0  0  0  0  0  0  0  0
  147.8071  132.2816  151.7465 H   0  0  0  0  0  0  0  0  0  0  0  0
  145.9839  130.6553  153.6018 H   0  0  0  0  0  0  0  0  0  0  0  0
  146.3701  130.2412  151.9470 H   0  0  0  0  0  0  0  0  0  0  0  0
  147.7766  128.9475  153.5507 H   0  0  0  0  0  0  0  0  0  0  0  0
  148.7509  129.9541  152.5054 H   0  0  0  0  0  0  0  0  0  0  0  0
  147.9705  130.5811  155.3959 H   0  0  0  0  0  0  0  0  0  0  0  0
  149.5611  130.1509  154.8088 H   0  0  0  0  0  0  0  0  0  0  0  0
  152.1334  131.7207  157.1704 H   0  0  0  0  0  0  0  0  0  0  0  0
  149.6630  137.2714  155.0402 H   0  0  0  0  0  0  0  0  0  0  0  0
  152.3930  136.2490  157.5524 H   0  0  0  0  0  0  0  0  0  0  0  0
  152.4774  137.3141  156.1731 H   0  0  0  0  0  0  0  0  0  0  0  0
  149.9329  137.7993  157.3507 H   0  0  0  0  0  0  0  0  0  0  0  0
  152.0765  137.4728  159.4875 H   0  0  0  0  0  0  0  0  0  0  0  0
  150.6782  138.4961  159.7376 H   0  0  0  0  0  0  0  0  0  0  0  0
  149.4093  136.6263  159.1339 H   0  0  0  0  0  0  0  0  0  0  0  0
  152.3066  139.6170  157.7505 H   0  0  0  0  0  0  0  0  0  0  0  0
  149.3400  140.0937  157.4758 H   0  0  0  0  0  0  0  0  0  0  0  0
  150.4818  140.8416  158.5899 H   0  0  0  0  0  0  0  0  0  0  0  0
  149.8045  142.1797  156.3633 H   0  0  0  0  0  0  0  0  0  0  0  0
  151.5315  142.0747  156.7451 H   0  0  0  0  0  0  0  0  0  0  0  0
  152.7125  139.8037  155.5843 H   0  0  0  0  0  0  0  0  0  0  0  0
  151.4143  138.7169  155.1211 H   0  0  0  0  0  0  0  0  0  0  0  0
  148.0132  133.8755  153.5760 H   0  0  0  0  0  0  0  0  0  0  0  0
  146.9820  132.9024  154.6170 H   0  0  0  0  0  0  0  0  0  0  0  0
  1  2  1  0  0  0  0
  1 29  1  0  0  0  0
  2  3  1  0  0  0  0
  2 30  1  0  0  0  0
  2 31  1  0  0  0  0
  3  4  1  0  0  0  0
  3 32  1  0  0  0  0
  3 33  1  0  0  0  0
  4  5  1  0  0  0  0
  5 28  1  0  0  0  0
  5  6  1  0  0  0  0
  5 34  1  0  0  0  0
  6  7  1  0  0  0  0
  6 35  1  0  0  0  0
  6 36  1  0  0  0  0
  7  8  1  0  0  0  0
  7 37  1  0  0  0  0
  7 38  1  0  0  0  0
  8  9  1  0  0  0  0
  8 39  1  0  0  0  0
  8 40  1  0  0  0  0
  9 10  1  0  0  0  0
  9 28  1  0  0  0  0
 10 15  1  0  0  0  0
 10 11  2  0  0  0  0
 11 12  1  0  0  0  0
 12 13  2  0  0  0  0
 12 41  1  0  0  0  0
 13 14  1  0  0  0  0
 14 18  1  0  0  0  0
 14 15  2  0  0  0  0
 15 16  1  0  0  0  0
 16 17  2  0  0  0  0
 17 18  1  0  0  0  0
 17 42  1  0  0  0  0
 18 19  1  0  0  0  0
 19 20  1  0  0  0  0
 19 43  1  0  0  0  0
 19 44  1  0  0  0  0
 20 21  1  0  0  0  0
 20 23  1  0  0  0  0
 20 45  1  0  0  0  0
 21 22  1  0  0  0  0
 21 46  1  0  0  0  0
 21 47  1  0  0  0  0
 22 48  1  0  0  0  0
 23 27  1  0  0  0  0
 23 24  1  0  0  0  0
 23 49  1  0  0  0  0
 24 25  1  0  0  0  0
 24 50  1  0  0  0  0
 24 51  1  0  0  0  0
 25 26  1  0  0  0  0
 25 52  1  0  0  0  0
 25 53  1  0  0  0  0
 26 27  1  0  0  0  0
 27 54  1  0  0  0  0
 27 55  1  0  0  0  0
 28 56  1  0  0  0  0
 28 57  1  0  0  0  0
M  END
> <s_m_source_file>
AV-unprocessed.smi

> <i_m_source_file_index>
258

> <i_lp_mmshare_version>
43012

> <i_f3d_flags>
0

> <s_epik_input>
W09IXVtDSDJdW0NIMl1PW0NAQEhdMVtDSDJdW0NIMl1bQ0gyXU4oW0NIMl0xKWMobltjSF1uMiljKGMyMyluW2NIXW4zW0NIMl1bQ0BIXShbQ0gyXVtPSF0pW0NAQEhdNFtDSDJdW0NIMl1PW0NIMl00

> <s_epik_cmdline>
J2VwaWtfcHl0aG9uJywgJy1waCcsICc3LjAnLCAnLXRuJywgJzgnLCAnLW1hJywgJzIwMCcsICctbWV0YWxfYmluZGluZycsICctaW1hZScsICc8aW5maWxlLm1hZT4nLCAnLW9tYWUnLCAnPG91dGZpbGUubWFlPic=

> <r_lp_tautomer_probability>
1

> <r_epik_Ionization_Penalty>
0.00349036

> <r_epik_Ionization_Penalty_Charging>
0

> <r_epik_Ionization_Penalty_Neutral>
0.00349036

> <r_epik_State_Penalty>
0.00229798

> <r_epik_Charging_Adjusted_Penalty>
0.00229798

> <i_epik_Tot_Q>
0

> <i_epik_Tot_abs_Q>
0

> <r_epik_Metal_State_Penalty>
-0

> <b_epik_Metal_Only>
0

> <s_lp_Force_Field>
OPLS_2005

> <r_lp_Energy>
47.4534

> <b_lp_Chiralities_Consistent>
1

> <s_lp_Variant>
AV-unprocessed.smi:258-3

> <Gold.Version>
5.8.1

> <Gold.Id.Protein>
6NUR|6NUR_protein|mol2

> <Gold.PLP.Fitness>
48.4558

> <Gold.PLP.PLP>
-42.6938

> <Gold.PLP.part.hbond>
-4.0000

> <Gold.PLP.part.metal>
0.0000

> <Gold.PLP.part.buried>
-7.2055

> <Gold.PLP.part.nonpolar>
-33.5144

> <Gold.PLP.part.repulsive>
1.0878

> <Gold.PLP.ligand.clash>
0.0000

> <Gold.PLP.ligand.torsion>
1.7264

> <Gold.PLP.Chemscore.Hbond>
2.8866

> <Gold.PLP.Chemscore.CHOScore>
0.0000

> <Gold.PLP.Chemscore.Metal>
0.0000

> <Gold.Chemscore.Hbonds>
donor molecule, donor type, donor heavy atom, donor atom, acceptor molecule, acceptor atom, score
      L1  H     1    29       P1 10957  1.00
      P1  H  6896  6907       L1    13  0.02
      P1  H  6896  6908       L1    22  1.00
      P1  H  7989  7998       L1    26  0.73

> <Gold.PLP.Chemscore.Internal.Correction>
0.5549

> <Gold.Rescore>
     Score         DG    S(hbond)    S(metal)    S(lipo)     H(rot)  DE(clash)    DE(int)     intcor
      8.35     -11.17       1.98        0.00      78.32       3.94       0.35       2.47       ----

> <Gold.Chemscore.Fitness>
8.3501

> <Gold.Chemscore.DG>
-11.1733

> <Gold.Chemscore.ZeroCoef>
-5.4800

> <Gold.Chemscore.Hbond>
1.9776

> <Gold.Chemscore.Metal>
0.0000

> <Gold.Chemscore.Lipo>
78.3169

> <Gold.Chemscore.Internal_Hbond>
0.0000

> <Gold.Chemscore.DEClash>
0.3524

> <Gold.Chemscore.DEInternal>
2.4709

> <Gold.Chemscore.Rot>
3.9356

> <Gold.Chemscore.Internal.Correction>
   9.000000E+99

> <Gold.Chemscore.Hbonds>
donor molecule, donor type, donor heavy atom, donor atom, acceptor molecule, acceptor atom, score
      L1  H     1    29       P1 10957  0.45
      P1  H  6896  6908       L1    22  0.97
      P1  H  7989  7998       L1    26  0.12

> <Gold.Chemscore.Hbond.Weighted>
-6.6053

> <Gold.Chemscore.Metal.Weighted>
-0.0000

> <Gold.Chemscore.Lipo.Weighted>
-9.1631

> <Gold.Chemscore.Internal_Hbond.Weighted>
0.0000

> <Gold.Chemscore.DEClash.Weighted>
0.3524

> <Gold.Chemscore.DEInternal.Weighted>
2.4709

> <Gold.Chemscore.Rot.Weighted>
10.0751

> <Gold.Chemscore.Internal.Correction.Weighted>
   9.000000E+99

> <Gold.Protein.RotatedTorsions>
[ 6907 6896 6895 6894 ] final -153.89 input  -60.11 | X-H torsion
[ 7974 7965 7964 7962 ] final -119.35 input  175.53 | X-H torsion
[ 8008 7997 7996 7995 ] final -118.47 input   59.86 | X-H torsion
[ 10167 10162 10161 10158 ] final  110.36 input  -65.29 | X-H torsion
[ 10718 10713 10712 10709 ] final   81.54 input   66.30 | X-H torsion
[ 10763 10752 10751 10750 ] final  -30.29 input  -60.55 | X-H torsion
[ 11005 11000 10999 10996 ] final  -36.04 input  -57.11 | X-H torsion

> <Gold.Protein.ActiveResidues>
 VAL166  LYS551  ARG553  GLY616  TRP617  ASP618  TYR619  PRO620  LYS621  CYS622 
 ASP623  PHE694  ASN695  SER759  ASP760  ASP761  ALA762  ILE779  LEU786  VAL792 
 PHE793  MET794  SER795  GLU796  ALA797  LYS798  CYS799  TRP800  GLU811  SER814 

> <Gold.Protein.RotatedAtoms>
  151.2494  133.4358  159.2610 H   0  0  0  0  0  0  0  0  0  0  0  0  # atno 6907 bound_to 6896
  151.0631  134.9750  159.8281 H   0  0  0  0  0  0  0  0  0  0  0  0  # atno 6908 bound_to 6896
  152.5401  134.2443  159.8927 H   0  0  0  0  0  0  0  0  0  0  0  0  # atno 6909 bound_to 6896
  145.0635  140.8307  143.4138 H   0  0  0  0  0  0  0  0  0  0  0  0  # atno 7974 bound_to 7965
  155.1003  140.0396  157.2695 H   0  0  0  0  0  0  0  0  0  0  0  0  # atno 8008 bound_to 7997
  154.6763  140.2623  155.6929 H   0  0  0  0  0  0  0  0  0  0  0  0  # atno 8009 bound_to 7997
  156.2678  140.2787  156.1291 H   0  0  0  0  0  0  0  0  0  0  0  0  # atno 8010 bound_to 7997
  139.6694  144.7126  151.1715 H   0  0  0  0  0  0  0  0  0  0  0  0  # atno 10167 bound_to 10162
  157.6835  131.0008  150.2241 H   0  0  0  0  0  0  0  0  0  0  0  0  # atno 10718 bound_to 10713
  153.7786  135.6907  153.4893 H   0  0  0  0  0  0  0  0  0  0  0  0  # atno 10763 bound_to 10752
  153.1827  135.4500  155.0047 H   0  0  0  0  0  0  0  0  0  0  0  0  # atno 10764 bound_to 10752
  154.8090  135.3369  154.7290 H   0  0  0  0  0  0  0  0  0  0  0  0  # atno 10765 bound_to 10752
  140.9843  133.7039  156.1738 H   0  0  0  0  0  0  0  0  0  0  0  0  # atno 11005 bound_to 11000
  145.1380  139.2590  143.5505 LP  0  0  0  0  0  0  0  0  0  0  0  0  # atno 17320 bound_to 7965
  146.3525  140.1049  142.8606 LP  0  0  0  0  0  0  0  0  0  0  0  0  # atno 17321 bound_to 7965
  140.7612  143.5867  150.8838 LP  0  0  0  0  0  0  0  0  0  0  0  0  # atno 17342 bound_to 10162
  139.9531  143.6249  152.3023 LP  0  0  0  0  0  0  0  0  0  0  0  0  # atno 17343 bound_to 10162
  156.2887  130.3743  149.7863 LP  0  0  0  0  0  0  0  0  0  0  0  0  # atno 17370 bound_to 10713
  156.5529  130.8350  151.3305 LP  0  0  0  0  0  0  0  0  0  0  0  0  # atno 17371 bound_to 10713
  140.7138  134.4432  157.5580 LP  0  0  0  0  0  0  0  0  0  0  0  0  # atno 17394 bound_to 11000
  139.8964  134.8661  156.2090 LP  0  0  0  0  0  0  0  0  0  0  0  0  # atno 17395 bound_to 11000

$$$$
