AV-unprocessed.smi:1762|AV-procd|sdf|7125|dock5
  -GOLD-   22720 8363D 1   1.00000     0.00000
 Structure written by MMmdl.
 52 53  0  0  0  0  0  0  0  0  3 V2000
  153.3295  138.3806  154.9878 C   0  0  0  0  0  0  0  0  0  0  0  0
  151.8768  138.0118  154.6665 C   0  0  2  0  0  0  0  0  0  0  0  0
  150.8876  139.0972  155.1246 C   0  0  0  0  0  0  0  0  0  0  0  0
  149.4764  138.6943  154.8545 N   0  3  2  0  0  0  0  0  0  0  0  0
  148.4793  139.7585  155.2178 C   0  0  1  0  0  0  0  0  0  0  0  0
  149.0823  141.1699  155.0136 C   0  0  0  0  0  0  0  0  0  0  0  0
  149.1570  141.6193  153.8646 O   0  0  0  0  0  0  0  0  0  0  0  0
  149.4943  141.7088  156.1946 N   0  5  0  0  0  0  0  0  0  0  0  0
  149.9178  140.9187  157.3493 C   0  0  0  0  0  0  0  0  0  0  0  0
  151.3577  141.3039  157.7621 C   0  0  0  0  0  0  0  0  0  0  0  0
  151.4522  142.5810  158.5903 C   0  0  0  0  0  0  0  0  0  0  0  0
  152.2459  142.6222  159.7592 C   0  0  0  0  0  0  0  0  0  0  0  0
  152.3126  143.8254  160.4878 C   0  0  0  0  0  0  0  0  0  0  0  0
  151.5915  144.9415  160.0227 C   0  0  0  0  0  0  0  0  0  0  0  0
  150.8345  144.8052  158.8424 C   0  0  0  0  0  0  0  0  0  0  0  0
  150.7645  143.6570  158.1352 N   0  0  0  0  0  0  0  0  0  0  0  0
  147.0924  139.6251  154.5004 C   0  0  0  0  0  0  0  0  0  0  0  0
  147.1714  139.5475  152.9612 C   0  0  0  0  0  0  0  0  0  0  0  0
  146.0886  140.7155  154.9234 C   0  0  0  0  0  0  0  0  0  0  0  0
  149.2241  137.3644  155.4758 C   0  0  0  0  0  0  0  0  0  0  0  0
  150.2689  136.3267  155.0220 C   0  0  2  0  0  0  0  0  0  0  0  0
  150.0765  134.9728  155.7140 C   0  0  0  0  0  0  0  0  0  0  0  0
  151.5712  136.7983  155.3384 O   0  0  0  0  0  0  0  0  0  0  0  0
  153.6208  139.3025  154.4839 H   0  0  0  0  0  0  0  0  0  0  0  0
  154.0118  137.5948  154.6627 H   0  0  0  0  0  0  0  0  0  0  0  0
  153.4737  138.5248  156.0590 H   0  0  0  0  0  0  0  0  0  0  0  0
  151.7884  137.8627  153.5888 H   0  0  0  0  0  0  0  0  0  0  0  0
  151.0097  139.2912  156.1917 H   0  0  0  0  0  0  0  0  0  0  0  0
  151.1428  140.0217  154.6073 H   0  0  0  0  0  0  0  0  0  0  0  0
  148.2788  139.6087  156.2819 H   0  0  0  0  0  0  0  0  0  0  0  0
  149.2486  141.0454  158.2014 H   0  0  0  0  0  0  0  0  0  0  0  0
  149.8924  139.8540  157.1160 H   0  0  0  0  0  0  0  0  0  0  0  0
  151.8073  140.4890  158.3318 H   0  0  0  0  0  0  0  0  0  0  0  0
  151.9786  141.4247  156.8728 H   0  0  0  0  0  0  0  0  0  0  0  0
  152.7881  141.7494  160.0921 H   0  0  0  0  0  0  0  0  0  0  0  0
  152.9065  143.8905  161.3874 H   0  0  0  0  0  0  0  0  0  0  0  0
  151.6184  145.8795  160.5568 H   0  0  0  0  0  0  0  0  0  0  0  0
  150.2713  145.6412  158.4547 H   0  0  0  0  0  0  0  0  0  0  0  0
  146.6332  138.6996  154.8451 H   0  0  0  0  0  0  0  0  0  0  0  0
  147.4761  140.4979  152.5232 H   0  0  0  0  0  0  0  0  0  0  0  0
  146.1979  139.2988  152.5379 H   0  0  0  0  0  0  0  0  0  0  0  0
  147.8749  138.7874  152.6230 H   0  0  0  0  0  0  0  0  0  0  0  0
  146.3817  141.7031  154.5656 H   0  0  0  0  0  0  0  0  0  0  0  0
  145.9988  140.7679  156.0087 H   0  0  0  0  0  0  0  0  0  0  0  0
  145.0957  140.5080  154.5232 H   0  0  0  0  0  0  0  0  0  0  0  0
  149.2348  137.4653  156.5623 H   0  0  0  0  0  0  0  0  0  0  0  0
  148.2456  136.9786  155.1968 H   0  0  0  0  0  0  0  0  0  0  0  0
  150.1927  136.1768  153.9434 H   0  0  0  0  0  0  0  0  0  0  0  0
  149.0961  134.5519  155.4901 H   0  0  0  0  0  0  0  0  0  0  0  0
  150.1611  135.0672  156.7969 H   0  0  0  0  0  0  0  0  0  0  0  0
  150.8288  134.2565  155.3830 H   0  0  0  0  0  0  0  0  0  0  0  0
  149.3961  138.5693  153.8554 H   0  0  0  0  0  0  0  0  0  0  0  0
  1  2  1  0  0  0  0
  1 24  1  0  0  0  0
  1 25  1  0  0  0  0
  1 26  1  0  0  0  0
  2 23  1  0  0  0  0
  2  3  1  0  0  0  0
  2 27  1  0  0  0  0
  3  4  1  0  0  0  0
  3 28  1  0  0  0  0
  3 29  1  0  0  0  0
  4  5  1  0  0  0  0
  4 20  1  0  0  0  0
  4 52  1  0  0  0  0
  5  6  1  0  0  0  0
  5 17  1  0  0  0  0
  5 30  1  0  0  0  0
  6  7  2  0  0  0  0
  6  8  1  0  0  0  0
  8  9  1  0  0  0  0
  9 10  1  0  0  0  0
  9 31  1  0  0  0  0
  9 32  1  0  0  0  0
 10 11  1  0  0  0  0
 10 33  1  0  0  0  0
 10 34  1  0  0  0  0
 11 16  1  0  0  0  0
 11 12  2  0  0  0  0
 12 13  1  0  0  0  0
 12 35  1  0  0  0  0
 13 14  2  0  0  0  0
 13 36  1  0  0  0  0
 14 15  1  0  0  0  0
 14 37  1  0  0  0  0
 15 16  2  0  0  0  0
 15 38  1  0  0  0  0
 17 18  1  0  0  0  0
 17 19  1  0  0  0  0
 17 39  1  0  0  0  0
 18 40  1  0  0  0  0
 18 41  1  0  0  0  0
 18 42  1  0  0  0  0
 19 43  1  0  0  0  0
 19 44  1  0  0  0  0
 19 45  1  0  0  0  0
 20 21  1  0  0  0  0
 20 46  1  0  0  0  0
 20 47  1  0  0  0  0
 21 22  1  0  0  0  0
 21 23  1  0  0  0  0
 21 48  1  0  0  0  0
 22 49  1  0  0  0  0
 22 50  1  0  0  0  0
 22 51  1  0  0  0  0
M  CHG  1   4   1
M  CHG  1   8  -1
M  END
> <s_m_source_file>
AV-unprocessed.smi

> <i_m_source_file_index>
1762

> <i_lp_mmshare_version>
43012

> <i_f3d_flags>
0

> <s_epik_input>
W0NIM11bQ0BASF0xW0NIMl1OKFtDSDJdW0NASF0oTzEpW0NIM10pW0NAQEhdKFtDSF0oW0NIM10pW0NIM10pQyg9TylbTkhdW0NIMl1bQ0gyXWMyW2NIXVtjSF1bY0hdW2NIXW4y

> <s_epik_cmdline>
J2VwaWtfcHl0aG9uJywgJy1waCcsICc3LjAnLCAnLXRuJywgJzgnLCAnLW1hJywgJzIwMCcsICctbWV0YWxfYmluZGluZycsICctaW1hZScsICc8aW5maWxlLm1hZT4nLCAnLW9tYWUnLCAnPG91dGZpbGUubWFlPic=

> <r_epik_Ionization_Penalty>
7.82966

> <r_epik_Ionization_Penalty_Charging>
7.7461

> <r_epik_Ionization_Penalty_Neutral>
0.0835571

> <r_epik_State_Penalty>
8.52273

> <r_epik_Charging_Adjusted_Penalty>
16.2688

> <i_epik_Tot_Q>
0

> <i_epik_Tot_abs_Q>
2

> <r_epik_Metal_State_Penalty>
4.47451

> <b_epik_Metal_Only>
1

> <s_lp_Force_Field>
OPLS_2005

> <r_lp_Energy>
21.2393

> <b_lp_Chiralities_Consistent>
1

> <s_lp_Variant>
AV-unprocessed.smi:1762-27

> <Gold.Version>
5.8.1

> <Gold.Id.Protein>
6NUR|6NUR_protein|mol2

> <Gold.PLP.Fitness>
48.8546

> <Gold.PLP.PLP>
-42.8756

> <Gold.PLP.part.hbond>
-2.5310

> <Gold.PLP.part.metal>
0.0000

> <Gold.PLP.part.buried>
-7.4295

> <Gold.PLP.part.nonpolar>
-35.6488

> <Gold.PLP.part.repulsive>
0.6349

> <Gold.PLP.ligand.clash>
0.0000

> <Gold.PLP.ligand.torsion>
1.2483

> <Gold.PLP.Chemscore.Hbond>
1.6880

> <Gold.PLP.Chemscore.CHOScore>
0.9979

> <Gold.PLP.Chemscore.Metal>
0.0000

> <Gold.Chemscore.Hbonds>
donor molecule, donor type, donor heavy atom, donor atom, acceptor molecule, acceptor atom, score
      P1  H  8011  8017       L1     7  0.66
      P1  H 10752 10763       L1    23  1.00
      L1  C    15    38       P1  8029  0.71

> <Gold.PLP.Chemscore.Internal.Correction>
0.4177

> <Gold.Rescore>
     Score         DG    S(hbond)    S(metal)    S(lipo)     H(rot)  DE(clash)    DE(int)     intcor
     17.19     -19.49       1.36        0.00     115.99       1.60       0.06       2.23       ----

> <Gold.Chemscore.Fitness>
17.1886

> <Gold.Chemscore.DG>
-19.4858

> <Gold.Chemscore.ZeroCoef>
-5.4800

> <Gold.Chemscore.Hbond>
1.3574

> <Gold.Chemscore.Metal>
0.0000

> <Gold.Chemscore.Lipo>
115.9929

> <Gold.Chemscore.Internal_Hbond>
0.0000

> <Gold.Chemscore.DEClash>
0.0637

> <Gold.Chemscore.DEInternal>
2.2335

> <Gold.Chemscore.Rot>
1.6012

> <Gold.Chemscore.Internal.Correction>
   9.000000E+99

> <Gold.Chemscore.Hbonds>
donor molecule, donor type, donor heavy atom, donor atom, acceptor molecule, acceptor atom, score
      P1  H  8011  8017       L1     7  0.66
      P1  H 10752 10763       L1    23  0.18

> <Gold.Chemscore.Hbond.Weighted>
-4.5336

> <Gold.Chemscore.Metal.Weighted>
-0.0000

> <Gold.Chemscore.Lipo.Weighted>
-13.5712

> <Gold.Chemscore.Internal_Hbond.Weighted>
0.0000

> <Gold.Chemscore.DEClash.Weighted>
0.0637

> <Gold.Chemscore.DEInternal.Weighted>
2.2335

> <Gold.Chemscore.Rot.Weighted>
4.0990

> <Gold.Chemscore.Internal.Correction.Weighted>
   9.000000E+99

> <Gold.Protein.RotatedTorsions>
[ 6907 6896 6895 6894 ] final   60.35 input  -60.11 | X-H torsion
[ 7974 7965 7964 7962 ] final  -55.14 input  175.53 | X-H torsion
[ 8008 7997 7996 7995 ] final -142.69 input   59.86 | X-H torsion
[ 10167 10162 10161 10158 ] final -179.56 input  -65.29 | X-H torsion
[ 10718 10713 10712 10709 ] final  145.74 input   66.30 | X-H torsion
[ 10763 10752 10751 10750 ] final   55.67 input  -60.55 | X-H torsion
[ 11005 11000 10999 10996 ] final -158.01 input  -57.11 | X-H torsion

> <Gold.Protein.ActiveResidues>
 VAL166  LYS551  ARG553  GLY616  TRP617  ASP618  TYR619  PRO620  LYS621  CYS622 
 ASP623  PHE694  ASN695  SER759  ASP760  ASP761  ALA762  ILE779  LEU786  VAL792 
 PHE793  MET794  SER795  GLU796  ALA797  LYS798  CYS799  TRP800  GLU811  SER814 

> <Gold.Protein.RotatedAtoms>
  152.3995  134.6310  160.0075 H   0  0  0  0  0  0  0  0  0  0  0  0  # atno 6907 bound_to 6896
  151.6519  133.3315  159.3162 H   0  0  0  0  0  0  0  0  0  0  0  0  # atno 6908 bound_to 6896
  150.7897  134.6954  159.6565 H   0  0  0  0  0  0  0  0  0  0  0  0  # atno 6909 bound_to 6896
  145.8776  140.8169  142.9856 H   0  0  0  0  0  0  0  0  0  0  0  0  # atno 7974 bound_to 7965
  155.4983  140.0573  157.2943 H   0  0  0  0  0  0  0  0  0  0  0  0  # atno 8008 bound_to 7997
  154.4596  140.1990  156.0231 H   0  0  0  0  0  0  0  0  0  0  0  0  # atno 8009 bound_to 7997
  156.0866  140.3239  155.7765 H   0  0  0  0  0  0  0  0  0  0  0  0  # atno 8010 bound_to 7997
  139.5381  144.2441  152.0837 H   0  0  0  0  0  0  0  0  0  0  0  0  # atno 10167 bound_to 10162
  157.3417  131.0937  151.1077 H   0  0  0  0  0  0  0  0  0  0  0  0  # atno 10718 bound_to 10713
  152.9820  135.5703  154.5104 H   0  0  0  0  0  0  0  0  0  0  0  0  # atno 10763 bound_to 10752
  154.4609  135.2781  155.1716 H   0  0  0  0  0  0  0  0  0  0  0  0  # atno 10764 bound_to 10752
  154.3304  135.6250  153.5602 H   0  0  0  0  0  0  0  0  0  0  0  0  # atno 10765 bound_to 10752
  140.6583  134.4377  157.5234 H   0  0  0  0  0  0  0  0  0  0  0  0  # atno 11005 bound_to 11000
  144.6726  140.1334  143.7442 LP  0  0  0  0  0  0  0  0  0  0  0  0  # atno 17320 bound_to 7965
  145.9062  139.2460  143.1464 LP  0  0  0  0  0  0  0  0  0  0  0  0  # atno 17321 bound_to 7965
  140.1914  144.4747  150.6477 LP  0  0  0  0  0  0  0  0  0  0  0  0  # atno 17342 bound_to 10162
  140.6597  143.2248  151.5884 LP  0  0  0  0  0  0  0  0  0  0  0  0  # atno 17343 bound_to 10162
  157.2286  130.6514  149.5840 LP  0  0  0  0  0  0  0  0  0  0  0  0  # atno 17370 bound_to 10713
  155.9708  130.4606  150.6078 LP  0  0  0  0  0  0  0  0  0  0  0  0  # atno 17371 bound_to 10713
  139.9022  134.8530  156.1850 LP  0  0  0  0  0  0  0  0  0  0  0  0  # atno 17394 bound_to 11000
  141.0485  133.6901  156.1727 LP  0  0  0  0  0  0  0  0  0  0  0  0  # atno 17395 bound_to 11000

$$$$
