AV-unprocessed.smi:2375|AV-procd|sdf|9442|dock5
  -GOLD-   2272013 73D 1   1.00000     0.00000
 Structure written by MMmdl.
 37 38  0  0  0  0  0  0  0  0  1 V2000
  143.8766  144.7967  155.0616 C   0  0  0  0  0  0  0  0  0  0  0  0
  145.0021  143.8195  155.0874 C   0  0  0  0  0  0  0  0  0  0  0  0
  145.5779  143.2287  156.1849 C   0  0  0  0  0  0  0  0  0  0  0  0
  146.6244  142.3585  155.8731 N   0  0  0  0  0  0  0  0  0  0  0  0
  146.8544  142.2860  154.5589 C   0  0  0  0  0  0  0  0  0  0  0  0
  147.9470  141.4621  153.9478 C   0  0  2  0  0  0  0  0  0  0  0  0
  147.3936  140.2748  153.1468 C   0  0  0  0  0  0  0  0  0  0  0  0
  149.0377  141.0492  154.9587 C   0  0  0  0  0  0  0  0  0  0  0  0
  149.5952  142.2021  155.6630 N   0  0  0  0  0  0  0  0  0  0  0  0
  150.6489  142.1792  156.4979 C   0  0  0  0  0  0  0  0  0  0  0  0
  151.3206  141.1738  156.7210 O   0  0  0  0  0  0  0  0  0  0  0  0
  150.9220  143.3567  157.0873 N   0  0  0  0  0  0  0  0  0  0  0  0
  151.9922  143.6603  158.0383 C   0  0  0  0  0  0  0  0  0  0  0  0
  152.0240  142.6476  159.2085 C   0  0  0  0  0  0  0  0  0  0  0  0
  152.2131  143.5144  160.4241 C   0  0  0  0  0  0  0  0  0  0  0  0
  152.1176  144.8121  160.1420 C   0  0  0  0  0  0  0  0  0  0  0  0
  151.8449  145.0621  158.6841 C   0  0  0  0  0  0  0  0  0  0  0  0
  145.7626  143.2892  153.6108 S   0  0  0  0  0  0  0  0  0  0  0  0
  143.4809  144.9673  156.0632 H   0  0  0  0  0  0  0  0  0  0  0  0
  143.0620  144.4326  154.4354 H   0  0  0  0  0  0  0  0  0  0  0  0
  144.2077  145.7557  154.6626 H   0  0  0  0  0  0  0  0  0  0  0  0
  145.3092  143.3715  157.2211 H   0  0  0  0  0  0  0  0  0  0  0  0
  148.4375  142.1113  153.2211 H   0  0  0  0  0  0  0  0  0  0  0  0
  146.6985  140.6112  152.3768 H   0  0  0  0  0  0  0  0  0  0  0  0
  146.8627  139.5747  153.7927 H   0  0  0  0  0  0  0  0  0  0  0  0
  148.1959  139.7273  152.6517 H   0  0  0  0  0  0  0  0  0  0  0  0
  148.6305  140.3239  155.6650 H   0  0  0  0  0  0  0  0  0  0  0  0
  149.8510  140.5412  154.4399 H   0  0  0  0  0  0  0  0  0  0  0  0
  149.1147  143.0815  155.5411 H   0  0  0  0  0  0  0  0  0  0  0  0
  150.3445  144.1387  156.8144 H   0  0  0  0  0  0  0  0  0  0  0  0
  152.9580  143.6062  157.5321 H   0  0  0  0  0  0  0  0  0  0  0  0
  151.0891  142.0943  159.3081 H   0  0  0  0  0  0  0  0  0  0  0  0
  152.8411  141.9329  159.1053 H   0  0  0  0  0  0  0  0  0  0  0  0
  152.3817  143.1004  161.4073 H   0  0  0  0  0  0  0  0  0  0  0  0
  152.1963  145.6148  160.8605 H   0  0  0  0  0  0  0  0  0  0  0  0
  152.5533  145.7788  158.2673 H   0  0  0  0  0  0  0  0  0  0  0  0
  150.8372  145.4657  158.5768 H   0  0  0  0  0  0  0  0  0  0  0  0
  1  2  1  0  0  0  0
  1 19  1  0  0  0  0
  1 20  1  0  0  0  0
  1 21  1  0  0  0  0
  2 18  1  0  0  0  0
  2  3  2  0  0  0  0
  3  4  1  0  0  0  0
  3 22  1  0  0  0  0
  4  5  2  0  0  0  0
  5  6  1  0  0  0  0
  5 18  1  0  0  0  0
  6  7  1  0  0  0  0
  6  8  1  0  0  0  0
  6 23  1  0  0  0  0
  7 24  1  0  0  0  0
  7 25  1  0  0  0  0
  7 26  1  0  0  0  0
  8  9  1  0  0  0  0
  8 27  1  0  0  0  0
  8 28  1  0  0  0  0
  9 10  1  0  0  0  0
  9 29  1  0  0  0  0
 10 11  2  0  0  0  0
 10 12  1  0  0  0  0
 12 13  1  0  0  0  0
 12 30  1  0  0  0  0
 13 17  1  0  0  0  0
 13 14  1  0  0  0  0
 13 31  1  0  0  0  0
 14 15  1  0  0  0  0
 14 32  1  0  0  0  0
 14 33  1  0  0  0  0
 15 16  2  0  0  0  0
 15 34  1  0  0  0  0
 16 17  1  0  0  0  0
 16 35  1  0  0  0  0
 17 36  1  0  0  0  0
 17 37  1  0  0  0  0
M  END
> <s_m_source_file>
AV-unprocessed.smi

> <i_m_source_file_index>
2375

> <i_lp_mmshare_version>
43012

> <i_f3d_flags>
0

> <s_epik_input>
W0NIM11jMVtjSF1uYyhzMSlbQ0BIXShbQ0gzXSlbQ0gyXVtOSF1DKD1PKVtOSF1bQ0hdMltDSDJdW0NIXT1bQ0hdW0NIMl0y

> <s_epik_cmdline>
J2VwaWtfcHl0aG9uJywgJy1waCcsICc3LjAnLCAnLXRuJywgJzgnLCAnLW1hJywgJzIwMCcsICctbWV0YWxfYmluZGluZycsICctaW1hZScsICc8aW5maWxlLm1hZT4nLCAnLW9tYWUnLCAnPG91dGZpbGUubWFlPic=

> <r_epik_Ionization_Penalty>
0.000644205

> <r_epik_Ionization_Penalty_Charging>
0

> <r_epik_Ionization_Penalty_Neutral>
0.000644205

> <r_epik_State_Penalty>
0.000370883

> <r_epik_Charging_Adjusted_Penalty>
0.000370883

> <i_epik_Tot_Q>
0

> <i_epik_Tot_abs_Q>
0

> <r_epik_Metal_State_Penalty>
-0

> <b_epik_Metal_Only>
0

> <s_lp_Force_Field>
OPLS_2005

> <r_lp_Energy>
17.1523

> <b_lp_Chiralities_Consistent>
1

> <s_lp_Variant>
AV-unprocessed.smi:2375-1

> <Gold.Version>
5.8.1

> <Gold.Id.Protein>
6NUR|6NUR_protein|mol2

> <Gold.PLP.Fitness>
48.6361

> <Gold.PLP.PLP>
-43.5896

> <Gold.PLP.part.hbond>
-2.0000

> <Gold.PLP.part.metal>
0.0000

> <Gold.PLP.part.buried>
-5.5780

> <Gold.PLP.part.nonpolar>
-37.2963

> <Gold.PLP.part.repulsive>
0.3461

> <Gold.PLP.ligand.clash>
0.0000

> <Gold.PLP.ligand.torsion>
0.4482

> <Gold.PLP.Chemscore.Hbond>
1.9440

> <Gold.PLP.Chemscore.CHOScore>
0.0000

> <Gold.PLP.Chemscore.Metal>
0.0000

> <Gold.Chemscore.Hbonds>
donor molecule, donor type, donor heavy atom, donor atom, acceptor molecule, acceptor atom, score
      L1  H     9    29       P1  8028  1.00
      L1  H    12    30       P1  8028  0.93

> <Gold.PLP.Chemscore.Internal.Correction>
0.1107

> <Gold.Rescore>
     Score         DG    S(hbond)    S(metal)    S(lipo)     H(rot)  DE(clash)    DE(int)     intcor
     19.64     -20.44       1.92        0.00     105.94       1.50       0.10       0.71       ----

> <Gold.Chemscore.Fitness>
19.6361

> <Gold.Chemscore.DG>
-20.4430

> <Gold.Chemscore.ZeroCoef>
-5.4800

> <Gold.Chemscore.Hbond>
1.9194

> <Gold.Chemscore.Metal>
0.0000

> <Gold.Chemscore.Lipo>
105.9406

> <Gold.Chemscore.Internal_Hbond>
0.0000

> <Gold.Chemscore.DEClash>
0.0980

> <Gold.Chemscore.DEInternal>
0.7088

> <Gold.Chemscore.Rot>
1.5012

> <Gold.Chemscore.Internal.Correction>
   9.000000E+99

> <Gold.Chemscore.Hbonds>
donor molecule, donor type, donor heavy atom, donor atom, acceptor molecule, acceptor atom, score
      L1  H     9    29       P1  8028  0.99
      L1  H    12    30       P1  8028  0.88

> <Gold.Chemscore.Hbond.Weighted>
-6.4109

> <Gold.Chemscore.Metal.Weighted>
-0.0000

> <Gold.Chemscore.Lipo.Weighted>
-12.3950

> <Gold.Chemscore.Internal_Hbond.Weighted>
0.0000

> <Gold.Chemscore.DEClash.Weighted>
0.0980

> <Gold.Chemscore.DEInternal.Weighted>
0.7088

> <Gold.Chemscore.Rot.Weighted>
3.8429

> <Gold.Chemscore.Internal.Correction.Weighted>
   9.000000E+99

> <Gold.Protein.RotatedTorsions>
[ 6907 6896 6895 6894 ] final  -88.90 input  -60.11 | X-H torsion
[ 7974 7965 7964 7962 ] final  112.57 input  175.53 | X-H torsion
[ 8008 7997 7996 7995 ] final    0.83 input   59.86 | X-H torsion
[ 10167 10162 10161 10158 ] final -108.82 input  -65.29 | X-H torsion
[ 10718 10713 10712 10709 ] final  -67.17 input   66.30 | X-H torsion
[ 10763 10752 10751 10750 ] final   74.99 input  -60.55 | X-H torsion
[ 11005 11000 10999 10996 ] final  173.65 input  -57.11 | X-H torsion

> <Gold.Protein.ActiveResidues>
 VAL166  LYS551  ARG553  GLY616  TRP617  ASP618  TYR619  PRO620  LYS621  CYS622 
 ASP623  PHE694  ASN695  SER759  ASP760  ASP761  ALA762  ILE779  LEU786  VAL792 
 PHE793  MET794  SER795  GLU796  ALA797  LYS798  CYS799  TRP800  GLU811  SER814 

> <Gold.Protein.RotatedAtoms>
  150.6871  134.2669  159.4572 H   0  0  0  0  0  0  0  0  0  0  0  0  # atno 6907 bound_to 6896
  152.0595  134.9601  160.0584 H   0  0  0  0  0  0  0  0  0  0  0  0  # atno 6908 bound_to 6896
  152.1033  133.4227  159.4634 H   0  0  0  0  0  0  0  0  0  0  0  0  # atno 6909 bound_to 6896
  145.2279  139.2833  143.4184 H   0  0  0  0  0  0  0  0  0  0  0  0  # atno 7974 bound_to 7965
  154.6726  140.2615  155.6991 H   0  0  0  0  0  0  0  0  0  0  0  0  # atno 8008 bound_to 7997
  156.2665  140.2826  156.1163 H   0  0  0  0  0  0  0  0  0  0  0  0  # atno 8009 bound_to 7997
  155.1147  140.0376  157.2724 H   0  0  0  0  0  0  0  0  0  0  0  0  # atno 8010 bound_to 7997
  140.1620  143.4112  152.1418 H   0  0  0  0  0  0  0  0  0  0  0  0  # atno 10167 bound_to 10162
  156.0572  130.4273  150.1816 H   0  0  0  0  0  0  0  0  0  0  0  0  # atno 10718 bound_to 10713
  153.0624  135.5005  154.8124 H   0  0  0  0  0  0  0  0  0  0  0  0  # atno 10763 bound_to 10752
  154.6903  135.2983  154.9491 H   0  0  0  0  0  0  0  0  0  0  0  0  # atno 10764 bound_to 10752
  154.0248  135.6737  153.4828 H   0  0  0  0  0  0  0  0  0  0  0  0  # atno 10765 bound_to 10752
  140.3428  134.7262  157.4214 H   0  0  0  0  0  0  0  0  0  0  0  0  # atno 11005 bound_to 11000
  146.3360  140.2605  142.8602 LP  0  0  0  0  0  0  0  0  0  0  0  0  # atno 17320 bound_to 7965
  144.9704  140.8363  143.5459 LP  0  0  0  0  0  0  0  0  0  0  0  0  # atno 17321 bound_to 7965
  139.5377  144.7225  151.4839 LP  0  0  0  0  0  0  0  0  0  0  0  0  # atno 17342 bound_to 10162
  140.6637  143.8444  150.6917 LP  0  0  0  0  0  0  0  0  0  0  0  0  # atno 17343 bound_to 10162
  156.9890  130.9887  151.3419 LP  0  0  0  0  0  0  0  0  0  0  0  0  # atno 17370 bound_to 10713
  157.5551  130.8208  149.8194 LP  0  0  0  0  0  0  0  0  0  0  0  0  # atno 17371 bound_to 10713
  140.0767  134.5787  155.8583 LP  0  0  0  0  0  0  0  0  0  0  0  0  # atno 17394 bound_to 11000
  141.2034  133.6631  156.6060 LP  0  0  0  0  0  0  0  0  0  0  0  0  # atno 17395 bound_to 11000

$$$$
