#       Name:                AV-unprocessed.smi:1240
#       Creating user name   scv26
#       Creation time:       Fri Mar 27 04:30:56 2020


#       File generated by GOLD software.
#

@<TRIPOS>MOLECULE
AV-unprocessed.smi:1240
    55    57     1
SMALL
NO_CHARGES


@<TRIPOS>ATOM
      1 ****        -2.4254   0.2221  -1.6897 O.2            1 S1                 0.0000
      2 ****        -1.9475   0.9772  -0.8355 C.2            1 S1                 0.0000
      3 ****        -1.1475   0.6438   0.2124 N.pl3          1 S1                -1.0000
      4 ****        -0.7108  -0.7140   0.5432 C.3            1 S1                 0.0000
      5 ****         0.8550  -0.7995   0.6209 C.3            1 S1                 0.0000
      6 ****         1.4825  -0.1427   1.8950 C.3            1 S1                 0.0000
      7 ****         2.9967  -0.2766   1.9758 C.3            1 S1                 0.0000
      8 ****         3.3631   0.7665   3.0236 C.3            1 S1                 0.0000
      9 ****         2.4337   1.8254   2.8389 O.3            1 S1                 0.0000
     10 ****         1.3553   1.3869   2.0182 C.3            1 S1                 0.0000
     11 ****         1.4078  -2.1898   0.4492 N.4            1 S1                 1.0000
     12 ****         0.9965  -3.2359   1.4282 C.3            1 S1                 0.0000
     13 ****         1.8851  -4.4793   1.2647 C.3            1 S1                 0.0000
     14 ****         1.8051  -4.9528  -0.0748 O.3            1 S1                 0.0000
     15 ****         2.2726  -3.9911  -1.0136 C.3            1 S1                 0.0000
     16 ****         1.4035  -2.7251  -0.9385 C.3            1 S1                 0.0000
     17 ****        -2.2169   2.2948  -0.8660 N.am           1 S1                 0.0000
     18 ****        -3.0431   3.0153  -1.7698 C.ar           1 S1                 0.0000
     19 ****        -3.6832   4.1787  -1.2889 C.ar           1 S1                 0.0000
     20 ****        -4.5018   4.9299  -2.1563 C.ar           1 S1                 0.0000
     21 ****        -4.6563   4.5409  -3.4402 N.pl3          1 S1                 1.0000
     22 ****        -4.0479   3.4485  -3.9505 C.ar           1 S1                 0.0000
     23 ****        -3.2173   2.6577  -3.1306 C.ar           1 S1                 0.0000
     24 ****        -1.1305  -1.0489   1.4917 H              1 S1                 0.0000
     25 ****        -1.0632  -1.4404  -0.1895 H              1 S1                 0.0000
     26 ****         1.2471  -0.2401  -0.2305 H              1 S1                 0.0000
     27 ****         1.0630  -0.5893   2.7990 H              1 S1                 0.0000
     28 ****         3.3286  -1.2766   2.2562 H              1 S1                 0.0000
     29 ****         3.4539  -0.0210   1.0187 H              1 S1                 0.0000
     30 ****         3.2323   0.3598   4.0270 H              1 S1                 0.0000
     31 ****         4.3922   1.1137   2.9284 H              1 S1                 0.0000
     32 ****         1.4579   1.8651   1.0431 H              1 S1                 0.0000
     33 ****         0.4000   1.6941   2.4448 H              1 S1                 0.0000
     34 ****         1.0816  -2.8633   2.4485 H              1 S1                 0.0000
     35 ****        -0.0456  -3.5191   1.2743 H              1 S1                 0.0000
     36 ****         2.9212  -4.2540   1.5232 H              1 S1                 0.0000
     37 ****         1.5538  -5.2691   1.9390 H              1 S1                 0.0000
     38 ****         3.3203  -3.7558  -0.8187 H              1 S1                 0.0000
     39 ****         2.2237  -4.4213  -2.0140 H              1 S1                 0.0000
     40 ****         0.3868  -2.9621  -1.2541 H              1 S1                 0.0000
     41 ****         1.7894  -1.9767  -1.6315 H              1 S1                 0.0000
     42 ****        -1.8618   2.8240  -0.0830 H              1 S1                 0.0000
     43 ****        -3.5570   4.4885  -0.2614 H              1 S1                 0.0000
     44 ****        -5.0324   5.8239  -1.8637 H              1 S1                 0.0000
     45 ****        -4.2375   3.2433  -4.9940 H              1 S1                 0.0000
     46 ****        -2.7212   1.7996  -3.5584 H              1 S1                 0.0000
     47 ****         2.3898  -2.0554   0.6405 H              1 S1                 0.0000
     48 ****        -5.2534   5.0981  -4.0516 H              1 S1                 0.0000
     49 ****        -2.2334  -0.7586  -1.6537 LP             1 S1                 0.0000
     50 ****        -3.0039   0.5921  -2.4167 LP             1 S1                 0.0000
     51 ****        -0.8322   1.3855   0.8045 LP             1 S1                 0.0000
     52 ****         2.8932   2.5967   2.3984 LP             1 S1                 0.0000
     53 ****         2.0779   2.1131   3.7281 LP             1 S1                 0.0000
     54 ****         0.8514  -5.1693  -0.2834 LP             1 S1                 0.0000
     55 ****         2.3606  -5.7802  -0.1576 LP             1 S1                 0.0000
@<TRIPOS>BOND
    1    1    2 2     
    2    2    3 1     
    3    2   17 am    
    4    3    4 1     
    5    4    5 1     
    6    4   24 1     
    7    4   25 1     
    8    5    6 1     
    9    5   11 1     
   10    5   26 1     
   11    6   10 1     
   12    6    7 1     
   13    6   27 1     
   14    7    8 1     
   15    7   28 1     
   16    7   29 1     
   17    8    9 1     
   18    8   30 1     
   19    8   31 1     
   20    9   10 1     
   21   10   32 1     
   22   10   33 1     
   23   11   16 1     
   24   11   12 1     
   25   11   47 1     
   26   12   13 1     
   27   12   34 1     
   28   12   35 1     
   29   13   14 1     
   30   13   36 1     
   31   13   37 1     
   32   14   15 1     
   33   15   16 1     
   34   15   38 1     
   35   15   39 1     
   36   16   40 1     
   37   16   41 1     
   38   17   18 1     
   39   17   42 1     
   40   18   23 ar    
   41   18   19 ar    
   42   19   20 ar    
   43   19   43 1     
   44   20   21 ar    
   45   20   44 1     
   46   21   22 ar    
   47   21   48 1     
   48   22   23 ar    
   49   22   45 1     
   50   23   46 1     
   51    1   49 1     
   52    1   50 1     
   53    3   51 1     
   54    9   52 1     
   55    9   53 1     
   56   14   54 1     
   57   14   55 1     
@<TRIPOS>SUBSTRUCTURE
      1 S1             1
@<TRIPOS>SET
LONE_PAIRS      STATIC     ATOMS    <user>   **** ""
7 49 50 51 52 53 54 55
DONOR_HYDROGENS      STATIC     ATOMS    <user>   **** ""
3 47 42 48
ATOM$BLUE        STATIC     ATOMS    COLORGROUP SYSTEM
7 49 50 51 52 53 54 55
ATOM$RED        STATIC     ATOMS    COLORGROUP SYSTEM
3 47 42 48
