#       Name:                AV-unprocessed.smi:473
#       Creating user name   scv26
#       Creation time:       Thu Mar 26 23:07:45 2020


#       File generated by GOLD software.
#

@<TRIPOS>MOLECULE
AV-unprocessed.smi:473
    49    51     1
SMALL
NO_CHARGES


@<TRIPOS>ATOM
      1 ****        -2.3560   4.5296   2.3985 C.3            1 S1                 0.0000
      2 ****        -2.0574   3.4738   1.3475 C.ar           1 S1                 0.0000
      3 ****        -2.4263   3.7325   0.0078 C.ar           1 S1                 0.0000
      4 ****        -2.1359   2.7497  -0.9310 C.ar           1 S1                 0.0000
      5 ****        -2.3622   2.7034  -2.3083 N.pl3          1 S1                 1.0000
      6 ****        -1.8968   1.5242  -2.8061 C.2            1 S1                 0.0000
      7 ****        -1.3769   0.8173  -1.7661 N.pl3          1 S1                 0.0000
      8 ****        -0.7430  -0.5078  -1.7449 C.3            1 S1                 0.0000
      9 ****         0.7965  -0.4342  -1.7033 C.3            1 S1                 0.0000
     10 ****         1.2521   0.2588  -2.8491 O.3            1 S1                 0.0000
     11 ****         1.4371  -1.8307  -1.6812 C.3            1 S1                 0.0000
     12 ****         2.7450  -1.7293  -1.1340 O.3            1 S1                 0.0000
     13 ****         3.4250  -2.9732  -1.0206 C.3            1 S1                 0.0000
     14 ****         2.9002  -3.7097   0.1736 C.2            1 S1                 0.0000
     15 ****         2.8078  -5.0383   0.4845 C.2            1 S1                 0.0000
     16 ****         2.2265  -5.1094   1.7807 C.2            1 S1                 0.0000
     17 ****         2.0142  -3.8177   2.1695 C.2            1 S1                 0.0000
     18 ****         2.4241  -2.9512   1.2037 O.3            1 S1                 0.0000
     19 ****        -1.5044   1.5419  -0.5767 C.ar           1 S1                 0.0000
     20 ****        -1.1365   1.2693   0.7385 C.ar           1 S1                 0.0000
     21 ****        -1.4203   2.2580   1.7079 C.ar           1 S1                 0.0000
     22 ****        -1.0238   1.9924   3.1503 C.3            1 S1                 0.0000
     23 ****        -2.8395   5.4032   1.9605 H              1 S1                 0.0000
     24 ****        -1.4354   4.8636   2.8776 H              1 S1                 0.0000
     25 ****        -3.0210   4.1300   3.1644 H              1 S1                 0.0000
     26 ****        -2.9106   4.6562  -0.2742 H              1 S1                 0.0000
     27 ****        -1.9293   1.2096  -3.8393 H              1 S1                 0.0000
     28 ****        -1.1319  -1.0585  -0.8873 H              1 S1                 0.0000
     29 ****        -1.0745  -1.0452  -2.6347 H              1 S1                 0.0000
     30 ****         1.1033   0.1186  -0.8148 H              1 S1                 0.0000
     31 ****         1.0394  -0.2531  -3.6142 H              1 S1                 0.0000
     32 ****         0.8395  -2.4911  -1.0514 H              1 S1                 0.0000
     33 ****         1.4570  -2.2736  -2.6785 H              1 S1                 0.0000
     34 ****         3.3236  -3.5670  -1.9303 H              1 S1                 0.0000
     35 ****         4.4880  -2.7742  -0.8842 H              1 S1                 0.0000
     36 ****         3.1182  -5.8587  -0.1456 H              1 S1                 0.0000
     37 ****         1.9956  -5.9933   2.3568 H              1 S1                 0.0000
     38 ****         1.6040  -3.3592   3.0573 H              1 S1                 0.0000
     39 ****        -0.6494   0.3447   1.0113 H              1 S1                 0.0000
     40 ****        -0.5700   1.0073   3.2645 H              1 S1                 0.0000
     41 ****        -1.8962   2.0340   3.8027 H              1 S1                 0.0000
     42 ****        -0.3003   2.7339   3.4900 H              1 S1                 0.0000
     43 ****        -2.7978   3.4236  -2.8703 H              1 S1                 0.0000
     44 ****         2.2423   0.3872  -2.7940 LP             1 S1                 0.0000
     45 ****         0.8029   1.1505  -2.9046 LP             1 S1                 0.0000
     46 ****         2.6733  -1.3263  -0.2217 LP             1 S1                 0.0000
     47 ****         3.2858  -1.1282  -1.7224 LP             1 S1                 0.0000
     48 ****         1.6553  -2.3920   0.8934 LP             1 S1                 0.0000
     49 ****         3.1468  -2.3575   1.5574 LP             1 S1                 0.0000
@<TRIPOS>BOND
    1    1    2 1     
    2    1   23 1     
    3    1   24 1     
    4    1   25 1     
    5    2   21 ar    
    6    2    3 ar    
    7    3    4 ar    
    8    3   26 1     
    9    4   19 ar    
   10    4    5 1     
   11    5    6 2     
   12    5   43 1     
   13    6    7 1     
   14    6   27 1     
   15    7    8 1     
   16    7   19 1     
   17    8    9 1     
   18    8   28 1     
   19    8   29 1     
   20    9   10 1     
   21    9   11 1     
   22    9   30 1     
   23   10   31 1     
   24   11   12 1     
   25   11   32 1     
   26   11   33 1     
   27   12   13 1     
   28   13   14 1     
   29   13   34 1     
   30   13   35 1     
   31   14   18 1     
   32   14   15 2     
   33   15   16 1     
   34   15   36 1     
   35   16   17 2     
   36   16   37 1     
   37   17   18 1     
   38   17   38 1     
   39   19   20 ar    
   40   20   21 ar    
   41   20   39 1     
   42   21   22 1     
   43   22   40 1     
   44   22   41 1     
   45   22   42 1     
   46   10   44 1     
   47   10   45 1     
   48   12   46 1     
   49   12   47 1     
   50   18   48 1     
   51   18   49 1     
@<TRIPOS>SUBSTRUCTURE
      1 S1             1
@<TRIPOS>SET
LONE_PAIRS      STATIC     ATOMS    <user>   **** ""
6 44 45 46 47 48 49
DONOR_HYDROGENS      STATIC     ATOMS    <user>   **** ""
2 43 31
ATOM$BLUE        STATIC     ATOMS    COLORGROUP SYSTEM
6 44 45 46 47 48 49
ATOM$RED        STATIC     ATOMS    COLORGROUP SYSTEM
2 43 31
