#       Name:                AV-unprocessed.smi:1546
#       Creating user name   scv26
#       Creation time:       Fri Mar 27 06:39:13 2020


#       File generated by GOLD software.
#

@<TRIPOS>MOLECULE
AV-unprocessed.smi:1546
    36    37     1
SMALL
NO_CHARGES


@<TRIPOS>ATOM
      1 ****         0.4492   1.2705  -0.6630 O.2            1 S1                 0.0000
      2 ****        -0.3376   0.3741  -0.3588 C.2            1 S1                 0.0000
      3 ****         0.1635  -1.0637  -0.2087 C.3            1 S1                 0.0000
      4 ****         1.5825  -1.0830  -0.2347 O.3            1 S1                 0.0000
      5 ****         2.1112  -2.3914  -0.1077 C.3            1 S1                 0.0000
      6 ****         3.6227  -2.3169  -0.1343 C.3            1 S1                 0.0000
      7 ****         4.4520  -3.4672   0.3901 C.3            1 S1                 0.0000
      8 ****         4.4120  -2.1638   1.1462 C.3            1 S1                 0.0000
      9 ****        -1.6558   0.5381  -0.1331 N.am           1 S1                 0.0000
     10 ****        -2.4369   1.7048  -0.1862 C.2            1 S1                 0.0000
     11 ****        -2.0036   2.9386  -0.5528 C.2            1 S1                 0.0000
     12 ****        -2.8163   4.0631  -0.5912 N.pl3          1 S1                 0.0000
     13 ****        -4.1495   3.9399  -0.2350 C.2            1 S1                 0.0000
     14 ****        -4.7062   2.7736   0.1462 C.2            1 S1                 0.0000
     15 ****        -3.8702   1.5530   0.1934 C.2            1 S1                 0.0000
     16 ****        -4.3487   0.4703   0.5316 O.2            1 S1                 0.0000
     17 ****        -0.2000  -1.4785   0.7332 H              1 S1                 0.0000
     18 ****        -0.2396  -1.6687  -1.0222 H              1 S1                 0.0000
     19 ****         1.7791  -2.8531   0.8237 H              1 S1                 0.0000
     20 ****         1.7731  -3.0185  -0.9338 H              1 S1                 0.0000
     21 ****         4.0221  -1.8099  -1.0107 H              1 S1                 0.0000
     22 ****         3.9270  -4.3153   0.8254 H              1 S1                 0.0000
     23 ****         5.3680  -3.7104  -0.1446 H              1 S1                 0.0000
     24 ****         5.3002  -1.5359   1.1156 H              1 S1                 0.0000
     25 ****         3.8601  -2.1447   2.0840 H              1 S1                 0.0000
     26 ****        -2.1685  -0.2944   0.1203 H              1 S1                 0.0000
     27 ****        -0.9922   3.1615  -0.8510 H              1 S1                 0.0000
     28 ****        -4.7086   4.8625  -0.2879 H              1 S1                 0.0000
     29 ****        -5.7492   2.7086   0.4193 H              1 S1                 0.0000
     30 ****        -2.4406   4.9571  -0.8747 H              1 S1                 0.0000
     31 ****         1.4152   1.0587  -0.8118 LP             1 S1                 0.0000
     32 ****         0.1225   2.2105  -0.7613 LP             1 S1                 0.0000
     33 ****         1.9245  -0.5245   0.5211 LP             1 S1                 0.0000
     34 ****         1.8924  -0.6950  -1.1027 LP             1 S1                 0.0000
     35 ****        -3.7707  -0.3453   0.5583 LP             1 S1                 0.0000
     36 ****        -5.3153   0.4065   0.7798 LP             1 S1                 0.0000
@<TRIPOS>BOND
    1    1    2 2     
    2    2    3 1     
    3    2    9 am    
    4    3    4 1     
    5    3   17 1     
    6    3   18 1     
    7    4    5 1     
    8    5    6 1     
    9    5   19 1     
   10    5   20 1     
   11    6    8 1     
   12    6    7 1     
   13    6   21 1     
   14    7    8 1     
   15    7   22 1     
   16    7   23 1     
   17    8   24 1     
   18    8   25 1     
   19    9   26 1     
   20    9   10 1     
   21   10   15 1     
   22   10   11 2     
   23   11   27 1     
   24   11   12 1     
   25   12   30 1     
   26   12   13 1     
   27   13   28 1     
   28   13   14 2     
   29   14   15 1     
   30   14   29 1     
   31   15   16 2     
   32    1   31 1     
   33    1   32 1     
   34    4   33 1     
   35    4   34 1     
   36   16   35 1     
   37   16   36 1     
@<TRIPOS>SUBSTRUCTURE
      1 S1             1
@<TRIPOS>SET
LONE_PAIRS      STATIC     ATOMS    <user>   **** ""
6 31 32 33 34 35 36
DONOR_HYDROGENS      STATIC     ATOMS    <user>   **** ""
2 26 30
ATOM$BLUE        STATIC     ATOMS    COLORGROUP SYSTEM
6 31 32 33 34 35 36
ATOM$RED        STATIC     ATOMS    COLORGROUP SYSTEM
2 26 30
