AV-unprocessed.smi:1854|AV-procd|sdf|7529|dock5
  -GOLD-   22720 9243D 1   1.00000     0.00000
 Structure written by MMmdl.
 39 41  0  0  0  0  0  0  0  0  1 V2000
  146.9946  139.5636  153.3711 O   0  0  0  0  0  0  0  0  0  0  0  0
  146.5009  140.2688  154.2495 C   0  0  0  0  0  0  0  0  0  0  0  0
  147.0987  141.3404  154.7896 N   0  0  0  0  0  0  0  0  0  0  0  0
  148.4247  141.8321  154.4289 C   0  0  0  0  0  0  0  0  0  0  0  0
  149.4409  140.7648  154.7142 C   0  0  0  0  0  0  0  0  0  0  0  0
  149.4089  139.5783  154.1061 N   0  0  0  0  0  0  0  0  0  0  0  0
  150.5015  138.9293  154.6468 C   0  0  0  0  0  0  0  0  0  0  0  0
  151.0105  137.6326  154.4082 C   0  0  0  0  0  0  0  0  0  0  0  0
  152.1636  137.1830  155.0847 C   0  0  0  0  0  0  0  0  0  0  0  0
  152.8222  138.0212  156.0076 C   0  0  0  0  0  0  0  0  0  0  0  0
  152.3304  139.3160  156.2613 C   0  0  0  0  0  0  0  0  0  0  0  0
  151.1788  139.7594  155.5842 C   0  0  0  0  0  0  0  0  0  0  0  0
  150.4527  140.9455  155.6003 N   0  0  0  0  0  0  0  0  0  0  0  0
  150.7505  142.1218  156.4019 C   0  0  0  0  0  0  0  0  0  0  0  0
  151.1759  141.7387  157.8240 C   0  0  0  0  0  0  0  0  0  0  0  0
  151.3588  142.9291  158.5763 O   0  0  0  0  0  0  0  0  0  0  0  0
  151.9470  142.8353  159.8207 C   0  0  0  0  0  0  0  0  0  0  0  0
  152.6848  141.7071  160.2631 C   0  0  0  0  0  0  0  0  0  0  0  0
  153.2574  141.6864  161.5495 C   0  0  0  0  0  0  0  0  0  0  0  0
  153.1021  142.7881  162.4099 C   0  0  0  0  0  0  0  0  0  0  0  0
  152.3715  143.9115  161.9821 C   0  0  0  0  0  0  0  0  0  0  0  0
  151.7975  143.9349  160.6957 C   0  0  0  0  0  0  0  0  0  0  0  0
  150.9070  145.3281  160.1957 Cl  0  0  0  0  0  0  0  0  0  0  0  0
  145.5087  140.1063  154.6980 H   0  0  0  0  0  0  0  0  0  0  0  0
  146.6030  141.8486  155.5075 H   0  0  0  0  0  0  0  0  0  0  0  0
  148.4670  142.1138  153.3752 H   0  0  0  0  0  0  0  0  0  0  0  0
  148.6515  142.7304  155.0029 H   0  0  0  0  0  0  0  0  0  0  0  0
  150.5137  136.9834  153.7024 H   0  0  0  0  0  0  0  0  0  0  0  0
  152.5451  136.1905  154.8940 H   0  0  0  0  0  0  0  0  0  0  0  0
  153.7053  137.6696  156.5207 H   0  0  0  0  0  0  0  0  0  0  0  0
  152.8327  139.9607  156.9671 H   0  0  0  0  0  0  0  0  0  0  0  0
  151.5279  142.7089  155.9134 H   0  0  0  0  0  0  0  0  0  0  0  0
  149.8637  142.7554  156.4334 H   0  0  0  0  0  0  0  0  0  0  0  0
  150.4063  141.1158  158.2828 H   0  0  0  0  0  0  0  0  0  0  0  0
  152.1047  141.1668  157.7917 H   0  0  0  0  0  0  0  0  0  0  0  0
  152.8264  140.8416  159.6341 H   0  0  0  0  0  0  0  0  0  0  0  0
  153.8170  140.8223  161.8764 H   0  0  0  0  0  0  0  0  0  0  0  0
  153.5420  142.7716  163.3962 H   0  0  0  0  0  0  0  0  0  0  0  0
  152.2517  144.7572  162.6433 H   0  0  0  0  0  0  0  0  0  0  0  0
  1  2  2  0  0  0  0
  2  3  1  0  0  0  0
  2 24  1  0  0  0  0
  3  4  1  0  0  0  0
  3 25  1  0  0  0  0
  4  5  1  0  0  0  0
  4 26  1  0  0  0  0
  4 27  1  0  0  0  0
  5 13  1  0  0  0  0
  5  6  2  0  0  0  0
  6  7  1  0  0  0  0
  7 12  2  0  0  0  0
  7  8  1  0  0  0  0
  8  9  2  0  0  0  0
  8 28  1  0  0  0  0
  9 10  1  0  0  0  0
  9 29  1  0  0  0  0
 10 11  2  0  0  0  0
 10 30  1  0  0  0  0
 11 12  1  0  0  0  0
 11 31  1  0  0  0  0
 12 13  1  0  0  0  0
 13 14  1  0  0  0  0
 14 15  1  0  0  0  0
 14 32  1  0  0  0  0
 14 33  1  0  0  0  0
 15 16  1  0  0  0  0
 15 34  1  0  0  0  0
 15 35  1  0  0  0  0
 16 17  1  0  0  0  0
 17 22  1  0  0  0  0
 17 18  2  0  0  0  0
 18 19  1  0  0  0  0
 18 36  1  0  0  0  0
 19 20  2  0  0  0  0
 19 37  1  0  0  0  0
 20 21  1  0  0  0  0
 20 38  1  0  0  0  0
 21 22  2  0  0  0  0
 21 39  1  0  0  0  0
 22 23  1  0  0  0  0
M  END
> <s_m_source_file>
AV-unprocessed.smi

> <i_m_source_file_index>
1854

> <i_lp_mmshare_version>
43012

> <i_f3d_flags>
0

> <s_epik_input>
Tz1bQ0hdW05IXVtDSDJdYyhuMSluKGMoYzEyKVtjSF1bY0hdW2NIXVtjSF0yKVtDSDJdW0NIMl1PYzNbY0hdW2NIXVtjSF1bY0hdYzNDbA==

> <s_epik_cmdline>
J2VwaWtfcHl0aG9uJywgJy1waCcsICc3LjAnLCAnLXRuJywgJzgnLCAnLW1hJywgJzIwMCcsICctbWV0YWxfYmluZGluZycsICctaW1hZScsICc8aW5maWxlLm1hZT4nLCAnLW9tYWUnLCAnPG91dGZpbGUubWFlPic=

> <r_lp_tautomer_probability>
1

> <r_epik_Ionization_Penalty>
0.0546265

> <r_epik_Ionization_Penalty_Charging>
0

> <r_epik_Ionization_Penalty_Neutral>
0.0546265

> <r_epik_State_Penalty>
0.0470049

> <r_epik_Charging_Adjusted_Penalty>
0.0470049

> <i_epik_Tot_Q>
0

> <i_epik_Tot_abs_Q>
0

> <r_epik_Metal_State_Penalty>
0.0430103

> <b_epik_Metal_Only>
0

> <s_lp_Force_Field>
OPLS_2005

> <r_lp_Energy>
13.3616

> <b_lp_Chiralities_Consistent>
1

> <s_lp_Variant>
AV-unprocessed.smi:1854-1

> <Gold.Version>
5.8.1

> <Gold.Id.Protein>
6NUR|6NUR_protein|mol2

> <Gold.PLP.Fitness>
49.3178

> <Gold.PLP.PLP>
-50.2910

> <Gold.PLP.part.hbond>
0.0000

> <Gold.PLP.part.metal>
0.0000

> <Gold.PLP.part.buried>
-0.9021

> <Gold.PLP.part.nonpolar>
-50.0167

> <Gold.PLP.part.repulsive>
1.3288

> <Gold.PLP.ligand.clash>
0.0000

> <Gold.PLP.ligand.torsion>
0.5112

> <Gold.PLP.Chemscore.Hbond>
0.0000

> <Gold.PLP.Chemscore.CHOScore>
0.0000

> <Gold.PLP.Chemscore.Metal>
0.0000

> <Gold.PLP.Chemscore.Internal.Correction>
0.0491

> <Gold.Rescore>
     Score         DG    S(hbond)    S(metal)    S(lipo)     H(rot)  DE(clash)    DE(int)     intcor
     12.37     -15.65       0.00        0.00     139.88       2.42       1.51       1.76       ----

> <Gold.Chemscore.Fitness>
12.3729

> <Gold.Chemscore.DG>
-15.6490

> <Gold.Chemscore.ZeroCoef>
-5.4800

> <Gold.Chemscore.Hbond>
0.0000

> <Gold.Chemscore.Metal>
0.0000

> <Gold.Chemscore.Lipo>
139.8760

> <Gold.Chemscore.Internal_Hbond>
0.0000

> <Gold.Chemscore.DEClash>
1.5125

> <Gold.Chemscore.DEInternal>
1.7636

> <Gold.Chemscore.Rot>
2.4205

> <Gold.Chemscore.Internal.Correction>
   9.000000E+99

> <Gold.Chemscore.Hbond.Weighted>
-0.0000

> <Gold.Chemscore.Metal.Weighted>
-0.0000

> <Gold.Chemscore.Lipo.Weighted>
-16.3655

> <Gold.Chemscore.Internal_Hbond.Weighted>
0.0000

> <Gold.Chemscore.DEClash.Weighted>
1.5125

> <Gold.Chemscore.DEInternal.Weighted>
1.7636

> <Gold.Chemscore.Rot.Weighted>
6.1965

> <Gold.Chemscore.Internal.Correction.Weighted>
   9.000000E+99

> <Gold.Protein.RotatedTorsions>
[ 6907 6896 6895 6894 ] final  123.41 input  -60.11 | X-H torsion
[ 7974 7965 7964 7962 ] final  -25.76 input  175.53 | X-H torsion
[ 8008 7997 7996 7995 ] final  -28.95 input   59.86 | X-H torsion
[ 10167 10162 10161 10158 ] final  -99.74 input  -65.29 | X-H torsion
[ 10718 10713 10712 10709 ] final  105.55 input   66.30 | X-H torsion
[ 10763 10752 10751 10750 ] final  -75.23 input  -60.55 | X-H torsion
[ 11005 11000 10999 10996 ] final -126.68 input  -57.11 | X-H torsion

> <Gold.Protein.ActiveResidues>
 VAL166  LYS551  ARG553  GLY616  TRP617  ASP618  TYR619  PRO620  LYS621  CYS622 
 ASP623  PHE694  ASN695  SER759  ASP760  ASP761  ALA762  ILE779  LEU786  VAL792 
 PHE793  MET794  SER795  GLU796  ALA797  LYS798  CYS799  TRP800  GLU811  SER814 

> <Gold.Protein.RotatedAtoms>
  152.4164  133.7045  159.6442 H   0  0  0  0  0  0  0  0  0  0  0  0  # atno 6907 bound_to 6896
  150.8041  133.8532  159.3220 H   0  0  0  0  0  0  0  0  0  0  0  0  # atno 6908 bound_to 6896
  151.6261  135.1029  160.0163 H   0  0  0  0  0  0  0  0  0  0  0  0  # atno 6909 bound_to 6896
  146.1470  140.4930  142.8627 H   0  0  0  0  0  0  0  0  0  0  0  0  # atno 7974 bound_to 7965
  154.4310  140.1831  156.1171 H   0  0  0  0  0  0  0  0  0  0  0  0  # atno 8008 bound_to 7997
  156.0172  140.3344  155.6976 H   0  0  0  0  0  0  0  0  0  0  0  0  # atno 8009 bound_to 7997
  155.6027  140.0642  157.2719 H   0  0  0  0  0  0  0  0  0  0  0  0  # atno 8010 bound_to 7997
  140.2593  143.3419  152.0641 H   0  0  0  0  0  0  0  0  0  0  0  0  # atno 10167 bound_to 10162
  157.6701  131.0830  150.5873 H   0  0  0  0  0  0  0  0  0  0  0  0  # atno 10718 bound_to 10713
  154.4838  135.5838  153.6409 H   0  0  0  0  0  0  0  0  0  0  0  0  # atno 10763 bound_to 10752
  152.9851  135.6096  154.3212 H   0  0  0  0  0  0  0  0  0  0  0  0  # atno 10764 bound_to 10752
  154.3106  135.2845  155.2547 H   0  0  0  0  0  0  0  0  0  0  0  0  # atno 10765 bound_to 10752
  140.9661  134.0870  157.3918 H   0  0  0  0  0  0  0  0  0  0  0  0  # atno 11005 bound_to 11000
  144.7858  140.5933  143.6575 LP  0  0  0  0  0  0  0  0  0  0  0  0  # atno 17320 bound_to 7965
  145.4914  139.1488  143.3707 LP  0  0  0  0  0  0  0  0  0  0  0  0  # atno 17321 bound_to 7965
  139.5022  144.6729  151.6199 LP  0  0  0  0  0  0  0  0  0  0  0  0  # atno 17342 bound_to 10162
  140.5979  143.9663  150.6366 LP  0  0  0  0  0  0  0  0  0  0  0  0  # atno 17343 bound_to 10162
  156.6174  130.4396  149.5835 LP  0  0  0  0  0  0  0  0  0  0  0  0  # atno 17370 bound_to 10713
  156.2383  130.6836  151.1531 LP  0  0  0  0  0  0  0  0  0  0  0  0  # atno 17371 bound_to 10713
  139.8895  135.0105  156.6683 LP  0  0  0  0  0  0  0  0  0  0  0  0  # atno 17394 bound_to 11000
  140.7397  133.8988  155.8269 LP  0  0  0  0  0  0  0  0  0  0  0  0  # atno 17395 bound_to 11000

$$$$
