AV-unprocessed.smi:99|AV-procd|sdf|880|dock7
  -GOLD-   2262017353D 1   1.00000     0.00000
 Structure written by MMmdl.
 53 56  0  0  0  0  0  0  0  0  1 V2000
  149.2592  132.7422  158.5400 O   0  0  0  0  0  0  0  0  0  0  0  0
  148.2361  133.4176  158.4146 C   0  0  0  0  0  0  0  0  0  0  0  0
  147.6620  133.6908  157.2274 O   0  0  0  0  0  0  0  0  0  0  0  0
  148.2422  133.2239  156.0203 C   0  0  0  0  0  0  0  0  0  0  0  0
  147.4812  133.8331  154.8361 C   0  0  1  0  0  0  0  0  0  0  0  0
  146.1824  133.2549  154.7447 O   0  0  0  0  0  0  0  0  0  0  0  0
  145.3007  134.1455  154.1184 C   0  0  2  0  0  0  0  0  0  0  0  0
  144.8543  133.5633  152.7916 N   0  0  0  0  0  0  0  0  0  0  0  0
  145.3665  132.3707  152.2950 C   0  0  0  0  0  0  0  0  0  0  0  0
  144.9806  131.8390  151.1109 C   0  0  0  0  0  0  0  0  0  0  0  0
  143.9867  132.5150  150.2832 C   0  0  0  0  0  0  0  0  0  0  0  0
  143.5724  132.1092  149.1997 O   0  0  0  0  0  0  0  0  0  0  0  0
  143.5070  133.7149  150.8161 N   0  0  0  0  0  0  0  0  0  0  0  0
  143.9000  134.2746  152.0327 C   0  0  0  0  0  0  0  0  0  0  0  0
  143.4251  135.3482  152.4013 O   0  0  0  0  0  0  0  0  0  0  0  0
  146.0348  135.4989  153.9694 C   0  0  2  0  0  0  0  0  0  0  0  0
  146.5352  135.7102  152.6570 O   0  0  0  0  0  0  0  0  0  0  0  0
  147.1608  135.3206  154.9756 C   0  0  2  0  0  0  0  0  0  0  0  0
  148.2547  136.1974  154.7176 O   0  0  0  0  0  0  0  0  0  0  0  0
  148.1594  137.5258  154.9454 C   0  0  0  0  0  0  0  0  0  0  0  0
  147.0929  138.1178  155.1215 O   0  0  0  0  0  0  0  0  0  0  0  0
  149.4886  138.1976  155.0049 C   0  0  0  0  0  0  0  0  0  0  0  0
  149.5800  139.5067  155.5328 C   0  0  0  0  0  0  0  0  0  0  0  0
  150.8259  140.1562  155.6271 C   0  0  0  0  0  0  0  0  0  0  0  0
  151.9948  139.5062  155.1905 C   0  0  0  0  0  0  0  0  0  0  0  0
  151.9165  138.2058  154.6591 C   0  0  0  0  0  0  0  0  0  0  0  0
  150.6717  137.5534  154.5667 C   0  0  0  0  0  0  0  0  0  0  0  0
  147.4826  133.9963  159.5643 C   0  0  0  0  0  0  0  0  0  0  0  0
  146.4740  134.9572  159.3197 C   0  0  0  0  0  0  0  0  0  0  0  0
  145.7653  135.5408  160.3880 C   0  0  0  0  0  0  0  0  0  0  0  0
  146.0554  135.1693  161.7139 C   0  0  0  0  0  0  0  0  0  0  0  0
  147.0521  134.2099  161.9702 C   0  0  0  0  0  0  0  0  0  0  0  0
  147.7603  133.6242  160.9031 C   0  0  0  0  0  0  0  0  0  0  0  0
  142.8216  134.2201  150.2732 H   0  0  0  0  0  0  0  0  0  0  0  0
  149.2895  133.5263  155.9934 H   0  0  0  0  0  0  0  0  0  0  0  0
  148.2118  132.1349  155.9608 H   0  0  0  0  0  0  0  0  0  0  0  0
  148.0134  133.6424  153.9026 H   0  0  0  0  0  0  0  0  0  0  0  0
  144.4079  134.2045  154.7439 H   0  0  0  0  0  0  0  0  0  0  0  0
  146.1107  131.8284  152.8583 H   0  0  0  0  0  0  0  0  0  0  0  0
  145.4114  130.9076  150.7725 H   0  0  0  0  0  0  0  0  0  0  0  0
  145.3681  136.3198  154.2353 H   0  0  0  0  0  0  0  0  0  0  0  0
  147.4620  135.8861  152.7168 H   0  0  0  0  0  0  0  0  0  0  0  0
  146.7414  135.4941  155.9679 H   0  0  0  0  0  0  0  0  0  0  0  0
  148.6970  140.0226  155.8815 H   0  0  0  0  0  0  0  0  0  0  0  0
  150.8845  141.1530  156.0385 H   0  0  0  0  0  0  0  0  0  0  0  0
  152.9505  140.0041  155.2639 H   0  0  0  0  0  0  0  0  0  0  0  0
  152.8131  137.7059  154.3232 H   0  0  0  0  0  0  0  0  0  0  0  0
  150.6468  136.5540  154.1574 H   0  0  0  0  0  0  0  0  0  0  0  0
  146.2390  135.2637  158.3103 H   0  0  0  0  0  0  0  0  0  0  0  0
  145.0003  136.2768  160.1890 H   0  0  0  0  0  0  0  0  0  0  0  0
  145.5149  135.6201  162.5330 H   0  0  0  0  0  0  0  0  0  0  0  0
  147.2793  133.9261  162.9872 H   0  0  0  0  0  0  0  0  0  0  0  0
  148.5242  132.8968  161.1368 H   0  0  0  0  0  0  0  0  0  0  0  0
  1  2  2  0  0  0  0
  2  3  1  0  0  0  0
  2 28  1  0  0  0  0
  3  4  1  0  0  0  0
  4  5  1  0  0  0  0
  4 35  1  0  0  0  0
  4 36  1  0  0  0  0
  5 18  1  0  0  0  0
  5  6  1  0  0  0  0
  5 37  1  0  0  0  0
  6  7  1  0  0  0  0
  7  8  1  0  0  0  0
  7 16  1  0  0  0  0
  7 38  1  0  0  0  0
  8 14  1  0  0  0  0
  8  9  1  0  0  0  0
  9 10  2  0  0  0  0
  9 39  1  0  0  0  0
 10 11  1  0  0  0  0
 10 40  1  0  0  0  0
 11 12  2  0  0  0  0
 11 13  1  0  0  0  0
 13 34  1  0  0  0  0
 13 14  1  0  0  0  0
 14 15  2  0  0  0  0
 16 17  1  0  0  0  0
 16 18  1  0  0  0  0
 16 41  1  0  0  0  0
 17 42  1  0  0  0  0
 18 19  1  0  0  0  0
 18 43  1  0  0  0  0
 19 20  1  0  0  0  0
 20 21  2  0  0  0  0
 20 22  1  0  0  0  0
 22 27  1  0  0  0  0
 22 23  2  0  0  0  0
 23 24  1  0  0  0  0
 23 44  1  0  0  0  0
 24 25  2  0  0  0  0
 24 45  1  0  0  0  0
 25 26  1  0  0  0  0
 25 46  1  0  0  0  0
 26 27  2  0  0  0  0
 26 47  1  0  0  0  0
 27 48  1  0  0  0  0
 28 33  1  0  0  0  0
 28 29  2  0  0  0  0
 29 30  1  0  0  0  0
 29 49  1  0  0  0  0
 30 31  2  0  0  0  0
 30 50  1  0  0  0  0
 31 32  1  0  0  0  0
 31 51  1  0  0  0  0
 32 33  2  0  0  0  0
 32 52  1  0  0  0  0
 33 53  1  0  0  0  0
M  END
> <s_m_source_file>
AV-unprocessed.smi

> <i_m_source_file_index>
99

> <i_lp_mmshare_version>
43012

> <i_f3d_flags>
0

> <s_epik_input>
W2NIXTFbY0hdW2NIXVtjSF1bY0hdYzFDKD1PKU9bQ0gyXVtDQEBIXTJPW0NAQEhdKG4zW2NIXVtjSF1jKD1PKVtuSF1jMz1PKVtDQEBIXShbT0hdKVtDQEhdMk9DKD1PKWM0W2NIXVtjSF1bY0hdW2NIXVtjSF00

> <s_epik_cmdline>
J2VwaWtfcHl0aG9uJywgJy1waCcsICc3LjAnLCAnLXRuJywgJzgnLCAnLW1hJywgJzIwMCcsICctbWV0YWxfYmluZGluZycsICctaW1hZScsICc8aW5maWxlLm1hZT4nLCAnLW9tYWUnLCAnPG91dGZpbGUubWFlPic=

> <r_lp_tautomer_probability>
1

> <r_epik_Ionization_Penalty>
0.00454555

> <r_epik_Ionization_Penalty_Charging>
0.0045191

> <r_epik_Ionization_Penalty_Neutral>
2.64449e-05

> <r_epik_State_Penalty>
-0

> <r_epik_Charging_Adjusted_Penalty>
0.0045191

> <i_epik_Tot_Q>
0

> <i_epik_Tot_abs_Q>
0

> <r_epik_Metal_State_Penalty>
1.27877

> <b_epik_Metal_Only>
0

> <s_epik_Chemistry_Notes>
This compound has an ester and may undergo hydrolysis at high or low pH. This compound contains an acetal/aminal-like group ( X-CH(R)-Y where X, Y are N, S, or O) that may be acid/base labile, releasing an aldehyde.

> <s_lp_Force_Field>
OPLS_2005

> <r_lp_Energy>
44.2289

> <b_lp_Chiralities_Consistent>
1

> <s_lp_Variant>
AV-unprocessed.smi:99-16

> <Gold.Version>
5.8.1

> <Gold.Id.Protein>
6NUR|6NUR_protein|mol2

> <Gold.PLP.Fitness>
50.4063

> <Gold.PLP.PLP>
-39.5901

> <Gold.PLP.part.hbond>
-4.0000

> <Gold.PLP.part.metal>
0.0000

> <Gold.PLP.part.buried>
-7.2571

> <Gold.PLP.part.nonpolar>
-31.1289

> <Gold.PLP.part.repulsive>
1.9618

> <Gold.PLP.ligand.clash>
0.0000

> <Gold.PLP.ligand.torsion>
0.5369

> <Gold.PLP.Chemscore.Hbond>
3.8637

> <Gold.PLP.Chemscore.CHOScore>
0.0000

> <Gold.PLP.Chemscore.Metal>
0.0000

> <Gold.Chemscore.Hbonds>
donor molecule, donor type, donor heavy atom, donor atom, acceptor molecule, acceptor atom, score
      L1  H    13    34       P1 10186  1.00
      L1  H    17    42       P1  7948  0.93
      P1  H  6896  6908       L1     1  1.00
      P1  H 10785 10796       L1    12  0.86

> <Gold.PLP.Chemscore.Internal.Correction>
0.2988

> <Gold.Rescore>
     Score         DG    S(hbond)    S(metal)    S(lipo)     H(rot)  DE(clash)    DE(int)     intcor
     18.97     -20.25       3.79        0.00      87.74       3.19       0.47       0.81       ----

> <Gold.Chemscore.Fitness>
18.9748

> <Gold.Chemscore.DG>
-20.2533

> <Gold.Chemscore.ZeroCoef>
-5.4800

> <Gold.Chemscore.Hbond>
3.7948

> <Gold.Chemscore.Metal>
0.0000

> <Gold.Chemscore.Lipo>
87.7411

> <Gold.Chemscore.Internal_Hbond>
0.0000

> <Gold.Chemscore.DEClash>
0.4720

> <Gold.Chemscore.DEInternal>
0.8065

> <Gold.Chemscore.Rot>
3.1903

> <Gold.Chemscore.Internal.Correction>
   9.000000E+99

> <Gold.Chemscore.Hbonds>
donor molecule, donor type, donor heavy atom, donor atom, acceptor molecule, acceptor atom, score
      L1  H    13    34       P1 10186  0.84
      L1  H    17    42       P1  7948  0.90
      P1  H  6896  6908       L1     1  0.90
      P1  H 10785 10796       L1    12  0.80

> <Gold.Chemscore.Hbond.Weighted>
-12.6747

> <Gold.Chemscore.Metal.Weighted>
-0.0000

> <Gold.Chemscore.Lipo.Weighted>
-10.2657

> <Gold.Chemscore.Internal_Hbond.Weighted>
0.0000

> <Gold.Chemscore.DEClash.Weighted>
0.4720

> <Gold.Chemscore.DEInternal.Weighted>
0.8065

> <Gold.Chemscore.Rot.Weighted>
8.1671

> <Gold.Chemscore.Internal.Correction.Weighted>
   9.000000E+99

> <Gold.Protein.RotatedTorsions>
[ 6907 6896 6895 6894 ] final  114.19 input  -60.11 | X-H torsion
[ 7974 7965 7964 7962 ] final  172.56 input  175.53 | X-H torsion
[ 8008 7997 7996 7995 ] final  -76.47 input   59.86 | X-H torsion
[ 10167 10162 10161 10158 ] final -167.13 input  -65.29 | X-H torsion
[ 10718 10713 10712 10709 ] final  114.38 input   66.30 | X-H torsion
[ 10763 10752 10751 10750 ] final   81.86 input  -60.55 | X-H torsion
[ 11005 11000 10999 10996 ] final  -28.72 input  -57.11 | X-H torsion

> <Gold.Protein.ActiveResidues>
 VAL166  LYS551  ARG553  GLY616  TRP617  ASP618  TYR619  PRO620  LYS621  CYS622 
 ASP623  PHE694  ASN695  SER759  ASP760  ASP761  ALA762  ILE779  LEU786  VAL792 
 PHE793  MET794  SER795  GLU796  ALA797  LYS798  CYS799  TRP800  GLU811  SER814 

> <Gold.Protein.RotatedAtoms>
  152.4817  133.8271  159.7083 H   0  0  0  0  0  0  0  0  0  0  0  0  # atno 6907 bound_to 6896
  150.8872  133.7282  159.2921 H   0  0  0  0  0  0  0  0  0  0  0  0  # atno 6908 bound_to 6896
  151.4767  135.1053  159.9818 H   0  0  0  0  0  0  0  0  0  0  0  0  # atno 6909 bound_to 6896
  144.7265  139.9516  143.6432 H   0  0  0  0  0  0  0  0  0  0  0  0  # atno 7974 bound_to 7965
  154.5508  140.0726  156.8664 H   0  0  0  0  0  0  0  0  0  0  0  0  # atno 8008 bound_to 7997
  155.2997  140.3383  155.4230 H   0  0  0  0  0  0  0  0  0  0  0  0  # atno 8009 bound_to 7997
  156.1959  140.1703  156.7984 H   0  0  0  0  0  0  0  0  0  0  0  0  # atno 8010 bound_to 7997
  139.6069  144.0894  152.1802 H   0  0  0  0  0  0  0  0  0  0  0  0  # atno 10167 bound_to 10162
  157.6284  131.0997  150.7177 H   0  0  0  0  0  0  0  0  0  0  0  0  # atno 10718 bound_to 10713
  153.1153  135.4749  154.9105 H   0  0  0  0  0  0  0  0  0  0  0  0  # atno 10763 bound_to 10752
  154.7522  135.3109  154.8539 H   0  0  0  0  0  0  0  0  0  0  0  0  # atno 10764 bound_to 10752
  153.9117  135.6864  153.4804 H   0  0  0  0  0  0  0  0  0  0  0  0  # atno 10765 bound_to 10752
  140.9233  133.7384  156.0833 H   0  0  0  0  0  0  0  0  0  0  0  0  # atno 11005 bound_to 11000
  146.0707  139.3696  143.0525 LP  0  0  0  0  0  0  0  0  0  0  0  0  # atno 17320 bound_to 7965
  145.7972  140.9787  143.1018 LP  0  0  0  0  0  0  0  0  0  0  0  0  # atno 17321 bound_to 7965
  140.0503  144.5937  150.7341 LP  0  0  0  0  0  0  0  0  0  0  0  0  # atno 17342 bound_to 10162
  140.7291  143.2669  151.4015 LP  0  0  0  0  0  0  0  0  0  0  0  0  # atno 17343 bound_to 10162
  156.7521  130.4772  149.5454 LP  0  0  0  0  0  0  0  0  0  0  0  0  # atno 17370 bound_to 10713
  156.1471  130.6285  151.0546 LP  0  0  0  0  0  0  0  0  0  0  0  0  # atno 17371 bound_to 10713
  140.7958  134.3565  157.5452 LP  0  0  0  0  0  0  0  0  0  0  0  0  # atno 17394 bound_to 11000
  139.8780  134.9168  156.3163 LP  0  0  0  0  0  0  0  0  0  0  0  0  # atno 17395 bound_to 11000

$$$$
