AV-unprocessed.smi:109|AV-procd|sdf|1041|dock10
  -GOLD-   2262018 73D 1   1.00000     0.00000
 Structure written by MMmdl.
 58 61  0  0  0  0  0  0  0  0  1 V2000
  152.0298  137.1050  159.3628 O   0  0  0  0  0  0  0  0  0  0  0  0
  151.3114  138.1583  158.7576 C   0  0  0  0  0  0  0  0  0  0  0  0
  152.0740  139.4821  158.9379 C   0  0  0  0  0  0  0  0  0  0  0  0
  151.4118  140.7007  158.2480 C   0  0  2  0  0  0  0  0  0  0  0  0
  151.4283  140.5088  156.7958 N   0  0  0  0  0  0  0  0  0  0  0  0
  150.3062  140.5804  156.0448 C   0  0  0  0  0  0  0  0  0  0  0  0
  150.2574  140.0658  154.7889 N   0  0  0  0  0  0  0  0  0  0  0  0
  149.1352  140.1589  154.0706 C   0  0  0  0  0  0  0  0  0  0  0  0
  147.9714  140.7149  154.4121 N   0  0  0  0  0  0  0  0  0  0  0  0
  148.0113  141.2333  155.6735 C   0  0  0  0  0  0  0  0  0  0  0  0
  149.1349  141.2046  156.5466 C   0  0  0  0  0  0  0  0  0  0  0  0
  148.8143  141.8223  157.7480 N   0  0  0  0  0  0  0  0  0  0  0  0
  147.5718  142.1917  157.5904 C   0  0  0  0  0  0  0  0  0  0  0  0
  147.0081  141.8757  156.3738 N   0  0  0  0  0  0  0  0  0  0  0  0
  145.6100  142.1741  155.9205 C   0  0  1  0  0  0  0  0  0  0  0  0
  145.0061  143.0549  156.8217 O   0  0  0  0  0  0  0  0  0  0  0  0
  144.5965  144.2467  156.1555 C   0  0  2  0  0  0  0  0  0  0  0  0
  143.3660  144.8639  156.8433 C   0  0  0  0  0  0  0  0  0  0  0  0
  142.2987  143.9398  156.8666 O   0  0  0  0  0  0  0  0  0  0  0  0
  144.4435  143.8402  154.6823 C   0  0  2  0  0  0  0  0  0  0  0  0
  143.1758  143.2619  154.4318 O   0  0  0  0  0  0  0  0  0  0  0  0
  145.5420  142.8029  154.5131 C   0  0  1  0  0  0  0  0  0  0  0  0
  146.7493  143.4164  154.0964 O   0  0  0  0  0  0  0  0  0  0  0  0
  152.0947  142.0544  158.5988 C   0  0  0  0  0  0  0  0  0  0  0  0
  152.0325  142.3944  160.1096 C   0  0  0  0  0  0  0  0  0  0  0  0
  152.6812  143.7500  160.4353 C   0  0  0  0  0  0  0  0  0  0  0  0
  152.0540  144.8848  159.6168 C   0  0  0  0  0  0  0  0  0  0  0  0
  152.1329  144.5751  158.1175 C   0  0  0  0  0  0  0  0  0  0  0  0
  151.4723  143.2259  157.7951 C   0  0  0  0  0  0  0  0  0  0  0  0
  145.0930  141.2154  155.9746 H   0  0  0  0  0  0  0  0  0  0  0  0
  145.4251  144.9522  156.2272 H   0  0  0  0  0  0  0  0  0  0  0  0
  144.5635  144.6907  154.0098 H   0  0  0  0  0  0  0  0  0  0  0  0
  145.2853  142.0363  153.7809 H   0  0  0  0  0  0  0  0  0  0  0  0
  152.8694  137.0301  158.9355 H   0  0  0  0  0  0  0  0  0  0  0  0
  151.1737  137.9205  157.7028 H   0  0  0  0  0  0  0  0  0  0  0  0
  150.3227  138.2190  159.2131 H   0  0  0  0  0  0  0  0  0  0  0  0
  152.1446  139.6573  160.0099 H   0  0  0  0  0  0  0  0  0  0  0  0
  153.0972  139.3685  158.5770 H   0  0  0  0  0  0  0  0  0  0  0  0
  150.3868  140.7709  158.6116 H   0  0  0  0  0  0  0  0  0  0  0  0
  152.3429  140.3728  156.3897 H   0  0  0  0  0  0  0  0  0  0  0  0
  149.1750  139.7265  153.0819 H   0  0  0  0  0  0  0  0  0  0  0  0
  147.0259  142.7086  158.3663 H   0  0  0  0  0  0  0  0  0  0  0  0
  143.5943  145.1888  157.8587 H   0  0  0  0  0  0  0  0  0  0  0  0
  143.0410  145.7481  156.2943 H   0  0  0  0  0  0  0  0  0  0  0  0
  141.5134  144.3944  157.1311 H   0  0  0  0  0  0  0  0  0  0  0  0
  143.0672  143.1789  153.4965 H   0  0  0  0  0  0  0  0  0  0  0  0
  147.3204  143.4914  154.8456 H   0  0  0  0  0  0  0  0  0  0  0  0
  153.1473  141.9810  158.3199 H   0  0  0  0  0  0  0  0  0  0  0  0
  150.9939  142.3977  160.4434 H   0  0  0  0  0  0  0  0  0  0  0  0
  152.5464  141.6387  160.7012 H   0  0  0  0  0  0  0  0  0  0  0  0
  152.5805  143.9627  161.5001 H   0  0  0  0  0  0  0  0  0  0  0  0
  153.7514  143.7004  160.2310 H   0  0  0  0  0  0  0  0  0  0  0  0
  151.0124  145.0188  159.9108 H   0  0  0  0  0  0  0  0  0  0  0  0
  152.5624  145.8253  159.8315 H   0  0  0  0  0  0  0  0  0  0  0  0
  151.6507  145.3703  157.5482 H   0  0  0  0  0  0  0  0  0  0  0  0
  153.1763  144.5567  157.8004 H   0  0  0  0  0  0  0  0  0  0  0  0
  151.5631  143.0532  156.7226 H   0  0  0  0  0  0  0  0  0  0  0  0
  150.4035  143.2859  158.0041 H   0  0  0  0  0  0  0  0  0  0  0  0
  1  2  1  0  0  0  0
  1 34  1  0  0  0  0
  2  3  1  0  0  0  0
  2 35  1  0  0  0  0
  2 36  1  0  0  0  0
  3  4  1  0  0  0  0
  3 37  1  0  0  0  0
  3 38  1  0  0  0  0
  4  5  1  0  0  0  0
  4 24  1  0  0  0  0
  4 39  1  0  0  0  0
  5  6  1  0  0  0  0
  5 40  1  0  0  0  0
  6 11  1  0  0  0  0
  6  7  2  0  0  0  0
  7  8  1  0  0  0  0
  8  9  2  0  0  0  0
  8 41  1  0  0  0  0
  9 10  1  0  0  0  0
 10 14  1  0  0  0  0
 10 11  2  0  0  0  0
 11 12  1  0  0  0  0
 12 13  2  0  0  0  0
 13 14  1  0  0  0  0
 13 42  1  0  0  0  0
 14 15  1  0  0  0  0
 15 30  1  0  0  0  0
 15 22  1  0  0  0  0
 15 16  1  0  0  0  0
 16 17  1  0  0  0  0
 17 31  1  0  0  0  0
 17 18  1  0  0  0  0
 17 20  1  0  0  0  0
 18 19  1  0  0  0  0
 18 43  1  0  0  0  0
 18 44  1  0  0  0  0
 19 45  1  0  0  0  0
 20 32  1  0  0  0  0
 20 21  1  0  0  0  0
 20 22  1  0  0  0  0
 21 46  1  0  0  0  0
 22 33  1  0  0  0  0
 22 23  1  0  0  0  0
 23 47  1  0  0  0  0
 24 29  1  0  0  0  0
 24 25  1  0  0  0  0
 24 48  1  0  0  0  0
 25 26  1  0  0  0  0
 25 49  1  0  0  0  0
 25 50  1  0  0  0  0
 26 27  1  0  0  0  0
 26 51  1  0  0  0  0
 26 52  1  0  0  0  0
 27 28  1  0  0  0  0
 27 53  1  0  0  0  0
 27 54  1  0  0  0  0
 28 29  1  0  0  0  0
 28 55  1  0  0  0  0
 28 56  1  0  0  0  0
 29 57  1  0  0  0  0
 29 58  1  0  0  0  0
M  END
> <s_m_source_file>
AV-unprocessed.smi

> <i_m_source_file_index>
109

> <i_lp_mmshare_version>
43012

> <i_f3d_flags>
0

> <s_epik_input>
W0NIMl0xW0NIMl1bQ0gyXVtDSDJdW0NIMl1bQ0hdMVtDQEhdKFtDSDJdW0NIMl1bT0hdKVtOSF1jKG5bY0hdbjIpYyhjMjMpbltjSF1uM1tDQEBIXTRPW0NASF0oW0NIMl1bT0hdKVtDQEBIXShbT0hdKVtDQEhdNFtPSF0=

> <s_epik_cmdline>
J2VwaWtfcHl0aG9uJywgJy1waCcsICc3LjAnLCAnLXRuJywgJzgnLCAnLW1hJywgJzIwMCcsICctbWV0YWxfYmluZGluZycsICctaW1hZScsICc8aW5maWxlLm1hZT4nLCAnLW9tYWUnLCAnPG91dGZpbGUubWFlPic=

> <r_lp_tautomer_probability>
1

> <r_epik_Ionization_Penalty>
0.000793976

> <r_epik_Ionization_Penalty_Charging>
0

> <r_epik_Ionization_Penalty_Neutral>
0.000793976

> <r_epik_State_Penalty>
-0

> <r_epik_Charging_Adjusted_Penalty>
0

> <i_epik_Tot_Q>
0

> <i_epik_Tot_abs_Q>
0

> <r_epik_Metal_State_Penalty>
-0

> <b_epik_Metal_Only>
0

> <s_epik_Chemistry_Notes>
This compound contains an acetal/aminal-like group ( X-CH(R)-Y where X, Y are N, S, or O) that may be acid/base labile, releasing an aldehyde.

> <s_lp_Force_Field>
OPLS_2005

> <r_lp_Energy>
56.0983

> <b_lp_Chiralities_Consistent>
1

> <s_lp_Variant>
AV-unprocessed.smi:109-11

> <Gold.Version>
5.8.1

> <Gold.Id.Protein>
6NUR|6NUR_protein|mol2

> <Gold.PLP.Fitness>
58.1347

> <Gold.PLP.PLP>
-46.3865

> <Gold.PLP.part.hbond>
-4.9220

> <Gold.PLP.part.metal>
0.0000

> <Gold.PLP.part.buried>
-3.9491

> <Gold.PLP.part.nonpolar>
-37.6944

> <Gold.PLP.part.repulsive>
0.5166

> <Gold.PLP.ligand.clash>
0.8558

> <Gold.PLP.ligand.torsion>
0.4336

> <Gold.PLP.Chemscore.Hbond>
3.4560

> <Gold.PLP.Chemscore.CHOScore>
0.9627

> <Gold.PLP.Chemscore.Metal>
0.0000

> <Gold.Chemscore.Hbonds>
donor molecule, donor type, donor heavy atom, donor atom, acceptor molecule, acceptor atom, score
      L1  H    21    46       P1 10174  1.00
      L1  H    23    47       P1  8028  0.47
      P1  H  6896  6909       L1     1  0.88
      P1  H  7989  7998       L1     7  0.96
      L1  C     8    41       P1  7957  0.91

> <Gold.PLP.Chemscore.Internal.Correction>
0.2152

> <Gold.Rescore>
     Score         DG    S(hbond)    S(metal)    S(lipo)     H(rot)  DE(clash)    DE(int)     intcor
      6.20     -10.79       2.12        0.00     104.42       5.47       0.32       4.26       ----

> <Gold.Chemscore.Fitness>
6.2002

> <Gold.Chemscore.DG>
-10.7851

> <Gold.Chemscore.ZeroCoef>
-5.4800

> <Gold.Chemscore.Hbond>
2.1202

> <Gold.Chemscore.Metal>
0.0000

> <Gold.Chemscore.Lipo>
104.4183

> <Gold.Chemscore.Internal_Hbond>
0.0000

> <Gold.Chemscore.DEClash>
0.3199

> <Gold.Chemscore.DEInternal>
4.2649

> <Gold.Chemscore.Rot>
5.4662

> <Gold.Chemscore.Internal.Correction>
   9.000000E+99

> <Gold.Chemscore.Hbonds>
donor molecule, donor type, donor heavy atom, donor atom, acceptor molecule, acceptor atom, score
      L1  H    21    46       P1 10174  0.91
      L1  H    23    47       P1  8028  0.05
      P1  H  6896  6909       L1     1  0.38
      P1  H  7989  7998       L1     7  0.24

> <Gold.Chemscore.Hbond.Weighted>
-7.0816

> <Gold.Chemscore.Metal.Weighted>
-0.0000

> <Gold.Chemscore.Lipo.Weighted>
-12.2169

> <Gold.Chemscore.Internal_Hbond.Weighted>
0.0000

> <Gold.Chemscore.DEClash.Weighted>
0.3199

> <Gold.Chemscore.DEInternal.Weighted>
4.2649

> <Gold.Chemscore.Rot.Weighted>
13.9935

> <Gold.Chemscore.Internal.Correction.Weighted>
   9.000000E+99

> <Gold.Protein.RotatedTorsions>
[ 6907 6896 6895 6894 ] final  120.89 input  -60.11 | X-H torsion
[ 7974 7965 7964 7962 ] final -162.70 input  175.53 | X-H torsion
[ 8008 7997 7996 7995 ] final -149.36 input   59.86 | X-H torsion
[ 10167 10162 10161 10158 ] final   97.66 input  -65.29 | X-H torsion
[ 10718 10713 10712 10709 ] final -161.90 input   66.30 | X-H torsion
[ 10763 10752 10751 10750 ] final    5.09 input  -60.55 | X-H torsion
[ 11005 11000 10999 10996 ] final  -78.51 input  -57.11 | X-H torsion

> <Gold.Protein.ActiveResidues>
 VAL166  LYS551  ARG553  GLY616  TRP617  ASP618  TYR619  PRO620  LYS621  CYS622 
 ASP623  PHE694  ASN695  SER759  ASP760  ASP761  ALA762  ILE779  LEU786  VAL792 
 PHE793  MET794  SER795  GLU796  ALA797  LYS798  CYS799  TRP800  GLU811  SER814 

> <Gold.Protein.RotatedAtoms>
  152.4364  133.7368  159.6617 H   0  0  0  0  0  0  0  0  0  0  0  0  # atno 6907 bound_to 6896
  150.8248  133.8180  159.3129 H   0  0  0  0  0  0  0  0  0  0  0  0  # atno 6908 bound_to 6896
  151.5852  135.1059  160.0078 H   0  0  0  0  0  0  0  0  0  0  0  0  # atno 6909 bound_to 6896
  144.7349  140.3215  143.6170 H   0  0  0  0  0  0  0  0  0  0  0  0  # atno 7974 bound_to 7965
  155.6064  140.0667  157.2718 H   0  0  0  0  0  0  0  0  0  0  0  0  # atno 8008 bound_to 7997
  154.4265  140.1809  156.1274 H   0  0  0  0  0  0  0  0  0  0  0  0  # atno 8009 bound_to 7997
  156.0119  140.3326  155.6953 H   0  0  0  0  0  0  0  0  0  0  0  0  # atno 8010 bound_to 7997
  139.7781  144.6898  151.0061 H   0  0  0  0  0  0  0  0  0  0  0  0  # atno 10167 bound_to 10162
  156.6028  130.8818  151.2918 H   0  0  0  0  0  0  0  0  0  0  0  0  # atno 10718 bound_to 10713
  153.2635  135.6925  153.7554 H   0  0  0  0  0  0  0  0  0  0  0  0  # atno 10763 bound_to 10752
  153.6604  135.3361  155.3126 H   0  0  0  0  0  0  0  0  0  0  0  0  # atno 10764 bound_to 10752
  154.8439  135.4475  154.1634 H   0  0  0  0  0  0  0  0  0  0  0  0  # atno 10765 bound_to 10752
  141.1665  133.7066  156.7982 H   0  0  0  0  0  0  0  0  0  0  0  0  # atno 11005 bound_to 11000
  145.7564  139.1810  143.2292 LP  0  0  0  0  0  0  0  0  0  0  0  0  # atno 17320 bound_to 7965
  146.1021  140.7531  142.9544 LP  0  0  0  0  0  0  0  0  0  0  0  0  # atno 17321 bound_to 7965
  140.7817  143.4514  151.0408 LP  0  0  0  0  0  0  0  0  0  0  0  0  # atno 17342 bound_to 10162
  139.8195  143.7839  152.3176 LP  0  0  0  0  0  0  0  0  0  0  0  0  # atno 17343 bound_to 10162
  157.7275  130.9644  150.1701 LP  0  0  0  0  0  0  0  0  0  0  0  0  # atno 17370 bound_to 10713
  156.2455  130.3695  149.8290 LP  0  0  0  0  0  0  0  0  0  0  0  0  # atno 17371 bound_to 10713
  140.2275  134.8711  157.3442 LP  0  0  0  0  0  0  0  0  0  0  0  0  # atno 17394 bound_to 11000
  140.1924  134.4355  155.7708 LP  0  0  0  0  0  0  0  0  0  0  0  0  # atno 17395 bound_to 11000

$$$$
