AV-unprocessed.smi:1029|AV-procd|sdf|4475|dock2
  -GOLD-   22720 2453D 1   1.00000     0.00000
 Structure written by MMmdl.
 46 47  0  0  0  0  0  0  0  0  2 V2000
  152.0884  140.9031  159.4131 C   0  0  0  0  0  0  0  0  0  0  0  0
  151.7242  140.4330  158.0357 C   0  0  0  0  0  0  0  0  0  0  0  0
  150.6270  140.8376  157.2251 C   0  0  0  0  0  0  0  0  0  0  0  0
  150.7975  140.0907  156.0899 C   0  0  0  0  0  0  0  0  0  0  0  0
  150.0281  140.0667  154.9704 N   0  0  0  0  0  0  0  0  0  0  0  0
  148.6938  140.1902  154.8600 C   0  0  0  0  0  0  0  0  0  0  0  0
  147.9128  140.3784  155.7931 O   0  0  0  0  0  0  0  0  0  0  0  0
  148.3022  140.0858  153.5818 N   0  0  0  0  0  0  0  0  0  0  0  0
  146.9202  140.1668  153.1206 C   0  0  0  0  0  0  0  0  0  0  0  0
  146.4869  138.8905  152.3705 C   0  0  1  0  0  0  0  0  0  0  0  0
  147.5252  138.5086  151.4888 O   0  0  0  0  0  0  0  0  0  0  0  0
  146.2552  137.7141  153.3415 C   0  0  0  0  0  0  0  0  0  0  0  0
  146.2417  136.3980  152.6515 N   0  3  2  0  0  0  0  0  0  0  0  0
  145.2849  136.3360  151.5146 C   0  0  0  0  0  0  0  0  0  0  0  0
  145.4115  135.0043  150.7557 C   0  0  0  0  0  0  0  0  0  0  0  0
  145.2068  133.8033  151.6942 C   0  0  1  0  0  0  0  0  0  0  0  0
  145.3636  132.4685  150.9523 C   0  0  0  0  0  0  0  0  0  0  0  0
  146.1822  133.9147  152.8778 C   0  0  0  0  0  0  0  0  0  0  0  0
  146.0400  135.2681  153.5943 C   0  0  0  0  0  0  0  0  0  0  0  0
  151.8887  139.2930  156.1861 O   0  0  0  0  0  0  0  0  0  0  0  0
  152.4768  139.5226  157.4354 N   0  0  0  0  0  0  0  0  0  0  0  0
  151.4119  141.6874  159.7530 H   0  0  0  0  0  0  0  0  0  0  0  0
  153.1012  141.3061  159.4361 H   0  0  0  0  0  0  0  0  0  0  0  0
  152.0374  140.0859  160.1331 H   0  0  0  0  0  0  0  0  0  0  0  0
  149.8554  141.5558  157.4573 H   0  0  0  0  0  0  0  0  0  0  0  0
  150.5354  139.9415  154.1069 H   0  0  0  0  0  0  0  0  0  0  0  0
  149.0105  139.9380  152.8776 H   0  0  0  0  0  0  0  0  0  0  0  0
  146.2358  140.4055  153.9370 H   0  0  0  0  0  0  0  0  0  0  0  0
  146.8814  141.0175  152.4395 H   0  0  0  0  0  0  0  0  0  0  0  0
  145.5835  139.0937  151.7961 H   0  0  0  0  0  0  0  0  0  0  0  0
  148.3148  138.9686  151.7313 H   0  0  0  0  0  0  0  0  0  0  0  0
  147.0447  137.7292  154.0949 H   0  0  0  0  0  0  0  0  0  0  0  0
  145.3177  137.8414  153.8847 H   0  0  0  0  0  0  0  0  0  0  0  0
  144.2664  136.4591  151.8865 H   0  0  0  0  0  0  0  0  0  0  0  0
  145.4660  137.1545  150.8189 H   0  0  0  0  0  0  0  0  0  0  0  0
  144.6823  134.9736  149.9453 H   0  0  0  0  0  0  0  0  0  0  0  0
  146.3951  134.9452  150.2870 H   0  0  0  0  0  0  0  0  0  0  0  0
  144.1895  133.8471  152.0862 H   0  0  0  0  0  0  0  0  0  0  0  0
  146.3656  132.3597  150.5358 H   0  0  0  0  0  0  0  0  0  0  0  0
  144.6514  132.3904  150.1304 H   0  0  0  0  0  0  0  0  0  0  0  0
  145.1877  131.6252  151.6207 H   0  0  0  0  0  0  0  0  0  0  0  0
  146.0049  133.1046  153.5862 H   0  0  0  0  0  0  0  0  0  0  0  0
  147.2077  133.7971  152.5246 H   0  0  0  0  0  0  0  0  0  0  0  0
  146.7753  135.3224  154.3981 H   0  0  0  0  0  0  0  0  0  0  0  0
  145.0556  135.3493  154.0582 H   0  0  0  0  0  0  0  0  0  0  0  0
  147.1672  136.2769  152.2643 H   0  0  0  0  0  0  0  0  0  0  0  0
  1  2  1  0  0  0  0
  1 22  1  0  0  0  0
  1 23  1  0  0  0  0
  1 24  1  0  0  0  0
  2 21  2  0  0  0  0
  2  3  1  0  0  0  0
  3  4  2  0  0  0  0
  3 25  1  0  0  0  0
  4  5  1  0  0  0  0
  4 20  1  0  0  0  0
  5  6  1  0  0  0  0
  5 26  1  0  0  0  0
  6  7  2  0  0  0  0
  6  8  1  0  0  0  0
  8  9  1  0  0  0  0
  8 27  1  0  0  0  0
  9 10  1  0  0  0  0
  9 28  1  0  0  0  0
  9 29  1  0  0  0  0
 10 11  1  0  0  0  0
 10 12  1  0  0  0  0
 10 30  1  0  0  0  0
 11 31  1  0  0  0  0
 12 13  1  0  0  0  0
 12 32  1  0  0  0  0
 12 33  1  0  0  0  0
 13 19  1  0  0  0  0
 13 14  1  0  0  0  0
 13 46  1  0  0  0  0
 14 15  1  0  0  0  0
 14 34  1  0  0  0  0
 14 35  1  0  0  0  0
 15 16  1  0  0  0  0
 15 36  1  0  0  0  0
 15 37  1  0  0  0  0
 16 17  1  0  0  0  0
 16 18  1  0  0  0  0
 16 38  1  0  0  0  0
 17 39  1  0  0  0  0
 17 40  1  0  0  0  0
 17 41  1  0  0  0  0
 18 19  1  0  0  0  0
 18 42  1  0  0  0  0
 18 43  1  0  0  0  0
 19 44  1  0  0  0  0
 19 45  1  0  0  0  0
 20 21  1  0  0  0  0
M  CHG  1  13   1
M  END
> <s_m_source_file>
AV-unprocessed.smi

> <i_m_source_file_index>
1029

> <i_lp_mmshare_version>
43012

> <i_f3d_flags>
0

> <s_epik_input>
W0NIM11jMVtjSF1jKG9uMSlbTkhdQyg9TylbTkhdW0NIMl1bQ0BIXShbT0hdKVtDSDJdTjJbQ0gyXVtDSDJdW0NIXShbQ0gzXSlbQ0gyXVtDSDJdMg==

> <s_epik_cmdline>
J2VwaWtfcHl0aG9uJywgJy1waCcsICc3LjAnLCAnLXRuJywgJzgnLCAnLW1hJywgJzIwMCcsICctbWV0YWxfYmluZGluZycsICctaW1hZScsICc8aW5maWxlLm1hZT4nLCAnLW9tYWUnLCAnPG91dGZpbGUubWFlPic=

> <r_lp_tautomer_probability>
1

> <r_epik_Ionization_Penalty>
0.00211787

> <r_epik_Ionization_Penalty_Charging>
0.00153238

> <r_epik_Ionization_Penalty_Neutral>
0.000585488

> <r_epik_State_Penalty>
-0

> <r_epik_Charging_Adjusted_Penalty>
0.00153238

> <i_epik_Tot_Q>
1

> <i_epik_Tot_abs_Q>
1

> <r_epik_Metal_State_Penalty>
-0

> <b_epik_Metal_Only>
0

> <s_lp_Force_Field>
OPLS_2005

> <r_lp_Energy>
20.5913

> <b_lp_Chiralities_Consistent>
1

> <s_lp_Variant>
AV-unprocessed.smi:1029-2

> <Gold.Version>
5.8.1

> <Gold.Id.Protein>
6NUR|6NUR_protein|mol2

> <Gold.PLP.Fitness>
51.6724

> <Gold.PLP.PLP>
-35.1817

> <Gold.PLP.part.hbond>
-5.8312

> <Gold.PLP.part.metal>
0.0000

> <Gold.PLP.part.buried>
-3.5303

> <Gold.PLP.part.nonpolar>
-26.7046

> <Gold.PLP.part.repulsive>
1.4116

> <Gold.PLP.ligand.clash>
0.0000

> <Gold.PLP.ligand.torsion>
0.5130

> <Gold.PLP.Chemscore.Hbond>
5.7856

> <Gold.PLP.Chemscore.CHOScore>
0.0000

> <Gold.PLP.Chemscore.Metal>
0.0000

> <Gold.Chemscore.Hbonds>
donor molecule, donor type, donor heavy atom, donor atom, acceptor molecule, acceptor atom, score
      L1  H     8    27       P1  7957  1.00
      L1  H    11    31       P1  7957  0.86
      L1  H    13    46       P1  7948  2.00
      P1  H  7954  7966       L1    11  0.75
      P1  H  7997  8010       L1    21  0.73

> <Gold.PLP.Chemscore.Internal.Correction>
0.1599

> <Gold.Rescore>
     Score         DG    S(hbond)    S(metal)    S(lipo)     H(rot)  DE(clash)    DE(int)     intcor
     19.38     -20.01       3.83        0.00      68.71       2.46       0.13       0.51       ----

> <Gold.Chemscore.Fitness>
19.3755

> <Gold.Chemscore.DG>
-20.0126

> <Gold.Chemscore.ZeroCoef>
-5.4800

> <Gold.Chemscore.Hbond>
3.8315

> <Gold.Chemscore.Metal>
0.0000

> <Gold.Chemscore.Lipo>
68.7098

> <Gold.Chemscore.Internal_Hbond>
0.0000

> <Gold.Chemscore.DEClash>
0.1311

> <Gold.Chemscore.DEInternal>
0.5060

> <Gold.Chemscore.Rot>
2.4624

> <Gold.Chemscore.Internal.Correction>
   9.000000E+99

> <Gold.Chemscore.Hbonds>
donor molecule, donor type, donor heavy atom, donor atom, acceptor molecule, acceptor atom, score
      L1  H     8    27       P1  7957  0.95
      L1  H    11    31       P1  7957  0.75
      L1  H    13    46       P1  7948  1.00
      P1  H  7954  7966       L1    11  0.09
      P1  H  7997  8010       L1    21  0.21

> <Gold.Chemscore.Hbond.Weighted>
-12.7972

> <Gold.Chemscore.Metal.Weighted>
-0.0000

> <Gold.Chemscore.Lipo.Weighted>
-8.0390

> <Gold.Chemscore.Internal_Hbond.Weighted>
0.0000

> <Gold.Chemscore.DEClash.Weighted>
0.1311

> <Gold.Chemscore.DEInternal.Weighted>
0.5060

> <Gold.Chemscore.Rot.Weighted>
6.3037

> <Gold.Chemscore.Internal.Correction.Weighted>
   9.000000E+99

> <Gold.Protein.RotatedTorsions>
[ 6907 6896 6895 6894 ] final   30.24 input  -60.11 | X-H torsion
[ 7974 7965 7964 7962 ] final  -35.57 input  175.53 | X-H torsion
[ 8008 7997 7996 7995 ] final   46.20 input   59.86 | X-H torsion
[ 10167 10162 10161 10158 ] final -157.83 input  -65.29 | X-H torsion
[ 10718 10713 10712 10709 ] final  -80.17 input   66.30 | X-H torsion
[ 10763 10752 10751 10750 ] final  175.71 input  -60.55 | X-H torsion
[ 11005 11000 10999 10996 ] final -105.17 input  -57.11 | X-H torsion

> <Gold.Protein.ActiveResidues>
 VAL166  LYS551  ARG553  GLY616  TRP617  ASP618  TYR619  PRO620  LYS621  CYS622 
 ASP623  PHE694  ASN695  SER759  ASP760  ASP761  ALA762  ILE779  LEU786  VAL792 
 PHE793  MET794  SER795  GLU796  ALA797  LYS798  CYS799  TRP800  GLU811  SER814 

> <Gold.Protein.RotatedAtoms>
  152.0431  134.9699  160.0573 H   0  0  0  0  0  0  0  0  0  0  0  0  # atno 6907 bound_to 6896
  152.1130  133.4306  159.4648 H   0  0  0  0  0  0  0  0  0  0  0  0  # atno 6908 bound_to 6896
  150.6844  134.2544  159.4567 H   0  0  0  0  0  0  0  0  0  0  0  0  # atno 6909 bound_to 6896
  146.0735  140.6176  142.8941 H   0  0  0  0  0  0  0  0  0  0  0  0  # atno 7974 bound_to 7965
  155.3486  140.3412  155.4239 H   0  0  0  0  0  0  0  0  0  0  0  0  # atno 8008 bound_to 7997
  156.1776  140.1653  156.8370 H   0  0  0  0  0  0  0  0  0  0  0  0  # atno 8009 bound_to 7997
  154.5298  140.0748  156.8307 H   0  0  0  0  0  0  0  0  0  0  0  0  # atno 8010 bound_to 7997
  139.6740  143.9696  152.2300 H   0  0  0  0  0  0  0  0  0  0  0  0  # atno 10167 bound_to 10162
  156.0076  130.4566  150.3759 H   0  0  0  0  0  0  0  0  0  0  0  0  # atno 10718 bound_to 10713
  154.4712  135.2771  155.1641 H   0  0  0  0  0  0  0  0  0  0  0  0  # atno 10763 bound_to 10752
  154.3389  135.6174  153.5590 H   0  0  0  0  0  0  0  0  0  0  0  0  # atno 10764 bound_to 10752
  152.9864  135.5783  154.5094 H   0  0  0  0  0  0  0  0  0  0  0  0  # atno 10765 bound_to 10752
  141.1066  133.8785  157.1701 H   0  0  0  0  0  0  0  0  0  0  0  0  # atno 11005 bound_to 11000
  144.7246  140.4485  143.6982 LP  0  0  0  0  0  0  0  0  0  0  0  0  # atno 17320 bound_to 7965
  145.6349  139.1541  143.2948 LP  0  0  0  0  0  0  0  0  0  0  0  0  # atno 17321 bound_to 7965
  139.9468  144.6646  150.8211 LP  0  0  0  0  0  0  0  0  0  0  0  0  # atno 17342 bound_to 10162
  140.7628  143.3208  151.2626 LP  0  0  0  0  0  0  0  0  0  0  0  0  # atno 17343 bound_to 10162
  157.1841  131.0399  151.2733 LP  0  0  0  0  0  0  0  0  0  0  0  0  # atno 17370 bound_to 10713
  157.4119  130.7390  149.6846 LP  0  0  0  0  0  0  0  0  0  0  0  0  # atno 17371 bound_to 10713
  139.9939  135.0054  157.0038 LP  0  0  0  0  0  0  0  0  0  0  0  0  # atno 17394 bound_to 11000
  140.4886  134.1216  155.7229 LP  0  0  0  0  0  0  0  0  0  0  0  0  # atno 17395 bound_to 11000

$$$$
