AV-unprocessed.smi:285|AV-procd|sdf|2169|dock4
  -GOLD-   2262021533D 1   1.00000     0.00000
 Structure written by MMmdl.
 31 33  0  0  0  0  0  0  0  0  1 V2000
  154.0420  141.2262  160.8117 N   0  0  0  0  0  0  0  0  0  0  0  0
  153.1480  141.8000  159.9949 C   0  0  0  0  0  0  0  0  0  0  0  0
  152.6823  143.0304  160.3134 N   0  0  0  0  0  0  0  0  0  0  0  0
  151.7909  143.6255  159.5140 C   0  0  0  0  0  0  0  0  0  0  0  0
  151.2522  143.1717  158.3792 N   0  0  0  0  0  0  0  0  0  0  0  0
  151.7213  141.9292  158.0594 C   0  0  0  0  0  0  0  0  0  0  0  0
  152.6699  141.1786  158.8139 C   0  0  0  0  0  0  0  0  0  0  0  0
  152.9212  139.9606  158.1942 N   0  0  0  0  0  0  0  0  0  0  0  0
  152.1560  140.0119  157.1398 C   0  0  0  0  0  0  0  0  0  0  0  0
  152.1252  138.5667  155.8997 Br  0  0  0  0  0  0  0  0  0  0  0  0
  151.3970  141.1474  156.9684 N   0  0  0  0  0  0  0  0  0  0  0  0
  150.4383  141.4853  155.8738 C   0  0  2  0  0  0  0  0  0  0  0  0
  149.0144  141.5811  156.3967 C   0  0  0  0  0  0  0  0  0  0  0  0
  148.2226  141.2985  155.1325 C   0  0  1  0  0  0  0  0  0  0  0  0
  147.8986  142.5109  154.4794 O   0  0  0  0  0  0  0  0  0  0  0  0
  149.1801  140.4553  154.2588 C   0  0  2  0  0  0  0  0  0  0  0  0
  148.7188  138.9972  154.0994 C   0  0  0  0  0  0  0  0  0  0  0  0
  147.9103  138.8661  152.9497 O   0  0  0  0  0  0  0  0  0  0  0  0
  150.4282  140.4492  154.9527 O   0  0  0  0  0  0  0  0  0  0  0  0
  154.4053  140.3091  160.5955 H   0  0  0  0  0  0  0  0  0  0  0  0
  154.3501  141.7112  161.6419 H   0  0  0  0  0  0  0  0  0  0  0  0
  151.4621  144.6051  159.8279 H   0  0  0  0  0  0  0  0  0  0  0  0
  150.7994  142.4044  155.4124 H   0  0  0  0  0  0  0  0  0  0  0  0
  148.8393  140.7953  157.1325 H   0  0  0  0  0  0  0  0  0  0  0  0
  148.8182  142.5510  156.8556 H   0  0  0  0  0  0  0  0  0  0  0  0
  147.2931  140.7771  155.3630 H   0  0  0  0  0  0  0  0  0  0  0  0
  148.2013  143.2313  155.0111 H   0  0  0  0  0  0  0  0  0  0  0  0
  149.3088  140.9218  153.2800 H   0  0  0  0  0  0  0  0  0  0  0  0
  149.5684  138.3151  154.0482 H   0  0  0  0  0  0  0  0  0  0  0  0
  148.1122  138.6959  154.9539 H   0  0  0  0  0  0  0  0  0  0  0  0
  148.1190  138.0469  152.5276 H   0  0  0  0  0  0  0  0  0  0  0  0
  1  2  1  0  0  0  0
  1 20  1  0  0  0  0
  1 21  1  0  0  0  0
  2  7  1  0  0  0  0
  2  3  2  0  0  0  0
  3  4  1  0  0  0  0
  4  5  2  0  0  0  0
  4 22  1  0  0  0  0
  5  6  1  0  0  0  0
  6 11  1  0  0  0  0
  6  7  2  0  0  0  0
  7  8  1  0  0  0  0
  8  9  2  0  0  0  0
  9 10  1  0  0  0  0
  9 11  1  0  0  0  0
 11 12  1  0  0  0  0
 12 19  1  0  0  0  0
 12 13  1  0  0  0  0
 12 23  1  0  0  0  0
 13 14  1  0  0  0  0
 13 24  1  0  0  0  0
 13 25  1  0  0  0  0
 14 15  1  0  0  0  0
 14 16  1  0  0  0  0
 14 26  1  0  0  0  0
 15 27  1  0  0  0  0
 16 17  1  0  0  0  0
 16 19  1  0  0  0  0
 16 28  1  0  0  0  0
 17 18  1  0  0  0  0
 17 29  1  0  0  0  0
 17 30  1  0  0  0  0
 18 31  1  0  0  0  0
M  END
> <s_m_source_file>
AV-unprocessed.smi

> <i_m_source_file_index>
285

> <i_lp_mmshare_version>
43012

> <i_f3d_flags>
0

> <s_epik_input>
bjFbY0hdbmMoW05IMl0pYyhjMTIpbmMoQnIpbjJbQ0BASF0zW0NIMl1bQ0BASF0oW09IXSlbQ0BIXShPMylbQ0gyXVtPSF0=

> <s_epik_cmdline>
J2VwaWtfcHl0aG9uJywgJy1waCcsICc3LjAnLCAnLXRuJywgJzgnLCAnLW1hJywgJzIwMCcsICctbWV0YWxfYmluZGluZycsICctaW1hZScsICc8aW5maWxlLm1hZT4nLCAnLW9tYWUnLCAnPG91dGZpbGUubWFlPic=

> <r_lp_tautomer_probability>
1

> <r_epik_Ionization_Penalty>
0.000103242

> <r_epik_Ionization_Penalty_Charging>
0

> <r_epik_Ionization_Penalty_Neutral>
0.000103242

> <r_epik_State_Penalty>
-0

> <r_epik_Charging_Adjusted_Penalty>
0

> <i_epik_Tot_Q>
0

> <i_epik_Tot_abs_Q>
0

> <r_epik_Metal_State_Penalty>
-0

> <b_epik_Metal_Only>
0

> <s_epik_Chemistry_Notes>
This compound contains an acetal/aminal-like group ( X-CH(R)-Y where X, Y are N, S, or O) that may be acid/base labile, releasing an aldehyde.

> <s_lp_Force_Field>
OPLS_2005

> <r_lp_Energy>
31.1056

> <b_lp_Chiralities_Consistent>
1

> <s_lp_Variant>
AV-unprocessed.smi:285-5

> <Gold.Version>
5.8.1

> <Gold.Id.Protein>
6NUR|6NUR_protein|mol2

> <Gold.PLP.Fitness>
45.4387

> <Gold.PLP.PLP>
-35.1349

> <Gold.PLP.part.hbond>
-5.0024

> <Gold.PLP.part.metal>
0.0000

> <Gold.PLP.part.buried>
-4.8968

> <Gold.PLP.part.nonpolar>
-24.7738

> <Gold.PLP.part.repulsive>
0.1974

> <Gold.PLP.ligand.clash>
0.0000

> <Gold.PLP.ligand.torsion>
0.4021

> <Gold.PLP.Chemscore.Hbond>
3.6960

> <Gold.PLP.Chemscore.CHOScore>
0.0000

> <Gold.PLP.Chemscore.Metal>
0.0000

> <Gold.Chemscore.Hbonds>
donor molecule, donor type, donor heavy atom, donor atom, acceptor molecule, acceptor atom, score
      L1  H    15    27       P1  8028  1.00
      L1  H    18    31       P1  7948  0.86
      P1  H  7989  7998       L1    19  1.00
      P1  H  7997  8010       L1     8  0.67

> <Gold.PLP.Chemscore.Internal.Correction>
0.0201

> <Gold.Rescore>
     Score         DG    S(hbond)    S(metal)    S(lipo)     H(rot)  DE(clash)    DE(int)     intcor
      8.29     -10.22       2.39        0.00      39.29       3.06       0.09       1.83       ----

> <Gold.Chemscore.Fitness>
8.2948

> <Gold.Chemscore.DG>
-10.2179

> <Gold.Chemscore.ZeroCoef>
-5.4800

> <Gold.Chemscore.Hbond>
2.3881

> <Gold.Chemscore.Metal>
0.0000

> <Gold.Chemscore.Lipo>
39.2901

> <Gold.Chemscore.Internal_Hbond>
0.0000

> <Gold.Chemscore.DEClash>
0.0911

> <Gold.Chemscore.DEInternal>
1.8320

> <Gold.Chemscore.Rot>
3.0607

> <Gold.Chemscore.Internal.Correction>
   9.000000E+99

> <Gold.Chemscore.Hbonds>
donor molecule, donor type, donor heavy atom, donor atom, acceptor molecule, acceptor atom, score
      L1  H    15    27       P1  8028  0.96
      L1  H    18    31       P1  7948  0.84
      P1  H  7989  7998       L1    19  0.17
      P1  H  7997  8010       L1     8  0.06

> <Gold.Chemscore.Hbond.Weighted>
-7.9763

> <Gold.Chemscore.Metal.Weighted>
-0.0000

> <Gold.Chemscore.Lipo.Weighted>
-4.5969

> <Gold.Chemscore.Internal_Hbond.Weighted>
0.0000

> <Gold.Chemscore.DEClash.Weighted>
0.0911

> <Gold.Chemscore.DEInternal.Weighted>
1.8320

> <Gold.Chemscore.Rot.Weighted>
7.8354

> <Gold.Chemscore.Internal.Correction.Weighted>
   9.000000E+99

> <Gold.Protein.RotatedTorsions>
[ 6907 6896 6895 6894 ] final  144.61 input  -60.11 | X-H torsion
[ 7974 7965 7964 7962 ] final -101.38 input  175.53 | X-H torsion
[ 8008 7997 7996 7995 ] final   25.99 input   59.86 | X-H torsion
[ 10167 10162 10161 10158 ] final   57.83 input  -65.29 | X-H torsion
[ 10718 10713 10712 10709 ] final  167.42 input   66.30 | X-H torsion
[ 10763 10752 10751 10750 ] final   38.47 input  -60.55 | X-H torsion
[ 11005 11000 10999 10996 ] final  140.44 input  -57.11 | X-H torsion

> <Gold.Protein.ActiveResidues>
 VAL166  LYS551  ARG553  GLY616  TRP617  ASP618  TYR619  PRO620  LYS621  CYS622 
 ASP623  PHE694  ASN695  SER759  ASP760  ASP761  ALA762  ILE779  LEU786  VAL792 
 PHE793  MET794  SER795  GLU796  ALA797  LYS798  CYS799  TRP800  GLU811  SER814 

> <Gold.Protein.RotatedAtoms>
  152.1914  133.4776  159.5009 H   0  0  0  0  0  0  0  0  0  0  0  0  # atno 6907 bound_to 6896
  150.6952  134.1707  159.4220 H   0  0  0  0  0  0  0  0  0  0  0  0  # atno 6908 bound_to 6896
  151.9622  135.0117  160.0599 H   0  0  0  0  0  0  0  0  0  0  0  0  # atno 6909 bound_to 6896
  145.2823  140.9330  143.2925 H   0  0  0  0  0  0  0  0  0  0  0  0  # atno 7974 bound_to 7965
  155.0203  140.3147  155.4796 H   0  0  0  0  0  0  0  0  0  0  0  0  # atno 8008 bound_to 7997
  156.2893  140.2198  156.5263 H   0  0  0  0  0  0  0  0  0  0  0  0  # atno 8009 bound_to 7997
  154.7457  140.0470  157.0838 H   0  0  0  0  0  0  0  0  0  0  0  0  # atno 8010 bound_to 7997
  140.1938  144.4058  150.6559 H   0  0  0  0  0  0  0  0  0  0  0  0  # atno 10167 bound_to 10162
  157.0518  131.0315  151.2678 H   0  0  0  0  0  0  0  0  0  0  0  0  # atno 10718 bound_to 10713
  153.0000  135.6248  154.2309 H   0  0  0  0  0  0  0  0  0  0  0  0  # atno 10763 bound_to 10752
  154.2051  135.2802  155.2979 H   0  0  0  0  0  0  0  0  0  0  0  0  # atno 10764 bound_to 10752
  154.5652  135.5693  153.7102 H   0  0  0  0  0  0  0  0  0  0  0  0  # atno 10765 bound_to 10752
  140.0328  134.9343  157.0695 H   0  0  0  0  0  0  0  0  0  0  0  0  # atno 11005 bound_to 11000
  144.9243  139.4374  143.6526 LP  0  0  0  0  0  0  0  0  0  0  0  0  # atno 17320 bound_to 7965
  146.3212  139.8120  142.8944 LP  0  0  0  0  0  0  0  0  0  0  0  0  # atno 17321 bound_to 7965
  140.6438  143.2209  151.6232 LP  0  0  0  0  0  0  0  0  0  0  0  0  # atno 17342 bound_to 10162
  139.5245  144.3102  152.0999 LP  0  0  0  0  0  0  0  0  0  0  0  0  # atno 17343 bound_to 10162
  157.5024  130.7888  149.7618 LP  0  0  0  0  0  0  0  0  0  0  0  0  # atno 17370 bound_to 10713
  156.0005  130.3883  150.2624 LP  0  0  0  0  0  0  0  0  0  0  0  0  # atno 17371 bound_to 10713
  140.4198  134.1893  155.7164 LP  0  0  0  0  0  0  0  0  0  0  0  0  # atno 17394 bound_to 11000
  141.1840  133.8352  157.1154 LP  0  0  0  0  0  0  0  0  0  0  0  0  # atno 17395 bound_to 11000

$$$$
