AV-unprocessed.smi:17|AV-procd|sdf|104|dock3
  -GOLD-   2262015253D 1   1.00000     0.00000
 Structure written by MMmdl.
 57 59  0  0  0  0  0  0  0  0  1 V2000
  151.5907  130.6954  158.7476 C   0  0  0  0  0  0  0  0  0  0  0  0
  150.7042  130.5377  157.5008 C   0  0  0  0  0  0  0  0  0  0  0  0
  151.3500  130.9775  156.2618 N   0  0  0  0  0  0  0  0  0  0  0  0
  150.5516  130.9945  155.1633 C   0  0  0  0  0  0  0  0  0  0  0  0
  150.3862  129.8258  154.4949 N   0  0  0  0  0  0  0  0  0  0  0  0
  149.6221  129.7764  153.4006 C   0  0  0  0  0  0  0  0  0  0  0  0
  148.9458  130.7633  152.8104 N   0  0  0  0  0  0  0  0  0  0  0  0
  149.1158  131.9439  153.4715 C   0  0  0  0  0  0  0  0  0  0  0  0
  149.8977  132.1499  154.6435 C   0  0  0  0  0  0  0  0  0  0  0  0
  149.8317  133.4859  155.0231 N   0  0  0  0  0  0  0  0  0  0  0  0
  149.0567  134.0363  154.1297 C   0  0  0  0  0  0  0  0  0  0  0  0
  148.5654  133.1783  153.1728 N   0  0  0  0  0  0  0  0  0  0  0  0
  147.6888  133.5246  152.0679 C   0  0  0  0  0  0  0  0  0  0  0  0
  146.1736  133.4146  152.3927 C   0  0  1  0  0  0  0  0  0  0  0  0
  145.7375  134.6544  153.2101 C   0  0  0  0  0  0  0  0  0  0  0  0
  145.9587  135.8490  152.4887 O   0  0  0  0  0  0  0  0  0  0  0  0
  145.2925  133.2365  151.1198 C   0  0  2  0  0  0  0  0  0  0  0  0
  143.8302  132.9102  151.3889 C   0  0  0  0  0  0  0  0  0  0  0  0
  143.3732  132.3405  150.0546 C   0  0  0  0  0  0  0  0  0  0  0  0
  144.4760  131.5672  149.6117 O   0  0  0  0  0  0  0  0  0  0  0  0
  145.6758  132.0673  150.1949 C   0  0  0  0  0  0  0  0  0  0  0  0
  152.7341  130.5231  156.0515 C   0  0  1  0  0  0  0  0  0  0  0  0
  152.8291  129.0276  155.6931 C   0  0  0  0  0  0  0  0  0  0  0  0
  153.5329  131.3884  155.0522 C   0  0  0  0  0  0  0  0  0  0  0  0
  155.2274  130.7129  154.7641 S   0  0  0  0  0  0  0  0  0  0  0  0
  155.9201  131.9321  153.5754 C   0  0  0  0  0  0  0  0  0  0  0  0
  155.9982  130.7967  156.0136 O   0  0  0  0  0  0  0  0  0  0  0  0
  155.0972  129.4167  154.0809 O   0  0  0  0  0  0  0  0  0  0  0  0
  151.0953  130.2784  159.6244 H   0  0  0  0  0  0  0  0  0  0  0  0
  151.8092  131.7411  158.9651 H   0  0  0  0  0  0  0  0  0  0  0  0
  152.5391  130.1719  158.6228 H   0  0  0  0  0  0  0  0  0  0  0  0
  150.4483  129.4832  157.3957 H   0  0  0  0  0  0  0  0  0  0  0  0
  149.7602  131.0615  157.6447 H   0  0  0  0  0  0  0  0  0  0  0  0
  149.5417  128.8069  152.9315 H   0  0  0  0  0  0  0  0  0  0  0  0
  148.8121  135.0885  154.1497 H   0  0  0  0  0  0  0  0  0  0  0  0
  147.9468  134.5431  151.7781 H   0  0  0  0  0  0  0  0  0  0  0  0
  147.9328  132.8980  151.2095 H   0  0  0  0  0  0  0  0  0  0  0  0
  146.0162  132.5422  153.0288 H   0  0  0  0  0  0  0  0  0  0  0  0
  144.6844  134.5874  153.4853 H   0  0  0  0  0  0  0  0  0  0  0  0
  146.3054  134.7454  154.1349 H   0  0  0  0  0  0  0  0  0  0  0  0
  146.8659  135.8773  152.2254 H   0  0  0  0  0  0  0  0  0  0  0  0
  145.3228  134.1583  150.5365 H   0  0  0  0  0  0  0  0  0  0  0  0
  143.7420  132.1527  152.1689 H   0  0  0  0  0  0  0  0  0  0  0  0
  143.2407  133.7790  151.6833 H   0  0  0  0  0  0  0  0  0  0  0  0
  142.4674  131.7397  150.1384 H   0  0  0  0  0  0  0  0  0  0  0  0
  143.1888  133.1427  149.3385 H   0  0  0  0  0  0  0  0  0  0  0  0
  146.3649  132.3789  149.4109 H   0  0  0  0  0  0  0  0  0  0  0  0
  146.1400  131.2528  150.7514 H   0  0  0  0  0  0  0  0  0  0  0  0
  153.2370  130.6301  157.0133 H   0  0  0  0  0  0  0  0  0  0  0  0
  153.8682  128.6988  155.6743 H   0  0  0  0  0  0  0  0  0  0  0  0
  152.4061  128.8205  154.7098 H   0  0  0  0  0  0  0  0  0  0  0  0
  152.3088  128.4061  156.4221 H   0  0  0  0  0  0  0  0  0  0  0  0
  153.0330  131.3893  154.0835 H   0  0  0  0  0  0  0  0  0  0  0  0
  153.6075  132.4298  155.3621 H   0  0  0  0  0  0  0  0  0  0  0  0
  156.9357  131.6402  153.3094 H   0  0  0  0  0  0  0  0  0  0  0  0
  155.9369  132.9199  154.0356 H   0  0  0  0  0  0  0  0  0  0  0  0
  155.3037  131.9583  152.6772 H   0  0  0  0  0  0  0  0  0  0  0  0
  1  2  1  0  0  0  0
  1 29  1  0  0  0  0
  1 30  1  0  0  0  0
  1 31  1  0  0  0  0
  2  3  1  0  0  0  0
  2 32  1  0  0  0  0
  2 33  1  0  0  0  0
  3  4  1  0  0  0  0
  3 22  1  0  0  0  0
  4  9  1  0  0  0  0
  4  5  2  0  0  0  0
  5  6  1  0  0  0  0
  6  7  2  0  0  0  0
  6 34  1  0  0  0  0
  7  8  1  0  0  0  0
  8 12  1  0  0  0  0
  8  9  2  0  0  0  0
  9 10  1  0  0  0  0
 10 11  2  0  0  0  0
 11 12  1  0  0  0  0
 11 35  1  0  0  0  0
 12 13  1  0  0  0  0
 13 14  1  0  0  0  0
 13 36  1  0  0  0  0
 13 37  1  0  0  0  0
 14 15  1  0  0  0  0
 14 17  1  0  0  0  0
 14 38  1  0  0  0  0
 15 16  1  0  0  0  0
 15 39  1  0  0  0  0
 15 40  1  0  0  0  0
 16 41  1  0  0  0  0
 17 21  1  0  0  0  0
 17 18  1  0  0  0  0
 17 42  1  0  0  0  0
 18 19  1  0  0  0  0
 18 43  1  0  0  0  0
 18 44  1  0  0  0  0
 19 20  1  0  0  0  0
 19 45  1  0  0  0  0
 19 46  1  0  0  0  0
 20 21  1  0  0  0  0
 21 47  1  0  0  0  0
 21 48  1  0  0  0  0
 22 23  1  0  0  0  0
 22 24  1  0  0  0  0
 22 49  1  0  0  0  0
 23 50  1  0  0  0  0
 23 51  1  0  0  0  0
 23 52  1  0  0  0  0
 24 25  1  0  0  0  0
 24 53  1  0  0  0  0
 24 54  1  0  0  0  0
 25 26  1  0  0  0  0
 25 27  2  0  0  0  0
 25 28  2  0  0  0  0
 26 55  1  0  0  0  0
 26 56  1  0  0  0  0
 26 57  1  0  0  0  0
M  END
> <s_m_source_file>
AV-unprocessed.smi

> <i_m_source_file_index>
17

> <i_lp_mmshare_version>
43012

> <i_f3d_flags>
0

> <s_epik_input>
W0NIM11TKD1PKSg9TylbQ0gyXVtDQEBIXShbQ0gzXSlOKFtDSDJdW0NIM10pYyhuW2NIXW4xKWMoYzEyKW5bY0hdbjJbQ0gyXVtDQEhdKFtDSDJdW09IXSlbQ0BASF0zW0NIMl1bQ0gyXU9bQ0gyXTM=

> <s_epik_cmdline>
J2VwaWtfcHl0aG9uJywgJy1waCcsICc3LjAnLCAnLXRuJywgJzgnLCAnLW1hJywgJzIwMCcsICctbWV0YWxfYmluZGluZycsICctaW1hZScsICc8aW5maWxlLm1hZT4nLCAnLW9tYWUnLCAnPG91dGZpbGUubWFlPic=

> <r_lp_tautomer_probability>
1

> <r_epik_Ionization_Penalty>
0.00119955

> <r_epik_Ionization_Penalty_Charging>
0

> <r_epik_Ionization_Penalty_Neutral>
0.00119955

> <r_epik_State_Penalty>
0.000665399

> <r_epik_Charging_Adjusted_Penalty>
0.000665399

> <i_epik_Tot_Q>
0

> <i_epik_Tot_abs_Q>
0

> <r_epik_Metal_State_Penalty>
-0

> <b_epik_Metal_Only>
0

> <s_lp_Force_Field>
OPLS_2005

> <r_lp_Energy>
33.8653

> <b_lp_Chiralities_Consistent>
1

> <s_lp_Variant>
AV-unprocessed.smi:17-6

> <Gold.Version>
5.8.1

> <Gold.Id.Protein>
6NUR|6NUR_protein|mol2

> <Gold.PLP.Fitness>
45.7223

> <Gold.PLP.PLP>
-39.3350

> <Gold.PLP.part.hbond>
-1.9669

> <Gold.PLP.part.metal>
0.0000

> <Gold.PLP.part.buried>
-3.2999

> <Gold.PLP.part.nonpolar>
-35.2684

> <Gold.PLP.part.repulsive>
1.5408

> <Gold.PLP.ligand.clash>
0.0000

> <Gold.PLP.ligand.torsion>
1.2311

> <Gold.PLP.Chemscore.Hbond>
1.5460

> <Gold.PLP.Chemscore.CHOScore>
0.9730

> <Gold.PLP.Chemscore.Metal>
0.0000

> <Gold.Chemscore.Hbonds>
donor molecule, donor type, donor heavy atom, donor atom, acceptor molecule, acceptor atom, score
      L1  H    16    41       P1  7948  0.76
      P1  H 10785 10796       L1    20  0.26
      L1  C    11    35       P1  7948  0.65

> <Gold.PLP.Chemscore.Internal.Correction>
1.2924

> <Gold.Rescore>
     Score         DG    S(hbond)    S(metal)    S(lipo)     H(rot)  DE(clash)    DE(int)     intcor
      3.38      -7.76       1.05        0.00      72.38       3.79       0.19       4.18       ----

> <Gold.Chemscore.Fitness>
3.3835

> <Gold.Chemscore.DG>
-7.7554

> <Gold.Chemscore.ZeroCoef>
-5.4800

> <Gold.Chemscore.Hbond>
1.0504

> <Gold.Chemscore.Metal>
0.0000

> <Gold.Chemscore.Lipo>
72.3755

> <Gold.Chemscore.Internal_Hbond>
0.0000

> <Gold.Chemscore.DEClash>
0.1898

> <Gold.Chemscore.DEInternal>
4.1821

> <Gold.Chemscore.Rot>
3.7894

> <Gold.Chemscore.Internal.Correction>
   9.000000E+99

> <Gold.Chemscore.Hbonds>
donor molecule, donor type, donor heavy atom, donor atom, acceptor molecule, acceptor atom, score
      L1  H    16    41       P1  7948  0.75
      P1  H 10785 10796       L1    20  0.02

> <Gold.Chemscore.Hbond.Weighted>
-3.5085

> <Gold.Chemscore.Metal.Weighted>
-0.0000

> <Gold.Chemscore.Lipo.Weighted>
-8.4679

> <Gold.Chemscore.Internal_Hbond.Weighted>
0.0000

> <Gold.Chemscore.DEClash.Weighted>
0.1898

> <Gold.Chemscore.DEInternal.Weighted>
4.1821

> <Gold.Chemscore.Rot.Weighted>
9.7010

> <Gold.Chemscore.Internal.Correction.Weighted>
   9.000000E+99

> <Gold.Protein.RotatedTorsions>
[ 6907 6896 6895 6894 ] final -149.81 input  -60.11 | X-H torsion
[ 7974 7965 7964 7962 ] final    7.68 input  175.53 | X-H torsion
[ 8008 7997 7996 7995 ] final  -86.81 input   59.86 | X-H torsion
[ 10167 10162 10161 10158 ] final   10.86 input  -65.29 | X-H torsion
[ 10718 10713 10712 10709 ] final  -37.18 input   66.30 | X-H torsion
[ 10763 10752 10751 10750 ] final   91.71 input  -60.55 | X-H torsion
[ 11005 11000 10999 10996 ] final -115.83 input  -57.11 | X-H torsion

> <Gold.Protein.ActiveResidues>
 VAL166  LYS551  ARG553  GLY616  TRP617  ASP618  TYR619  PRO620  LYS621  CYS622 
 ASP623  PHE694  ASN695  SER759  ASP760  ASP761  ALA762  ILE779  LEU786  VAL792 
 PHE793  MET794  SER795  GLU796  ALA797  LYS798  CYS799  TRP800  GLU811  SER814 

> <Gold.Protein.RotatedAtoms>
  151.1896  133.4675  159.2594 H   0  0  0  0  0  0  0  0  0  0  0  0  # atno 6907 bound_to 6896
  151.1177  135.0062  159.8534 H   0  0  0  0  0  0  0  0  0  0  0  0  # atno 6908 bound_to 6896
  152.5454  134.1809  159.8688 H   0  0  0  0  0  0  0  0  0  0  0  0  # atno 6909 bound_to 6896
  146.2424  140.0046  142.8412 H   0  0  0  0  0  0  0  0  0  0  0  0  # atno 7974 bound_to 7965
  154.6561  140.0573  157.0010 H   0  0  0  0  0  0  0  0  0  0  0  0  # atno 8008 bound_to 7997
  155.1298  140.3255  155.4458 H   0  0  0  0  0  0  0  0  0  0  0  0  # atno 8009 bound_to 7997
  156.2598  140.1983  156.6417 H   0  0  0  0  0  0  0  0  0  0  0  0  # atno 8010 bound_to 7997
  140.6168  143.8291  150.7127 H   0  0  0  0  0  0  0  0  0  0  0  0  # atno 10167 bound_to 10162
  156.3182  130.4262  149.7985 H   0  0  0  0  0  0  0  0  0  0  0  0  # atno 10718 bound_to 10713
  153.2112  135.4388  155.0381 H   0  0  0  0  0  0  0  0  0  0  0  0  # atno 10763 bound_to 10752
  154.8201  135.3333  154.7066 H   0  0  0  0  0  0  0  0  0  0  0  0  # atno 10764 bound_to 10752
  153.7504  135.6998  153.5003 H   0  0  0  0  0  0  0  0  0  0  0  0  # atno 10765 bound_to 10752
  141.0462  133.9759  157.2913 H   0  0  0  0  0  0  0  0  0  0  0  0  # atno 11005 bound_to 11000
  145.1384  140.9557  143.4503 LP  0  0  0  0  0  0  0  0  0  0  0  0  # atno 17320 bound_to 7965
  145.0320  139.3333  143.6020 LP  0  0  0  0  0  0  0  0  0  0  0  0  # atno 17321 bound_to 7965
  140.1872  143.4066  152.1890 LP  0  0  0  0  0  0  0  0  0  0  0  0  # atno 17342 bound_to 10162
  139.5405  144.7252  151.4750 LP  0  0  0  0  0  0  0  0  0  0  0  0  # atno 17343 bound_to 10162
  156.5303  130.8254  151.3234 LP  0  0  0  0  0  0  0  0  0  0  0  0  # atno 17370 bound_to 10713
  157.7406  130.9854  150.2389 LP  0  0  0  0  0  0  0  0  0  0  0  0  # atno 17371 bound_to 10713
  139.9314  135.0199  156.8411 LP  0  0  0  0  0  0  0  0  0  0  0  0  # atno 17394 bound_to 11000
  140.6142  134.0054  155.7590 LP  0  0  0  0  0  0  0  0  0  0  0  0  # atno 17395 bound_to 11000

$$$$
