AV-unprocessed.smi:3321|AV-procd|sdf|12769|dock6
  -GOLD-   2272019113D 1   1.00000     0.00000
 Structure written by MMmdl.
 41 42  0  0  0  0  0  0  0  0  2 V2000
  148.6132  135.8880  156.6136 C   0  0  0  0  0  0  0  0  0  0  0  0
  148.8429  136.4556  155.2035 C   0  0  2  0  0  0  0  0  0  0  0  0
  148.4144  135.4577  154.1950 N   0  3  0  0  0  0  0  0  0  0  0  0
  147.0419  134.9377  154.3754 C   0  0  0  0  0  0  0  0  0  0  0  0
  146.7101  133.8781  153.3149 C   0  0  0  0  0  0  0  0  0  0  0  0
  145.7267  134.3583  152.3633 N   0  0  0  0  0  0  0  0  0  0  0  0
  145.8357  135.4020  151.4683 C   0  0  0  0  0  0  0  0  0  0  0  0
  144.6546  135.4776  150.7873 C   0  0  0  0  0  0  0  0  0  0  0  0
  143.8734  134.4282  151.3467 C   0  0  0  0  0  0  0  0  0  0  0  0
  144.5174  133.7616  152.2914 N   0  0  0  0  0  0  0  0  0  0  0  0
  150.3252  136.8482  155.0245 C   0  0  0  0  0  0  0  0  0  0  0  0
  151.1802  135.9864  155.2374 O   0  0  0  0  0  0  0  0  0  0  0  0
  150.6550  138.1086  154.6456 N   0  0  0  0  0  0  0  0  0  0  0  0
  152.0149  138.6345  154.4642 C   0  0  0  0  0  0  0  0  0  0  0  0
  152.3337  139.5751  155.6400 C   0  0  0  0  0  0  0  0  0  0  0  0
  151.2897  140.7056  155.7305 C   0  0  0  0  0  0  0  0  0  0  0  0
  149.8478  140.1617  155.6938 C   0  0  0  0  0  0  0  0  0  0  0  0
  149.6560  139.1789  154.5234 C   0  0  0  0  0  0  0  0  0  0  0  0
  148.9047  136.5995  157.3871 H   0  0  0  0  0  0  0  0  0  0  0  0
  149.1862  134.9736  156.7744 H   0  0  0  0  0  0  0  0  0  0  0  0
  147.5608  135.6502  156.7713 H   0  0  0  0  0  0  0  0  0  0  0  0
  148.1988  137.3227  155.0631 H   0  0  0  0  0  0  0  0  0  0  0  0
  148.4908  135.8780  153.2794 H   0  0  0  0  0  0  0  0  0  0  0  0
  146.9494  134.5058  155.3728 H   0  0  0  0  0  0  0  0  0  0  0  0
  146.3280  135.7602  154.3142 H   0  0  0  0  0  0  0  0  0  0  0  0
  147.6087  133.5890  152.7677 H   0  0  0  0  0  0  0  0  0  0  0  0
  146.3215  132.9753  153.7884 H   0  0  0  0  0  0  0  0  0  0  0  0
  146.7340  135.9968  151.3895 H   0  0  0  0  0  0  0  0  0  0  0  0
  144.3880  136.1765  150.0084 H   0  0  0  0  0  0  0  0  0  0  0  0
  142.8648  134.1336  151.0962 H   0  0  0  0  0  0  0  0  0  0  0  0
  152.7801  137.8671  154.3686 H   0  0  0  0  0  0  0  0  0  0  0  0
  152.0610  139.1908  153.5268 H   0  0  0  0  0  0  0  0  0  0  0  0
  152.3429  139.0073  156.5714 H   0  0  0  0  0  0  0  0  0  0  0  0
  153.3318  139.9985  155.5245 H   0  0  0  0  0  0  0  0  0  0  0  0
  151.4482  141.2945  156.6343 H   0  0  0  0  0  0  0  0  0  0  0  0
  151.4319  141.3869  154.8907 H   0  0  0  0  0  0  0  0  0  0  0  0
  149.6253  139.6545  156.6336 H   0  0  0  0  0  0  0  0  0  0  0  0
  149.1394  140.9864  155.6121 H   0  0  0  0  0  0  0  0  0  0  0  0
  149.7889  139.6960  153.5719 H   0  0  0  0  0  0  0  0  0  0  0  0
  148.6305  138.8077  154.5149 H   0  0  0  0  0  0  0  0  0  0  0  0
  149.0475  134.6724  154.2443 H   0  0  0  0  0  0  0  0  0  0  0  0
  1  2  1  0  0  0  0
  1 19  1  0  0  0  0
  1 20  1  0  0  0  0
  1 21  1  0  0  0  0
  2  3  1  0  0  0  0
  2 11  1  0  0  0  0
  2 22  1  0  0  0  0
  3  4  1  0  0  0  0
  3 23  1  0  0  0  0
  3 41  1  0  0  0  0
  4  5  1  0  0  0  0
  4 24  1  0  0  0  0
  4 25  1  0  0  0  0
  5  6  1  0  0  0  0
  5 26  1  0  0  0  0
  5 27  1  0  0  0  0
  6 10  1  0  0  0  0
  6  7  1  0  0  0  0
  7  8  2  0  0  0  0
  7 28  1  0  0  0  0
  8  9  1  0  0  0  0
  8 29  1  0  0  0  0
  9 10  2  0  0  0  0
  9 30  1  0  0  0  0
 11 12  2  0  0  0  0
 11 13  1  0  0  0  0
 13 18  1  0  0  0  0
 13 14  1  0  0  0  0
 14 15  1  0  0  0  0
 14 31  1  0  0  0  0
 14 32  1  0  0  0  0
 15 16  1  0  0  0  0
 15 33  1  0  0  0  0
 15 34  1  0  0  0  0
 16 17  1  0  0  0  0
 16 35  1  0  0  0  0
 16 36  1  0  0  0  0
 17 18  1  0  0  0  0
 17 37  1  0  0  0  0
 17 38  1  0  0  0  0
 18 39  1  0  0  0  0
 18 40  1  0  0  0  0
M  CHG  1   3   1
M  END
> <s_m_source_file>
AV-unprocessed.smi

> <i_m_source_file_index>
3321

> <i_lp_mmshare_version>
43012

> <i_f3d_flags>
0

> <s_epik_input>
W0NIMl0xW0NIMl1bQ0gyXVtDSDJdW0NIMl1OMUMoPU8pW0NASF0oW0NIM10pW05IXVtDSDJdW0NIMl1uMltjSF1bY0hdW2NIXW4y

> <s_epik_cmdline>
J2VwaWtfcHl0aG9uJywgJy1waCcsICc3LjAnLCAnLXRuJywgJzgnLCAnLW1hJywgJzIwMCcsICctbWV0YWxfYmluZGluZycsICctaW1hZScsICc8aW5maWxlLm1hZT4nLCAnLW9tYWUnLCAnPG91dGZpbGUubWFlPic=

> <r_lp_tautomer_probability>
1

> <r_epik_Ionization_Penalty>
0.202061

> <r_epik_Ionization_Penalty_Charging>
0.202058

> <r_epik_Ionization_Penalty_Neutral>
2.46932e-06

> <r_epik_State_Penalty>
0.191938

> <r_epik_Charging_Adjusted_Penalty>
0.393996

> <i_epik_Tot_Q>
1

> <i_epik_Tot_abs_Q>
1

> <r_epik_Metal_State_Penalty>
0.192188

> <b_epik_Metal_Only>
0

> <s_lp_Force_Field>
OPLS_2005

> <r_lp_Energy>
26.3396

> <b_lp_Chiralities_Consistent>
1

> <s_lp_Variant>
AV-unprocessed.smi:3321-1

> <Gold.Version>
5.8.1

> <Gold.Id.Protein>
6NUR|6NUR_protein|mol2

> <Gold.PLP.Fitness>
43.5354

> <Gold.PLP.PLP>
-29.3804

> <Gold.PLP.part.hbond>
-1.9520

> <Gold.PLP.part.metal>
0.0000

> <Gold.PLP.part.buried>
-3.7902

> <Gold.PLP.part.nonpolar>
-24.7285

> <Gold.PLP.part.repulsive>
0.2063

> <Gold.PLP.ligand.clash>
0.0000

> <Gold.PLP.ligand.torsion>
0.4650

> <Gold.PLP.Chemscore.Hbond>
3.0000

> <Gold.PLP.Chemscore.CHOScore>
2.0000

> <Gold.PLP.Chemscore.Metal>
0.0000

> <Gold.Chemscore.Hbonds>
donor molecule, donor type, donor heavy atom, donor atom, acceptor molecule, acceptor atom, score
      L1  H     3    23       P1  7948  1.95
      P1  H 10752 10765       L1    12  1.00
      L1  C     7    28       P1  7948  1.00
      L1  C     9    30       P1 10186  1.00

> <Gold.PLP.Chemscore.Internal.Correction>
0.0850

> <Gold.Rescore>
     Score         DG    S(hbond)    S(metal)    S(lipo)     H(rot)  DE(clash)    DE(int)     intcor
     14.17     -14.59       1.99        0.00      60.37       1.79       0.01       0.41       ----

> <Gold.Chemscore.Fitness>
14.1746

> <Gold.Chemscore.DG>
-14.5897

> <Gold.Chemscore.ZeroCoef>
-5.4800

> <Gold.Chemscore.Hbond>
1.9869

> <Gold.Chemscore.Metal>
0.0000

> <Gold.Chemscore.Lipo>
60.3658

> <Gold.Chemscore.Internal_Hbond>
0.0000

> <Gold.Chemscore.DEClash>
0.0089

> <Gold.Chemscore.DEInternal>
0.4063

> <Gold.Chemscore.Rot>
1.7928

> <Gold.Chemscore.Internal.Correction>
   9.000000E+99

> <Gold.Chemscore.Hbonds>
donor molecule, donor type, donor heavy atom, donor atom, acceptor molecule, acceptor atom, score
      L1  H     3    23       P1  7948  0.92
      P1  H 10752 10765       L1    12  1.00

> <Gold.Chemscore.Hbond.Weighted>
-6.6364

> <Gold.Chemscore.Metal.Weighted>
-0.0000

> <Gold.Chemscore.Lipo.Weighted>
-7.0628

> <Gold.Chemscore.Internal_Hbond.Weighted>
0.0000

> <Gold.Chemscore.DEClash.Weighted>
0.0089

> <Gold.Chemscore.DEInternal.Weighted>
0.4063

> <Gold.Chemscore.Rot.Weighted>
4.5895

> <Gold.Chemscore.Internal.Correction.Weighted>
   9.000000E+99

> <Gold.Protein.RotatedTorsions>
[ 6907 6896 6895 6894 ] final  154.92 input  -60.11 | X-H torsion
[ 7974 7965 7964 7962 ] final -145.24 input  175.53 | X-H torsion
[ 8008 7997 7996 7995 ] final -110.56 input   59.86 | X-H torsion
[ 10167 10162 10161 10158 ] final  144.26 input  -65.29 | X-H torsion
[ 10718 10713 10712 10709 ] final -141.11 input   66.30 | X-H torsion
[ 10763 10752 10751 10750 ] final -175.06 input  -60.55 | X-H torsion
[ 11005 11000 10999 10996 ] final  -16.08 input  -57.11 | X-H torsion

> <Gold.Protein.ActiveResidues>
 VAL166  LYS551  ARG553  GLY616  TRP617  ASP618  TYR619  PRO620  LYS621  CYS622 
 ASP623  PHE694  ASN695  SER759  ASP760  ASP761  ALA762  ILE779  LEU786  VAL792 
 PHE793  MET794  SER795  GLU796  ALA797  LYS798  CYS799  TRP800  GLU811  SER814 

> <Gold.Protein.RotatedAtoms>
  152.0515  133.4021  159.4378 H   0  0  0  0  0  0  0  0  0  0  0  0  # atno 6907 bound_to 6896
  150.6870  134.3302  159.4833 H   0  0  0  0  0  0  0  0  0  0  0  0  # atno 6908 bound_to 6896
  152.1113  134.9272  160.0617 H   0  0  0  0  0  0  0  0  0  0  0  0  # atno 6909 bound_to 6896
  144.8241  140.5608  143.5559 H   0  0  0  0  0  0  0  0  0  0  0  0  # atno 7974 bound_to 7965
  154.9763  140.0397  157.2257 H   0  0  0  0  0  0  0  0  0  0  0  0  # atno 8008 bound_to 7997
  154.7754  140.2809  155.6082 H   0  0  0  0  0  0  0  0  0  0  0  0  # atno 8009 bound_to 7997
  156.2928  140.2602  156.2567 H   0  0  0  0  0  0  0  0  0  0  0  0  # atno 8010 bound_to 7997
  139.4951  144.5984  151.6534 H   0  0  0  0  0  0  0  0  0  0  0  0  # atno 10167 bound_to 10162
  156.3302  130.7582  151.1698 H   0  0  0  0  0  0  0  0  0  0  0  0  # atno 10718 bound_to 10713
  154.5889  135.2843  155.0656 H   0  0  0  0  0  0  0  0  0  0  0  0  # atno 10763 bound_to 10752
  154.1964  135.6432  153.5078 H   0  0  0  0  0  0  0  0  0  0  0  0  # atno 10764 bound_to 10752
  153.0114  135.5458  154.6568 H   0  0  0  0  0  0  0  0  0  0  0  0  # atno 10765 bound_to 10752
  140.8031  133.8198  155.9490 H   0  0  0  0  0  0  0  0  0  0  0  0  # atno 11005 bound_to 11000
  145.5039  139.1482  143.3642 LP  0  0  0  0  0  0  0  0  0  0  0  0  # atno 17320 bound_to 7965
  146.2546  140.5179  142.8879 LP  0  0  0  0  0  0  0  0  0  0  0  0  # atno 17321 bound_to 7965
  140.5627  144.0241  150.6177 LP  0  0  0  0  0  0  0  0  0  0  0  0  # atno 17342 bound_to 10162
  140.3332  143.3064  152.0665 LP  0  0  0  0  0  0  0  0  0  0  0  0  # atno 17343 bound_to 10162
  157.7429  131.0483  150.4990 LP  0  0  0  0  0  0  0  0  0  0  0  0  # atno 17370 bound_to 10713
  156.5155  130.4149  149.6278 LP  0  0  0  0  0  0  0  0  0  0  0  0  # atno 17371 bound_to 10713
  140.9274  134.2065  157.4887 LP  0  0  0  0  0  0  0  0  0  0  0  0  # atno 17394 bound_to 11000
  139.8720  134.9818  156.5131 LP  0  0  0  0  0  0  0  0  0  0  0  0  # atno 17395 bound_to 11000

$$$$
