AV-unprocessed.smi:289|AV-procd|sdf|2213|dock4
  -GOLD-   2262022 43D 1   1.00000     0.00000
 Structure written by MMmdl.
 51 54  0  0  0  0  0  0  0  0  1 V2000
  149.2018  135.8574  155.8553 O   0  0  0  0  0  0  0  0  0  0  0  0
  149.0991  137.0661  156.0746 C   0  0  0  0  0  0  0  0  0  0  0  0
  147.7163  137.7371  155.9318 C   0  0  0  0  0  0  0  0  0  0  0  0
  147.1373  137.6301  154.5733 N   0  0  0  0  0  0  0  0  0  0  0  0
  147.3802  138.6723  153.6455 C   0  0  0  0  0  0  0  0  0  0  0  0
  148.0761  139.6443  153.9430 O   0  0  0  0  0  0  0  0  0  0  0  0
  146.7406  138.5167  152.3449 C   0  0  0  0  0  0  0  0  0  0  0  0
  146.8842  139.4752  151.4141 F   0  0  0  0  0  0  0  0  0  0  0  0
  145.9898  137.4320  152.0642 C   0  0  0  0  0  0  0  0  0  0  0  0
  145.7897  136.3989  152.9653 N   0  0  0  0  0  0  0  0  0  0  0  0
  144.8713  135.2208  152.6749 C   0  0  2  0  0  0  0  0  0  0  0  0
  145.5982  133.8817  152.4920 C   0  0  0  0  0  0  0  0  0  0  0  0
  145.7313  133.7585  150.9762 C   0  0  0  0  0  0  0  0  0  0  0  0
  145.0594  135.0189  150.4205 C   0  0  0  0  0  0  0  0  0  0  0  0
  144.2125  135.4610  151.4725 O   0  0  0  0  0  0  0  0  0  0  0  0
  146.3304  136.5080  154.2665 C   0  0  0  0  0  0  0  0  0  0  0  0
  146.1012  135.6456  155.1177 O   0  0  0  0  0  0  0  0  0  0  0  0
  150.1630  137.8238  156.4376 N   0  0  0  0  0  0  0  0  0  0  0  0
  150.1260  139.2535  156.7795 C   0  0  0  0  0  0  0  0  0  0  0  0
  150.5461  139.4377  158.2522 C   0  0  0  0  0  0  0  0  0  0  0  0
  151.8869  138.8603  158.4564 N   0  0  0  0  0  0  0  0  0  0  0  0
  153.0097  139.5511  158.7783 C   0  0  0  0  0  0  0  0  0  0  0  0
  154.1396  139.0818  158.6391 O   0  0  0  0  0  0  0  0  0  0  0  0
  152.8859  140.9177  159.3303 C   0  0  0  0  0  0  0  0  0  0  0  0
  152.0795  141.9549  158.9455 C   0  0  0  0  0  0  0  0  0  0  0  0
  152.4092  143.0590  159.7792 C   0  0  0  0  0  0  0  0  0  0  0  0
  153.4111  142.6247  160.5985 C   0  0  0  0  0  0  0  0  0  0  0  0
  153.7239  141.3285  160.3278 O   0  0  0  0  0  0  0  0  0  0  0  0
  151.9229  137.4347  158.0926 C   0  0  0  0  0  0  0  0  0  0  0  0
  151.5124  137.2700  156.6173 C   0  0  0  0  0  0  0  0  0  0  0  0
  147.0411  137.3067  156.6731 H   0  0  0  0  0  0  0  0  0  0  0  0
  147.8013  138.7870  156.2163 H   0  0  0  0  0  0  0  0  0  0  0  0
  145.5242  137.3990  151.0921 H   0  0  0  0  0  0  0  0  0  0  0  0
  144.1745  135.1824  153.5138 H   0  0  0  0  0  0  0  0  0  0  0  0
  146.5345  133.8293  153.0474 H   0  0  0  0  0  0  0  0  0  0  0  0
  144.9493  133.0894  152.8670 H   0  0  0  0  0  0  0  0  0  0  0  0
  146.7706  133.6854  150.6553 H   0  0  0  0  0  0  0  0  0  0  0  0
  145.2124  132.8644  150.6291 H   0  0  0  0  0  0  0  0  0  0  0  0
  145.7987  135.7886  150.1952 H   0  0  0  0  0  0  0  0  0  0  0  0
  144.4924  134.8234  149.5103 H   0  0  0  0  0  0  0  0  0  0  0  0
  150.8139  139.7915  156.1253 H   0  0  0  0  0  0  0  0  0  0  0  0
  149.1548  139.7198  156.6269 H   0  0  0  0  0  0  0  0  0  0  0  0
  150.4867  140.4999  158.4795 H   0  0  0  0  0  0  0  0  0  0  0  0
  149.8362  138.9424  158.9161 H   0  0  0  0  0  0  0  0  0  0  0  0
  151.3393  141.9218  158.1593 H   0  0  0  0  0  0  0  0  0  0  0  0
  151.9750  144.0479  159.7734 H   0  0  0  0  0  0  0  0  0  0  0  0
  153.9909  143.0858  161.3845 H   0  0  0  0  0  0  0  0  0  0  0  0
  152.9023  136.9822  158.2535 H   0  0  0  0  0  0  0  0  0  0  0  0
  151.2344  136.8856  158.7368 H   0  0  0  0  0  0  0  0  0  0  0  0
  151.5814  136.2186  156.3356 H   0  0  0  0  0  0  0  0  0  0  0  0
  152.2108  137.7999  155.9678 H   0  0  0  0  0  0  0  0  0  0  0  0
  1  2  2  0  0  0  0
  2  3  1  0  0  0  0
  2 18  1  0  0  0  0
  3  4  1  0  0  0  0
  3 31  1  0  0  0  0
  3 32  1  0  0  0  0
  4 16  1  0  0  0  0
  4  5  1  0  0  0  0
  5  6  2  0  0  0  0
  5  7  1  0  0  0  0
  7  8  1  0  0  0  0
  7  9  2  0  0  0  0
  9 10  1  0  0  0  0
  9 33  1  0  0  0  0
 10 11  1  0  0  0  0
 10 16  1  0  0  0  0
 11 15  1  0  0  0  0
 11 12  1  0  0  0  0
 11 34  1  0  0  0  0
 12 13  1  0  0  0  0
 12 35  1  0  0  0  0
 12 36  1  0  0  0  0
 13 14  1  0  0  0  0
 13 37  1  0  0  0  0
 13 38  1  0  0  0  0
 14 15  1  0  0  0  0
 14 39  1  0  0  0  0
 14 40  1  0  0  0  0
 16 17  2  0  0  0  0
 18 30  1  0  0  0  0
 18 19  1  0  0  0  0
 19 20  1  0  0  0  0
 19 41  1  0  0  0  0
 19 42  1  0  0  0  0
 20 21  1  0  0  0  0
 20 43  1  0  0  0  0
 20 44  1  0  0  0  0
 21 22  1  0  0  0  0
 21 29  1  0  0  0  0
 22 23  2  0  0  0  0
 22 24  1  0  0  0  0
 24 28  1  0  0  0  0
 24 25  2  0  0  0  0
 25 26  1  0  0  0  0
 25 45  1  0  0  0  0
 26 27  2  0  0  0  0
 26 46  1  0  0  0  0
 27 28  1  0  0  0  0
 27 47  1  0  0  0  0
 29 30  1  0  0  0  0
 29 48  1  0  0  0  0
 29 49  1  0  0  0  0
 30 50  1  0  0  0  0
 30 51  1  0  0  0  0
M  END
> <s_m_source_file>
AV-unprocessed.smi

> <i_m_source_file_index>
289

> <i_lp_mmshare_version>
43012

> <i_f3d_flags>
0

> <s_epik_input>
bzFbY0hdW2NIXVtjSF1jMUMoPU8pTihbQ0gyXVtDSDJdMilbQ0gyXVtDSDJdTjJDKD1PKVtDSDJdbjNjKD1PKWMoRilbY0hdbihjMz1PKVtDQEBIXTRbQ0gyXVtDSDJdW0NIMl1PNA==

> <s_epik_cmdline>
J2VwaWtfcHl0aG9uJywgJy1waCcsICc3LjAnLCAnLXRuJywgJzgnLCAnLW1hJywgJzIwMCcsICctbWV0YWxfYmluZGluZycsICctaW1hZScsICc8aW5maWxlLm1hZT4nLCAnLW9tYWUnLCAnPG91dGZpbGUubWFlPic=

> <r_lp_tautomer_probability>
1

> <r_epik_Ionization_Penalty>
6.38128e-09

> <r_epik_Ionization_Penalty_Charging>
4.20153e-09

> <r_epik_Ionization_Penalty_Neutral>
2.17976e-09

> <r_epik_State_Penalty>
-0

> <r_epik_Charging_Adjusted_Penalty>
4.20153e-09

> <i_epik_Tot_Q>
0

> <i_epik_Tot_abs_Q>
0

> <r_epik_Metal_State_Penalty>
-0

> <b_epik_Metal_Only>
0

> <s_epik_Chemistry_Notes>
This compound contains an acetal/aminal-like group ( X-CH(R)-Y where X, Y are N, S, or O) that may be acid/base labile, releasing an aldehyde.

> <s_lp_Force_Field>
OPLS_2005

> <r_lp_Energy>
70.009

> <b_lp_Chiralities_Consistent>
1

> <s_lp_Variant>
AV-unprocessed.smi:289-1

> <Gold.Version>
5.8.1

> <Gold.Id.Protein>
6NUR|6NUR_protein|mol2

> <Gold.PLP.Fitness>
41.1478

> <Gold.PLP.PLP>
-37.2498

> <Gold.PLP.part.hbond>
-1.0000

> <Gold.PLP.part.metal>
0.0000

> <Gold.PLP.part.buried>
-2.7288

> <Gold.PLP.part.nonpolar>
-33.7950

> <Gold.PLP.part.repulsive>
0.4296

> <Gold.PLP.ligand.clash>
0.0000

> <Gold.PLP.ligand.torsion>
1.3380

> <Gold.PLP.Chemscore.Hbond>
1.0000

> <Gold.PLP.Chemscore.CHOScore>
1.0000

> <Gold.PLP.Chemscore.Metal>
0.0000

> <Gold.Chemscore.Hbonds>
donor molecule, donor type, donor heavy atom, donor atom, acceptor molecule, acceptor atom, score
      P1  H  7997  8009       L1    23  1.00
      L1  C     9    33       P1 10171  1.00

> <Gold.PLP.Chemscore.Internal.Correction>
0.5739

> <Gold.Rescore>
     Score         DG    S(hbond)    S(metal)    S(lipo)     H(rot)  DE(clash)    DE(int)     intcor
     12.31     -14.52       0.99        0.00      85.35       1.66       0.18       2.03       ----

> <Gold.Chemscore.Fitness>
12.3133

> <Gold.Chemscore.DG>
-14.5227

> <Gold.Chemscore.ZeroCoef>
-5.4800

> <Gold.Chemscore.Hbond>
0.9883

> <Gold.Chemscore.Metal>
0.0000

> <Gold.Chemscore.Lipo>
85.3536

> <Gold.Chemscore.Internal_Hbond>
0.0000

> <Gold.Chemscore.DEClash>
0.1807

> <Gold.Chemscore.DEInternal>
2.0288

> <Gold.Chemscore.Rot>
1.6580

> <Gold.Chemscore.Internal.Correction>
   9.000000E+99

> <Gold.Chemscore.Hbonds>
donor molecule, donor type, donor heavy atom, donor atom, acceptor molecule, acceptor atom, score
      P1  H  7997  8009       L1    23  0.45

> <Gold.Chemscore.Hbond.Weighted>
-3.3009

> <Gold.Chemscore.Metal.Weighted>
-0.0000

> <Gold.Chemscore.Lipo.Weighted>
-9.9864

> <Gold.Chemscore.Internal_Hbond.Weighted>
0.0000

> <Gold.Chemscore.DEClash.Weighted>
0.1807

> <Gold.Chemscore.DEInternal.Weighted>
2.0288

> <Gold.Chemscore.Rot.Weighted>
4.2446

> <Gold.Chemscore.Internal.Correction.Weighted>
   9.000000E+99

> <Gold.Protein.RotatedTorsions>
[ 6907 6896 6895 6894 ] final  106.20 input  -60.11 | X-H torsion
[ 7974 7965 7964 7962 ] final  152.77 input  175.53 | X-H torsion
[ 8008 7997 7996 7995 ] final  138.88 input   59.86 | X-H torsion
[ 10167 10162 10161 10158 ] final  148.29 input  -65.29 | X-H torsion
[ 10718 10713 10712 10709 ] final -129.65 input   66.30 | X-H torsion
[ 10763 10752 10751 10750 ] final   91.00 input  -60.55 | X-H torsion
[ 11005 11000 10999 10996 ] final -142.03 input  -57.11 | X-H torsion

> <Gold.Protein.ActiveResidues>
 VAL166  LYS551  ARG553  GLY616  TRP617  ASP618  TYR619  PRO620  LYS621  CYS622 
 ASP623  PHE694  ASN695  SER759  ASP760  ASP761  ALA762  ILE779  LEU786  VAL792 
 PHE793  MET794  SER795  GLU796  ALA797  LYS798  CYS799  TRP800  GLU811  SER814 

> <Gold.Protein.RotatedAtoms>
  152.5203  133.9416  159.7629 H   0  0  0  0  0  0  0  0  0  0  0  0  # atno 6907 bound_to 6896
  150.9745  133.6301  159.2739 H   0  0  0  0  0  0  0  0  0  0  0  0  # atno 6908 bound_to 6896
  151.3500  135.0888  159.9453 H   0  0  0  0  0  0  0  0  0  0  0  0  # atno 6909 bound_to 6896
  144.8200  139.6712  143.6105 H   0  0  0  0  0  0  0  0  0  0  0  0  # atno 7974 bound_to 7965
  156.2994  140.2382  156.4146 H   0  0  0  0  0  0  0  0  0  0  0  0  # atno 8008 bound_to 7997
  154.8410  140.0428  157.1561 H   0  0  0  0  0  0  0  0  0  0  0  0  # atno 8009 bound_to 7997
  154.9103  140.2989  155.5273 H   0  0  0  0  0  0  0  0  0  0  0  0  # atno 8010 bound_to 7997
  139.4877  144.5691  151.7089 H   0  0  0  0  0  0  0  0  0  0  0  0  # atno 10167 bound_to 10162
  156.2068  130.6893  151.0603 H   0  0  0  0  0  0  0  0  0  0  0  0  # atno 10718 bound_to 10713
  153.2036  135.4413  155.0296 H   0  0  0  0  0  0  0  0  0  0  0  0  # atno 10763 bound_to 10752
  154.8161  135.3316  154.7175 H   0  0  0  0  0  0  0  0  0  0  0  0  # atno 10764 bound_to 10752
  153.7618  135.6991  153.4979 H   0  0  0  0  0  0  0  0  0  0  0  0  # atno 10765 bound_to 10752
  140.8266  134.2567  157.4876 H   0  0  0  0  0  0  0  0  0  0  0  0  # atno 11005 bound_to 11000
  146.2505  139.6189  142.9430 LP  0  0  0  0  0  0  0  0  0  0  0  0  # atno 17320 bound_to 7965
  145.5127  141.0435  143.2479 LP  0  0  0  0  0  0  0  0  0  0  0  0  # atno 17321 bound_to 7965
  140.5274  144.0783  150.6042 LP  0  0  0  0  0  0  0  0  0  0  0  0  # atno 17342 bound_to 10162
  140.3762  143.2827  152.0222 LP  0  0  0  0  0  0  0  0  0  0  0  0  # atno 17343 bound_to 10162
  157.7016  131.0773  150.6800 LP  0  0  0  0  0  0  0  0  0  0  0  0  # atno 17370 bound_to 10713
  156.6859  130.4581  149.5614 LP  0  0  0  0  0  0  0  0  0  0  0  0  # atno 17371 bound_to 10713
  139.8706  134.9564  156.4235 LP  0  0  0  0  0  0  0  0  0  0  0  0  # atno 17394 bound_to 11000
  140.9043  133.7757  155.9716 LP  0  0  0  0  0  0  0  0  0  0  0  0  # atno 17395 bound_to 11000

$$$$
