AV-unprocessed.smi:2471|AV-procd|sdf|9738|dock1
  -GOLD-   2272013373D 1   1.00000     0.00000
 Structure written by MMmdl.
 40 41  0  0  0  0  0  0  0  0  1 V2000
  152.7866  142.5042  161.9980 C   0  0  0  0  0  0  0  0  0  0  0  0
  152.1957  143.4799  161.0020 C   0  0  0  0  0  0  0  0  0  0  0  0
  152.1967  144.8651  161.2571 C   0  0  0  0  0  0  0  0  0  0  0  0
  151.6358  145.7175  160.2892 C   0  0  0  0  0  0  0  0  0  0  0  0
  151.1018  145.1538  159.1142 C   0  0  0  0  0  0  0  0  0  0  0  0
  151.1428  143.7528  158.9344 C   0  0  0  0  0  0  0  0  0  0  0  0
  150.5852  143.2851  157.7142 N   0  0  0  0  0  0  0  0  0  0  0  0
  150.8351  142.1272  157.0772 C   0  0  0  0  0  0  0  0  0  0  0  0
  151.5898  141.2408  157.4791 O   0  0  0  0  0  0  0  0  0  0  0  0
  150.1508  142.0468  155.9268 N   0  0  0  0  0  0  0  0  0  0  0  0
  150.2062  140.9212  154.9986 C   0  0  0  0  0  0  0  0  0  0  0  0
  148.8694  140.1490  154.9216 C   0  0  1  0  0  0  0  0  0  0  0  0
  147.8887  140.7450  153.8862 C   0  0  0  0  0  0  0  0  0  0  0  0
  146.5545  139.9821  153.8655 C   0  0  0  0  0  0  0  0  0  0  0  0
  146.7687  138.4836  153.6065 C   0  0  0  0  0  0  0  0  0  0  0  0
  147.7430  137.8745  154.6293 C   0  0  0  0  0  0  0  0  0  0  0  0
  149.0827  138.6348  154.6794 C   0  0  1  0  0  0  0  0  0  0  0  0
  149.7952  138.4027  153.4783 O   0  0  0  0  0  0  0  0  0  0  0  0
  151.6851  142.9393  159.8747 N   0  0  0  0  0  0  0  0  0  0  0  0
  152.9508  142.9800  162.9653 H   0  0  0  0  0  0  0  0  0  0  0  0
  153.7433  142.1287  161.6345 H   0  0  0  0  0  0  0  0  0  0  0  0
  152.1182  141.6555  162.1473 H   0  0  0  0  0  0  0  0  0  0  0  0
  152.6163  145.2661  162.1681 H   0  0  0  0  0  0  0  0  0  0  0  0
  151.6164  146.7862  160.4439 H   0  0  0  0  0  0  0  0  0  0  0  0
  150.6689  145.7951  158.3601 H   0  0  0  0  0  0  0  0  0  0  0  0
  149.9344  143.9127  157.2663 H   0  0  0  0  0  0  0  0  0  0  0  0
  149.5507  142.8177  155.6722 H   0  0  0  0  0  0  0  0  0  0  0  0
  150.4716  141.3137  154.0168 H   0  0  0  0  0  0  0  0  0  0  0  0
  151.0162  140.2492  155.2876 H   0  0  0  0  0  0  0  0  0  0  0  0
  148.3922  140.2385  155.8991 H   0  0  0  0  0  0  0  0  0  0  0  0
  147.6922  141.7940  154.1091 H   0  0  0  0  0  0  0  0  0  0  0  0
  148.3387  140.7224  152.8928 H   0  0  0  0  0  0  0  0  0  0  0  0
  146.0418  140.1183  154.8185 H   0  0  0  0  0  0  0  0  0  0  0  0
  145.8999  140.4004  153.1002 H   0  0  0  0  0  0  0  0  0  0  0  0
  145.8134  137.9597  153.6474 H   0  0  0  0  0  0  0  0  0  0  0  0
  147.1550  138.3384  152.5970 H   0  0  0  0  0  0  0  0  0  0  0  0
  147.2815  137.9019  155.6173 H   0  0  0  0  0  0  0  0  0  0  0  0
  147.9128  136.8210  154.4039 H   0  0  0  0  0  0  0  0  0  0  0  0
  149.6846  138.2251  155.4914 H   0  0  0  0  0  0  0  0  0  0  0  0
  149.4024  137.6669  153.0344 H   0  0  0  0  0  0  0  0  0  0  0  0
  1  2  1  0  0  0  0
  1 20  1  0  0  0  0
  1 21  1  0  0  0  0
  1 22  1  0  0  0  0
  2 19  1  0  0  0  0
  2  3  2  0  0  0  0
  3  4  1  0  0  0  0
  3 23  1  0  0  0  0
  4  5  2  0  0  0  0
  4 24  1  0  0  0  0
  5  6  1  0  0  0  0
  5 25  1  0  0  0  0
  6  7  1  0  0  0  0
  6 19  2  0  0  0  0
  7  8  1  0  0  0  0
  7 26  1  0  0  0  0
  8  9  2  0  0  0  0
  8 10  1  0  0  0  0
 10 11  1  0  0  0  0
 10 27  1  0  0  0  0
 11 12  1  0  0  0  0
 11 28  1  0  0  0  0
 11 29  1  0  0  0  0
 12 17  1  0  0  0  0
 12 13  1  0  0  0  0
 12 30  1  0  0  0  0
 13 14  1  0  0  0  0
 13 31  1  0  0  0  0
 13 32  1  0  0  0  0
 14 15  1  0  0  0  0
 14 33  1  0  0  0  0
 14 34  1  0  0  0  0
 15 16  1  0  0  0  0
 15 35  1  0  0  0  0
 15 36  1  0  0  0  0
 16 17  1  0  0  0  0
 16 37  1  0  0  0  0
 16 38  1  0  0  0  0
 17 18  1  0  0  0  0
 17 39  1  0  0  0  0
 18 40  1  0  0  0  0
M  END
> <s_m_source_file>
AV-unprocessed.smi

> <i_m_source_file_index>
2471

> <i_lp_mmshare_version>
43012

> <i_f3d_flags>
0

> <s_epik_input>
W0NIM11jMVtjSF1bY0hdW2NIXWMobjEpW05IXUMoPU8pW05IXVtDSDJdW0NAQEhdMltDSDJdW0NIMl1bQ0gyXVtDSDJdW0NASF0yW09IXQ==

> <s_epik_cmdline>
J2VwaWtfcHl0aG9uJywgJy1waCcsICc3LjAnLCAnLXRuJywgJzgnLCAnLW1hJywgJzIwMCcsICctbWV0YWxfYmluZGluZycsICctaW1hZScsICc8aW5maWxlLm1hZT4nLCAnLW9tYWUnLCAnPG91dGZpbGUubWFlPic=

> <r_lp_tautomer_probability>
1

> <r_epik_Ionization_Penalty>
8.52237e-05

> <r_epik_Ionization_Penalty_Charging>
0

> <r_epik_Ionization_Penalty_Neutral>
8.52237e-05

> <r_epik_State_Penalty>
-0

> <r_epik_Charging_Adjusted_Penalty>
0

> <i_epik_Tot_Q>
0

> <i_epik_Tot_abs_Q>
0

> <r_epik_Metal_State_Penalty>
-0

> <b_epik_Metal_Only>
0

> <s_lp_Force_Field>
OPLS_2005

> <r_lp_Energy>
16.6086

> <b_lp_Chiralities_Consistent>
1

> <s_lp_Variant>
AV-unprocessed.smi:2471-2

> <Gold.Version>
5.8.1

> <Gold.Id.Protein>
6NUR|6NUR_protein|mol2

> <Gold.PLP.Fitness>
45.2533

> <Gold.PLP.PLP>
-37.2635

> <Gold.PLP.part.hbond>
-3.7271

> <Gold.PLP.part.metal>
0.0000

> <Gold.PLP.part.buried>
-0.9530

> <Gold.PLP.part.nonpolar>
-32.7220

> <Gold.PLP.part.repulsive>
0.1814

> <Gold.PLP.ligand.clash>
0.0000

> <Gold.PLP.ligand.torsion>
0.5128

> <Gold.PLP.Chemscore.Hbond>
3.0000

> <Gold.PLP.Chemscore.CHOScore>
0.0000

> <Gold.PLP.Chemscore.Metal>
0.0000

> <Gold.Chemscore.Hbonds>
donor molecule, donor type, donor heavy atom, donor atom, acceptor molecule, acceptor atom, score
      L1  H     7    26       P1  8028  0.93
      L1  H    10    27       P1  8028  1.00
      L1  H    18    40       P1  7948  1.00

> <Gold.PLP.Chemscore.Internal.Correction>
0.0154

> <Gold.Rescore>
     Score         DG    S(hbond)    S(metal)    S(lipo)     H(rot)  DE(clash)    DE(int)     intcor
     18.08     -21.70       2.76        0.00      97.86       1.73       1.73       1.89       ----

> <Gold.Chemscore.Fitness>
18.0839

> <Gold.Chemscore.DG>
-21.6990

> <Gold.Chemscore.ZeroCoef>
-5.4800

> <Gold.Chemscore.Hbond>
2.7570

> <Gold.Chemscore.Metal>
0.0000

> <Gold.Chemscore.Lipo>
97.8559

> <Gold.Chemscore.Internal_Hbond>
0.0000

> <Gold.Chemscore.DEClash>
1.7278

> <Gold.Chemscore.DEInternal>
1.8873

> <Gold.Chemscore.Rot>
1.7339

> <Gold.Chemscore.Internal.Correction>
   9.000000E+99

> <Gold.Chemscore.Hbonds>
donor molecule, donor type, donor heavy atom, donor atom, acceptor molecule, acceptor atom, score
      L1  H     7    26       P1  8028  0.72
      L1  H    10    27       P1  8028  0.94
      L1  H    18    40       P1  7948  0.93

> <Gold.Chemscore.Hbond.Weighted>
-9.2085

> <Gold.Chemscore.Metal.Weighted>
-0.0000

> <Gold.Chemscore.Lipo.Weighted>
-11.4491

> <Gold.Chemscore.Internal_Hbond.Weighted>
0.0000

> <Gold.Chemscore.DEClash.Weighted>
1.7278

> <Gold.Chemscore.DEInternal.Weighted>
1.8873

> <Gold.Chemscore.Rot.Weighted>
4.4387

> <Gold.Chemscore.Internal.Correction.Weighted>
   9.000000E+99

> <Gold.Protein.RotatedTorsions>
[ 6907 6896 6895 6894 ] final  -71.93 input  -60.11 | X-H torsion
[ 7974 7965 7964 7962 ] final  -41.88 input  175.53 | X-H torsion
[ 8008 7997 7996 7995 ] final   99.80 input   59.86 | X-H torsion
[ 10167 10162 10161 10158 ] final  -58.63 input  -65.29 | X-H torsion
[ 10718 10713 10712 10709 ] final -138.95 input   66.30 | X-H torsion
[ 10763 10752 10751 10750 ] final   87.86 input  -60.55 | X-H torsion
[ 11005 11000 10999 10996 ] final -134.43 input  -57.11 | X-H torsion

> <Gold.Protein.ActiveResidues>
 VAL166  LYS551  ARG553  GLY616  TRP617  ASP618  TYR619  PRO620  LYS621  CYS622 
 ASP623  PHE694  ASN695  SER759  ASP760  ASP761  ALA762  ILE779  LEU786  VAL792 
 PHE793  MET794  SER795  GLU796  ALA797  LYS798  CYS799  TRP800  GLU811  SER814 

> <Gold.Protein.RotatedAtoms>
  150.7191  134.5237  159.5665 H   0  0  0  0  0  0  0  0  0  0  0  0  # atno 6907 bound_to 6896
  152.2786  134.7851  160.0410 H   0  0  0  0  0  0  0  0  0  0  0  0  # atno 6908 bound_to 6896
  151.8505  133.3404  159.3708 H   0  0  0  0  0  0  0  0  0  0  0  0  # atno 6909 bound_to 6896
  146.0169  140.6897  142.9197 H   0  0  0  0  0  0  0  0  0  0  0  0  # atno 7974 bound_to 7965
  156.1141  140.3223  155.8114 H   0  0  0  0  0  0  0  0  0  0  0  0  # atno 8008 bound_to 7997
  155.4621  140.0540  157.3007 H   0  0  0  0  0  0  0  0  0  0  0  0  # atno 8009 bound_to 7997
  154.4780  140.2041  155.9845 H   0  0  0  0  0  0  0  0  0  0  0  0  # atno 8010 bound_to 7997
  140.6185  143.2411  151.5538 H   0  0  0  0  0  0  0  0  0  0  0  0  # atno 10167 bound_to 10162
  156.3052  130.7451  151.1513 H   0  0  0  0  0  0  0  0  0  0  0  0  # atno 10718 bound_to 10713
  153.1710  135.4528  154.9903 H   0  0  0  0  0  0  0  0  0  0  0  0  # atno 10763 bound_to 10752
  154.7966  135.3240  154.7654 H   0  0  0  0  0  0  0  0  0  0  0  0  # atno 10764 bound_to 10752
  153.8131  135.6953  153.4893 H   0  0  0  0  0  0  0  0  0  0  0  0  # atno 10765 bound_to 10752
  140.8991  134.1713  157.4473 H   0  0  0  0  0  0  0  0  0  0  0  0  # atno 11005 bound_to 11000
  144.6974  140.3497  143.7184 LP  0  0  0  0  0  0  0  0  0  0  0  0  # atno 17320 bound_to 7965
  145.7254  139.1721  143.2460 LP  0  0  0  0  0  0  0  0  0  0  0  0  # atno 17321 bound_to 7965
  139.5419  144.2625  152.1367 LP  0  0  0  0  0  0  0  0  0  0  0  0  # atno 17342 bound_to 10162
  140.1840  144.4817  150.6513 LP  0  0  0  0  0  0  0  0  0  0  0  0  # atno 17343 bound_to 10162
  157.7378  131.0548  150.5335 LP  0  0  0  0  0  0  0  0  0  0  0  0  # atno 17370 bound_to 10713
  156.5467  130.4221  149.6127 LP  0  0  0  0  0  0  0  0  0  0  0  0  # atno 17371 bound_to 10713
  139.8739  134.9890  156.5440 LP  0  0  0  0  0  0  0  0  0  0  0  0  # atno 17394 bound_to 11000
  140.8252  133.8322  155.8933 LP  0  0  0  0  0  0  0  0  0  0  0  0  # atno 17395 bound_to 11000

$$$$
