AV-unprocessed.smi:145|AV-procd|sdf|1198|dock2
  -GOLD-   2262018353D 1   1.00000     0.00000
 Structure written by MMmdl.
 40 42  0  0  0  0  0  0  0  0  1 V2000
  151.6415  136.7590  154.3800 O   0  0  0  0  0  0  0  0  0  0  0  0
  151.6748  137.3304  155.4709 C   0  0  0  0  0  0  0  0  0  0  0  0
  152.5147  138.6040  155.6602 C   0  0  0  0  0  0  0  0  0  0  0  0
  151.7210  139.7803  156.0789 N   0  0  0  0  0  0  0  0  0  0  0  0
  150.7472  140.2986  155.1896 C   0  0  0  0  0  0  0  0  0  0  0  0
  150.5494  139.7832  154.0885 O   0  0  0  0  0  0  0  0  0  0  0  0
  150.0172  141.4677  155.6668 C   0  0  0  0  0  0  0  0  0  0  0  0
  149.0639  142.0172  154.8953 F   0  0  0  0  0  0  0  0  0  0  0  0
  150.2819  142.0080  156.8742 C   0  0  0  0  0  0  0  0  0  0  0  0
  151.2489  141.5023  157.7250 N   0  0  0  0  0  0  0  0  0  0  0  0
  151.5394  142.1238  159.0751 C   0  0  1  0  0  0  0  0  0  0  0  0
  152.9935  142.6293  159.1384 C   0  0  0  0  0  0  0  0  0  0  0  0
  152.8310  144.0593  159.6138 C   0  0  0  0  0  0  0  0  0  0  0  0
  151.4619  144.4217  159.0589 C   0  0  0  0  0  0  0  0  0  0  0  0
  150.7115  143.2341  159.2765 O   0  0  0  0  0  0  0  0  0  0  0  0
  151.9893  140.3636  157.3401 C   0  0  0  0  0  0  0  0  0  0  0  0
  152.8537  139.8959  158.0849 O   0  0  0  0  0  0  0  0  0  0  0  0
  151.0225  136.9097  156.5697 N   0  0  0  0  0  0  0  0  0  0  0  0
  150.1722  135.7805  156.7148 C   0  0  0  0  0  0  0  0  0  0  0  0
  149.2603  135.6242  157.7870 C   0  0  0  0  0  0  0  0  0  0  0  0
  148.4631  134.4662  157.8766 C   0  0  0  0  0  0  0  0  0  0  0  0
  148.5755  133.4537  156.9053 C   0  0  0  0  0  0  0  0  0  0  0  0
  149.4922  133.5957  155.8466 C   0  0  0  0  0  0  0  0  0  0  0  0
  149.6713  132.0884  154.4084 I   0  0  0  0  0  0  0  0  0  0  0  0
  150.2909  134.7522  155.7564 C   0  0  0  0  0  0  0  0  0  0  0  0
  153.3074  138.3873  156.3778 H   0  0  0  0  0  0  0  0  0  0  0  0
  153.0506  138.8120  154.7324 H   0  0  0  0  0  0  0  0  0  0  0  0
  149.7031  142.8698  157.1683 H   0  0  0  0  0  0  0  0  0  0  0  0
  151.3000  141.3548  159.8116 H   0  0  0  0  0  0  0  0  0  0  0  0
  153.5920  142.0166  159.8131 H   0  0  0  0  0  0  0  0  0  0  0  0
  153.4454  142.6082  158.1453 H   0  0  0  0  0  0  0  0  0  0  0  0
  152.8134  144.0932  160.7039 H   0  0  0  0  0  0  0  0  0  0  0  0
  153.6237  144.7199  159.2620 H   0  0  0  0  0  0  0  0  0  0  0  0
  151.0141  145.2779  159.5636 H   0  0  0  0  0  0  0  0  0  0  0  0
  151.5204  144.6410  157.9918 H   0  0  0  0  0  0  0  0  0  0  0  0
  151.2166  137.4185  157.4200 H   0  0  0  0  0  0  0  0  0  0  0  0
  149.1666  136.3724  158.5591 H   0  0  0  0  0  0  0  0  0  0  0  0
  147.7680  134.3529  158.6954 H   0  0  0  0  0  0  0  0  0  0  0  0
  147.9633  132.5667  156.9768 H   0  0  0  0  0  0  0  0  0  0  0  0
  150.9929  134.8503  154.9410 H   0  0  0  0  0  0  0  0  0  0  0  0
  1  2  2  0  0  0  0
  2  3  1  0  0  0  0
  2 18  1  0  0  0  0
  3  4  1  0  0  0  0
  3 26  1  0  0  0  0
  3 27  1  0  0  0  0
  4 16  1  0  0  0  0
  4  5  1  0  0  0  0
  5  6  2  0  0  0  0
  5  7  1  0  0  0  0
  7  8  1  0  0  0  0
  7  9  2  0  0  0  0
  9 10  1  0  0  0  0
  9 28  1  0  0  0  0
 10 11  1  0  0  0  0
 10 16  1  0  0  0  0
 11 15  1  0  0  0  0
 11 12  1  0  0  0  0
 11 29  1  0  0  0  0
 12 13  1  0  0  0  0
 12 30  1  0  0  0  0
 12 31  1  0  0  0  0
 13 14  1  0  0  0  0
 13 32  1  0  0  0  0
 13 33  1  0  0  0  0
 14 15  1  0  0  0  0
 14 34  1  0  0  0  0
 14 35  1  0  0  0  0
 16 17  2  0  0  0  0
 18 19  1  0  0  0  0
 18 36  1  0  0  0  0
 19 25  1  0  0  0  0
 19 20  2  0  0  0  0
 20 21  1  0  0  0  0
 20 37  1  0  0  0  0
 21 22  2  0  0  0  0
 21 38  1  0  0  0  0
 22 23  1  0  0  0  0
 22 39  1  0  0  0  0
 23 24  1  0  0  0  0
 23 25  2  0  0  0  0
 25 40  1  0  0  0  0
M  END
> <s_m_source_file>
AV-unprocessed.smi

> <i_m_source_file_index>
145

> <i_lp_mmshare_version>
43012

> <i_f3d_flags>
0

> <s_epik_input>
SWMoW2NIXTEpW2NIXVtjSF1bY0hdYzFbTkhdQyg9TylbQ0gyXW4yYyg9TyljKEYpW2NIXW4oYzI9TylbQ0BASF0zW0NIMl1bQ0gyXVtDSDJdTzM=

> <s_epik_cmdline>
J2VwaWtfcHl0aG9uJywgJy1waCcsICc3LjAnLCAnLXRuJywgJzgnLCAnLW1hJywgJzIwMCcsICctbWV0YWxfYmluZGluZycsICctaW1hZScsICc8aW5maWxlLm1hZT4nLCAnLW9tYWUnLCAnPG91dGZpbGUubWFlPic=

> <r_lp_tautomer_probability>
1

> <r_epik_Ionization_Penalty>
9.72367e-07

> <r_epik_Ionization_Penalty_Charging>
3.88729e-08

> <r_epik_Ionization_Penalty_Neutral>
9.33494e-07

> <r_epik_State_Penalty>
-0

> <r_epik_Charging_Adjusted_Penalty>
3.88729e-08

> <i_epik_Tot_Q>
0

> <i_epik_Tot_abs_Q>
0

> <r_epik_Metal_State_Penalty>
-0

> <b_epik_Metal_Only>
0

> <s_epik_Chemistry_Notes>
This compound contains an acetal/aminal-like group ( X-CH(R)-Y where X, Y are N, S, or O) that may be acid/base labile, releasing an aldehyde.

> <s_lp_Force_Field>
OPLS_2005

> <r_lp_Energy>
33.5039

> <b_lp_Chiralities_Consistent>
1

> <s_lp_Variant>
AV-unprocessed.smi:145-2

> <Gold.Version>
5.8.1

> <Gold.Id.Protein>
6NUR|6NUR_protein|mol2

> <Gold.PLP.Fitness>
51.2106

> <Gold.PLP.PLP>
-41.4150

> <Gold.PLP.part.hbond>
-3.0170

> <Gold.PLP.part.metal>
0.0000

> <Gold.PLP.part.buried>
-0.5713

> <Gold.PLP.part.nonpolar>
-38.4377

> <Gold.PLP.part.repulsive>
1.3506

> <Gold.PLP.ligand.clash>
0.0000

> <Gold.PLP.ligand.torsion>
0.0978

> <Gold.PLP.Chemscore.Hbond>
2.4000

> <Gold.PLP.Chemscore.CHOScore>
0.9251

> <Gold.PLP.Chemscore.Metal>
0.0000

> <Gold.Chemscore.Hbonds>
donor molecule, donor type, donor heavy atom, donor atom, acceptor molecule, acceptor atom, score
      P1  H  7989  7998       L1     6  0.35
      P1  H  7997  8008       L1    17  1.00
      P1  H 10752 10763       L1     1  1.00
      L1  C     9    28       P1  8028  0.94

> <Gold.PLP.Chemscore.Internal.Correction>
0.0160

> <Gold.Rescore>
     Score         DG    S(hbond)    S(metal)    S(lipo)     H(rot)  DE(clash)    DE(int)     intcor
     12.43     -16.58       1.65        0.00      84.11       1.66       0.58       3.57       ----

> <Gold.Chemscore.Fitness>
12.4285

> <Gold.Chemscore.DG>
-16.5799

> <Gold.Chemscore.ZeroCoef>
-5.4800

> <Gold.Chemscore.Hbond>
1.6508

> <Gold.Chemscore.Metal>
0.0000

> <Gold.Chemscore.Lipo>
84.1119

> <Gold.Chemscore.Internal_Hbond>
0.0000

> <Gold.Chemscore.DEClash>
0.5835

> <Gold.Chemscore.DEInternal>
3.5679

> <Gold.Chemscore.Rot>
1.6621

> <Gold.Chemscore.Internal.Correction>
   9.000000E+99

> <Gold.Chemscore.Hbonds>
donor molecule, donor type, donor heavy atom, donor atom, acceptor molecule, acceptor atom, score
      P1  H  7989  7998       L1     6  0.01
      P1  H  7997  8008       L1    17  0.28
      P1  H 10752 10763       L1     1  0.86

> <Gold.Chemscore.Hbond.Weighted>
-5.5137

> <Gold.Chemscore.Metal.Weighted>
-0.0000

> <Gold.Chemscore.Lipo.Weighted>
-9.8411

> <Gold.Chemscore.Internal_Hbond.Weighted>
0.0000

> <Gold.Chemscore.DEClash.Weighted>
0.5835

> <Gold.Chemscore.DEInternal.Weighted>
3.5679

> <Gold.Chemscore.Rot.Weighted>
4.2550

> <Gold.Chemscore.Internal.Correction.Weighted>
   9.000000E+99

> <Gold.Protein.RotatedTorsions>
[ 6907 6896 6895 6894 ] final  -21.17 input  -60.11 | X-H torsion
[ 7974 7965 7964 7962 ] final -134.02 input  175.53 | X-H torsion
[ 8008 7997 7996 7995 ] final  -76.26 input   59.86 | X-H torsion
[ 10167 10162 10161 10158 ] final -110.12 input  -65.29 | X-H torsion
[ 10718 10713 10712 10709 ] final  -10.86 input   66.30 | X-H torsion
[ 10763 10752 10751 10750 ] final   26.42 input  -60.55 | X-H torsion
[ 11005 11000 10999 10996 ] final -160.90 input  -57.11 | X-H torsion

> <Gold.Protein.ActiveResidues>
 VAL166  LYS551  ARG553  GLY616  TRP617  ASP618  TYR619  PRO620  LYS621  CYS622 
 ASP623  PHE694  ASN695  SER759  ASP760  ASP761  ALA762  ILE779  LEU786  VAL792 
 PHE793  MET794  SER795  GLU796  ALA797  LYS798  CYS799  TRP800  GLU811  SER814 

> <Gold.Protein.RotatedAtoms>
  151.2373  135.0576  159.9011 H   0  0  0  0  0  0  0  0  0  0  0  0  # atno 6907 bound_to 6896
  152.5397  134.0472  159.8104 H   0  0  0  0  0  0  0  0  0  0  0  0  # atno 6908 bound_to 6896
  151.0660  133.5456  159.2662 H   0  0  0  0  0  0  0  0  0  0  0  0  # atno 6909 bound_to 6896
  144.9140  140.6931  143.5007 H   0  0  0  0  0  0  0  0  0  0  0  0  # atno 7974 bound_to 7965
  154.5490  140.0730  156.8636 H   0  0  0  0  0  0  0  0  0  0  0  0  # atno 8008 bound_to 7997
  155.3031  140.3385  155.4228 H   0  0  0  0  0  0  0  0  0  0  0  0  # atno 8009 bound_to 7997
  156.1944  140.1698  156.8014 H   0  0  0  0  0  0  0  0  0  0  0  0  # atno 8010 bound_to 7997
  140.1479  143.4223  152.1515 H   0  0  0  0  0  0  0  0  0  0  0  0  # atno 10167 bound_to 10162
  156.6674  130.4999  149.6011 H   0  0  0  0  0  0  0  0  0  0  0  0  # atno 10718 bound_to 10713
  153.0624  135.6560  154.0433 H   0  0  0  0  0  0  0  0  0  0  0  0  # atno 10763 bound_to 10752
  154.0098  135.2929  155.3395 H   0  0  0  0  0  0  0  0  0  0  0  0  # atno 10764 bound_to 10752
  154.6967  135.5261  153.8537 H   0  0  0  0  0  0  0  0  0  0  0  0  # atno 10765 bound_to 10752
  140.6264  134.4697  157.5227 H   0  0  0  0  0  0  0  0  0  0  0  0  # atno 11005 bound_to 11000
  145.3406  139.1733  143.4488 LP  0  0  0  0  0  0  0  0  0  0  0  0  # atno 17320 bound_to 7965
  146.3173  140.3447  142.8651 LP  0  0  0  0  0  0  0  0  0  0  0  0  # atno 17321 bound_to 7965
  139.5440  144.7282  151.4643 LP  0  0  0  0  0  0  0  0  0  0  0  0  # atno 17342 bound_to 10162
  140.6720  143.8272  150.7011 LP  0  0  0  0  0  0  0  0  0  0  0  0  # atno 17343 bound_to 10162
  156.1965  130.6593  151.1120 LP  0  0  0  0  0  0  0  0  0  0  0  0  # atno 17370 bound_to 10713
  157.7089  131.0743  150.6571 LP  0  0  0  0  0  0  0  0  0  0  0  0  # atno 17371 bound_to 10713
  139.9133  134.8299  156.1452 LP  0  0  0  0  0  0  0  0  0  0  0  0  # atno 17394 bound_to 11000
  141.0706  133.6798  156.2133 LP  0  0  0  0  0  0  0  0  0  0  0  0  # atno 17395 bound_to 11000

$$$$
