AV-unprocessed.smi:653|AV-procd|sdf|3207|dock1
  -GOLD-   22720 0143D 1   1.00000     0.00000
 Structure written by MMmdl.
 44 45  0  0  0  0  0  0  0  0  1 V2000
  155.4846  138.6228  166.1616 C   0  0  0  0  0  0  0  0  0  0  0  0
  155.0946  138.2717  164.7409 C   0  0  0  0  0  0  0  0  0  0  0  0
  154.3805  137.0881  164.4592 C   0  0  0  0  0  0  0  0  0  0  0  0
  154.0430  136.8110  163.1205 C   0  0  0  0  0  0  0  0  0  0  0  0
  154.4311  137.7240  162.1181 C   0  0  0  0  0  0  0  0  0  0  0  0
  154.0998  137.4664  160.6589 C   0  0  0  0  0  0  0  0  0  0  0  0
  154.3054  138.7355  159.8308 C   0  0  0  0  0  0  0  0  0  0  0  0
  155.1740  138.7682  158.9595 O   0  0  0  0  0  0  0  0  0  0  0  0
  153.4990  139.7713  160.1109 N   0  0  0  0  0  0  0  0  0  0  0  0
  153.5392  141.0696  159.4480 C   0  0  0  0  0  0  0  0  0  0  0  0
  152.6405  142.1069  160.1497 C   0  0  1  0  0  0  0  0  0  0  0  0
  152.9421  142.3025  161.6231 C   0  0  0  0  0  0  0  0  0  0  0  0
  152.2794  143.6475  161.8960 C   0  0  0  0  0  0  0  0  0  0  0  0
  152.4434  144.4008  160.6993 O   0  0  0  0  0  0  0  0  0  0  0  0
  152.8092  143.5396  159.6216 C   0  0  2  0  0  0  0  0  0  0  0  0
  152.0256  143.8871  158.3351 C   0  0  0  0  0  0  0  0  0  0  0  0
  152.6221  145.1269  157.6503 C   0  0  0  0  0  0  0  0  0  0  0  0
  150.5151  144.0728  158.5689 C   0  0  0  0  0  0  0  0  0  0  0  0
  155.1394  138.8808  162.5074 C   0  0  0  0  0  0  0  0  0  0  0  0
  155.4680  139.1542  163.7880 N   0  0  0  0  0  0  0  0  0  0  0  0
  155.3913  137.7589  166.8201 H   0  0  0  0  0  0  0  0  0  0  0  0
  154.8411  139.4157  166.5435 H   0  0  0  0  0  0  0  0  0  0  0  0
  156.5182  138.9684  166.2027 H   0  0  0  0  0  0  0  0  0  0  0  0
  154.0980  136.4061  165.2477 H   0  0  0  0  0  0  0  0  0  0  0  0
  153.5004  135.9116  162.8682 H   0  0  0  0  0  0  0  0  0  0  0  0
  154.7332  136.6652  160.2755 H   0  0  0  0  0  0  0  0  0  0  0  0
  153.0677  137.1270  160.5611 H   0  0  0  0  0  0  0  0  0  0  0  0
  152.8142  139.6543  160.8440 H   0  0  0  0  0  0  0  0  0  0  0  0
  154.5746  141.4113  159.4407 H   0  0  0  0  0  0  0  0  0  0  0  0
  153.2463  140.9581  158.4029 H   0  0  0  0  0  0  0  0  0  0  0  0
  151.5987  141.8001  160.0626 H   0  0  0  0  0  0  0  0  0  0  0  0
  152.5507  141.5030  162.2528 H   0  0  0  0  0  0  0  0  0  0  0  0
  154.0180  142.3747  161.7883 H   0  0  0  0  0  0  0  0  0  0  0  0
  151.2123  143.5147  162.0780 H   0  0  0  0  0  0  0  0  0  0  0  0
  152.7098  144.1612  162.7558 H   0  0  0  0  0  0  0  0  0  0  0  0
  153.8730  143.7080  159.4451 H   0  0  0  0  0  0  0  0  0  0  0  0
  152.1480  143.0558  157.6398 H   0  0  0  0  0  0  0  0  0  0  0  0
  152.5348  146.0103  158.2836 H   0  0  0  0  0  0  0  0  0  0  0  0
  152.1130  145.3403  156.7100 H   0  0  0  0  0  0  0  0  0  0  0  0
  153.6790  144.9830  157.4239 H   0  0  0  0  0  0  0  0  0  0  0  0
  150.3179  144.8716  159.2846 H   0  0  0  0  0  0  0  0  0  0  0  0
  150.0439  143.1649  158.9430 H   0  0  0  0  0  0  0  0  0  0  0  0
  150.0078  144.3330  157.6397 H   0  0  0  0  0  0  0  0  0  0  0  0
  155.4569  139.6047  161.7711 H   0  0  0  0  0  0  0  0  0  0  0  0
  1  2  1  0  0  0  0
  1 21  1  0  0  0  0
  1 22  1  0  0  0  0
  1 23  1  0  0  0  0
  2 20  1  0  0  0  0
  2  3  2  0  0  0  0
  3  4  1  0  0  0  0
  3 24  1  0  0  0  0
  4  5  2  0  0  0  0
  4 25  1  0  0  0  0
  5  6  1  0  0  0  0
  5 19  1  0  0  0  0
  6  7  1  0  0  0  0
  6 26  1  0  0  0  0
  6 27  1  0  0  0  0
  7  8  2  0  0  0  0
  7  9  1  0  0  0  0
  9 10  1  0  0  0  0
  9 28  1  0  0  0  0
 10 11  1  0  0  0  0
 10 29  1  0  0  0  0
 10 30  1  0  0  0  0
 11 15  1  0  0  0  0
 11 12  1  0  0  0  0
 11 31  1  0  0  0  0
 12 13  1  0  0  0  0
 12 32  1  0  0  0  0
 12 33  1  0  0  0  0
 13 14  1  0  0  0  0
 13 34  1  0  0  0  0
 13 35  1  0  0  0  0
 14 15  1  0  0  0  0
 15 16  1  0  0  0  0
 15 36  1  0  0  0  0
 16 17  1  0  0  0  0
 16 18  1  0  0  0  0
 16 37  1  0  0  0  0
 17 38  1  0  0  0  0
 17 39  1  0  0  0  0
 17 40  1  0  0  0  0
 18 41  1  0  0  0  0
 18 42  1  0  0  0  0
 18 43  1  0  0  0  0
 19 20  2  0  0  0  0
 19 44  1  0  0  0  0
M  END
> <s_m_source_file>
AV-unprocessed.smi

> <i_m_source_file_index>
653

> <i_lp_mmshare_version>
43012

> <i_f3d_flags>
0

> <s_epik_input>
W0NIM11jMVtjSF1bY0hdYyhbY0hdbjEpW0NIMl1DKD1PKVtOSF1bQ0gyXVtDQEBIXTJbQ0gyXVtDSDJdT1tDQEhdMltDSF0oW0NIM10pW0NIM10=

> <s_epik_cmdline>
J2VwaWtfcHl0aG9uJywgJy1waCcsICc3LjAnLCAnLXRuJywgJzgnLCAnLW1hJywgJzIwMCcsICctbWV0YWxfYmluZGluZycsICctaW1hZScsICc8aW5maWxlLm1hZT4nLCAnLW9tYWUnLCAnPG91dGZpbGUubWFlPic=

> <r_epik_Ionization_Penalty>
0.0166429

> <r_epik_Ionization_Penalty_Charging>
0

> <r_epik_Ionization_Penalty_Neutral>
0.0166429

> <r_epik_State_Penalty>
0.0131478

> <r_epik_Charging_Adjusted_Penalty>
0.0131478

> <i_epik_Tot_Q>
0

> <i_epik_Tot_abs_Q>
0

> <r_epik_Metal_State_Penalty>
0.012786

> <b_epik_Metal_Only>
0

> <s_lp_Force_Field>
OPLS_2005

> <r_lp_Energy>
17.7281

> <b_lp_Chiralities_Consistent>
1

> <s_lp_Variant>
AV-unprocessed.smi:653-4

> <Gold.Version>
5.8.1

> <Gold.Id.Protein>
6NUR|6NUR_protein|mol2

> <Gold.PLP.Fitness>
47.0682

> <Gold.PLP.PLP>
-44.8870

> <Gold.PLP.part.hbond>
-1.0000

> <Gold.PLP.part.metal>
0.0000

> <Gold.PLP.part.buried>
-4.1546

> <Gold.PLP.part.nonpolar>
-40.1952

> <Gold.PLP.part.repulsive>
0.1709

> <Gold.PLP.ligand.clash>
0.0000

> <Gold.PLP.ligand.torsion>
0.5164

> <Gold.PLP.Chemscore.Hbond>
1.0000

> <Gold.PLP.Chemscore.CHOScore>
0.0000

> <Gold.PLP.Chemscore.Metal>
0.0000

> <Gold.Chemscore.Hbonds>
donor molecule, donor type, donor heavy atom, donor atom, acceptor molecule, acceptor atom, score
      P1  H  7997  8010       L1     8  1.00

> <Gold.PLP.Chemscore.Internal.Correction>
0.2140

> <Gold.Rescore>
     Score         DG    S(hbond)    S(metal)    S(lipo)     H(rot)  DE(clash)    DE(int)     intcor
     19.43     -21.24       0.99        0.00     138.82       1.48       1.37       0.44       ----

> <Gold.Chemscore.Fitness>
19.4302

> <Gold.Chemscore.DG>
-21.2370

> <Gold.Chemscore.ZeroCoef>
-5.4800

> <Gold.Chemscore.Hbond>
0.9930

> <Gold.Chemscore.Metal>
0.0000

> <Gold.Chemscore.Lipo>
138.8200

> <Gold.Chemscore.Internal_Hbond>
0.0000

> <Gold.Chemscore.DEClash>
1.3717

> <Gold.Chemscore.DEInternal>
0.4350

> <Gold.Chemscore.Rot>
1.4850

> <Gold.Chemscore.Internal.Correction>
   9.000000E+99

> <Gold.Chemscore.Hbonds>
donor molecule, donor type, donor heavy atom, donor atom, acceptor molecule, acceptor atom, score
      P1  H  7997  8010       L1     8  0.93

> <Gold.Chemscore.Hbond.Weighted>
-3.3165

> <Gold.Chemscore.Metal.Weighted>
-0.0000

> <Gold.Chemscore.Lipo.Weighted>
-16.2419

> <Gold.Chemscore.Internal_Hbond.Weighted>
0.0000

> <Gold.Chemscore.DEClash.Weighted>
1.3717

> <Gold.Chemscore.DEInternal.Weighted>
0.4350

> <Gold.Chemscore.Rot.Weighted>
3.8015

> <Gold.Chemscore.Internal.Correction.Weighted>
   9.000000E+99

> <Gold.Protein.RotatedTorsions>
[ 6907 6896 6895 6894 ] final -111.40 input  -60.11 | X-H torsion
[ 7974 7965 7964 7962 ] final  103.64 input  175.53 | X-H torsion
[ 8008 7997 7996 7995 ] final   -7.18 input   59.86 | X-H torsion
[ 10167 10162 10161 10158 ] final   31.33 input  -65.29 | X-H torsion
[ 10718 10713 10712 10709 ] final  -66.45 input   66.30 | X-H torsion
[ 10763 10752 10751 10750 ] final  -91.50 input  -60.55 | X-H torsion
[ 11005 11000 10999 10996 ] final -109.20 input  -57.11 | X-H torsion

> <Gold.Protein.ActiveResidues>
 VAL166  LYS551  ARG553  GLY616  TRP617  ASP618  TYR619  PRO620  LYS621  CYS622 
 ASP623  PHE694  ASN695  SER759  ASP760  ASP761  ALA762  ILE779  LEU786  VAL792 
 PHE793  MET794  SER795  GLU796  ALA797  LYS798  CYS799  TRP800  GLU811  SER814 

> <Gold.Protein.RotatedAtoms>
  150.7688  133.9241  159.3406 H   0  0  0  0  0  0  0  0  0  0  0  0  # atno 6907 bound_to 6896
  151.7132  135.0906  160.0281 H   0  0  0  0  0  0  0  0  0  0  0  0  # atno 6908 bound_to 6896
  152.3696  133.6363  159.6112 H   0  0  0  0  0  0  0  0  0  0  0  0  # atno 6909 bound_to 6896
  145.3433  139.2457  143.3598 H   0  0  0  0  0  0  0  0  0  0  0  0  # atno 7974 bound_to 7965
  154.5864  140.2414  155.7982 H   0  0  0  0  0  0  0  0  0  0  0  0  # atno 8008 bound_to 7997
  156.2216  140.2996  155.9921 H   0  0  0  0  0  0  0  0  0  0  0  0  # atno 8009 bound_to 7997
  155.2451  140.0408  157.2970 H   0  0  0  0  0  0  0  0  0  0  0  0  # atno 8010 bound_to 7997
  140.4599  144.0923  150.6210 H   0  0  0  0  0  0  0  0  0  0  0  0  # atno 10167 bound_to 10162
  156.0612  130.4262  150.1711 H   0  0  0  0  0  0  0  0  0  0  0  0  # atno 10718 bound_to 10713
  154.6767  135.5265  153.8209 H   0  0  0  0  0  0  0  0  0  0  0  0  # atno 10763 bound_to 10752
  153.0537  135.6542  154.0640 H   0  0  0  0  0  0  0  0  0  0  0  0  # atno 10764 bound_to 10752
  154.0532  135.2967  155.3317 H   0  0  0  0  0  0  0  0  0  0  0  0  # atno 10765 bound_to 10752
  141.0860  133.9137  157.2183 H   0  0  0  0  0  0  0  0  0  0  0  0  # atno 11005 bound_to 11000
  146.2998  140.4035  142.8708 LP  0  0  0  0  0  0  0  0  0  0  0  0  # atno 17320 bound_to 7965
  144.8773  140.7354  143.6008 LP  0  0  0  0  0  0  0  0  0  0  0  0  # atno 17321 bound_to 7965
  140.4106  143.2658  151.9837 LP  0  0  0  0  0  0  0  0  0  0  0  0  # atno 17342 bound_to 10162
  139.4805  144.5918  151.7758 LP  0  0  0  0  0  0  0  0  0  0  0  0  # atno 17343 bound_to 10162
  156.9779  130.9855  151.3444 LP  0  0  0  0  0  0  0  0  0  0  0  0  # atno 17370 bound_to 10713
  157.5621  130.8253  149.8280 LP  0  0  0  0  0  0  0  0  0  0  0  0  # atno 17371 bound_to 10713
  139.9679  135.0137  156.9435 LP  0  0  0  0  0  0  0  0  0  0  0  0  # atno 17394 bound_to 11000
  140.5361  134.0766  155.7328 LP  0  0  0  0  0  0  0  0  0  0  0  0  # atno 17395 bound_to 11000

$$$$
