#       Name:                AV-unprocessed.smi:1670
#       Creating user name   scv26
#       Creation time:       Fri Mar 27 07:42:38 2020


#       File generated by GOLD software.
#

@<TRIPOS>MOLECULE
AV-unprocessed.smi:1670
    46    47     1
SMALL
NO_CHARGES


@<TRIPOS>ATOM
      1 ****        -3.2101  -2.7879   1.7724 C.3            1 S1                 0.0000
      2 ****        -2.6443  -1.8516   0.6959 C.3            1 S1                 0.0000
      3 ****        -2.9292  -2.3894  -0.7231 C.3            1 S1                 0.0000
      4 ****        -2.5527  -1.4489  -1.7645 N.pl3          1 S1                 0.0000
      5 ****        -3.2148  -0.3083  -2.1668 C.2            1 S1                 0.0000
      6 ****        -2.4735   0.2623  -3.1615 C.2            1 S1                 0.0000
      7 ****        -1.3617  -0.6149  -3.3002 C.2            1 S1                 0.0000
      8 ****        -1.4145  -1.6414  -2.4669 N.2            1 S1                 0.0000
      9 ****        -1.2071  -1.6895   0.9133 N.am           1 S1                 0.0000
     10 ****        -0.5218  -0.5453   0.7732 C.2            1 S1                 0.0000
     11 ****        -1.0370   0.5340   0.4806 O.2            1 S1                 0.0000
     12 ****         0.7929  -0.7315   0.9678 N.am           1 S1                 0.0000
     13 ****         1.8584   0.2637   0.8379 C.3            1 S1                 0.0000
     14 ****         1.7306   1.4109   1.8632 C.3            1 S1                 0.0000
     15 ****         2.9110   2.3884   1.7421 C.3            1 S1                 0.0000
     16 ****         3.0362   2.9311   0.3068 C.3            1 S1                 0.0000
     17 ****         4.1674   3.7716   0.2187 O.3            1 S1                 0.0000
     18 ****         3.1675   1.7866  -0.7146 C.3            1 S1                 0.0000
     19 ****         1.9886   0.8064  -0.6023 C.3            1 S1                 0.0000
     20 ****        -4.2878  -2.9081   1.6592 H              1 S1                 0.0000
     21 ****        -3.0276  -2.3927   2.7722 H              1 S1                 0.0000
     22 ****        -2.7572  -3.7785   1.7170 H              1 S1                 0.0000
     23 ****        -3.1461  -0.8892   0.8118 H              1 S1                 0.0000
     24 ****        -2.4108  -3.3358  -0.8874 H              1 S1                 0.0000
     25 ****        -3.9942  -2.5966  -0.8353 H              1 S1                 0.0000
     26 ****        -4.1441   0.0018  -1.7116 H              1 S1                 0.0000
     27 ****        -2.6908   1.1702  -3.7043 H              1 S1                 0.0000
     28 ****        -0.5246  -0.5378  -3.9783 H              1 S1                 0.0000
     29 ****        -0.6900  -2.5230   1.1519 H              1 S1                 0.0000
     30 ****         1.0930  -1.6658   1.2048 H              1 S1                 0.0000
     31 ****         2.7780  -0.2764   1.0667 H              1 S1                 0.0000
     32 ****         0.8008   1.9596   1.7109 H              1 S1                 0.0000
     33 ****         1.6901   1.0070   2.8753 H              1 S1                 0.0000
     34 ****         2.7805   3.2121   2.4451 H              1 S1                 0.0000
     35 ****         3.8323   1.8790   2.0283 H              1 S1                 0.0000
     36 ****         2.1552   3.5286   0.0686 H              1 S1                 0.0000
     37 ****         4.9373   3.2605   0.4156 H              1 S1                 0.0000
     38 ****         3.2164   2.1903  -1.7267 H              1 S1                 0.0000
     39 ****         4.1020   1.2480  -0.5503 H              1 S1                 0.0000
     40 ****         2.1274  -0.0179  -1.3028 H              1 S1                 0.0000
     41 ****         1.0738   1.3171  -0.9043 H              1 S1                 0.0000
     42 ****        -0.7591  -2.3913  -2.3771 LP             1 S1                 0.0000
     43 ****        -2.0242   0.5930   0.3322 LP             1 S1                 0.0000
     44 ****        -0.4683   1.3517   0.3914 LP             1 S1                 0.0000
     45 ****         4.0829   4.5208   0.8757 LP             1 S1                 0.0000
     46 ****         4.2384   4.1457  -0.7060 LP             1 S1                 0.0000
@<TRIPOS>BOND
    1    1    2 1     
    2    1   20 1     
    3    1   21 1     
    4    1   22 1     
    5    2    3 1     
    6    2    9 1     
    7    2   23 1     
    8    3    4 1     
    9    3   24 1     
   10    3   25 1     
   11    4    8 1     
   12    4    5 1     
   13    5    6 2     
   14    5   26 1     
   15    6    7 1     
   16    6   27 1     
   17    7    8 2     
   18    7   28 1     
   19    9   10 am    
   20    9   29 1     
   21   10   11 2     
   22   10   12 am    
   23   12   13 1     
   24   12   30 1     
   25   13   19 1     
   26   13   14 1     
   27   13   31 1     
   28   14   15 1     
   29   14   32 1     
   30   14   33 1     
   31   15   16 1     
   32   15   34 1     
   33   15   35 1     
   34   16   17 1     
   35   16   18 1     
   36   16   36 1     
   37   17   37 1     
   38   18   19 1     
   39   18   38 1     
   40   18   39 1     
   41   19   40 1     
   42   19   41 1     
   43    8   42 1     
   44   11   43 1     
   45   11   44 1     
   46   17   45 1     
   47   17   46 1     
@<TRIPOS>SUBSTRUCTURE
      1 S1             1
@<TRIPOS>SET
LONE_PAIRS      STATIC     ATOMS    <user>   **** ""
5 42 43 44 45 46
DONOR_HYDROGENS      STATIC     ATOMS    <user>   **** ""
3 29 30 37
ATOM$BLUE        STATIC     ATOMS    COLORGROUP SYSTEM
5 42 43 44 45 46
ATOM$RED        STATIC     ATOMS    COLORGROUP SYSTEM
3 29 30 37
