#       Name:                AV-unprocessed.smi:2775
#       Creating user name   scv26
#       Creation time:       Fri Mar 27 15:14:02 2020


#       File generated by GOLD software.
#

@<TRIPOS>MOLECULE
AV-unprocessed.smi:2775
    47    50     1
SMALL
NO_CHARGES


@<TRIPOS>ATOM
      1 ****        -5.1540   1.9634   0.0520 C.3            1 S1                 0.0000
      2 ****        -4.3621   0.7869   0.5892 C.ar           1 S1                 0.0000
      3 ****        -5.0516  -0.2331   1.1459 N.pl3          1 S1                 1.0000
      4 ****        -4.4566  -1.3337   1.6504 C.ar           1 S1                 0.0000
      5 ****        -3.0538  -1.4533   1.6160 C.ar           1 S1                 0.0000
      6 ****        -2.2790  -0.4050   1.0575 C.ar           1 S1                 0.0000
      7 ****        -0.8600  -0.4380   0.9662 N.am           1 S1                 0.0000
      8 ****         0.0275  -1.1970   1.6373 C.2            1 S1                 0.0000
      9 ****        -0.2633  -2.0339   2.4886 O.2            1 S1                 0.0000
     10 ****         1.3073  -0.9582   1.3024 N.am           1 S1                 0.0000
     11 ****         2.5024  -1.6081   1.8426 C.3            1 S1                 0.0000
     12 ****         3.7719  -1.2507   1.0468 C.3            1 S1                 0.0000
     13 ****         4.5206  -2.3275   0.3092 C.3            1 S1                 0.0000
     14 ****         5.6401  -2.6965   1.2866 C.3            1 S1                 0.0000
     15 ****         5.1579  -2.2793   2.5620 O.3            1 S1                 0.0000
     16 ****         4.4809  -1.0394   2.3798 C.3            1 S1                 0.0000
     17 ****         3.1205  -0.9167   3.0769 C.3            1 S1                 0.0000
     18 ****         2.6443   0.4533   3.5965 C.3            1 S1                 0.0000
     19 ****         2.0019  -0.2639   4.7870 C.3            1 S1                 0.0000
     20 ****         2.9048  -1.4658   4.4943 C.3            1 S1                 0.0000
     21 ****        -2.9501   0.7245   0.5263 C.ar           1 S1                 0.0000
     22 ****        -2.0547   2.0224  -0.1909 Cl             1 S1                 0.0000
     23 ****        -4.8768   2.8779   0.5771 H              1 S1                 0.0000
     24 ****        -6.2269   1.8126   0.1778 H              1 S1                 0.0000
     25 ****        -4.9546   2.1023  -1.0108 H              1 S1                 0.0000
     26 ****        -5.1170  -2.0845   2.0595 H              1 S1                 0.0000
     27 ****        -2.6056  -2.3522   2.0093 H              1 S1                 0.0000
     28 ****        -0.4570   0.2474   0.3433 H              1 S1                 0.0000
     29 ****         1.4680  -0.2633   0.5871 H              1 S1                 0.0000
     30 ****         2.4105  -2.6879   1.9789 H              1 S1                 0.0000
     31 ****         3.6725  -0.3109   0.5002 H              1 S1                 0.0000
     32 ****         3.8772  -3.1861   0.1141 H              1 S1                 0.0000
     33 ****         4.9186  -1.9840  -0.6459 H              1 S1                 0.0000
     34 ****         5.8754  -3.7610   1.2746 H              1 S1                 0.0000
     35 ****         6.5505  -2.1428   1.0526 H              1 S1                 0.0000
     36 ****         5.1282  -0.1620   2.4112 H              1 S1                 0.0000
     37 ****         3.4726   1.0949   3.9006 H              1 S1                 0.0000
     38 ****         1.9438   0.9931   2.9594 H              1 S1                 0.0000
     39 ****         2.1780   0.2122   5.7520 H              1 S1                 0.0000
     40 ****         0.9444  -0.4795   4.6316 H              1 S1                 0.0000
     41 ****         2.4022  -2.4321   4.5396 H              1 S1                 0.0000
     42 ****         3.8188  -1.4594   5.0901 H              1 S1                 0.0000
     43 ****        -6.0694  -0.1704   1.1816 H              1 S1                 0.0000
     44 ****        -1.2213  -2.1914   2.7281 LP             1 S1                 0.0000
     45 ****         0.4580  -2.5574   2.9420 LP             1 S1                 0.0000
     46 ****         5.9235  -2.1605   3.1943 LP             1 S1                 0.0000
     47 ****         4.5261  -2.9625   2.9283 LP             1 S1                 0.0000
@<TRIPOS>BOND
    1    1    2 1     
    2    1   23 1     
    3    1   24 1     
    4    1   25 1     
    5    2   21 ar    
    6    2    3 ar    
    7    3    4 ar    
    8    3   43 1     
    9    4    5 ar    
   10    4   26 1     
   11    5    6 ar    
   12    5   27 1     
   13    6    7 1     
   14    6   21 ar    
   15    7    8 am    
   16    7   28 1     
   17    8    9 2     
   18    8   10 am    
   19   10   11 1     
   20   10   29 1     
   21   11   17 1     
   22   11   12 1     
   23   11   30 1     
   24   12   16 1     
   25   12   13 1     
   26   12   31 1     
   27   13   14 1     
   28   13   32 1     
   29   13   33 1     
   30   14   15 1     
   31   14   34 1     
   32   14   35 1     
   33   15   16 1     
   34   16   17 1     
   35   16   36 1     
   36   17   20 1     
   37   17   18 1     
   38   18   19 1     
   39   18   37 1     
   40   18   38 1     
   41   19   20 1     
   42   19   39 1     
   43   19   40 1     
   44   20   41 1     
   45   20   42 1     
   46   21   22 1     
   47    9   44 1     
   48    9   45 1     
   49   15   46 1     
   50   15   47 1     
@<TRIPOS>SUBSTRUCTURE
      1 S1             1
@<TRIPOS>SET
LONE_PAIRS      STATIC     ATOMS    <user>   **** ""
4 44 45 46 47
DONOR_HYDROGENS      STATIC     ATOMS    <user>   **** ""
3 43 28 29
ATOM$BLUE        STATIC     ATOMS    COLORGROUP SYSTEM
4 44 45 46 47
ATOM$RED        STATIC     ATOMS    COLORGROUP SYSTEM
3 43 28 29
