AV-unprocessed.smi:1633|AV-procd|sdf|6534|dock3
  -GOLD-   22720 7213D 1   1.00000     0.00000
 Structure written by MMmdl.
 52 54  0  0  0  0  0  0  0  0  3 V2000
  145.2842  133.4823  155.9956 C   0  0  0  0  0  0  0  0  0  0  0  0
  146.5874  132.9842  155.3668 C   0  0  0  0  0  0  0  0  0  0  0  0
  146.9407  131.8299  155.6062 O   0  0  0  0  0  0  0  0  0  0  0  0
  147.3044  133.8186  154.5763 N   0  0  0  0  0  0  0  0  0  0  0  0
  148.5855  133.4376  153.9747 C   0  0  0  0  0  0  0  0  0  0  0  0
  149.7074  134.2945  154.5883 C   0  0  0  0  0  0  0  0  0  0  0  0
  149.4252  135.7474  154.4410 N   0  3  0  0  0  0  0  0  0  0  0  0
  150.5142  136.5906  154.9988 C   0  0  0  0  0  0  0  0  0  0  0  0
  150.2225  138.1010  154.8863 C   0  0  2  0  0  0  0  0  0  0  0  0
  150.1241  138.4417  153.5172 O   0  0  0  0  0  0  0  0  0  0  0  0
  151.3285  138.9454  155.5499 C   0  0  0  0  0  0  0  0  0  0  0  0
  150.8912  140.3121  155.8719 N   0  0  0  0  0  0  0  0  0  0  0  0
  150.0460  141.1349  155.1925 C   0  0  0  0  0  0  0  0  0  0  0  0
  149.9502  142.2975  155.8949 N   0  3  0  0  0  0  0  0  0  0  0  0
  150.7438  142.2168  157.0408 C   0  0  0  0  0  0  0  0  0  0  0  0
  150.9720  143.1388  158.0553 C   0  0  0  0  0  0  0  0  0  0  0  0
  151.8474  142.7510  159.0943 C   0  0  0  0  0  0  0  0  0  0  0  0
  152.1238  143.7380  160.2158 C   0  0  0  0  0  0  0  0  0  0  0  0
  152.4578  141.4701  159.0946 C   0  0  0  0  0  0  0  0  0  0  0  0
  153.3962  141.0632  160.2180 C   0  0  0  0  0  0  0  0  0  0  0  0
  152.2113  140.5458  158.0541 C   0  0  0  0  0  0  0  0  0  0  0  0
  151.3488  140.9446  157.0352 C   0  0  0  0  0  0  0  0  0  0  0  0
  148.0690  136.1188  154.9318 C   0  0  0  0  0  0  0  0  0  0  0  0
  146.9828  135.2239  154.3076 C   0  0  0  0  0  0  0  0  0  0  0  0
  145.4691  134.3389  156.6443 H   0  0  0  0  0  0  0  0  0  0  0  0
  144.8266  132.6995  156.6017 H   0  0  0  0  0  0  0  0  0  0  0  0
  144.5668  133.7671  155.2254 H   0  0  0  0  0  0  0  0  0  0  0  0
  148.8198  132.3801  154.1046 H   0  0  0  0  0  0  0  0  0  0  0  0
  148.5358  133.6003  152.8970 H   0  0  0  0  0  0  0  0  0  0  0  0
  149.8201  134.0540  155.6470 H   0  0  0  0  0  0  0  0  0  0  0  0
  150.6543  134.0525  154.1042 H   0  0  0  0  0  0  0  0  0  0  0  0
  150.6896  136.3102  156.0385 H   0  0  0  0  0  0  0  0  0  0  0  0
  151.4438  136.3804  154.4671 H   0  0  0  0  0  0  0  0  0  0  0  0
  149.2744  138.3426  155.3656 H   0  0  0  0  0  0  0  0  0  0  0  0
  149.8296  137.6815  153.0384 H   0  0  0  0  0  0  0  0  0  0  0  0
  151.6341  138.4812  156.4883 H   0  0  0  0  0  0  0  0  0  0  0  0
  152.2236  138.9899  154.9287 H   0  0  0  0  0  0  0  0  0  0  0  0
  149.5400  140.9072  154.2653 H   0  0  0  0  0  0  0  0  0  0  0  0
  150.5026  144.1119  158.0499 H   0  0  0  0  0  0  0  0  0  0  0  0
  151.7801  143.3384  161.1701 H   0  0  0  0  0  0  0  0  0  0  0  0
  151.6129  144.6866  160.0478 H   0  0  0  0  0  0  0  0  0  0  0  0
  153.1914  143.9452  160.2909 H   0  0  0  0  0  0  0  0  0  0  0  0
  153.7357  140.0335  160.1018 H   0  0  0  0  0  0  0  0  0  0  0  0
  152.8960  141.1398  161.1837 H   0  0  0  0  0  0  0  0  0  0  0  0
  154.2770  141.7058  160.2309 H   0  0  0  0  0  0  0  0  0  0  0  0
  152.6813  139.5736  158.0550 H   0  0  0  0  0  0  0  0  0  0  0  0
  148.0396  136.0286  156.0191 H   0  0  0  0  0  0  0  0  0  0  0  0
  147.8494  137.1588  154.6941 H   0  0  0  0  0  0  0  0  0  0  0  0
  146.9501  135.3782  153.2280 H   0  0  0  0  0  0  0  0  0  0  0  0
  146.0037  135.5288  154.6741 H   0  0  0  0  0  0  0  0  0  0  0  0
  149.4241  135.9205  153.4453 H   0  0  0  0  0  0  0  0  0  0  0  0
  149.3819  143.0860  155.6122 H   0  0  0  0  0  0  0  0  0  0  0  0
  1  2  1  0  0  0  0
  1 25  1  0  0  0  0
  1 26  1  0  0  0  0
  1 27  1  0  0  0  0
  2  3  2  0  0  0  0
  2  4  1  0  0  0  0
  4 24  1  0  0  0  0
  4  5  1  0  0  0  0
  5  6  1  0  0  0  0
  5 28  1  0  0  0  0
  5 29  1  0  0  0  0
  6  7  1  0  0  0  0
  6 30  1  0  0  0  0
  6 31  1  0  0  0  0
  7  8  1  0  0  0  0
  7 23  1  0  0  0  0
  7 51  1  0  0  0  0
  8  9  1  0  0  0  0
  8 32  1  0  0  0  0
  8 33  1  0  0  0  0
  9 10  1  0  0  0  0
  9 11  1  0  0  0  0
  9 34  1  0  0  0  0
 10 35  1  0  0  0  0
 11 12  1  0  0  0  0
 11 36  1  0  0  0  0
 11 37  1  0  0  0  0
 12 22  1  0  0  0  0
 12 13  1  0  0  0  0
 13 14  2  0  0  0  0
 13 38  1  0  0  0  0
 14 15  1  0  0  0  0
 14 52  1  0  0  0  0
 15 22  2  0  0  0  0
 15 16  1  0  0  0  0
 16 17  2  0  0  0  0
 16 39  1  0  0  0  0
 17 18  1  0  0  0  0
 17 19  1  0  0  0  0
 18 40  1  0  0  0  0
 18 41  1  0  0  0  0
 18 42  1  0  0  0  0
 19 20  1  0  0  0  0
 19 21  2  0  0  0  0
 20 43  1  0  0  0  0
 20 44  1  0  0  0  0
 20 45  1  0  0  0  0
 21 22  1  0  0  0  0
 21 46  1  0  0  0  0
 23 24  1  0  0  0  0
 23 47  1  0  0  0  0
 23 48  1  0  0  0  0
 24 49  1  0  0  0  0
 24 50  1  0  0  0  0
M  CHG  1   7   1
M  CHG  1  14   1
M  END
> <s_m_source_file>
AV-unprocessed.smi

> <i_m_source_file_index>
1633

> <i_lp_mmshare_version>
43012

> <i_f3d_flags>
0

> <s_epik_input>
W0NIM11DKD1PKU4xW0NIMl1bQ0gyXU4oW0NIMl1bQ0gyXTEpW0NIMl1bQ0BIXShbT0hdKVtDSDJdbihbY0hdbjIpYyhjMjMpW2NIXWMoW0NIM10pYyhbY0hdMylbQ0gzXQ==

> <s_epik_cmdline>
J2VwaWtfcHl0aG9uJywgJy1waCcsICc3LjAnLCAnLXRuJywgJzgnLCAnLW1hJywgJzIwMCcsICctbWV0YWxfYmluZGluZycsICctaW1hZScsICc8aW5maWxlLm1hZT4nLCAnLW9tYWUnLCAnPG91dGZpbGUubWFlPic=

> <r_epik_Ionization_Penalty>
1.18448

> <r_epik_Ionization_Penalty_Charging>
1.18447

> <r_epik_Ionization_Penalty_Neutral>
4.53746e-06

> <r_epik_State_Penalty>
1.28566

> <r_epik_Charging_Adjusted_Penalty>
2.47013

> <i_epik_Tot_Q>
2

> <i_epik_Tot_abs_Q>
2

> <r_epik_Metal_State_Penalty>
5.30076

> <b_epik_Metal_Only>
0

> <s_lp_Force_Field>
OPLS_2005

> <r_lp_Energy>
52.9318

> <b_lp_Chiralities_Consistent>
1

> <s_lp_Variant>
AV-unprocessed.smi:1633-3

> <Gold.Version>
5.8.1

> <Gold.Id.Protein>
6NUR|6NUR_protein|mol2

> <Gold.PLP.Fitness>
57.2711

> <Gold.PLP.PLP>
-43.3488

> <Gold.PLP.part.hbond>
-4.0000

> <Gold.PLP.part.metal>
0.0000

> <Gold.PLP.part.buried>
-3.3855

> <Gold.PLP.part.nonpolar>
-35.4779

> <Gold.PLP.part.repulsive>
0.1962

> <Gold.PLP.ligand.clash>
0.0000

> <Gold.PLP.ligand.torsion>
0.5547

> <Gold.PLP.Chemscore.Hbond>
5.0000

> <Gold.PLP.Chemscore.CHOScore>
0.0000

> <Gold.PLP.Chemscore.Metal>
0.0000

> <Gold.Chemscore.Hbonds>
donor molecule, donor type, donor heavy atom, donor atom, acceptor molecule, acceptor atom, score
      L1  H     7    51       P1  7948  2.00
      L1  H    10    35       P1  7948  1.00
      L1  H    14    52       P1  8028  2.00

> <Gold.PLP.Chemscore.Internal.Correction>
0.0318

> <Gold.Rescore>
     Score         DG    S(hbond)    S(metal)    S(lipo)     H(rot)  DE(clash)    DE(int)     intcor
     21.21     -21.72       2.91        0.00     104.16       2.22       0.02       0.49       ----

> <Gold.Chemscore.Fitness>
21.2135

> <Gold.Chemscore.DG>
-21.7235

> <Gold.Chemscore.ZeroCoef>
-5.4800

> <Gold.Chemscore.Hbond>
2.9143

> <Gold.Chemscore.Metal>
0.0000

> <Gold.Chemscore.Lipo>
104.1640

> <Gold.Chemscore.Internal_Hbond>
0.0000

> <Gold.Chemscore.DEClash>
0.0174

> <Gold.Chemscore.DEInternal>
0.4926

> <Gold.Chemscore.Rot>
2.2178

> <Gold.Chemscore.Internal.Correction>
   9.000000E+99

> <Gold.Chemscore.Hbonds>
donor molecule, donor type, donor heavy atom, donor atom, acceptor molecule, acceptor atom, score
      L1  H     7    51       P1  7948  0.45
      L1  H    10    35       P1  7948  0.47
      L1  H    14    52       P1  8028  0.98

> <Gold.Chemscore.Hbond.Weighted>
-9.7339

> <Gold.Chemscore.Metal.Weighted>
-0.0000

> <Gold.Chemscore.Lipo.Weighted>
-12.1872

> <Gold.Chemscore.Internal_Hbond.Weighted>
0.0000

> <Gold.Chemscore.DEClash.Weighted>
0.0174

> <Gold.Chemscore.DEInternal.Weighted>
0.4926

> <Gold.Chemscore.Rot.Weighted>
5.6775

> <Gold.Chemscore.Internal.Correction.Weighted>
   9.000000E+99

> <Gold.Protein.RotatedTorsions>
[ 6907 6896 6895 6894 ] final  -92.86 input  -60.11 | X-H torsion
[ 7974 7965 7964 7962 ] final   34.21 input  175.53 | X-H torsion
[ 8008 7997 7996 7995 ] final  125.46 input   59.86 | X-H torsion
[ 10167 10162 10161 10158 ] final -152.16 input  -65.29 | X-H torsion
[ 10718 10713 10712 10709 ] final   17.01 input   66.30 | X-H torsion
[ 10763 10752 10751 10750 ] final  -93.58 input  -60.55 | X-H torsion
[ 11005 11000 10999 10996 ] final  -39.86 input  -57.11 | X-H torsion

> <Gold.Protein.ActiveResidues>
 VAL166  LYS551  ARG553  GLY616  TRP617  ASP618  TYR619  PRO620  LYS621  CYS622 
 ASP623  PHE694  ASN695  SER759  ASP760  ASP761  ALA762  ILE779  LEU786  VAL792 
 PHE793  MET794  SER795  GLU796  ALA797  LYS798  CYS799  TRP800  GLU811  SER814 

> <Gold.Protein.RotatedAtoms>
  150.6913  134.2057  159.4339 H   0  0  0  0  0  0  0  0  0  0  0  0  # atno 6907 bound_to 6896
  152.0021  134.9920  160.0574 H   0  0  0  0  0  0  0  0  0  0  0  0  # atno 6908 bound_to 6896
  152.1569  133.4522  159.4878 H   0  0  0  0  0  0  0  0  0  0  0  0  # atno 6909 bound_to 6896
  146.1368  139.6298  142.9190 H   0  0  0  0  0  0  0  0  0  0  0  0  # atno 7974 bound_to 7965
  156.2834  140.2716  156.1953 H   0  0  0  0  0  0  0  0  0  0  0  0  # atno 8008 bound_to 7997
  155.0417  140.0386  157.2530 H   0  0  0  0  0  0  0  0  0  0  0  0  # atno 8009 bound_to 7997
  154.7269  140.2699  155.6496 H   0  0  0  0  0  0  0  0  0  0  0  0  # atno 8010 bound_to 7997
  139.7205  143.8965  152.2501 H   0  0  0  0  0  0  0  0  0  0  0  0  # atno 10167 bound_to 10162
  157.0760  130.6368  149.5816 H   0  0  0  0  0  0  0  0  0  0  0  0  # atno 10718 bound_to 10713
  154.6973  135.5189  153.8476 H   0  0  0  0  0  0  0  0  0  0  0  0  # atno 10763 bound_to 10752
  153.0677  135.6590  154.0327 H   0  0  0  0  0  0  0  0  0  0  0  0  # atno 10764 bound_to 10752
  154.0192  135.2995  155.3362 H   0  0  0  0  0  0  0  0  0  0  0  0  # atno 10765 bound_to 10752
  141.0132  133.6898  156.2243 H   0  0  0  0  0  0  0  0  0  0  0  0  # atno 11005 bound_to 11000
  145.5137  141.0434  143.2474 LP  0  0  0  0  0  0  0  0  0  0  0  0  # atno 17320 bound_to 7965
  144.7749  139.6653  143.7179 LP  0  0  0  0  0  0  0  0  0  0  0  0  # atno 17321 bound_to 7965
  139.8859  144.6992  150.8825 LP  0  0  0  0  0  0  0  0  0  0  0  0  # atno 17342 bound_to 10162
  140.7752  143.3624  151.1803 LP  0  0  0  0  0  0  0  0  0  0  0  0  # atno 17343 bound_to 10162
  155.9937  130.4998  150.7390 LP  0  0  0  0  0  0  0  0  0  0  0  0  # atno 17370 bound_to 10713
  157.4839  131.0905  151.0505 LP  0  0  0  0  0  0  0  0  0  0  0  0  # atno 17371 bound_to 10713
  140.6698  134.4880  157.5587 LP  0  0  0  0  0  0  0  0  0  0  0  0  # atno 17394 bound_to 11000
  139.9102  134.8361  156.1556 LP  0  0  0  0  0  0  0  0  0  0  0  0  # atno 17395 bound_to 11000

$$$$
