AV-unprocessed.smi:442|AV-procd|sdf|2583|dock2
  -GOLD-   2262022573D 1   1.00000     0.00000
 Structure written by MMmdl.
 37 37  0  0  0  0  0  0  0  0  3 V2000
  151.2792  145.1726  160.3874 C   0  0  0  0  0  0  0  0  0  0  0  0
  152.0906  143.8893  160.1570 C   0  0  0  0  0  0  0  0  0  0  0  0
  152.4613  143.6385  158.6818 C   0  0  2  0  0  0  0  0  0  0  0  0
  152.7531  144.9509  157.9410 C   0  0  0  0  0  0  0  0  0  0  0  0
  151.3844  142.9301  157.9916 N   0  0  0  0  0  0  0  0  0  0  0  0
  150.7395  141.8421  158.4414 C   0  0  0  0  0  0  0  0  0  0  0  0
  150.9764  141.3128  159.5281 O   0  0  0  0  0  0  0  0  0  0  0  0
  149.6410  141.2889  157.5223 C   0  0  0  0  0  0  0  0  0  0  0  0
  149.7357  139.8323  157.3142 N   0  0  0  0  0  0  0  0  0  0  0  0
  149.2975  139.0177  158.3734 C   0  0  0  0  0  0  0  0  0  0  0  0
  149.3408  137.6754  158.3112 C   0  0  0  0  0  0  0  0  0  0  0  0
  148.8901  136.8590  159.4180 N   0  3  0  0  0  0  0  0  0  0  0  0
  148.2814  137.3963  160.3376 O   0  0  0  0  0  0  0  0  0  0  0  0
  149.1297  135.6552  159.4065 O   0  5  0  0  0  0  0  0  0  0  0  0
  149.8578  137.0703  157.1011 C   0  0  0  0  0  0  0  0  0  0  0  0
  150.2911  137.8367  156.0676 C   0  0  0  0  0  0  0  0  0  0  0  0
  150.8256  137.2617  154.8127 C   0  0  0  0  0  0  0  0  0  0  0  0
  150.5877  138.0013  153.7221 N   0  0  0  0  0  0  0  0  0  0  0  0
  151.4445  136.2052  154.6879 O   0  0  0  0  0  0  0  0  0  0  0  0
  150.2442  139.3221  156.1489 C   0  0  0  0  0  0  0  0  0  0  0  0
  150.6247  140.0887  155.2598 O   0  0  0  0  0  0  0  0  0  0  0  0
  150.9958  145.2670  161.4357 H   0  0  0  0  0  0  0  0  0  0  0  0
  150.3640  145.1711  159.7947 H   0  0  0  0  0  0  0  0  0  0  0  0
  151.8502  146.0621  160.1207 H   0  0  0  0  0  0  0  0  0  0  0  0
  152.9957  143.9227  160.7651 H   0  0  0  0  0  0  0  0  0  0  0  0
  151.5098  143.0433  160.5263 H   0  0  0  0  0  0  0  0  0  0  0  0
  153.3773  143.0454  158.6592 H   0  0  0  0  0  0  0  0  0  0  0  0
  153.5715  145.4947  158.4138 H   0  0  0  0  0  0  0  0  0  0  0  0
  151.8810  145.6058  157.9310 H   0  0  0  0  0  0  0  0  0  0  0  0
  153.0403  144.7622  156.9060 H   0  0  0  0  0  0  0  0  0  0  0  0
  151.1124  143.2955  157.0906 H   0  0  0  0  0  0  0  0  0  0  0  0
  148.6751  141.5538  157.9544 H   0  0  0  0  0  0  0  0  0  0  0  0
  149.6712  141.8116  156.5642 H   0  0  0  0  0  0  0  0  0  0  0  0
  148.9372  139.5593  159.2361 H   0  0  0  0  0  0  0  0  0  0  0  0
  149.8855  135.9924  157.0472 H   0  0  0  0  0  0  0  0  0  0  0  0
  150.9147  137.6927  152.8184 H   0  0  0  0  0  0  0  0  0  0  0  0
  150.0807  138.8701  153.8099 H   0  0  0  0  0  0  0  0  0  0  0  0
  1  2  1  0  0  0  0
  1 22  1  0  0  0  0
  1 23  1  0  0  0  0
  1 24  1  0  0  0  0
  2  3  1  0  0  0  0
  2 25  1  0  0  0  0
  2 26  1  0  0  0  0
  3  4  1  0  0  0  0
  3  5  1  0  0  0  0
  3 27  1  0  0  0  0
  4 28  1  0  0  0  0
  4 29  1  0  0  0  0
  4 30  1  0  0  0  0
  5  6  1  0  0  0  0
  5 31  1  0  0  0  0
  6  7  2  0  0  0  0
  6  8  1  0  0  0  0
  8  9  1  0  0  0  0
  8 32  1  0  0  0  0
  8 33  1  0  0  0  0
  9 20  1  0  0  0  0
  9 10  1  0  0  0  0
 10 11  2  0  0  0  0
 10 34  1  0  0  0  0
 11 12  1  0  0  0  0
 11 15  1  0  0  0  0
 12 13  2  0  0  0  0
 12 14  1  0  0  0  0
 15 16  2  0  0  0  0
 15 35  1  0  0  0  0
 16 17  1  0  0  0  0
 16 20  1  0  0  0  0
 17 18  1  0  0  0  0
 17 19  2  0  0  0  0
 18 36  1  0  0  0  0
 18 37  1  0  0  0  0
 20 21  2  0  0  0  0
M  CHG  1  12   1
M  CHG  1  14  -1
M  END
> <s_m_source_file>
AV-unprocessed.smi

> <i_m_source_file_index>
442

> <i_lp_mmshare_version>
43012

> <i_f3d_flags>
0

> <s_epik_input>
W0NIM11bQ0gyXVtDQEhdKFtDSDNdKVtOSF1DKD1PKVtDSDJdbjFbY0hdYyhbTitdKD1PKVtPLV0pW2NIXWMoYzE9TylDKD1PKVtOSDJd

> <s_epik_cmdline>
J2VwaWtfcHl0aG9uJywgJy1waCcsICc3LjAnLCAnLXRuJywgJzgnLCAnLW1hJywgJzIwMCcsICctbWV0YWxfYmluZGluZycsICctaW1hZScsICc8aW5maWxlLm1hZT4nLCAnLW9tYWUnLCAnPG91dGZpbGUubWFlPic=

> <r_lp_tautomer_probability>
1

> <r_epik_Ionization_Penalty>
2.86914e-06

> <r_epik_Ionization_Penalty_Charging>
2.2828e-12

> <r_epik_Ionization_Penalty_Neutral>
2.86914e-06

> <r_epik_State_Penalty>
-0

> <r_epik_Charging_Adjusted_Penalty>
2.2828e-12

> <i_epik_Tot_Q>
0

> <i_epik_Tot_abs_Q>
2

> <r_epik_Metal_State_Penalty>
-0

> <b_epik_Metal_Only>
0

> <s_lp_Force_Field>
OPLS_2005

> <r_lp_Energy>
21.8648

> <b_lp_Chiralities_Consistent>
1

> <s_lp_Variant>
AV-unprocessed.smi:442-1

> <Gold.Version>
5.8.1

> <Gold.Id.Protein>
6NUR|6NUR_protein|mol2

> <Gold.PLP.Fitness>
45.5095

> <Gold.PLP.PLP>
-33.1935

> <Gold.PLP.part.hbond>
-7.8705

> <Gold.PLP.part.metal>
0.0000

> <Gold.PLP.part.buried>
-4.7493

> <Gold.PLP.part.nonpolar>
-22.3574

> <Gold.PLP.part.repulsive>
0.5599

> <Gold.PLP.ligand.clash>
0.0000

> <Gold.PLP.ligand.torsion>
1.1982

> <Gold.PLP.Chemscore.Hbond>
4.8761

> <Gold.PLP.Chemscore.CHOScore>
0.0000

> <Gold.PLP.Chemscore.Metal>
0.0000

> <Gold.Chemscore.Hbonds>
donor molecule, donor type, donor heavy atom, donor atom, acceptor molecule, acceptor atom, score
      L1  H    18    36       P1  7949  0.54
      P1  H  6896  6907       L1    14  1.00
      P1  H  6931  6943       L1    13  0.61
      P1  H  6934  6947       L1    13  0.57
      P1  H  7989  7998       L1    21  0.65
      P1  H 10752 10763       L1    19  0.94

> <Gold.PLP.Chemscore.Internal.Correction>
0.0842

> <Gold.Rescore>
     Score         DG    S(hbond)    S(metal)    S(lipo)     H(rot)  DE(clash)    DE(int)     intcor
     17.09     -22.23       4.24        0.00      66.75       2.03       0.11       5.03       ----

> <Gold.Chemscore.Fitness>
17.0860

> <Gold.Chemscore.DG>
-22.2322

> <Gold.Chemscore.ZeroCoef>
-5.4800

> <Gold.Chemscore.Hbond>
4.2364

> <Gold.Chemscore.Metal>
0.0000

> <Gold.Chemscore.Lipo>
66.7506

> <Gold.Chemscore.Internal_Hbond>
0.0000

> <Gold.Chemscore.DEClash>
0.1128

> <Gold.Chemscore.DEInternal>
5.0333

> <Gold.Chemscore.Rot>
2.0340

> <Gold.Chemscore.Internal.Correction>
   9.000000E+99

> <Gold.Chemscore.Hbonds>
donor molecule, donor type, donor heavy atom, donor atom, acceptor molecule, acceptor atom, score
      L1  H    18    36       P1  7949  0.10
      P1  H  6896  6907       L1    14  0.99
      P1  H  6931  6943       L1    13  0.60
      P1  H  6934  6947       L1    13  0.54
      P1  H  7989  7998       L1    21  0.64
      P1  H 10752 10763       L1    19  0.91

> <Gold.Chemscore.Hbond.Weighted>
-14.1495

> <Gold.Chemscore.Metal.Weighted>
-0.0000

> <Gold.Chemscore.Lipo.Weighted>
-7.8098

> <Gold.Chemscore.Internal_Hbond.Weighted>
0.0000

> <Gold.Chemscore.DEClash.Weighted>
0.1128

> <Gold.Chemscore.DEInternal.Weighted>
5.0333

> <Gold.Chemscore.Rot.Weighted>
5.2071

> <Gold.Chemscore.Internal.Correction.Weighted>
   9.000000E+99

> <Gold.Protein.RotatedTorsions>
[ 6907 6896 6895 6894 ] final  -51.03 input  -60.11 | X-H torsion
[ 7974 7965 7964 7962 ] final  129.54 input  175.53 | X-H torsion
[ 8008 7997 7996 7995 ] final -137.55 input   59.86 | X-H torsion
[ 10167 10162 10161 10158 ] final   95.03 input  -65.29 | X-H torsion
[ 10718 10713 10712 10709 ] final  172.17 input   66.30 | X-H torsion
[ 10763 10752 10751 10750 ] final   31.33 input  -60.55 | X-H torsion
[ 11005 11000 10999 10996 ] final  -53.82 input  -57.11 | X-H torsion

> <Gold.Protein.ActiveResidues>
 VAL166  LYS551  ARG553  GLY616  TRP617  ASP618  TYR619  PRO620  LYS621  CYS622 
 ASP623  PHE694  ASN695  SER759  ASP760  ASP761  ALA762  ILE779  LEU786  VAL792 
 PHE793  MET794  SER795  GLU796  ALA797  LYS798  CYS799  TRP800  GLU811  SER814 

> <Gold.Protein.RotatedAtoms>
  150.8651  134.8012  159.7111 H   0  0  0  0  0  0  0  0  0  0  0  0  # atno 6907 bound_to 6896
  152.4675  134.5037  159.9742 H   0  0  0  0  0  0  0  0  0  0  0  0  # atno 6908 bound_to 6896
  151.5135  133.3442  159.2924 H   0  0  0  0  0  0  0  0  0  0  0  0  # atno 6909 bound_to 6896
  145.0275  139.4076  143.5166 H   0  0  0  0  0  0  0  0  0  0  0  0  # atno 7974 bound_to 7965
  155.4137  140.0514  157.3030 H   0  0  0  0  0  0  0  0  0  0  0  0  # atno 8008 bound_to 7997
  154.4934  140.2129  155.9458 H   0  0  0  0  0  0  0  0  0  0  0  0  # atno 8009 bound_to 7997
  156.1373  140.3161  155.8446 H   0  0  0  0  0  0  0  0  0  0  0  0  # atno 8010 bound_to 7997
  139.8027  144.6807  150.9744 H   0  0  0  0  0  0  0  0  0  0  0  0  # atno 10167 bound_to 10162
  156.9828  131.0124  151.2877 H   0  0  0  0  0  0  0  0  0  0  0  0  # atno 10718 bound_to 10713
  153.0321  135.6441  154.1183 H   0  0  0  0  0  0  0  0  0  0  0  0  # atno 10763 bound_to 10752
  154.0904  135.2867  155.3274 H   0  0  0  0  0  0  0  0  0  0  0  0  # atno 10764 bound_to 10752
  154.6469  135.5440  153.7919 H   0  0  0  0  0  0  0  0  0  0  0  0  # atno 10765 bound_to 10752
  141.0995  133.6620  156.4229 H   0  0  0  0  0  0  0  0  0  0  0  0  # atno 11005 bound_to 11000
  146.3494  139.9807  142.8696 LP  0  0  0  0  0  0  0  0  0  0  0  0  # atno 17320 bound_to 7965
  145.1814  140.9769  143.4264 LP  0  0  0  0  0  0  0  0  0  0  0  0  # atno 17321 bound_to 7965
  140.7820  143.4265  151.0760 LP  0  0  0  0  0  0  0  0  0  0  0  0  # atno 17342 bound_to 10162
  139.7936  143.8183  152.3155 LP  0  0  0  0  0  0  0  0  0  0  0  0  # atno 17343 bound_to 10162
  157.5514  130.8185  149.8150 LP  0  0  0  0  0  0  0  0  0  0  0  0  # atno 17370 bound_to 10713
  156.0238  130.3786  150.1884 LP  0  0  0  0  0  0  0  0  0  0  0  0  # atno 17371 bound_to 10713
  140.5057  134.6443  157.5265 LP  0  0  0  0  0  0  0  0  0  0  0  0  # atno 17394 bound_to 11000
  139.9842  134.7088  155.9804 LP  0  0  0  0  0  0  0  0  0  0  0  0  # atno 17395 bound_to 11000

$$$$
