AV-unprocessed.smi:1641|AV-procd|sdf|6567|dock3
  -GOLD-   22720 7253D 1   1.00000     0.00000
 Structure written by MMmdl.
 41 42  0  0  0  0  0  0  0  0  3 V2000
  151.4512  140.5617  157.7649 C   0  0  0  0  0  0  0  0  0  0  0  0
  151.6297  139.4708  156.7653 C   0  0  0  0  0  0  0  0  0  0  0  0
  152.7166  139.3653  155.9970 N   0  0  0  0  0  0  0  0  0  0  0  0
  152.6524  138.2694  155.1486 N   0  0  0  0  0  0  0  0  0  0  0  0
  151.5258  137.5572  155.2937 C   0  0  0  0  0  0  0  0  0  0  0  0
  151.2689  136.4583  154.5651 N   0  5  0  0  0  0  0  0  0  0  0  0
  150.4055  135.5275  155.0291 C   0  0  0  0  0  0  0  0  0  0  0  0
  150.1872  135.2568  156.2124 O   0  0  0  0  0  0  0  0  0  0  0  0
  149.7547  134.8656  154.0619 N   0  0  0  0  0  0  0  0  0  0  0  0
  148.7781  133.8035  154.2706 C   0  0  0  0  0  0  0  0  0  0  0  0
  149.1671  132.5282  153.5005 C   0  0  0  0  0  0  0  0  0  0  0  0
  148.0311  131.9762  152.7224 N   0  3  1  0  0  0  0  0  0  0  0  0
  147.1929  131.0505  153.5206 C   0  0  0  0  0  0  0  0  0  0  0  0
  146.0601  130.4476  152.6667 C   0  0  2  0  0  0  0  0  0  0  0  0
  146.5433  129.3827  151.6659 C   0  0  0  0  0  0  0  0  0  0  0  0
  145.3137  131.4863  152.0322 O   0  0  0  0  0  0  0  0  0  0  0  0
  146.0872  132.3756  151.2305 C   0  0  1  0  0  0  0  0  0  0  0  0
  145.1370  133.4216  150.6373 C   0  0  0  0  0  0  0  0  0  0  0  0
  147.1868  133.0202  152.0933 C   0  0  0  0  0  0  0  0  0  0  0  0
  150.4273  138.2184  156.5046 S   0  0  0  0  0  0  0  0  0  0  0  0
  151.9863  140.3166  158.6825 H   0  0  0  0  0  0  0  0  0  0  0  0
  150.3941  140.6908  157.9989 H   0  0  0  0  0  0  0  0  0  0  0  0
  151.8378  141.5024  157.3721 H   0  0  0  0  0  0  0  0  0  0  0  0
  149.9605  135.1206  153.1068 H   0  0  0  0  0  0  0  0  0  0  0  0
  148.6753  133.6134  155.3392 H   0  0  0  0  0  0  0  0  0  0  0  0
  147.8085  134.1639  153.9259 H   0  0  0  0  0  0  0  0  0  0  0  0
  149.9813  132.7815  152.8197 H   0  0  0  0  0  0  0  0  0  0  0  0
  149.5575  131.7624  154.1728 H   0  0  0  0  0  0  0  0  0  0  0  0
  147.8066  130.2517  153.9392 H   0  0  0  0  0  0  0  0  0  0  0  0
  146.7671  131.5960  154.3644 H   0  0  0  0  0  0  0  0  0  0  0  0
  145.3655  129.9490  153.3435 H   0  0  0  0  0  0  0  0  0  0  0  0
  146.9883  128.5356  152.1886 H   0  0  0  0  0  0  0  0  0  0  0  0
  147.2958  129.7696  150.9794 H   0  0  0  0  0  0  0  0  0  0  0  0
  145.7120  129.0020  151.0721 H   0  0  0  0  0  0  0  0  0  0  0  0
  146.5423  131.8273  150.4055 H   0  0  0  0  0  0  0  0  0  0  0  0
  145.6751  134.1260  150.0022 H   0  0  0  0  0  0  0  0  0  0  0  0
  144.6379  133.9920  151.4214 H   0  0  0  0  0  0  0  0  0  0  0  0
  144.3665  132.9477  150.0286 H   0  0  0  0  0  0  0  0  0  0  0  0
  146.7406  133.6439  152.8699 H   0  0  0  0  0  0  0  0  0  0  0  0
  147.7948  133.6760  151.4711 H   0  0  0  0  0  0  0  0  0  0  0  0
  148.4329  131.4255  151.9772 H   0  0  0  0  0  0  0  0  0  0  0  0
  1  2  1  0  0  0  0
  1 21  1  0  0  0  0
  1 22  1  0  0  0  0
  1 23  1  0  0  0  0
  2 20  1  0  0  0  0
  2  3  2  0  0  0  0
  3  4  1  0  0  0  0
  4  5  2  0  0  0  0
  5  6  1  0  0  0  0
  5 20  1  0  0  0  0
  6  7  1  0  0  0  0
  7  8  2  0  0  0  0
  7  9  1  0  0  0  0
  9 10  1  0  0  0  0
  9 24  1  0  0  0  0
 10 11  1  0  0  0  0
 10 25  1  0  0  0  0
 10 26  1  0  0  0  0
 11 12  1  0  0  0  0
 11 27  1  0  0  0  0
 11 28  1  0  0  0  0
 12 19  1  0  0  0  0
 12 13  1  0  0  0  0
 12 41  1  0  0  0  0
 13 14  1  0  0  0  0
 13 29  1  0  0  0  0
 13 30  1  0  0  0  0
 14 15  1  0  0  0  0
 14 16  1  0  0  0  0
 14 31  1  0  0  0  0
 15 32  1  0  0  0  0
 15 33  1  0  0  0  0
 15 34  1  0  0  0  0
 16 17  1  0  0  0  0
 17 18  1  0  0  0  0
 17 19  1  0  0  0  0
 17 35  1  0  0  0  0
 18 36  1  0  0  0  0
 18 37  1  0  0  0  0
 18 38  1  0  0  0  0
 19 39  1  0  0  0  0
 19 40  1  0  0  0  0
M  CHG  1   6  -1
M  CHG  1  12   1
M  END
> <s_m_source_file>
AV-unprocessed.smi

> <i_m_source_file_index>
1641

> <i_lp_mmshare_version>
43012

> <i_f3d_flags>
0

> <s_epik_input>
W0NIM11jMW5uYyhzMSlbTkhdQyg9TylbTkhdW0NIMl1bQ0gyXU4yW0NIMl1bQ0BASF0oW0NIM10pT1tDQEBIXShbQ0gzXSlbQ0gyXTI=

> <s_epik_cmdline>
J2VwaWtfcHl0aG9uJywgJy1waCcsICc3LjAnLCAnLXRuJywgJzgnLCAnLW1hJywgJzIwMCcsICctbWV0YWxfYmluZGluZycsICctaW1hZScsICc8aW5maWxlLm1hZT4nLCAnLW9tYWUnLCAnPG91dGZpbGUubWFlPic=

> <r_lp_tautomer_probability>
1

> <r_epik_Ionization_Penalty>
3.5343

> <r_epik_Ionization_Penalty_Charging>
3.42778

> <r_epik_Ionization_Penalty_Neutral>
0.106519

> <r_epik_State_Penalty>
3.62118

> <r_epik_Charging_Adjusted_Penalty>
7.04896

> <i_epik_Tot_Q>
0

> <i_epik_Tot_abs_Q>
2

> <r_epik_Metal_State_Penalty>
1.13984

> <b_epik_Metal_Only>
1

> <s_lp_Force_Field>
OPLS_2005

> <r_lp_Energy>
10.2007

> <b_lp_Chiralities_Consistent>
1

> <s_lp_Variant>
AV-unprocessed.smi:1641-12

> <Gold.Version>
5.8.1

> <Gold.Id.Protein>
6NUR|6NUR_protein|mol2

> <Gold.PLP.Fitness>
42.4071

> <Gold.PLP.PLP>
-32.1781

> <Gold.PLP.part.hbond>
-4.9452

> <Gold.PLP.part.metal>
0.0000

> <Gold.PLP.part.buried>
-4.3012

> <Gold.PLP.part.nonpolar>
-23.5266

> <Gold.PLP.part.repulsive>
0.6178

> <Gold.PLP.ligand.clash>
0.0000

> <Gold.PLP.ligand.torsion>
0.9307

> <Gold.PLP.Chemscore.Hbond>
4.0000

> <Gold.PLP.Chemscore.CHOScore>
0.0000

> <Gold.PLP.Chemscore.Metal>
0.0000

> <Gold.Chemscore.Hbonds>
donor molecule, donor type, donor heavy atom, donor atom, acceptor molecule, acceptor atom, score
      L1  H    12    41       P1 10747  1.00
      P1  H  7997  8010       L1     3  1.00
      P1  H 10752 10765       L1     6  2.00

> <Gold.PLP.Chemscore.Internal.Correction>
0.0904

> <Gold.Rescore>
     Score         DG    S(hbond)    S(metal)    S(lipo)     H(rot)  DE(clash)    DE(int)     intcor
     15.54     -18.14       2.68        0.00      66.78       1.61       0.33       2.27       ----

> <Gold.Chemscore.Fitness>
15.5414

> <Gold.Chemscore.DG>
-18.1416

> <Gold.Chemscore.ZeroCoef>
-5.4800

> <Gold.Chemscore.Hbond>
2.6834

> <Gold.Chemscore.Metal>
0.0000

> <Gold.Chemscore.Lipo>
66.7779

> <Gold.Chemscore.Internal_Hbond>
0.0000

> <Gold.Chemscore.DEClash>
0.3344

> <Gold.Chemscore.DEInternal>
2.2658

> <Gold.Chemscore.Rot>
1.6070

> <Gold.Chemscore.Internal.Correction>
   9.000000E+99

> <Gold.Chemscore.Hbonds>
donor molecule, donor type, donor heavy atom, donor atom, acceptor molecule, acceptor atom, score
      L1  H    12    41       P1 10747  1.00
      P1  H  7997  8010       L1     3  0.93
      P1  H 10752 10765       L1     6  0.41

> <Gold.Chemscore.Hbond.Weighted>
-8.9625

> <Gold.Chemscore.Metal.Weighted>
-0.0000

> <Gold.Chemscore.Lipo.Weighted>
-7.8130

> <Gold.Chemscore.Internal_Hbond.Weighted>
0.0000

> <Gold.Chemscore.DEClash.Weighted>
0.3344

> <Gold.Chemscore.DEInternal.Weighted>
2.2658

> <Gold.Chemscore.Rot.Weighted>
4.1139

> <Gold.Chemscore.Internal.Correction.Weighted>
   9.000000E+99

> <Gold.Protein.RotatedTorsions>
[ 6907 6896 6895 6894 ] final  104.96 input  -60.11 | X-H torsion
[ 7974 7965 7964 7962 ] final  -30.82 input  175.53 | X-H torsion
[ 8008 7997 7996 7995 ] final   88.41 input   59.86 | X-H torsion
[ 10167 10162 10161 10158 ] final  104.76 input  -65.29 | X-H torsion
[ 10718 10713 10712 10709 ] final   -5.90 input   66.30 | X-H torsion
[ 10763 10752 10751 10750 ] final  155.32 input  -60.55 | X-H torsion
[ 11005 11000 10999 10996 ] final  -29.81 input  -57.11 | X-H torsion

> <Gold.Protein.ActiveResidues>
 VAL166  LYS551  ARG553  GLY616  TRP617  ASP618  TYR619  PRO620  LYS621  CYS622 
 ASP623  PHE694  ASN695  SER759  ASP760  ASP761  ALA762  ILE779  LEU786  VAL792 
 PHE793  MET794  SER795  GLU796  ALA797  LYS798  CYS799  TRP800  GLU811  SER814 

> <Gold.Protein.RotatedAtoms>
  152.5247  133.9600  159.7712 H   0  0  0  0  0  0  0  0  0  0  0  0  # atno 6907 bound_to 6896
  150.9892  133.6158  159.2718 H   0  0  0  0  0  0  0  0  0  0  0  0  # atno 6908 bound_to 6896
  151.3308  135.0847  159.9391 H   0  0  0  0  0  0  0  0  0  0  0  0  # atno 6909 bound_to 6896
  146.1114  140.5589  142.8776 H   0  0  0  0  0  0  0  0  0  0  0  0  # atno 7974 bound_to 7965
  155.9874  140.3372  155.6720 H   0  0  0  0  0  0  0  0  0  0  0  0  # atno 8008 bound_to 7997
  155.6467  140.0701  157.2618 H   0  0  0  0  0  0  0  0  0  0  0  0  # atno 8009 bound_to 7997
  154.4209  140.1733  156.1618 H   0  0  0  0  0  0  0  0  0  0  0  0  # atno 8010 bound_to 7997
  139.7149  144.7070  151.0966 H   0  0  0  0  0  0  0  0  0  0  0  0  # atno 10167 bound_to 10162
  156.7398  130.5206  149.5827 H   0  0  0  0  0  0  0  0  0  0  0  0  # atno 10718 bound_to 10713
  154.1665  135.2807  155.3093 H   0  0  0  0  0  0  0  0  0  0  0  0  # atno 10763 bound_to 10752
  154.6107  135.5499  153.7474 H   0  0  0  0  0  0  0  0  0  0  0  0  # atno 10764 bound_to 10752
  153.0177  135.6415  154.1806 H   0  0  0  0  0  0  0  0  0  0  0  0  # atno 10765 bound_to 10752
  140.9329  133.7327  156.0962 H   0  0  0  0  0  0  0  0  0  0  0  0  # atno 11005 bound_to 11000
  144.7515  140.5202  143.6799 LP  0  0  0  0  0  0  0  0  0  0  0  0  # atno 17320 bound_to 7965
  145.5656  139.1481  143.3317 LP  0  0  0  0  0  0  0  0  0  0  0  0  # atno 17321 bound_to 7965
  140.7741  143.5243  150.9499 LP  0  0  0  0  0  0  0  0  0  0  0  0  # atno 17342 bound_to 10162
  139.8928  143.6932  152.3143 LP  0  0  0  0  0  0  0  0  0  0  0  0  # atno 17343 bound_to 10162
  156.1472  130.6285  151.0548 LP  0  0  0  0  0  0  0  0  0  0  0  0  # atno 17370 bound_to 10713
  157.6823  131.0834  150.7336 LP  0  0  0  0  0  0  0  0  0  0  0  0  # atno 17371 bound_to 10713
  140.7839  134.3694  157.5481 LP  0  0  0  0  0  0  0  0  0  0  0  0  # atno 17394 bound_to 11000
  139.8800  134.9098  156.3000 LP  0  0  0  0  0  0  0  0  0  0  0  0  # atno 17395 bound_to 11000

$$$$
