AV-unprocessed.smi:2142|AV-procd|sdf|8721|dock8
  -GOLD-   2272011493D 1   1.00000     0.00000
 Structure written by MMmdl.
 39 40  0  0  0  0  0  0  0  0  2 V2000
  151.5433  144.9514  158.9060 C   0  0  0  0  0  0  0  0  0  0  0  0
  151.5204  143.5382  158.8077 O   0  0  0  0  0  0  0  0  0  0  0  0
  150.9291  143.0874  157.6002 C   0  0  0  0  0  0  0  0  0  0  0  0
  151.1982  141.5888  157.4334 C   0  0  0  0  0  0  0  0  0  0  0  0
  150.9993  141.2326  156.0685 O   0  0  0  0  0  0  0  0  0  0  0  0
  151.0776  139.9000  155.7181 C   0  0  0  0  0  0  0  0  0  0  0  0
  151.0486  138.9319  156.7397 C   0  0  0  0  0  0  0  0  0  0  0  0
  151.1368  137.5725  156.3849 C   0  0  0  0  0  0  0  0  0  0  0  0
  151.2549  137.2084  155.0255 C   0  0  0  0  0  0  0  0  0  0  0  0
  151.3430  135.9235  154.6469 N   0  5  0  0  0  0  0  0  0  0  0  0
  151.1433  134.9245  155.5485 C   0  0  0  0  0  0  0  0  0  0  0  0
  151.6582  134.8875  156.6687 O   0  0  0  0  0  0  0  0  0  0  0  0
  150.2582  133.7775  155.1959 C   0  0  0  0  0  0  0  0  0  0  0  0
  149.5833  133.8058  154.0892 N   0  0  0  0  0  0  0  0  0  0  0  0
  148.7659  132.7652  153.6988 N   0  0  0  0  0  0  0  0  0  0  0  0
  148.3019  132.8368  152.3149 C   0  0  0  0  0  0  0  0  0  0  0  0
  148.3726  131.7496  154.5063 C   0  0  0  0  0  0  0  0  0  0  0  0
  147.6555  130.8195  154.1368 O   0  0  0  0  0  0  0  0  0  0  0  0
  148.8419  131.8145  155.9618 C   0  0  0  0  0  0  0  0  0  0  0  0
  150.1781  132.5682  156.1108 C   0  0  0  0  0  0  0  0  0  0  0  0
  151.2654  138.2625  154.0839 C   0  0  0  0  0  0  0  0  0  0  0  0
  151.1819  139.5705  154.4081 N   0  0  0  0  0  0  0  0  0  0  0  0
  152.0111  145.2458  159.8455 H   0  0  0  0  0  0  0  0  0  0  0  0
  150.5339  145.3646  158.8882 H   0  0  0  0  0  0  0  0  0  0  0  0
  152.1174  145.3941  158.0909 H   0  0  0  0  0  0  0  0  0  0  0  0
  149.8527  143.2588  157.6435 H   0  0  0  0  0  0  0  0  0  0  0  0
  151.3151  143.6424  156.7436 H   0  0  0  0  0  0  0  0  0  0  0  0
  152.2095  141.3469  157.7644 H   0  0  0  0  0  0  0  0  0  0  0  0
  150.4981  141.0316  158.0580 H   0  0  0  0  0  0  0  0  0  0  0  0
  150.9634  139.2247  157.7755 H   0  0  0  0  0  0  0  0  0  0  0  0
  151.1186  136.8145  157.1546 H   0  0  0  0  0  0  0  0  0  0  0  0
  147.2131  132.8911  152.2766 H   0  0  0  0  0  0  0  0  0  0  0  0
  148.6208  131.9553  151.7573 H   0  0  0  0  0  0  0  0  0  0  0  0
  148.6946  133.7134  151.7968 H   0  0  0  0  0  0  0  0  0  0  0  0
  148.0666  132.3273  156.5323 H   0  0  0  0  0  0  0  0  0  0  0  0
  148.9246  130.8092  156.3759 H   0  0  0  0  0  0  0  0  0  0  0  0
  151.0105  131.8981  155.8935 H   0  0  0  0  0  0  0  0  0  0  0  0
  150.2851  132.8640  157.1549 H   0  0  0  0  0  0  0  0  0  0  0  0
  151.3485  138.0491  153.0280 H   0  0  0  0  0  0  0  0  0  0  0  0
  1  2  1  0  0  0  0
  1 23  1  0  0  0  0
  1 24  1  0  0  0  0
  1 25  1  0  0  0  0
  2  3  1  0  0  0  0
  3  4  1  0  0  0  0
  3 26  1  0  0  0  0
  3 27  1  0  0  0  0
  4  5  1  0  0  0  0
  4 28  1  0  0  0  0
  4 29  1  0  0  0  0
  5  6  1  0  0  0  0
  6 22  1  0  0  0  0
  6  7  2  0  0  0  0
  7  8  1  0  0  0  0
  7 30  1  0  0  0  0
  8  9  2  0  0  0  0
  8 31  1  0  0  0  0
  9 10  1  0  0  0  0
  9 21  1  0  0  0  0
 10 11  1  0  0  0  0
 11 12  2  0  0  0  0
 11 13  1  0  0  0  0
 13 20  1  0  0  0  0
 13 14  2  0  0  0  0
 14 15  1  0  0  0  0
 15 16  1  0  0  0  0
 15 17  1  0  0  0  0
 16 32  1  0  0  0  0
 16 33  1  0  0  0  0
 16 34  1  0  0  0  0
 17 18  2  0  0  0  0
 17 19  1  0  0  0  0
 19 20  1  0  0  0  0
 19 35  1  0  0  0  0
 19 36  1  0  0  0  0
 20 37  1  0  0  0  0
 20 38  1  0  0  0  0
 21 22  2  0  0  0  0
 21 39  1  0  0  0  0
M  CHG  1  10  -1
M  END
> <s_m_source_file>
AV-unprocessed.smi

> <i_m_source_file_index>
2142

> <i_lp_mmshare_version>
43012

> <i_f3d_flags>
0

> <s_epik_input>
W0NIM11PW0NIMl1bQ0gyXU9jMVtjSF1bY0hdYyhbY0hdbjEpW05IXUMoPU8pQzI9Tk4oW0NIM10pQyg9TylbQ0gyXVtDSDJdMg==

> <s_epik_cmdline>
J2VwaWtfcHl0aG9uJywgJy1waCcsICc3LjAnLCAnLXRuJywgJzgnLCAnLW1hJywgJzIwMCcsICctbWV0YWxfYmluZGluZycsICctaW1hZScsICc8aW5maWxlLm1hZT4nLCAnLW9tYWUnLCAnPG91dGZpbGUubWFlPic=

> <r_lp_tautomer_probability>
1

> <r_epik_Ionization_Penalty>
5.98992

> <r_epik_Ionization_Penalty_Charging>
5.98968

> <r_epik_Ionization_Penalty_Neutral>
0.000245408

> <r_epik_State_Penalty>
5.98965

> <r_epik_Charging_Adjusted_Penalty>
11.9793

> <i_epik_Tot_Q>
-1

> <i_epik_Tot_abs_Q>
1

> <r_epik_Metal_State_Penalty>
1.94325

> <b_epik_Metal_Only>
1

> <s_epik_Chemistry_Notes>
This compound has an imine and may undergo hydrolysis.

> <s_lp_Force_Field>
OPLS_2005

> <r_lp_Energy>
19.7207

> <b_lp_Chiralities_Consistent>
1

> <s_lp_Variant>
AV-unprocessed.smi:2142-2

> <Gold.Version>
5.8.1

> <Gold.Id.Protein>
6NUR|6NUR_protein|mol2

> <Gold.PLP.Fitness>
44.6469

> <Gold.PLP.PLP>
-33.3013

> <Gold.PLP.part.hbond>
-2.2537

> <Gold.PLP.part.metal>
0.0000

> <Gold.PLP.part.buried>
-6.5855

> <Gold.PLP.part.nonpolar>
-25.6071

> <Gold.PLP.part.repulsive>
0.6317

> <Gold.PLP.ligand.clash>
0.0050

> <Gold.PLP.ligand.torsion>
0.7394

> <Gold.PLP.Chemscore.Hbond>
3.0000

> <Gold.PLP.Chemscore.CHOScore>
1.0000

> <Gold.PLP.Chemscore.Metal>
0.0000

> <Gold.Chemscore.Hbonds>
donor molecule, donor type, donor heavy atom, donor atom, acceptor molecule, acceptor atom, score
      P1  H  7989  7998       L1    22  1.00
      P1  H 10752 10765       L1    10  1.80
      L1  C    21    39       P1  7949  0.90

> <Gold.PLP.Chemscore.Internal.Correction>
0.8295

> <Gold.Rescore>
     Score         DG    S(hbond)    S(metal)    S(lipo)     H(rot)  DE(clash)    DE(int)     intcor
     12.42     -14.47       1.59        0.00      68.85       1.71       0.01       2.04       ----

> <Gold.Chemscore.Fitness>
12.4219

> <Gold.Chemscore.DG>
-14.4660

> <Gold.Chemscore.ZeroCoef>
-5.4800

> <Gold.Chemscore.Hbond>
1.5881

> <Gold.Chemscore.Metal>
0.0000

> <Gold.Chemscore.Lipo>
68.8547

> <Gold.Chemscore.Internal_Hbond>
0.0000

> <Gold.Chemscore.DEClash>
0.0060

> <Gold.Chemscore.DEInternal>
2.0381

> <Gold.Chemscore.Rot>
1.7087

> <Gold.Chemscore.Internal.Correction>
   9.000000E+99

> <Gold.Chemscore.Hbonds>
donor molecule, donor type, donor heavy atom, donor atom, acceptor molecule, acceptor atom, score
      P1  H  7989  7998       L1    22  0.82
      P1  H 10752 10765       L1    10  0.11

> <Gold.Chemscore.Hbond.Weighted>
-5.3041

> <Gold.Chemscore.Metal.Weighted>
-0.0000

> <Gold.Chemscore.Lipo.Weighted>
-8.0560

> <Gold.Chemscore.Internal_Hbond.Weighted>
0.0000

> <Gold.Chemscore.DEClash.Weighted>
0.0060

> <Gold.Chemscore.DEInternal.Weighted>
2.0381

> <Gold.Chemscore.Rot.Weighted>
4.3742

> <Gold.Chemscore.Internal.Correction.Weighted>
   9.000000E+99

> <Gold.Protein.RotatedTorsions>
[ 6907 6896 6895 6894 ] final -156.69 input  -60.11 | X-H torsion
[ 7974 7965 7964 7962 ] final   80.41 input  175.53 | X-H torsion
[ 8008 7997 7996 7995 ] final -110.43 input   59.86 | X-H torsion
[ 10167 10162 10161 10158 ] final  139.73 input  -65.29 | X-H torsion
[ 10718 10713 10712 10709 ] final   86.09 input   66.30 | X-H torsion
[ 10763 10752 10751 10750 ] final  164.34 input  -60.55 | X-H torsion
[ 11005 11000 10999 10996 ] final   10.19 input  -57.11 | X-H torsion

> <Gold.Protein.ActiveResidues>
 VAL166  LYS551  ARG553  GLY616  TRP617  ASP618  TYR619  PRO620  LYS621  CYS622 
 ASP623  PHE694  ASN695  SER759  ASP760  ASP761  ALA762  ILE779  LEU786  VAL792 
 PHE793  MET794  SER795  GLU796  ALA797  LYS798  CYS799  TRP800  GLU811  SER814 

> <Gold.Protein.RotatedAtoms>
  151.2914  133.4163  159.2633 H   0  0  0  0  0  0  0  0  0  0  0  0  # atno 6907 bound_to 6896
  151.0274  134.9514  159.8103 H   0  0  0  0  0  0  0  0  0  0  0  0  # atno 6908 bound_to 6896
  152.5338  134.2876  159.9083 H   0  0  0  0  0  0  0  0  0  0  0  0  # atno 6909 bound_to 6896
  145.6515  139.2449  143.1974 H   0  0  0  0  0  0  0  0  0  0  0  0  # atno 7974 bound_to 7965
  154.9744  140.0397  157.2249 H   0  0  0  0  0  0  0  0  0  0  0  0  # atno 8008 bound_to 7997
  154.7771  140.2812  155.6070 H   0  0  0  0  0  0  0  0  0  0  0  0  # atno 8009 bound_to 7997
  156.2930  140.2599  156.2587 H   0  0  0  0  0  0  0  0  0  0  0  0  # atno 8010 bound_to 7997
  139.5070  144.6277  151.5896 H   0  0  0  0  0  0  0  0  0  0  0  0  # atno 10167 bound_to 10162
  157.6924  131.0201  150.2920 H   0  0  0  0  0  0  0  0  0  0  0  0  # atno 10718 bound_to 10713
  154.3074  135.2758  155.2582 H   0  0  0  0  0  0  0  0  0  0  0  0  # atno 10763 bound_to 10752
  154.4992  135.5813  153.6521 H   0  0  0  0  0  0  0  0  0  0  0  0  # atno 10764 bound_to 10752
  152.9892  135.6153  154.3249 H   0  0  0  0  0  0  0  0  0  0  0  0  # atno 10765 bound_to 10752
  140.5172  134.0594  155.7834 H   0  0  0  0  0  0  0  0  0  0  0  0  # atno 11005 bound_to 11000
  146.1199  140.7322  142.9462 LP  0  0  0  0  0  0  0  0  0  0  0  0  # atno 17320 bound_to 7965
  144.7121  140.4076  143.7073 LP  0  0  0  0  0  0  0  0  0  0  0  0  # atno 17321 bound_to 7965
  140.5999  143.9628  150.6379 LP  0  0  0  0  0  0  0  0  0  0  0  0  # atno 17342 bound_to 10162
  140.2836  143.3372  152.1128 LP  0  0  0  0  0  0  0  0  0  0  0  0  # atno 17343 bound_to 10162
  156.3450  130.3821  149.7377 LP  0  0  0  0  0  0  0  0  0  0  0  0  # atno 17370 bound_to 10713
  156.4874  130.8069  151.3080 LP  0  0  0  0  0  0  0  0  0  0  0  0  # atno 17371 bound_to 10713
  141.1353  133.9231  157.2446 LP  0  0  0  0  0  0  0  0  0  0  0  0  # atno 17394 bound_to 11000
  139.9625  135.0150  156.9300 LP  0  0  0  0  0  0  0  0  0  0  0  0  # atno 17395 bound_to 11000

$$$$
