#       Name:                AV-unprocessed.smi:1939
#       Creating user name   scv26
#       Creation time:       Fri Mar 27 09:58:20 2020


#       File generated by GOLD software.
#

@<TRIPOS>MOLECULE
AV-unprocessed.smi:1939
    33    34     1
SMALL
NO_CHARGES


@<TRIPOS>ATOM
      1 ****        -1.4944   0.2066   0.0904 O.2            1 S1                 0.0000
      2 ****        -0.8143  -0.7811  -0.1922 C.2            1 S1                 0.0000
      3 ****         0.7186  -0.6995  -0.2481 C.3            1 S1                 0.0000
      4 ****         1.2409   0.6721  -0.1210 N.am           1 S1                 0.0000
      5 ****         1.4279   1.3876  -1.3169 C.2            1 S1                 0.0000
      6 ****         1.8922   2.6440  -1.3227 C.2            1 S1                 0.0000
      7 ****         2.2048   3.2610  -0.0569 C.2            1 S1                 0.0000
      8 ****         2.0298   2.6003   1.1110 C.2            1 S1                 0.0000
      9 ****         2.3566   3.2390   2.4591 C.3            1 S1                 0.0000
     10 ****         1.2674   3.2981   3.2261 F              1 S1                 0.0000
     11 ****         3.2817   2.5268   3.1036 F              1 S1                 0.0000
     12 ****         2.8239   4.4806   2.3187 F              1 S1                 0.0000
     13 ****         1.5108   1.2169   1.1058 C.2            1 S1                 0.0000
     14 ****         1.3269   0.5782   2.1432 O.2            1 S1                 0.0000
     15 ****        -1.3417  -1.9822  -0.4704 N.am           1 S1                 0.0000
     16 ****        -2.7344  -2.2938  -0.4851 C.3            1 S1                 0.0000
     17 ****        -3.1423  -3.7021  -0.1102 C.3            1 S1                 0.0000
     18 ****        -3.2285  -3.2560  -1.5437 C.3            1 S1                 0.0000
     19 ****         1.1321  -1.3476   0.5266 H              1 S1                 0.0000
     20 ****         1.0554  -1.1368  -1.1894 H              1 S1                 0.0000
     21 ****         1.1629   0.8546  -2.2186 H              1 S1                 0.0000
     22 ****         2.0252   3.1822  -2.2496 H              1 S1                 0.0000
     23 ****         2.5848   4.2718  -0.0598 H              1 S1                 0.0000
     24 ****        -0.7068  -2.7362  -0.6900 H              1 S1                 0.0000
     25 ****        -3.4270  -1.5049  -0.1946 H              1 S1                 0.0000
     26 ****        -2.3564  -4.4092   0.1486 H              1 S1                 0.0000
     27 ****        -4.0764  -3.8251   0.4343 H              1 S1                 0.0000
     28 ****        -4.2199  -3.0811  -1.9568 H              1 S1                 0.0000
     29 ****        -2.4994  -3.6634  -2.2416 H              1 S1                 0.0000
     30 ****        -1.0495   1.0800   0.2881 LP             1 S1                 0.0000
     31 ****        -2.4913   0.1348   0.1220 LP             1 S1                 0.0000
     32 ****         0.9741  -0.3565   2.0990 LP             1 S1                 0.0000
     33 ****         1.5304   0.9944   3.0294 LP             1 S1                 0.0000
@<TRIPOS>BOND
    1    1    2 2     
    2    2    3 1     
    3    2   15 am    
    4    3    4 1     
    5    3   19 1     
    6    3   20 1     
    7    4   13 am    
    8    4    5 1     
    9    5    6 2     
   10    5   21 1     
   11    6    7 1     
   12    6   22 1     
   13    7    8 2     
   14    7   23 1     
   15    8    9 1     
   16    8   13 1     
   17    9   10 1     
   18    9   11 1     
   19    9   12 1     
   20   13   14 2     
   21   15   16 1     
   22   15   24 1     
   23   16   18 1     
   24   16   17 1     
   25   16   25 1     
   26   17   18 1     
   27   17   26 1     
   28   17   27 1     
   29   18   28 1     
   30   18   29 1     
   31    1   30 1     
   32    1   31 1     
   33   14   32 1     
   34   14   33 1     
@<TRIPOS>SUBSTRUCTURE
      1 S1             1
@<TRIPOS>SET
LONE_PAIRS      STATIC     ATOMS    <user>   **** ""
4 30 31 32 33
DONOR_HYDROGENS      STATIC     ATOMS    <user>   **** ""
1 24
ATOM$BLUE        STATIC     ATOMS    COLORGROUP SYSTEM
4 30 31 32 33
ATOM$RED        STATIC     ATOMS    COLORGROUP SYSTEM
1 24
