AV-unprocessed.smi:3028|AV-procd|sdf|11518|dock3
  -GOLD-   2272016453D 1   1.00000     0.00000
 Structure written by MMmdl.
 48 49  0  0  0  0  0  0  0  0  2 V2000
  149.3987  132.0673  155.1121 C   0  0  0  0  0  0  0  0  0  0  0  0
  148.3562  132.1881  154.0385 C   0  0  0  0  0  0  0  0  0  0  0  0
  147.3983  131.2157  153.6348 C   0  0  0  0  0  0  0  0  0  0  0  0
  146.6172  131.6412  152.6558 N   0  0  0  0  0  0  0  0  0  0  0  0
  147.0459  132.8969  152.3980 N   0  0  0  0  0  0  0  0  0  0  0  0
  146.3971  133.7000  151.3675 C   0  0  1  0  0  0  0  0  0  0  0  0
  145.5038  132.8016  150.4911 C   0  0  0  0  0  0  0  0  0  0  0  0
  145.6385  134.9063  151.9841 C   0  0  2  0  0  0  0  0  0  0  0  0
  144.8947  135.7473  150.9336 C   0  0  0  0  0  0  0  0  0  0  0  0
  146.5812  135.7861  152.7132 N   0  3  0  0  0  0  0  0  0  0  0  0
  146.0671  137.1383  153.0167 C   0  0  0  0  0  0  0  0  0  0  0  0
  146.9049  137.8530  154.0846 C   0  0  0  0  0  0  0  0  0  0  0  0
  146.3497  138.4046  155.0336 O   0  0  0  0  0  0  0  0  0  0  0  0
  148.2435  137.8695  153.9693 N   0  0  0  0  0  0  0  0  0  0  0  0
  149.2206  138.4872  154.8654 C   0  0  0  0  0  0  0  0  0  0  0  0
  149.0942  140.0169  154.8036 C   0  0  0  0  0  0  0  0  0  0  0  0
  150.2275  140.6879  155.5970 C   0  0  0  0  0  0  0  0  0  0  0  0
  151.4904  140.2505  155.1071 O   0  0  0  0  0  0  0  0  0  0  0  0
  151.6917  138.8499  155.2635 C   0  0  0  0  0  0  0  0  0  0  0  0
  150.6413  138.0732  154.4526 C   0  0  0  0  0  0  0  0  0  0  0  0
  148.0994  133.2482  153.2163 C   0  0  0  0  0  0  0  0  0  0  0  0
  149.3258  131.1188  155.6445 H   0  0  0  0  0  0  0  0  0  0  0  0
  149.3048  132.8600  155.8545 H   0  0  0  0  0  0  0  0  0  0  0  0
  150.4066  132.1282  154.7016 H   0  0  0  0  0  0  0  0  0  0  0  0
  147.2464  130.2195  154.0236 H   0  0  0  0  0  0  0  0  0  0  0  0
  147.1899  134.0918  150.7281 H   0  0  0  0  0  0  0  0  0  0  0  0
  145.1400  133.3302  149.6104 H   0  0  0  0  0  0  0  0  0  0  0  0
  144.6374  132.4368  151.0438 H   0  0  0  0  0  0  0  0  0  0  0  0
  146.0574  131.9328  150.1329 H   0  0  0  0  0  0  0  0  0  0  0  0
  144.8921  134.5255  152.6838 H   0  0  0  0  0  0  0  0  0  0  0  0
  144.1055  135.1770  150.4445 H   0  0  0  0  0  0  0  0  0  0  0  0
  145.5729  136.1126  150.1615 H   0  0  0  0  0  0  0  0  0  0  0  0
  144.4190  136.6136  151.3946 H   0  0  0  0  0  0  0  0  0  0  0  0
  146.8180  135.3402  153.5881 H   0  0  0  0  0  0  0  0  0  0  0  0
  146.0617  137.7314  152.1012 H   0  0  0  0  0  0  0  0  0  0  0  0
  145.0394  137.0564  153.3713 H   0  0  0  0  0  0  0  0  0  0  0  0
  148.6307  137.3955  153.1657 H   0  0  0  0  0  0  0  0  0  0  0  0
  149.0708  138.1821  155.9005 H   0  0  0  0  0  0  0  0  0  0  0  0
  149.1376  140.3531  153.7664 H   0  0  0  0  0  0  0  0  0  0  0  0
  148.1262  140.3329  155.1947 H   0  0  0  0  0  0  0  0  0  0  0  0
  150.1660  141.7712  155.4934 H   0  0  0  0  0  0  0  0  0  0  0  0
  150.1416  140.4650  156.6617 H   0  0  0  0  0  0  0  0  0  0  0  0
  152.6937  138.5982  154.9158 H   0  0  0  0  0  0  0  0  0  0  0  0
  151.6445  138.5807  156.3197 H   0  0  0  0  0  0  0  0  0  0  0  0
  150.7793  137.0004  154.5930 H   0  0  0  0  0  0  0  0  0  0  0  0
  150.7936  138.2714  153.3905 H   0  0  0  0  0  0  0  0  0  0  0  0
  148.5733  134.2167  153.1509 H   0  0  0  0  0  0  0  0  0  0  0  0
  147.4261  135.8816  152.1682 H   0  0  0  0  0  0  0  0  0  0  0  0
  1  2  1  0  0  0  0
  1 22  1  0  0  0  0
  1 23  1  0  0  0  0
  1 24  1  0  0  0  0
  2 21  2  0  0  0  0
  2  3  1  0  0  0  0
  3  4  2  0  0  0  0
  3 25  1  0  0  0  0
  4  5  1  0  0  0  0
  5  6  1  0  0  0  0
  5 21  1  0  0  0  0
  6  7  1  0  0  0  0
  6  8  1  0  0  0  0
  6 26  1  0  0  0  0
  7 27  1  0  0  0  0
  7 28  1  0  0  0  0
  7 29  1  0  0  0  0
  8  9  1  0  0  0  0
  8 10  1  0  0  0  0
  8 30  1  0  0  0  0
  9 31  1  0  0  0  0
  9 32  1  0  0  0  0
  9 33  1  0  0  0  0
 10 11  1  0  0  0  0
 10 34  1  0  0  0  0
 10 48  1  0  0  0  0
 11 12  1  0  0  0  0
 11 35  1  0  0  0  0
 11 36  1  0  0  0  0
 12 13  2  0  0  0  0
 12 14  1  0  0  0  0
 14 15  1  0  0  0  0
 14 37  1  0  0  0  0
 15 20  1  0  0  0  0
 15 16  1  0  0  0  0
 15 38  1  0  0  0  0
 16 17  1  0  0  0  0
 16 39  1  0  0  0  0
 16 40  1  0  0  0  0
 17 18  1  0  0  0  0
 17 41  1  0  0  0  0
 17 42  1  0  0  0  0
 18 19  1  0  0  0  0
 19 20  1  0  0  0  0
 19 43  1  0  0  0  0
 19 44  1  0  0  0  0
 20 45  1  0  0  0  0
 20 46  1  0  0  0  0
 21 47  1  0  0  0  0
M  CHG  1  10   1
M  END
> <s_m_source_file>
AV-unprocessed.smi

> <i_m_source_file_index>
3028

> <i_lp_mmshare_version>
43012

> <i_f3d_flags>
0

> <s_epik_input>
W0NIM11jMVtjSF1ubihbY0hdMSlbQ0BIXShbQ0gzXSlbQ0BIXShbQ0gzXSlbTkhdW0NIMl1DKD1PKVtOSF1bQ0hdMltDSDJdW0NIMl1PW0NIMl1bQ0gyXTI=

> <s_epik_cmdline>
J2VwaWtfcHl0aG9uJywgJy1waCcsICc3LjAnLCAnLXRuJywgJzgnLCAnLW1hJywgJzIwMCcsICctbWV0YWxfYmluZGluZycsICctaW1hZScsICc8aW5maWxlLm1hZT4nLCAnLW9tYWUnLCAnPG91dGZpbGUubWFlPic=

> <r_lp_tautomer_probability>
1

> <r_epik_Ionization_Penalty>
0.151514

> <r_epik_Ionization_Penalty_Charging>
0.151494

> <r_epik_Ionization_Penalty_Neutral>
1.95502e-05

> <r_epik_State_Penalty>
0.141395

> <r_epik_Charging_Adjusted_Penalty>
0.292889

> <i_epik_Tot_Q>
1

> <i_epik_Tot_abs_Q>
1

> <r_epik_Metal_State_Penalty>
0.141632

> <b_epik_Metal_Only>
0

> <s_lp_Force_Field>
OPLS_2005

> <r_lp_Energy>
16.7547

> <b_lp_Chiralities_Consistent>
1

> <s_lp_Variant>
AV-unprocessed.smi:3028-2

> <Gold.Version>
5.8.1

> <Gold.Id.Protein>
6NUR|6NUR_protein|mol2

> <Gold.PLP.Fitness>
50.8391

> <Gold.PLP.PLP>
-38.3516

> <Gold.PLP.part.hbond>
-2.6810

> <Gold.PLP.part.metal>
0.0000

> <Gold.PLP.part.buried>
-4.2727

> <Gold.PLP.part.nonpolar>
-32.5573

> <Gold.PLP.part.repulsive>
0.2377

> <Gold.PLP.ligand.clash>
0.0089

> <Gold.PLP.ligand.torsion>
0.6490

> <Gold.PLP.Chemscore.Hbond>
3.9920

> <Gold.PLP.Chemscore.CHOScore>
0.5616

> <Gold.PLP.Chemscore.Metal>
0.0000

> <Gold.Chemscore.Hbonds>
donor molecule, donor type, donor heavy atom, donor atom, acceptor molecule, acceptor atom, score
      L1  H    10    48       P1  7948  2.00
      L1  H    14    37       P1  7948  1.00
      P1  H  7989  7998       L1    18  0.99
      L1  C    21    47       P1  7948  0.85

> <Gold.PLP.Chemscore.Internal.Correction>
0.1336

> <Gold.Rescore>
     Score         DG    S(hbond)    S(metal)    S(lipo)     H(rot)  DE(clash)    DE(int)     intcor
     17.01     -18.53       2.52        0.00      83.24       1.99       0.04       1.47       ----

> <Gold.Chemscore.Fitness>
17.0140

> <Gold.Chemscore.DG>
-18.5298

> <Gold.Chemscore.ZeroCoef>
-5.4800

> <Gold.Chemscore.Hbond>
2.5162

> <Gold.Chemscore.Metal>
0.0000

> <Gold.Chemscore.Lipo>
83.2431

> <Gold.Chemscore.Internal_Hbond>
0.0000

> <Gold.Chemscore.DEClash>
0.0425

> <Gold.Chemscore.DEInternal>
1.4732

> <Gold.Chemscore.Rot>
1.9897

> <Gold.Chemscore.Internal.Correction>
   9.000000E+99

> <Gold.Chemscore.Hbonds>
donor molecule, donor type, donor heavy atom, donor atom, acceptor molecule, acceptor atom, score
      L1  H    10    48       P1  7948  0.97
      L1  H    14    37       P1  7948  1.00
      P1  H  7989  7998       L1    18  0.54

> <Gold.Chemscore.Hbond.Weighted>
-8.4039

> <Gold.Chemscore.Metal.Weighted>
-0.0000

> <Gold.Chemscore.Lipo.Weighted>
-9.7394

> <Gold.Chemscore.Internal_Hbond.Weighted>
0.0000

> <Gold.Chemscore.DEClash.Weighted>
0.0425

> <Gold.Chemscore.DEInternal.Weighted>
1.4732

> <Gold.Chemscore.Rot.Weighted>
5.0936

> <Gold.Chemscore.Internal.Correction.Weighted>
   9.000000E+99

> <Gold.Protein.RotatedTorsions>
[ 6907 6896 6895 6894 ] final -129.43 input  -60.11 | X-H torsion
[ 7974 7965 7964 7962 ] final -128.61 input  175.53 | X-H torsion
[ 8008 7997 7996 7995 ] final   31.20 input   59.86 | X-H torsion
[ 10167 10162 10161 10158 ] final  138.78 input  -65.29 | X-H torsion
[ 10718 10713 10712 10709 ] final  -30.87 input   66.30 | X-H torsion
[ 10763 10752 10751 10750 ] final  -53.90 input  -60.55 | X-H torsion
[ 11005 11000 10999 10996 ] final  -31.75 input  -57.11 | X-H torsion

> <Gold.Protein.ActiveResidues>
 VAL166  LYS551  ARG553  GLY616  TRP617  ASP618  TYR619  PRO620  LYS621  CYS622 
 ASP623  PHE694  ASN695  SER759  ASP760  ASP761  ALA762  ILE779  LEU786  VAL792 
 PHE793  MET794  SER795  GLU796  ALA797  LYS798  CYS799  TRP800  GLU811  SER814 

> <Gold.Protein.RotatedAtoms>
  150.9287  133.6793  159.2815 H   0  0  0  0  0  0  0  0  0  0  0  0  # atno 6907 bound_to 6896
  151.4222  135.0998  159.9627 H   0  0  0  0  0  0  0  0  0  0  0  0  # atno 6908 bound_to 6896
  152.5015  133.8736  159.7366 H   0  0  0  0  0  0  0  0  0  0  0  0  # atno 6909 bound_to 6896
  144.9653  140.7490  143.4704 H   0  0  0  0  0  0  0  0  0  0  0  0  # atno 7974 bound_to 7965
  155.1026  140.3231  155.4543 H   0  0  0  0  0  0  0  0  0  0  0  0  # atno 8008 bound_to 7997
  156.2713  140.2058  156.6099 H   0  0  0  0  0  0  0  0  0  0  0  0  # atno 8009 bound_to 7997
  154.6817  140.0525  157.0260 H   0  0  0  0  0  0  0  0  0  0  0  0  # atno 8010 bound_to 7997
  139.5100  144.6333  151.5760 H   0  0  0  0  0  0  0  0  0  0  0  0  # atno 10167 bound_to 10162
  156.3944  130.4378  149.7370 H   0  0  0  0  0  0  0  0  0  0  0  0  # atno 10718 bound_to 10713
  154.1663  135.6466  153.4998 H   0  0  0  0  0  0  0  0  0  0  0  0  # atno 10763 bound_to 10752
  153.0096  135.5372  154.6659 H   0  0  0  0  0  0  0  0  0  0  0  0  # atno 10764 bound_to 10752
  154.5986  135.2941  155.0531 H   0  0  0  0  0  0  0  0  0  0  0  0  # atno 10765 bound_to 10752
  140.9495  133.7230  156.1198 H   0  0  0  0  0  0  0  0  0  0  0  0  # atno 11005 bound_to 11000
  145.2638  139.1981  143.4878 LP  0  0  0  0  0  0  0  0  0  0  0  0  # atno 17320 bound_to 7965
  146.3366  140.2573  142.8600 LP  0  0  0  0  0  0  0  0  0  0  0  0  # atno 17321 bound_to 7965
  140.6074  143.9499  150.6428 LP  0  0  0  0  0  0  0  0  0  0  0  0  # atno 17342 bound_to 10162
  140.2731  143.3442  152.1220 LP  0  0  0  0  0  0  0  0  0  0  0  0  # atno 17343 bound_to 10162
  156.4411  130.7861  151.2882 LP  0  0  0  0  0  0  0  0  0  0  0  0  # atno 17370 bound_to 10713
  157.7501  131.0124  150.3385 LP  0  0  0  0  0  0  0  0  0  0  0  0  # atno 17371 bound_to 10713
  140.7623  134.3926  157.5523 LP  0  0  0  0  0  0  0  0  0  0  0  0  # atno 17394 bound_to 11000
  139.8843  134.8969  156.2711 LP  0  0  0  0  0  0  0  0  0  0  0  0  # atno 17395 bound_to 11000

$$$$
