#       Name:                AV-unprocessed.smi:2852
#       Creating user name   scv26
#       Creation time:       Fri Mar 27 15:42:42 2020


#       File generated by GOLD software.
#

@<TRIPOS>MOLECULE
AV-unprocessed.smi:2852
    34    35     1
SMALL
NO_CHARGES


@<TRIPOS>ATOM
      1 ****        -3.5512   0.2950   2.3812 C.3            1 S1                 0.0000
      2 ****        -2.1283   0.5976   2.3773 N.am           1 S1                 0.0000
      3 ****        -1.6195   1.8383   2.4066 C.2            1 S1                 0.0000
      4 ****        -2.3143   2.8534   2.4554 O.2            1 S1                 0.0000
      5 ****        -0.0944   1.9547   2.3788 C.3            1 S1                 0.0000
      6 ****         0.4120   1.9066   0.9725 C.2            1 S1                 0.0000
      7 ****         0.6549   3.0178   0.2869 N.2            1 S1                 0.0000
      8 ****         1.0998   2.5420  -0.9551 O.3            1 S1                 0.0000
      9 ****         1.0756   1.1906  -0.8657 C.2            1 S1                 0.0000
     10 ****         1.4829   0.4195  -2.0349 C.2            1 S1                 0.0000
     11 ****         1.4993  -0.9231  -2.1122 C.2            1 S1                 0.0000
     12 ****         1.8870  -1.8376  -3.2490 C.3            1 S1                 0.0000
     13 ****         1.5399  -2.9663  -2.2597 C.3            1 S1                 0.0000
     14 ****         1.1416  -2.0079  -1.1218 C.3            1 S1                 0.0000
     15 ****         0.6616   0.7388   0.3170 N.2            1 S1                 0.0000
     16 ****        -3.7017  -0.7844   2.3778 H              1 S1                 0.0000
     17 ****        -4.0367   0.7093   1.4968 H              1 S1                 0.0000
     18 ****        -4.0350   0.7044   3.2689 H              1 S1                 0.0000
     19 ****        -1.4894  -0.1837   2.3380 H              1 S1                 0.0000
     20 ****         0.2117   2.8892   2.8513 H              1 S1                 0.0000
     21 ****         0.3528   1.1460   2.9584 H              1 S1                 0.0000
     22 ****         1.7901   0.9898  -2.8994 H              1 S1                 0.0000
     23 ****         1.2403  -1.8432  -4.1270 H              1 S1                 0.0000
     24 ****         2.9367  -1.8521  -3.5434 H              1 S1                 0.0000
     25 ****         0.7102  -3.5877  -2.5997 H              1 S1                 0.0000
     26 ****         2.4004  -3.5879  -2.0079 H              1 S1                 0.0000
     27 ****         1.7817  -2.1154  -0.2456 H              1 S1                 0.0000
     28 ****         0.0912  -2.1050  -0.8460 H              1 S1                 0.0000
     29 ****        -3.3111   2.7766   2.4752 LP             1 S1                 0.0000
     30 ****        -1.8818   3.7549   2.4753 LP             1 S1                 0.0000
     31 ****         0.5466   3.9663   0.5848 LP             1 S1                 0.0000
     32 ****         2.0296   2.8619  -1.1373 LP             1 S1                 0.0000
     33 ****         0.4912   2.8532  -1.6850 LP             1 S1                 0.0000
     34 ****         0.5612  -0.2032   0.6372 LP             1 S1                 0.0000
@<TRIPOS>BOND
    1    1    2 1     
    2    1   16 1     
    3    1   17 1     
    4    1   18 1     
    5    2    3 am    
    6    2   19 1     
    7    3    4 2     
    8    3    5 1     
    9    5    6 1     
   10    5   20 1     
   11    5   21 1     
   12    6   15 1     
   13    6    7 2     
   14    7    8 1     
   15    8    9 1     
   16    9   10 1     
   17    9   15 2     
   18   10   11 2     
   19   10   22 1     
   20   11   14 1     
   21   11   12 1     
   22   12   13 1     
   23   12   23 1     
   24   12   24 1     
   25   13   14 1     
   26   13   25 1     
   27   13   26 1     
   28   14   27 1     
   29   14   28 1     
   30    4   29 1     
   31    4   30 1     
   32    7   31 1     
   33    8   32 1     
   34    8   33 1     
   35   15   34 1     
@<TRIPOS>SUBSTRUCTURE
      1 S1             1
@<TRIPOS>SET
LONE_PAIRS      STATIC     ATOMS    <user>   **** ""
6 29 30 31 32 33 34
DONOR_HYDROGENS      STATIC     ATOMS    <user>   **** ""
1 19
ATOM$BLUE        STATIC     ATOMS    COLORGROUP SYSTEM
6 29 30 31 32 33 34
ATOM$RED        STATIC     ATOMS    COLORGROUP SYSTEM
1 19
