AV-unprocessed.smi:1835|AV-procd|sdf|7474|dock1
  -GOLD-   22720 9173D 1   1.00000     0.00000
 Structure written by MMmdl.
 41 42  0  0  0  0  0  0  0  0  1 V2000
  153.4069  143.4127  162.6566 C   0  0  0  0  0  0  0  0  0  0  0  0
  153.4649  142.9329  161.1841 C   0  0  1  0  0  0  0  0  0  0  0  0
  153.9729  141.4614  161.1571 C   0  0  0  0  0  0  0  0  0  0  0  0
  155.2297  141.2656  161.8749 N   0  0  0  0  0  0  0  0  0  0  0  0
  155.5734  140.1502  162.5362 C   0  0  0  0  0  0  0  0  0  0  0  0
  154.8532  139.1524  162.5931 O   0  0  0  0  0  0  0  0  0  0  0  0
  156.9498  140.1701  163.2166 C   0  0  0  0  0  0  0  0  0  0  0  0
  157.0108  141.0644  164.3848 N   0  0  0  0  0  0  0  0  0  0  0  0
  156.7903  142.4369  164.1533 C   0  0  0  0  0  0  0  0  0  0  0  0
  156.8272  143.3393  165.1464 C   0  0  0  0  0  0  0  0  0  0  0  0
  157.1015  142.8712  166.4842 C   0  0  0  0  0  0  0  0  0  0  0  0
  157.3174  141.5610  166.7162 C   0  0  0  0  0  0  0  0  0  0  0  0
  157.2814  140.5714  165.6330 C   0  0  0  0  0  0  0  0  0  0  0  0
  157.4822  139.3734  165.8353 O   0  0  0  0  0  0  0  0  0  0  0  0
  152.1820  143.1231  160.4673 N   0  0  0  0  0  0  0  0  0  0  0  0
  151.8108  144.5378  160.3444 C   0  0  0  0  0  0  0  0  0  0  0  0
  150.4945  144.7461  159.5758 C   0  0  0  0  0  0  0  0  0  0  0  0
  150.5967  144.1594  158.2860 O   0  0  0  0  0  0  0  0  0  0  0  0
  150.8796  142.7689  158.3550 C   0  0  0  0  0  0  0  0  0  0  0  0
  152.1959  142.5426  159.1191 C   0  0  0  0  0  0  0  0  0  0  0  0
  154.3364  143.2245  163.1925 H   0  0  0  0  0  0  0  0  0  0  0  0
  152.6067  142.9123  163.2032 H   0  0  0  0  0  0  0  0  0  0  0  0
  153.2490  144.4872  162.7350 H   0  0  0  0  0  0  0  0  0  0  0  0
  154.2181  143.5423  160.6824 H   0  0  0  0  0  0  0  0  0  0  0  0
  153.2243  140.8030  161.5986 H   0  0  0  0  0  0  0  0  0  0  0  0
  154.1356  141.1010  160.1426 H   0  0  0  0  0  0  0  0  0  0  0  0
  155.8813  142.0370  161.8725 H   0  0  0  0  0  0  0  0  0  0  0  0
  157.2003  139.1482  163.5047 H   0  0  0  0  0  0  0  0  0  0  0  0
  157.7103  140.4545  162.4866 H   0  0  0  0  0  0  0  0  0  0  0  0
  156.5990  142.7055  163.1246 H   0  0  0  0  0  0  0  0  0  0  0  0
  156.6599  144.3880  164.9492 H   0  0  0  0  0  0  0  0  0  0  0  0
  157.1348  143.5750  167.3026 H   0  0  0  0  0  0  0  0  0  0  0  0
  157.5218  141.2292  167.7238 H   0  0  0  0  0  0  0  0  0  0  0  0
  151.6796  144.9875  161.3268 H   0  0  0  0  0  0  0  0  0  0  0  0
  152.6107  145.0882  159.8469 H   0  0  0  0  0  0  0  0  0  0  0  0
  149.6558  144.3080  160.1192 H   0  0  0  0  0  0  0  0  0  0  0  0
  150.2845  145.8100  159.4667 H   0  0  0  0  0  0  0  0  0  0  0  0
  150.0551  142.2448  158.8413 H   0  0  0  0  0  0  0  0  0  0  0  0
  150.9576  142.3720  157.3428 H   0  0  0  0  0  0  0  0  0  0  0  0
  153.0242  142.9608  158.5448 H   0  0  0  0  0  0  0  0  0  0  0  0
  152.3510  141.4668  159.1621 H   0  0  0  0  0  0  0  0  0  0  0  0
  1  2  1  0  0  0  0
  1 21  1  0  0  0  0
  1 22  1  0  0  0  0
  1 23  1  0  0  0  0
  2  3  1  0  0  0  0
  2 15  1  0  0  0  0
  2 24  1  0  0  0  0
  3  4  1  0  0  0  0
  3 25  1  0  0  0  0
  3 26  1  0  0  0  0
  4  5  1  0  0  0  0
  4 27  1  0  0  0  0
  5  6  2  0  0  0  0
  5  7  1  0  0  0  0
  7  8  1  0  0  0  0
  7 28  1  0  0  0  0
  7 29  1  0  0  0  0
  8 13  1  0  0  0  0
  8  9  1  0  0  0  0
  9 10  2  0  0  0  0
  9 30  1  0  0  0  0
 10 11  1  0  0  0  0
 10 31  1  0  0  0  0
 11 12  2  0  0  0  0
 11 32  1  0  0  0  0
 12 13  1  0  0  0  0
 12 33  1  0  0  0  0
 13 14  2  0  0  0  0
 15 20  1  0  0  0  0
 15 16  1  0  0  0  0
 16 17  1  0  0  0  0
 16 34  1  0  0  0  0
 16 35  1  0  0  0  0
 17 18  1  0  0  0  0
 17 36  1  0  0  0  0
 17 37  1  0  0  0  0
 18 19  1  0  0  0  0
 19 20  1  0  0  0  0
 19 38  1  0  0  0  0
 19 39  1  0  0  0  0
 20 40  1  0  0  0  0
 20 41  1  0  0  0  0
M  END
> <s_m_source_file>
AV-unprocessed.smi

> <i_m_source_file_index>
1835

> <i_lp_mmshare_version>
43012

> <i_f3d_flags>
0

> <s_epik_input>
W0NIMl0xW0NIMl1PW0NIMl1bQ0gyXU4xW0NASF0oW0NIM10pW0NIMl1bTkhdQyg9TylbQ0gyXW4yW2NIXVtjSF1bY0hdW2NIXWMyPU8=

> <s_epik_cmdline>
J2VwaWtfcHl0aG9uJywgJy1waCcsICc3LjAnLCAnLXRuJywgJzgnLCAnLW1hJywgJzIwMCcsICctbWV0YWxfYmluZGluZycsICctaW1hZScsICc8aW5maWxlLm1hZT4nLCAnLW9tYWUnLCAnPG91dGZpbGUubWFlPic=

> <r_lp_tautomer_probability>
1

> <r_epik_Ionization_Penalty>
0.237383

> <r_epik_Ionization_Penalty_Charging>
3.58805e-07

> <r_epik_Ionization_Penalty_Neutral>
0.237382

> <r_epik_State_Penalty>
0.228245

> <r_epik_Charging_Adjusted_Penalty>
0.228245

> <i_epik_Tot_Q>
0

> <i_epik_Tot_abs_Q>
0

> <r_epik_Metal_State_Penalty>
0.22822

> <b_epik_Metal_Only>
0

> <s_lp_Force_Field>
OPLS_2005

> <r_lp_Energy>
38.1368

> <b_lp_Chiralities_Consistent>
1

> <s_lp_Variant>
AV-unprocessed.smi:1835-2

> <Gold.Version>
5.8.1

> <Gold.Id.Protein>
6NUR|6NUR_protein|mol2

> <Gold.PLP.Fitness>
43.6831

> <Gold.PLP.PLP>
-44.3352

> <Gold.PLP.part.hbond>
-1.1818

> <Gold.PLP.part.metal>
0.0000

> <Gold.PLP.part.buried>
-6.9520

> <Gold.PLP.part.nonpolar>
-34.7067

> <Gold.PLP.part.repulsive>
0.2644

> <Gold.PLP.ligand.clash>
0.0081

> <Gold.PLP.ligand.torsion>
0.3457

> <Gold.PLP.Chemscore.Hbond>
0.0000

> <Gold.PLP.Chemscore.CHOScore>
0.0000

> <Gold.PLP.Chemscore.Metal>
0.0000

> <Gold.PLP.Chemscore.Internal.Correction>
0.0474

> <Gold.Rescore>
     Score         DG    S(hbond)    S(metal)    S(lipo)     H(rot)  DE(clash)    DE(int)     intcor
     11.32     -13.37       0.00        0.00     108.74       1.89       1.40       0.65       ----

> <Gold.Chemscore.Fitness>
11.3177

> <Gold.Chemscore.DG>
-13.3689

> <Gold.Chemscore.ZeroCoef>
-5.4800

> <Gold.Chemscore.Hbond>
0.0000

> <Gold.Chemscore.Metal>
0.0000

> <Gold.Chemscore.Lipo>
108.7413

> <Gold.Chemscore.Internal_Hbond>
0.0000

> <Gold.Chemscore.DEClash>
1.3964

> <Gold.Chemscore.DEInternal>
0.6548

> <Gold.Chemscore.Rot>
1.8882

> <Gold.Chemscore.Internal.Correction>
   9.000000E+99

> <Gold.Chemscore.Hbond.Weighted>
-0.0000

> <Gold.Chemscore.Metal.Weighted>
-0.0000

> <Gold.Chemscore.Lipo.Weighted>
-12.7227

> <Gold.Chemscore.Internal_Hbond.Weighted>
0.0000

> <Gold.Chemscore.DEClash.Weighted>
1.3964

> <Gold.Chemscore.DEInternal.Weighted>
0.6548

> <Gold.Chemscore.Rot.Weighted>
4.8338

> <Gold.Chemscore.Internal.Correction.Weighted>
   9.000000E+99

> <Gold.Protein.RotatedTorsions>
[ 6907 6896 6895 6894 ] final   55.56 input  -60.11 | X-H torsion
[ 7974 7965 7964 7962 ] final  -52.51 input  175.53 | X-H torsion
[ 8008 7997 7996 7995 ] final -110.95 input   59.86 | X-H torsion
[ 10167 10162 10161 10158 ] final -117.05 input  -65.29 | X-H torsion
[ 10718 10713 10712 10709 ] final  112.68 input   66.30 | X-H torsion
[ 10763 10752 10751 10750 ] final   29.28 input  -60.55 | X-H torsion
[ 11005 11000 10999 10996 ] final  179.92 input  -57.11 | X-H torsion

> <Gold.Protein.ActiveResidues>
 VAL166  LYS551  ARG553  GLY616  TRP617  ASP618  TYR619  PRO620  LYS621  CYS622 
 ASP623  PHE694  ASN695  SER759  ASP760  ASP761  ALA762  ILE779  LEU786  VAL792 
 PHE793  MET794  SER795  GLU796  ALA797  LYS798  CYS799  TRP800  GLU811  SER814 

> <Gold.Protein.RotatedAtoms>
  152.3550  134.6952  160.0224 H   0  0  0  0  0  0  0  0  0  0  0  0  # atno 6907 bound_to 6896
  151.7294  133.3312  159.3344 H   0  0  0  0  0  0  0  0  0  0  0  0  # atno 6908 bound_to 6896
  150.7565  134.6311  159.6231 H   0  0  0  0  0  0  0  0  0  0  0  0  # atno 6909 bound_to 6896
  145.9072  140.7945  142.9713 H   0  0  0  0  0  0  0  0  0  0  0  0  # atno 7974 bound_to 7965
  154.9824  140.0396  157.2283 H   0  0  0  0  0  0  0  0  0  0  0  0  # atno 8008 bound_to 7997
  154.7702  140.2800  155.6121 H   0  0  0  0  0  0  0  0  0  0  0  0  # atno 8009 bound_to 7997
  156.2919  140.2611  156.2503 H   0  0  0  0  0  0  0  0  0  0  0  0  # atno 8010 bound_to 7997
  140.0726  143.4863  152.1971 H   0  0  0  0  0  0  0  0  0  0  0  0  # atno 10167 bound_to 10162
  157.6379  131.0971  150.6931 H   0  0  0  0  0  0  0  0  0  0  0  0  # atno 10718 bound_to 10713
  153.0440  135.6493  154.0866 H   0  0  0  0  0  0  0  0  0  0  0  0  # atno 10763 bound_to 10752
  154.0567  135.2891  155.3333 H   0  0  0  0  0  0  0  0  0  0  0  0  # atno 10764 bound_to 10752
  154.6684  135.5365  153.8172 H   0  0  0  0  0  0  0  0  0  0  0  0  # atno 10765 bound_to 10752
  140.4115  134.6688  157.4616 H   0  0  0  0  0  0  0  0  0  0  0  0  # atno 11005 bound_to 11000
  144.6740  140.1769  143.7409 LP  0  0  0  0  0  0  0  0  0  0  0  0  # atno 17320 bound_to 7965
  145.8717  139.2275  143.1657 LP  0  0  0  0  0  0  0  0  0  0  0  0  # atno 17321 bound_to 7965
  139.5827  144.7517  151.3599 LP  0  0  0  0  0  0  0  0  0  0  0  0  # atno 17342 bound_to 10162
  140.7118  143.7371  150.7581 LP  0  0  0  0  0  0  0  0  0  0  0  0  # atno 17343 bound_to 10162
  156.7259  130.4695  149.5511 LP  0  0  0  0  0  0  0  0  0  0  0  0  # atno 17370 bound_to 10713
  156.1634  130.6389  151.0748 LP  0  0  0  0  0  0  0  0  0  0  0  0  # atno 17371 bound_to 10713
  140.0264  134.6470  155.9167 LP  0  0  0  0  0  0  0  0  0  0  0  0  # atno 17394 bound_to 11000
  141.1819  133.6548  156.5056 LP  0  0  0  0  0  0  0  0  0  0  0  0  # atno 17395 bound_to 11000

$$$$
