AV-unprocessed.smi:690|AV-procd|sdf|3361|dock3
  -GOLD-   22720 0343D 1   1.00000     0.00000
 Structure written by MMmdl.
 46 48  0  0  0  0  0  0  0  0  1 V2000
  152.7126  138.7708  154.6792 C   0  0  0  0  0  0  0  0  0  0  0  0
  152.3942  138.3865  156.1254 C   0  0  0  0  0  0  0  0  0  0  0  0
  151.0094  138.1007  156.2255 O   0  0  0  0  0  0  0  0  0  0  0  0
  150.1912  139.2614  156.1532 C   0  0  1  0  0  0  0  0  0  0  0  0
  148.7214  138.8668  156.3313 C   0  0  0  0  0  0  0  0  0  0  0  0
  148.8656  139.1775  157.8243 C   0  0  1  0  0  0  0  0  0  0  0  0
  149.2166  137.9756  158.5806 N   0  0  0  0  0  0  0  0  0  0  0  0
  148.3587  137.2521  159.3131 C   0  0  0  0  0  0  0  0  0  0  0  0
  147.1669  137.5381  159.4345 O   0  0  0  0  0  0  0  0  0  0  0  0
  148.9509  136.0377  160.0411 C   0  0  0  0  0  0  0  0  0  0  0  0
  147.9752  135.3584  160.9092 N   0  0  0  0  0  0  0  0  0  0  0  0
  147.6683  134.0166  160.6066 C   0  0  0  0  0  0  0  0  0  0  0  0
  146.7963  133.3054  161.3389 C   0  0  0  0  0  0  0  0  0  0  0  0
  146.1653  133.9508  162.4656 C   0  0  0  0  0  0  0  0  0  0  0  0
  146.4531  135.2330  162.7650 C   0  0  0  0  0  0  0  0  0  0  0  0
  147.4052  136.0144  161.9672 C   0  0  0  0  0  0  0  0  0  0  0  0
  147.6739  137.1863  162.2335 O   0  0  0  0  0  0  0  0  0  0  0  0
  150.0885  140.0650  157.4785 C   0  0  0  0  0  0  0  0  0  0  0  0
  149.8184  141.5597  157.3076 C   0  0  0  0  0  0  0  0  0  0  0  0
  151.1783  142.2592  157.2912 C   0  0  0  0  0  0  0  0  0  0  0  0
  152.1142  141.3499  158.0905 C   0  0  0  0  0  0  0  0  0  0  0  0
  151.2929  140.1003  158.4258 C   0  0  0  0  0  0  0  0  0  0  0  0
  153.7709  139.0043  154.5612 H   0  0  0  0  0  0  0  0  0  0  0  0
  152.1398  139.6459  154.3714 H   0  0  0  0  0  0  0  0  0  0  0  0
  152.4715  137.9547  153.9973 H   0  0  0  0  0  0  0  0  0  0  0  0
  152.9892  137.5218  156.4187 H   0  0  0  0  0  0  0  0  0  0  0  0
  152.6528  139.2056  156.7977 H   0  0  0  0  0  0  0  0  0  0  0  0
  150.3563  139.8632  155.2574 H   0  0  0  0  0  0  0  0  0  0  0  0
  148.0403  139.5528  155.8258 H   0  0  0  0  0  0  0  0  0  0  0  0
  148.4887  137.8287  156.0895 H   0  0  0  0  0  0  0  0  0  0  0  0
  148.0142  139.7301  158.2256 H   0  0  0  0  0  0  0  0  0  0  0  0
  150.1825  137.6819  158.5465 H   0  0  0  0  0  0  0  0  0  0  0  0
  149.3587  135.3330  159.3134 H   0  0  0  0  0  0  0  0  0  0  0  0
  149.8103  136.3782  160.6201 H   0  0  0  0  0  0  0  0  0  0  0  0
  148.1889  133.6057  159.7538 H   0  0  0  0  0  0  0  0  0  0  0  0
  146.5760  132.2765  161.0949 H   0  0  0  0  0  0  0  0  0  0  0  0
  145.4601  133.4024  163.0728 H   0  0  0  0  0  0  0  0  0  0  0  0
  145.9726  135.6988  163.6129 H   0  0  0  0  0  0  0  0  0  0  0  0
  149.2468  141.7853  156.4068 H   0  0  0  0  0  0  0  0  0  0  0  0
  149.2335  141.9295  158.1510 H   0  0  0  0  0  0  0  0  0  0  0  0
  151.5390  142.3453  156.2655 H   0  0  0  0  0  0  0  0  0  0  0  0
  151.1228  143.2658  157.7068 H   0  0  0  0  0  0  0  0  0  0  0  0
  152.9895  141.0936  157.4932 H   0  0  0  0  0  0  0  0  0  0  0  0
  152.4704  141.8372  158.9986 H   0  0  0  0  0  0  0  0  0  0  0  0
  150.9448  140.1777  159.4567 H   0  0  0  0  0  0  0  0  0  0  0  0
  151.9015  139.1975  158.3779 H   0  0  0  0  0  0  0  0  0  0  0  0
  1  2  1  0  0  0  0
  1 23  1  0  0  0  0
  1 24  1  0  0  0  0
  1 25  1  0  0  0  0
  2  3  1  0  0  0  0
  2 26  1  0  0  0  0
  2 27  1  0  0  0  0
  3  4  1  0  0  0  0
  4 18  1  0  0  0  0
  4  5  1  0  0  0  0
  4 28  1  0  0  0  0
  5  6  1  0  0  0  0
  5 29  1  0  0  0  0
  5 30  1  0  0  0  0
  6  7  1  0  0  0  0
  6 18  1  0  0  0  0
  6 31  1  0  0  0  0
  7  8  1  0  0  0  0
  7 32  1  0  0  0  0
  8  9  2  0  0  0  0
  8 10  1  0  0  0  0
 10 11  1  0  0  0  0
 10 33  1  0  0  0  0
 10 34  1  0  0  0  0
 11 16  1  0  0  0  0
 11 12  1  0  0  0  0
 12 13  2  0  0  0  0
 12 35  1  0  0  0  0
 13 14  1  0  0  0  0
 13 36  1  0  0  0  0
 14 15  2  0  0  0  0
 14 37  1  0  0  0  0
 15 16  1  0  0  0  0
 15 38  1  0  0  0  0
 16 17  2  0  0  0  0
 18 22  1  0  0  0  0
 18 19  1  0  0  0  0
 19 20  1  0  0  0  0
 19 39  1  0  0  0  0
 19 40  1  0  0  0  0
 20 21  1  0  0  0  0
 20 41  1  0  0  0  0
 20 42  1  0  0  0  0
 21 22  1  0  0  0  0
 21 43  1  0  0  0  0
 21 44  1  0  0  0  0
 22 45  1  0  0  0  0
 22 46  1  0  0  0  0
M  END
> <s_m_source_file>
AV-unprocessed.smi

> <i_m_source_file_index>
690

> <i_lp_mmshare_version>
43012

> <i_f3d_flags>
0

> <s_epik_input>
W0NIMl0xW0NIMl1bQ0gyXVtDSDJdQzEyW0NASF0oT1tDSDJdW0NIM10pW0NIMl1bQ0BIXTJbTkhdQyg9TylbQ0gyXW4zW2NIXVtjSF1bY0hdW2NIXWMzPU8=

> <s_epik_cmdline>
J2VwaWtfcHl0aG9uJywgJy1waCcsICc3LjAnLCAnLXRuJywgJzgnLCAnLW1hJywgJzIwMCcsICctbWV0YWxfYmluZGluZycsICctaW1hZScsICc8aW5maWxlLm1hZT4nLCAnLW9tYWUnLCAnPG91dGZpbGUubWFlPic=

> <r_lp_tautomer_probability>
1

> <r_epik_Ionization_Penalty>
4.11691e-07

> <r_epik_Ionization_Penalty_Charging>
3.92797e-07

> <r_epik_Ionization_Penalty_Neutral>
1.88943e-08

> <r_epik_State_Penalty>
-0

> <r_epik_Charging_Adjusted_Penalty>
3.92797e-07

> <i_epik_Tot_Q>
0

> <i_epik_Tot_abs_Q>
0

> <r_epik_Metal_State_Penalty>
-0

> <b_epik_Metal_Only>
0

> <s_lp_Force_Field>
OPLS_2005

> <r_lp_Energy>
47.4249

> <b_lp_Chiralities_Consistent>
1

> <s_lp_Variant>
AV-unprocessed.smi:690-2

> <Gold.Version>
5.8.1

> <Gold.Id.Protein>
6NUR|6NUR_protein|mol2

> <Gold.PLP.Fitness>
39.9736

> <Gold.PLP.PLP>
-35.3049

> <Gold.PLP.part.hbond>
-3.0000

> <Gold.PLP.part.metal>
0.0000

> <Gold.PLP.part.buried>
-4.4531

> <Gold.PLP.part.nonpolar>
-29.4498

> <Gold.PLP.part.repulsive>
0.1772

> <Gold.PLP.ligand.clash>
0.0000

> <Gold.PLP.ligand.torsion>
0.4161

> <Gold.PLP.Chemscore.Hbond>
1.6998

> <Gold.PLP.Chemscore.CHOScore>
0.0000

> <Gold.PLP.Chemscore.Metal>
0.0000

> <Gold.Chemscore.Hbonds>
donor molecule, donor type, donor heavy atom, donor atom, acceptor molecule, acceptor atom, score
      P1  H  6931  6943       L1    17  0.94
      P1  H  6934  6947       L1     9  0.69

> <Gold.PLP.Chemscore.Internal.Correction>
0.4015

> <Gold.Rescore>
     Score         DG    S(hbond)    S(metal)    S(lipo)     H(rot)  DE(clash)    DE(int)     intcor
     16.44     -17.11       1.71        0.00      87.60       1.69       0.13       0.54       ----

> <Gold.Chemscore.Fitness>
16.4400

> <Gold.Chemscore.DG>
-17.1096

> <Gold.Chemscore.ZeroCoef>
-5.4800

> <Gold.Chemscore.Hbond>
1.7086

> <Gold.Chemscore.Metal>
0.0000

> <Gold.Chemscore.Lipo>
87.6008

> <Gold.Chemscore.Internal_Hbond>
0.0000

> <Gold.Chemscore.DEClash>
0.1334

> <Gold.Chemscore.DEInternal>
0.5362

> <Gold.Chemscore.Rot>
1.6900

> <Gold.Chemscore.Internal.Correction>
   9.000000E+99

> <Gold.Chemscore.Hbonds>
donor molecule, donor type, donor heavy atom, donor atom, acceptor molecule, acceptor atom, score
      P1  H  6931  6943       L1    17  0.91
      P1  H  6934  6947       L1     9  0.26

> <Gold.Chemscore.Hbond.Weighted>
-5.7067

> <Gold.Chemscore.Metal.Weighted>
-0.0000

> <Gold.Chemscore.Lipo.Weighted>
-10.2493

> <Gold.Chemscore.Internal_Hbond.Weighted>
0.0000

> <Gold.Chemscore.DEClash.Weighted>
0.1334

> <Gold.Chemscore.DEInternal.Weighted>
0.5362

> <Gold.Chemscore.Rot.Weighted>
4.3265

> <Gold.Chemscore.Internal.Correction.Weighted>
   9.000000E+99

> <Gold.Protein.RotatedTorsions>
[ 6907 6896 6895 6894 ] final   98.73 input  -60.11 | X-H torsion
[ 7974 7965 7964 7962 ] final   55.71 input  175.53 | X-H torsion
[ 8008 7997 7996 7995 ] final  -34.44 input   59.86 | X-H torsion
[ 10167 10162 10161 10158 ] final -160.62 input  -65.29 | X-H torsion
[ 10718 10713 10712 10709 ] final   58.23 input   66.30 | X-H torsion
[ 10763 10752 10751 10750 ] final  -68.83 input  -60.55 | X-H torsion
[ 11005 11000 10999 10996 ] final  -51.22 input  -57.11 | X-H torsion

> <Gold.Protein.ActiveResidues>
 VAL166  LYS551  ARG553  GLY616  TRP617  ASP618  TYR619  PRO620  LYS621  CYS622 
 ASP623  PHE694  ASN695  SER759  ASP760  ASP761  ALA762  ILE779  LEU786  VAL792 
 PHE793  MET794  SER795  GLU796  ALA797  LYS798  CYS799  TRP800  GLU811  SER814 

> <Gold.Protein.RotatedAtoms>
  152.5404  134.0536  159.8120 H   0  0  0  0  0  0  0  0  0  0  0  0  # atno 6907 bound_to 6896
  151.0674  133.5486  159.2637 H   0  0  0  0  0  0  0  0  0  0  0  0  # atno 6908 bound_to 6896
  151.2362  135.0580  159.9061 H   0  0  0  0  0  0  0  0  0  0  0  0  # atno 6909 bound_to 6896
  145.9475  139.3943  143.0326 H   0  0  0  0  0  0  0  0  0  0  0  0  # atno 7974 bound_to 7965
  154.4121  140.1684  156.2050 H   0  0  0  0  0  0  0  0  0  0  0  0  # atno 8008 bound_to 7997
  155.9492  140.3402  155.6370 H   0  0  0  0  0  0  0  0  0  0  0  0  # atno 8009 bound_to 7997
  155.6892  140.0731  157.2445 H   0  0  0  0  0  0  0  0  0  0  0  0  # atno 8010 bound_to 7997
  139.6526  144.0057  152.2172 H   0  0  0  0  0  0  0  0  0  0  0  0  # atno 10167 bound_to 10162
  157.5579  130.8814  149.9065 H   0  0  0  0  0  0  0  0  0  0  0  0  # atno 10718 bound_to 10713
  154.3946  135.6045  153.5863 H   0  0  0  0  0  0  0  0  0  0  0  0  # atno 10763 bound_to 10752
  152.9787  135.5892  154.4256 H   0  0  0  0  0  0  0  0  0  0  0  0  # atno 10764 bound_to 10752
  154.4046  135.2843  155.2053 H   0  0  0  0  0  0  0  0  0  0  0  0  # atno 10765 bound_to 10752
  141.0859  133.6642  156.3845 H   0  0  0  0  0  0  0  0  0  0  0  0  # atno 11005 bound_to 11000
  145.8216  140.9676  143.0896 LP  0  0  0  0  0  0  0  0  0  0  0  0  # atno 17320 bound_to 7965
  144.6790  140.0049  143.7484 LP  0  0  0  0  0  0  0  0  0  0  0  0  # atno 17321 bound_to 7965
  139.9775  144.6451  150.7932 LP  0  0  0  0  0  0  0  0  0  0  0  0  # atno 17342 bound_to 10162
  140.7544  143.3027  151.3039 LP  0  0  0  0  0  0  0  0  0  0  0  0  # atno 17343 bound_to 10162
  156.0635  130.3696  150.0929 LP  0  0  0  0  0  0  0  0  0  0  0  0  # atno 17370 bound_to 10713
  156.9096  130.9647  151.3565 LP  0  0  0  0  0  0  0  0  0  0  0  0  # atno 17371 bound_to 10713
  140.5364  134.6163  157.5366 LP  0  0  0  0  0  0  0  0  0  0  0  0  # atno 17394 bound_to 11000
  139.9677  134.7345  156.0104 LP  0  0  0  0  0  0  0  0  0  0  0  0  # atno 17395 bound_to 11000

$$$$
