#       Name:                AV-unprocessed.smi:304
#       Creating user name   scv26
#       Creation time:       Thu Mar 26 22:17:30 2020


#       File generated by GOLD software.
#

@<TRIPOS>MOLECULE
AV-unprocessed.smi:304
    41    43     1
SMALL
NO_CHARGES


@<TRIPOS>ATOM
      1 ****        -0.4102  -2.1135  -0.6271 O.3            1 S1                 0.0000
      2 ****         0.1997  -1.2476  -1.5635 C.3            1 S1                 0.0000
      3 ****         1.7268  -1.3462  -1.4162 C.3            1 S1                 0.0000
      4 ****         2.1377  -0.6195  -0.2707 O.3            1 S1                 0.0000
      5 ****         3.5393  -0.6416  -0.0627 C.3            1 S1                 0.0000
      6 ****         3.8354   0.1822   1.1517 C.2            1 S1                 0.0000
      7 ****         5.0412   0.2856   1.7976 C.2            1 S1                 0.0000
      8 ****         5.0054   1.1579   2.9250 C.2            1 S1                 0.0000
      9 ****         3.7716   1.7162   3.1259 C.2            1 S1                 0.0000
     10 ****         2.6252   1.1791   1.9301 S.3            1 S1                 0.0000
     11 ****        -0.3352   0.1952  -1.4468 C.3            1 S1                 0.0000
     12 ****        -1.7974   0.2765  -1.5682 N.pl3          1 S1                 0.0000
     13 ****        -2.5746   0.3516  -2.6825 C.2            1 S1                 0.0000
     14 ****        -3.8722   0.4207  -2.2747 N.pl3          1 S1                 1.0000
     15 ****        -3.9253   0.3892  -0.8793 C.ar           1 S1                 0.0000
     16 ****        -5.0082   0.4347  -0.0073 C.ar           1 S1                 0.0000
     17 ****        -4.7167   0.3791   1.3716 C.ar           1 S1                 0.0000
     18 ****        -5.7344   0.4192   2.2639 F              1 S1                 0.0000
     19 ****        -3.3883   0.2809   1.8374 C.ar           1 S1                 0.0000
     20 ****        -3.1531   0.2266   3.1697 F              1 S1                 0.0000
     21 ****        -2.2983   0.2364   0.9434 C.ar           1 S1                 0.0000
     22 ****        -2.5956   0.2946  -0.4180 C.ar           1 S1                 0.0000
     23 ****        -1.3404  -2.1252  -0.7913 H              1 S1                 0.0000
     24 ****        -0.0665  -1.6360  -2.5473 H              1 S1                 0.0000
     25 ****         2.0465  -2.3878  -1.3541 H              1 S1                 0.0000
     26 ****         2.2028  -0.9141  -2.2976 H              1 S1                 0.0000
     27 ****         3.8839  -1.6662   0.0831 H              1 S1                 0.0000
     28 ****         4.0601  -0.2305  -0.9284 H              1 S1                 0.0000
     29 ****         5.9416  -0.2321   1.5022 H              1 S1                 0.0000
     30 ****         5.8738   1.3432   3.5398 H              1 S1                 0.0000
     31 ****         3.4677   2.4070   3.8984 H              1 S1                 0.0000
     32 ****        -0.0339   0.6617  -0.5089 H              1 S1                 0.0000
     33 ****         0.0902   0.8114  -2.2397 H              1 S1                 0.0000
     34 ****        -2.2253   0.3589  -3.7051 H              1 S1                 0.0000
     35 ****        -6.0266   0.5087  -0.3592 H              1 S1                 0.0000
     36 ****        -1.2864   0.1561   1.3126 H              1 S1                 0.0000
     37 ****        -4.6615   0.4865  -2.9050 H              1 S1                 0.0000
     38 ****        -0.2355  -1.7839   0.3008 LP             1 S1                 0.0000
     39 ****        -0.0381  -3.0361  -0.7286 LP             1 S1                 0.0000
     40 ****         1.6919  -1.0150   0.5323 LP             1 S1                 0.0000
     41 ****         1.8482   0.3317  -0.3780 LP             1 S1                 0.0000
@<TRIPOS>BOND
    1    1    2 1     
    2    1   23 1     
    3    2    3 1     
    4    2   11 1     
    5    2   24 1     
    6    3    4 1     
    7    3   25 1     
    8    3   26 1     
    9    4    5 1     
   10    5    6 1     
   11    5   27 1     
   12    5   28 1     
   13    6   10 1     
   14    6    7 2     
   15    7    8 1     
   16    7   29 1     
   17    8    9 2     
   18    8   30 1     
   19    9   10 1     
   20    9   31 1     
   21   11   12 1     
   22   11   32 1     
   23   11   33 1     
   24   12   22 1     
   25   12   13 1     
   26   13   14 2     
   27   13   34 1     
   28   14   15 1     
   29   14   37 1     
   30   15   22 ar    
   31   15   16 ar    
   32   16   17 ar    
   33   16   35 1     
   34   17   18 1     
   35   17   19 ar    
   36   19   20 1     
   37   19   21 ar    
   38   21   22 ar    
   39   21   36 1     
   40    1   38 1     
   41    1   39 1     
   42    4   40 1     
   43    4   41 1     
@<TRIPOS>SUBSTRUCTURE
      1 S1             1
@<TRIPOS>SET
LONE_PAIRS      STATIC     ATOMS    <user>   **** ""
4 38 39 40 41
DONOR_HYDROGENS      STATIC     ATOMS    <user>   **** ""
2 23 37
ATOM$BLUE        STATIC     ATOMS    COLORGROUP SYSTEM
4 38 39 40 41
ATOM$RED        STATIC     ATOMS    COLORGROUP SYSTEM
2 23 37
