AV-unprocessed.smi:1554|AV-procd|sdf|6256|dock8
  -GOLD-   22720 6443D 1   1.00000     0.00000
 Structure written by MMmdl.
 49 51  0  0  0  0  0  0  0  0  3 V2000
  152.2742  142.6840  159.8417 C   0  0  0  0  0  0  0  0  0  0  0  0
  151.7826  141.8986  158.6375 C   0  0  0  0  0  0  0  0  0  0  0  0
  150.9642  142.5560  157.6916 C   0  0  0  0  0  0  0  0  0  0  0  0
  150.5270  141.8100  156.6035 C   0  0  0  0  0  0  0  0  0  0  0  0
  149.7203  142.1612  155.5193 N   0  3  0  0  0  0  0  0  0  0  0  0
  149.5633  141.0840  154.7013 C   0  0  0  0  0  0  0  0  0  0  0  0
  150.2557  140.0478  155.2485 N   0  0  0  0  0  0  0  0  0  0  0  0
  150.4161  138.6680  154.7658 C   0  0  0  0  0  0  0  0  0  0  0  0
  149.0988  137.8670  154.7847 C   0  0  2  0  0  0  0  0  0  0  0  0
  148.1433  138.5420  155.5797 O   0  0  0  0  0  0  0  0  0  0  0  0
  149.3038  136.4502  155.3577 C   0  0  0  0  0  0  0  0  0  0  0  0
  148.5881  135.4043  154.5829 N   0  3  1  0  0  0  0  0  0  0  0  0
  149.0981  134.0307  154.8181 C   0  0  0  0  0  0  0  0  0  0  0  0
  148.3317  133.0190  153.9502 C   0  0  0  0  0  0  0  0  0  0  0  0
  146.9394  133.1124  154.2237 O   0  0  0  0  0  0  0  0  0  0  0  0
  146.4141  134.3986  153.9153 C   0  0  1  0  0  0  0  0  0  0  0  0
  144.9006  134.3687  154.1554 C   0  0  0  0  0  0  0  0  0  0  0  0
  147.1210  135.4521  154.7899 C   0  0  0  0  0  0  0  0  0  0  0  0
  150.8773  140.4561  156.4353 C   0  0  0  0  0  0  0  0  0  0  0  0
  151.6852  139.7942  157.3573 C   0  0  0  0  0  0  0  0  0  0  0  0
  152.1384  140.5349  158.4723 C   0  0  0  0  0  0  0  0  0  0  0  0
  153.0185  139.8372  159.4954 C   0  0  0  0  0  0  0  0  0  0  0  0
  151.9362  143.7201  159.8074 H   0  0  0  0  0  0  0  0  0  0  0  0
  153.3637  142.6904  159.8775 H   0  0  0  0  0  0  0  0  0  0  0  0
  151.8992  142.2421  160.7653 H   0  0  0  0  0  0  0  0  0  0  0  0
  150.6888  143.5938  157.8113 H   0  0  0  0  0  0  0  0  0  0  0  0
  148.9931  141.0580  153.7837 H   0  0  0  0  0  0  0  0  0  0  0  0
  150.7945  138.7308  153.7447 H   0  0  0  0  0  0  0  0  0  0  0  0
  151.1937  138.1712  155.3467 H   0  0  0  0  0  0  0  0  0  0  0  0
  148.7158  137.8146  153.7659 H   0  0  0  0  0  0  0  0  0  0  0  0
  148.5729  138.8609  156.3592 H   0  0  0  0  0  0  0  0  0  0  0  0
  150.3659  136.2031  155.3985 H   0  0  0  0  0  0  0  0  0  0  0  0
  148.9509  136.4424  156.3905 H   0  0  0  0  0  0  0  0  0  0  0  0
  150.1600  133.9693  154.5843 H   0  0  0  0  0  0  0  0  0  0  0  0
  148.9876  133.7738  155.8729 H   0  0  0  0  0  0  0  0  0  0  0  0
  148.5200  133.1925  152.8895 H   0  0  0  0  0  0  0  0  0  0  0  0
  148.6671  132.0056  154.1707 H   0  0  0  0  0  0  0  0  0  0  0  0
  146.5932  134.6162  152.8607 H   0  0  0  0  0  0  0  0  0  0  0  0
  144.4466  135.3315  153.9200 H   0  0  0  0  0  0  0  0  0  0  0  0
  144.6691  134.1347  155.1950 H   0  0  0  0  0  0  0  0  0  0  0  0
  144.4216  133.6147  153.5302 H   0  0  0  0  0  0  0  0  0  0  0  0
  146.8972  135.2814  155.8443 H   0  0  0  0  0  0  0  0  0  0  0  0
  146.7472  136.4457  154.5391 H   0  0  0  0  0  0  0  0  0  0  0  0
  151.9549  138.7556  157.2361 H   0  0  0  0  0  0  0  0  0  0  0  0
  153.1679  138.7868  159.2438 H   0  0  0  0  0  0  0  0  0  0  0  0
  152.5644  139.8794  160.4856 H   0  0  0  0  0  0  0  0  0  0  0  0
  153.9990  140.3115  159.5422 H   0  0  0  0  0  0  0  0  0  0  0  0
  148.7425  135.6172  153.6072 H   0  0  0  0  0  0  0  0  0  0  0  0
  149.3080  143.0693  155.3467 H   0  0  0  0  0  0  0  0  0  0  0  0
  1  2  1  0  0  0  0
  1 23  1  0  0  0  0
  1 24  1  0  0  0  0
  1 25  1  0  0  0  0
  2 21  1  0  0  0  0
  2  3  2  0  0  0  0
  3  4  1  0  0  0  0
  3 26  1  0  0  0  0
  4 19  2  0  0  0  0
  4  5  1  0  0  0  0
  5  6  2  0  0  0  0
  5 49  1  0  0  0  0
  6  7  1  0  0  0  0
  6 27  1  0  0  0  0
  7  8  1  0  0  0  0
  7 19  1  0  0  0  0
  8  9  1  0  0  0  0
  8 28  1  0  0  0  0
  8 29  1  0  0  0  0
  9 10  1  0  0  0  0
  9 11  1  0  0  0  0
  9 30  1  0  0  0  0
 10 31  1  0  0  0  0
 11 12  1  0  0  0  0
 11 32  1  0  0  0  0
 11 33  1  0  0  0  0
 12 18  1  0  0  0  0
 12 13  1  0  0  0  0
 12 48  1  0  0  0  0
 13 14  1  0  0  0  0
 13 34  1  0  0  0  0
 13 35  1  0  0  0  0
 14 15  1  0  0  0  0
 14 36  1  0  0  0  0
 14 37  1  0  0  0  0
 15 16  1  0  0  0  0
 16 17  1  0  0  0  0
 16 18  1  0  0  0  0
 16 38  1  0  0  0  0
 17 39  1  0  0  0  0
 17 40  1  0  0  0  0
 17 41  1  0  0  0  0
 18 42  1  0  0  0  0
 18 43  1  0  0  0  0
 19 20  1  0  0  0  0
 20 21  2  0  0  0  0
 20 44  1  0  0  0  0
 21 22  1  0  0  0  0
 22 45  1  0  0  0  0
 22 46  1  0  0  0  0
 22 47  1  0  0  0  0
M  CHG  1   5   1
M  CHG  1  12   1
M  END
> <s_m_source_file>
AV-unprocessed.smi

> <i_m_source_file_index>
1554

> <i_lp_mmshare_version>
43012

> <i_f3d_flags>
0

> <s_epik_input>
W0NIM11jKFtjSF0xKWMoW0NIM10pW2NIXWMoYzEyKW4oW2NIXW4yKVtDSDJdW0NASF0oW09IXSlbQ0gyXU4zW0NIMl1bQ0gyXU9bQ0BASF0oW0NIM10pW0NIMl0z

> <s_epik_cmdline>
J2VwaWtfcHl0aG9uJywgJy1waCcsICc3LjAnLCAnLXRuJywgJzgnLCAnLW1hJywgJzIwMCcsICctbWV0YWxfYmluZGluZycsICctaW1hZScsICc8aW5maWxlLm1hZT4nLCAnLW9tYWUnLCAnPG91dGZpbGUubWFlPic=

> <r_epik_Ionization_Penalty>
1.8848

> <r_epik_Ionization_Penalty_Charging>
1.88479

> <r_epik_Ionization_Penalty_Neutral>
1.42224e-05

> <r_epik_State_Penalty>
1.94551

> <r_epik_Charging_Adjusted_Penalty>
3.8303

> <i_epik_Tot_Q>
2

> <i_epik_Tot_abs_Q>
2

> <r_epik_Metal_State_Penalty>
5.95849

> <b_epik_Metal_Only>
0

> <s_lp_Force_Field>
OPLS_2005

> <r_lp_Energy>
29.8274

> <b_lp_Chiralities_Consistent>
1

> <s_lp_Variant>
AV-unprocessed.smi:1554-17

> <Gold.Version>
5.8.1

> <Gold.Id.Protein>
6NUR|6NUR_protein|mol2

> <Gold.PLP.Fitness>
49.1605

> <Gold.PLP.PLP>
-37.9987

> <Gold.PLP.part.hbond>
-2.0000

> <Gold.PLP.part.metal>
0.0000

> <Gold.PLP.part.buried>
-0.2276

> <Gold.PLP.part.nonpolar>
-34.9506

> <Gold.PLP.part.repulsive>
0.2843

> <Gold.PLP.ligand.clash>
0.0000

> <Gold.PLP.ligand.torsion>
1.3965

> <Gold.PLP.Chemscore.Hbond>
3.9840

> <Gold.PLP.Chemscore.CHOScore>
0.6579

> <Gold.PLP.Chemscore.Metal>
0.0000

> <Gold.Chemscore.Hbonds>
donor molecule, donor type, donor heavy atom, donor atom, acceptor molecule, acceptor atom, score
      L1  H     5    49       P1  8028  2.00
      L1  H    12    48       P1  7948  2.00
      L1  C     6    27       P1  7957  0.14

> <Gold.PLP.Chemscore.Internal.Correction>
0.0292

> <Gold.Rescore>
     Score         DG    S(hbond)    S(metal)    S(lipo)     H(rot)  DE(clash)    DE(int)     intcor
     16.36     -17.87       1.90        0.00      97.99       2.11       0.06       1.45       ----

> <Gold.Chemscore.Fitness>
16.3629

> <Gold.Chemscore.DG>
-17.8710

> <Gold.Chemscore.ZeroCoef>
-5.4800

> <Gold.Chemscore.Hbond>
1.8961

> <Gold.Chemscore.Metal>
0.0000

> <Gold.Chemscore.Lipo>
97.9931

> <Gold.Chemscore.Internal_Hbond>
0.0000

> <Gold.Chemscore.DEClash>
0.0556

> <Gold.Chemscore.DEInternal>
1.4525

> <Gold.Chemscore.Rot>
2.1122

> <Gold.Chemscore.Internal.Correction>
   9.000000E+99

> <Gold.Chemscore.Hbonds>
donor molecule, donor type, donor heavy atom, donor atom, acceptor molecule, acceptor atom, score
      L1  H     5    49       P1  8028  0.99
      L1  H    12    48       P1  7948  0.96

> <Gold.Chemscore.Hbond.Weighted>
-6.3330

> <Gold.Chemscore.Metal.Weighted>
-0.0000

> <Gold.Chemscore.Lipo.Weighted>
-11.4652

> <Gold.Chemscore.Internal_Hbond.Weighted>
0.0000

> <Gold.Chemscore.DEClash.Weighted>
0.0556

> <Gold.Chemscore.DEInternal.Weighted>
1.4525

> <Gold.Chemscore.Rot.Weighted>
5.4073

> <Gold.Chemscore.Internal.Correction.Weighted>
   9.000000E+99

> <Gold.Protein.RotatedTorsions>
[ 6907 6896 6895 6894 ] final  -83.15 input  -60.11 | X-H torsion
[ 7974 7965 7964 7962 ] final   37.97 input  175.53 | X-H torsion
[ 8008 7997 7996 7995 ] final   93.09 input   59.86 | X-H torsion
[ 10167 10162 10161 10158 ] final   93.85 input  -65.29 | X-H torsion
[ 10718 10713 10712 10709 ] final  -31.01 input   66.30 | X-H torsion
[ 10763 10752 10751 10750 ] final    2.45 input  -60.55 | X-H torsion
[ 11005 11000 10999 10996 ] final   57.15 input  -57.11 | X-H torsion

> <Gold.Protein.ActiveResidues>
 VAL166  LYS551  ARG553  GLY616  TRP617  ASP618  TYR619  PRO620  LYS621  CYS622 
 ASP623  PHE694  ASN695  SER759  ASP760  ASP761  ALA762  ILE779  LEU786  VAL792 
 PHE793  MET794  SER795  GLU796  ALA797  LYS798  CYS799  TRP800  GLU811  SER814 

> <Gold.Protein.RotatedAtoms>
  150.6889  134.3556  159.4927 H   0  0  0  0  0  0  0  0  0  0  0  0  # atno 6907 bound_to 6896
  152.1391  134.9073  160.0564 H   0  0  0  0  0  0  0  0  0  0  0  0  # atno 6908 bound_to 6896
  152.0214  133.3865  159.4296 H   0  0  0  0  0  0  0  0  0  0  0  0  # atno 6909 bound_to 6896
  146.1097  139.5828  142.9360 H   0  0  0  0  0  0  0  0  0  0  0  0  # atno 7974 bound_to 7965
  156.0428  140.3317  155.7263 H   0  0  0  0  0  0  0  0  0  0  0  0  # atno 8008 bound_to 7997
  155.5719  140.0628  157.2822 H   0  0  0  0  0  0  0  0  0  0  0  0  # atno 8009 bound_to 7997
  154.4400  140.1859  156.0876 H   0  0  0  0  0  0  0  0  0  0  0  0  # atno 8010 bound_to 7997
  139.8140  144.6761  150.9603 H   0  0  0  0  0  0  0  0  0  0  0  0  # atno 10167 bound_to 10162
  156.3926  130.4375  149.7383 H   0  0  0  0  0  0  0  0  0  0  0  0  # atno 10718 bound_to 10713
  153.2955  135.6952  153.7252 H   0  0  0  0  0  0  0  0  0  0  0  0  # atno 10763 bound_to 10752
  153.6187  135.3431  155.3004 H   0  0  0  0  0  0  0  0  0  0  0  0  # atno 10764 bound_to 10752
  154.8536  135.4381  154.2050 H   0  0  0  0  0  0  0  0  0  0  0  0  # atno 10765 bound_to 10752
  140.0475  134.5785  155.9305 H   0  0  0  0  0  0  0  0  0  0  0  0  # atno 11005 bound_to 11000
  145.5689  141.0396  143.2185 LP  0  0  0  0  0  0  0  0  0  0  0  0  # atno 17320 bound_to 7965
  144.7501  139.7217  143.7276 LP  0  0  0  0  0  0  0  0  0  0  0  0  # atno 17321 bound_to 7965
  140.7816  143.4156  151.0922 LP  0  0  0  0  0  0  0  0  0  0  0  0  # atno 17342 bound_to 10162
  139.7821  143.8340  152.3139 LP  0  0  0  0  0  0  0  0  0  0  0  0  # atno 17343 bound_to 10162
  156.4430  130.7870  151.2891 LP  0  0  0  0  0  0  0  0  0  0  0  0  # atno 17370 bound_to 10713
  157.7500  131.0119  150.3363 LP  0  0  0  0  0  0  0  0  0  0  0  0  # atno 17371 bound_to 10713
  141.1914  133.6571  156.5455 LP  0  0  0  0  0  0  0  0  0  0  0  0  # atno 17394 bound_to 11000
  140.3970  134.7390  157.4757 LP  0  0  0  0  0  0  0  0  0  0  0  0  # atno 17395 bound_to 11000

$$$$
