AV-unprocessed.smi:2032|AV-procd|sdf|8242|dock5
  -GOLD-   2272010513D 1   1.00000     0.00000
 Structure written by MMmdl.
 43 44  0  0  0  0  0  0  0  0  2 V2000
  150.7123  141.9702  156.1721 C   0  0  0  0  0  0  0  0  0  0  0  0
  150.1289  140.5768  156.4678 C   0  0  1  0  0  0  0  0  0  0  0  0
  148.7895  140.3060  155.7522 C   0  0  0  0  0  0  0  0  0  0  0  0
  148.9840  140.0501  154.2984 N   0  3  2  0  0  0  0  0  0  0  0  0
  147.7373  139.8324  153.4925 C   0  0  2  0  0  0  0  0  0  0  0  0
  146.8943  141.1280  153.4781 C   0  0  0  0  0  0  0  0  0  0  0  0
  146.8864  138.6226  153.9704 C   0  0  0  0  0  0  0  0  0  0  0  0
  146.9925  137.4623  153.0882 N   0  0  0  0  0  0  0  0  0  0  0  0
  146.0058  136.5904  152.8314 C   0  0  0  0  0  0  0  0  0  0  0  0
  144.8751  136.6865  153.3096 O   0  0  0  0  0  0  0  0  0  0  0  0
  146.4152  135.6240  151.9913 N   0  0  0  0  0  0  0  0  0  0  0  0
  145.6581  134.5481  151.4577 C   0  0  0  0  0  0  0  0  0  0  0  0
  144.3231  134.4683  151.5055 N   0  0  0  0  0  0  0  0  0  0  0  0
  143.8454  133.3041  150.8987 C   0  0  0  0  0  0  0  0  0  0  0  0
  144.8376  132.5036  150.3899 C   0  0  0  0  0  0  0  0  0  0  0  0
  146.4210  133.1837  150.6545 S   0  0  0  0  0  0  0  0  0  0  0  0
  149.9748  138.9559  154.1219 C   0  0  0  0  0  0  0  0  0  0  0  0
  151.3038  139.3011  154.8142 C   0  0  2  0  0  0  0  0  0  0  0  0
  152.3232  138.1622  154.7005 C   0  0  0  0  0  0  0  0  0  0  0  0
  151.0626  139.5339  156.1972 O   0  0  0  0  0  0  0  0  0  0  0  0
  150.0418  142.7529  156.5276 H   0  0  0  0  0  0  0  0  0  0  0  0
  150.8676  142.1378  155.1067 H   0  0  0  0  0  0  0  0  0  0  0  0
  151.6696  142.1055  156.6763 H   0  0  0  0  0  0  0  0  0  0  0  0
  149.9420  140.5391  157.5414 H   0  0  0  0  0  0  0  0  0  0  0  0
  148.2985  139.4419  156.2027 H   0  0  0  0  0  0  0  0  0  0  0  0
  148.1452  141.1682  155.9217 H   0  0  0  0  0  0  0  0  0  0  0  0
  148.0433  139.6142  152.4679 H   0  0  0  0  0  0  0  0  0  0  0  0
  146.0379  141.0447  152.8099 H   0  0  0  0  0  0  0  0  0  0  0  0
  147.4555  141.9944  153.1335 H   0  0  0  0  0  0  0  0  0  0  0  0
  146.5144  141.3586  154.4737 H   0  0  0  0  0  0  0  0  0  0  0  0
  147.2324  138.2753  154.9436 H   0  0  0  0  0  0  0  0  0  0  0  0
  145.8430  138.9167  154.0982 H   0  0  0  0  0  0  0  0  0  0  0  0
  147.8885  137.3058  152.6496 H   0  0  0  0  0  0  0  0  0  0  0  0
  147.3769  135.6680  151.6881 H   0  0  0  0  0  0  0  0  0  0  0  0
  142.7807  133.1247  150.8724 H   0  0  0  0  0  0  0  0  0  0  0  0
  144.7330  131.5592  149.8767 H   0  0  0  0  0  0  0  0  0  0  0  0
  149.5687  138.0297  154.5322 H   0  0  0  0  0  0  0  0  0  0  0  0
  150.1706  138.7694  153.0675 H   0  0  0  0  0  0  0  0  0  0  0  0
  151.7383  140.1900  154.3560 H   0  0  0  0  0  0  0  0  0  0  0  0
  152.5528  137.9423  153.6573 H   0  0  0  0  0  0  0  0  0  0  0  0
  151.9477  137.2479  155.1606 H   0  0  0  0  0  0  0  0  0  0  0  0
  153.2576  138.4251  155.1969 H   0  0  0  0  0  0  0  0  0  0  0  0
  149.4066  140.8907  153.9302 H   0  0  0  0  0  0  0  0  0  0  0  0
  1  2  1  0  0  0  0
  1 21  1  0  0  0  0
  1 22  1  0  0  0  0
  1 23  1  0  0  0  0
  2 20  1  0  0  0  0
  2  3  1  0  0  0  0
  2 24  1  0  0  0  0
  3  4  1  0  0  0  0
  3 25  1  0  0  0  0
  3 26  1  0  0  0  0
  4  5  1  0  0  0  0
  4 17  1  0  0  0  0
  4 43  1  0  0  0  0
  5  6  1  0  0  0  0
  5  7  1  0  0  0  0
  5 27  1  0  0  0  0
  6 28  1  0  0  0  0
  6 29  1  0  0  0  0
  6 30  1  0  0  0  0
  7  8  1  0  0  0  0
  7 31  1  0  0  0  0
  7 32  1  0  0  0  0
  8  9  1  0  0  0  0
  8 33  1  0  0  0  0
  9 10  2  0  0  0  0
  9 11  1  0  0  0  0
 11 12  1  0  0  0  0
 11 34  1  0  0  0  0
 12 16  1  0  0  0  0
 12 13  2  0  0  0  0
 13 14  1  0  0  0  0
 14 15  2  0  0  0  0
 14 35  1  0  0  0  0
 15 16  1  0  0  0  0
 15 36  1  0  0  0  0
 17 18  1  0  0  0  0
 17 37  1  0  0  0  0
 17 38  1  0  0  0  0
 18 19  1  0  0  0  0
 18 20  1  0  0  0  0
 18 39  1  0  0  0  0
 19 40  1  0  0  0  0
 19 41  1  0  0  0  0
 19 42  1  0  0  0  0
M  CHG  1   4   1
M  END
> <s_m_source_file>
AV-unprocessed.smi

> <i_m_source_file_index>
2032

> <i_lp_mmshare_version>
43012

> <i_f3d_flags>
0

> <s_epik_input>
W0NIM11bQ0BASF0xW0NIMl1OKFtDSDJdW0NASF0oTzEpW0NIM10pW0NASF0oW0NIM10pW0NIMl1bTkhdQyg9TylbTkhdYzJuW2NIXVtjSF1zMg==

> <s_epik_cmdline>
J2VwaWtfcHl0aG9uJywgJy1waCcsICc3LjAnLCAnLXRuJywgJzgnLCAnLW1hJywgJzIwMCcsICctbWV0YWxfYmluZGluZycsICctaW1hZScsICc8aW5maWxlLm1hZT4nLCAnLW9tYWUnLCAnPG91dGZpbGUubWFlPic=

> <r_lp_tautomer_probability>
0.999

> <r_epik_Ionization_Penalty>
0.695838

> <r_epik_Ionization_Penalty_Charging>
0.695697

> <r_epik_Ionization_Penalty_Neutral>
0.000141198

> <r_epik_State_Penalty>
0.717972

> <r_epik_Charging_Adjusted_Penalty>
1.41367

> <i_epik_Tot_Q>
1

> <i_epik_Tot_abs_Q>
1

> <r_epik_Metal_State_Penalty>
0.756405

> <b_epik_Metal_Only>
0

> <s_lp_Force_Field>
OPLS_2005

> <r_lp_Energy>
21.4223

> <b_lp_Chiralities_Consistent>
1

> <s_lp_Variant>
AV-unprocessed.smi:2032-12

> <Gold.Version>
5.8.1

> <Gold.Id.Protein>
6NUR|6NUR_protein|mol2

> <Gold.PLP.Fitness>
39.0596

> <Gold.PLP.PLP>
-31.9414

> <Gold.PLP.part.hbond>
-2.4067

> <Gold.PLP.part.metal>
0.0000

> <Gold.PLP.part.buried>
-2.3436

> <Gold.PLP.part.nonpolar>
-27.9327

> <Gold.PLP.part.repulsive>
0.4732

> <Gold.PLP.ligand.clash>
0.0000

> <Gold.PLP.ligand.torsion>
0.9475

> <Gold.PLP.Chemscore.Hbond>
1.9920

> <Gold.PLP.Chemscore.CHOScore>
0.9948

> <Gold.PLP.Chemscore.Metal>
0.0000

> <Gold.Chemscore.Hbonds>
donor molecule, donor type, donor heavy atom, donor atom, acceptor molecule, acceptor atom, score
      L1  H     8    33       P1  7948  0.98
      L1  H    11    34       P1  7948  1.00
      L1  C    14    35       P1 10186  0.89

> <Gold.PLP.Chemscore.Internal.Correction>
0.0528

> <Gold.Rescore>
     Score         DG    S(hbond)    S(metal)    S(lipo)     H(rot)  DE(clash)    DE(int)     intcor
     15.06     -17.28       1.92        0.00      81.28       1.61       0.04       2.18       ----

> <Gold.Chemscore.Fitness>
15.0595

> <Gold.Chemscore.DG>
-17.2766

> <Gold.Chemscore.ZeroCoef>
-5.4800

> <Gold.Chemscore.Hbond>
1.9193

> <Gold.Chemscore.Metal>
0.0000

> <Gold.Chemscore.Lipo>
81.2835

> <Gold.Chemscore.Internal_Hbond>
0.0000

> <Gold.Chemscore.DEClash>
0.0419

> <Gold.Chemscore.DEInternal>
2.1752

> <Gold.Chemscore.Rot>
1.6110

> <Gold.Chemscore.Internal.Correction>
   9.000000E+99

> <Gold.Chemscore.Hbonds>
donor molecule, donor type, donor heavy atom, donor atom, acceptor molecule, acceptor atom, score
      L1  H     8    33       P1  7948  0.93
      L1  H    11    34       P1  7948  0.96

> <Gold.Chemscore.Hbond.Weighted>
-6.4106

> <Gold.Chemscore.Metal.Weighted>
-0.0000

> <Gold.Chemscore.Lipo.Weighted>
-9.5102

> <Gold.Chemscore.Internal_Hbond.Weighted>
0.0000

> <Gold.Chemscore.DEClash.Weighted>
0.0419

> <Gold.Chemscore.DEInternal.Weighted>
2.1752

> <Gold.Chemscore.Rot.Weighted>
4.1242

> <Gold.Chemscore.Internal.Correction.Weighted>
   9.000000E+99

> <Gold.Protein.RotatedTorsions>
[ 6907 6896 6895 6894 ] final  132.50 input  -60.11 | X-H torsion
[ 7974 7965 7964 7962 ] final  123.01 input  175.53 | X-H torsion
[ 8008 7997 7996 7995 ] final  167.77 input   59.86 | X-H torsion
[ 10167 10162 10161 10158 ] final   72.35 input  -65.29 | X-H torsion
[ 10718 10713 10712 10709 ] final -125.82 input   66.30 | X-H torsion
[ 10763 10752 10751 10750 ] final  -36.66 input  -60.55 | X-H torsion
[ 11005 11000 10999 10996 ] final -107.96 input  -57.11 | X-H torsion

> <Gold.Protein.ActiveResidues>
 VAL166  LYS551  ARG553  GLY616  TRP617  ASP618  TYR619  PRO620  LYS621  CYS622 
 ASP623  PHE694  ASN695  SER759  ASP760  ASP761  ALA762  ILE779  LEU786  VAL792 
 PHE793  MET794  SER795  GLU796  ALA797  LYS798  CYS799  TRP800  GLU811  SER814 

> <Gold.Protein.RotatedAtoms>
  152.3317  133.5966  159.5814 H   0  0  0  0  0  0  0  0  0  0  0  0  # atno 6907 bound_to 6896
  150.7427  133.9857  159.3600 H   0  0  0  0  0  0  0  0  0  0  0  0  # atno 6908 bound_to 6896
  151.7732  135.0782  160.0414 H   0  0  0  0  0  0  0  0  0  0  0  0  # atno 6909 bound_to 6896
  145.1008  139.3520  143.4813 H   0  0  0  0  0  0  0  0  0  0  0  0  # atno 7974 bound_to 7965
  156.1605  140.1608  156.8620 H   0  0  0  0  0  0  0  0  0  0  0  0  # atno 8008 bound_to 7997
  154.5156  140.0790  156.8110 H   0  0  0  0  0  0  0  0  0  0  0  0  # atno 8009 bound_to 7997
  155.3717  140.3400  155.4246 H   0  0  0  0  0  0  0  0  0  0  0  0  # atno 8010 bound_to 7997
  140.0362  144.5426  150.7469 H   0  0  0  0  0  0  0  0  0  0  0  0  # atno 10167 bound_to 10162
  156.1710  130.6667  151.0179 H   0  0  0  0  0  0  0  0  0  0  0  0  # atno 10718 bound_to 10713
  153.8834  135.6819  153.4765 H   0  0  0  0  0  0  0  0  0  0  0  0  # atno 10763 bound_to 10752
  153.1221  135.4735  154.9210 H   0  0  0  0  0  0  0  0  0  0  0  0  # atno 10764 bound_to 10752
  154.7658  135.3224  154.8241 H   0  0  0  0  0  0  0  0  0  0  0  0  # atno 10765 bound_to 10752
  141.0927  133.9027  157.2038 H   0  0  0  0  0  0  0  0  0  0  0  0  # atno 11005 bound_to 11000
  146.3529  140.0885  142.8614 LP  0  0  0  0  0  0  0  0  0  0  0  0  # atno 17320 bound_to 7965
  145.0957  140.9313  143.4742 LP  0  0  0  0  0  0  0  0  0  0  0  0  # atno 17321 bound_to 7965
  140.7280  143.2657  151.4052 LP  0  0  0  0  0  0  0  0  0  0  0  0  # atno 17342 bound_to 10162
  139.6043  144.1229  152.2232 LP  0  0  0  0  0  0  0  0  0  0  0  0  # atno 17343 bound_to 10162
  157.6802  131.0840  150.7389 LP  0  0  0  0  0  0  0  0  0  0  0  0  # atno 17370 bound_to 10713
  156.7448  130.4750  149.5469 LP  0  0  0  0  0  0  0  0  0  0  0  0  # atno 17371 bound_to 10713
  139.9756  135.0115  156.9622 LP  0  0  0  0  0  0  0  0  0  0  0  0  # atno 17394 bound_to 11000
  140.5214  134.0903  155.7293 LP  0  0  0  0  0  0  0  0  0  0  0  0  # atno 17395 bound_to 11000

$$$$
