AV-unprocessed.smi:3004|AV-procd|sdf|11441|dock4
  -GOLD-   2272016373D 1   1.00000     0.00000
 Structure written by MMmdl.
 47 48  0  0  0  0  0  0  0  0  2 V2000
  152.1130  141.2766  158.3751 C   0  0  0  0  0  0  0  0  0  0  0  0
  151.5443  140.7516  157.0901 C   0  0  0  0  0  0  0  0  0  0  0  0
  150.3148  141.0982  156.4636 C   0  0  0  0  0  0  0  0  0  0  0  0
  150.2865  140.3365  155.3296 C   0  0  0  0  0  0  0  0  0  0  0  0
  149.2557  140.2507  154.2526 C   0  0  0  0  0  0  0  0  0  0  0  0
  151.4514  139.5896  155.3189 N   0  0  0  0  0  0  0  0  0  0  0  0
  151.9149  138.6250  154.3336 C   0  0  0  0  0  0  0  0  0  0  0  0
  151.9444  137.2100  154.9131 C   0  0  0  0  0  0  0  0  0  0  0  0
  152.6230  136.9652  155.9106 O   0  0  0  0  0  0  0  0  0  0  0  0
  151.2038  136.2869  154.2797 N   0  0  0  0  0  0  0  0  0  0  0  0
  151.0950  134.8886  154.6748 C   0  0  0  0  0  0  0  0  0  0  0  0
  149.6383  134.5131  155.0127 C   0  0  0  0  0  0  0  0  0  0  0  0
  148.8520  134.0612  153.8326 N   0  3  2  0  0  0  0  0  0  0  0  0
  147.4051  133.9222  154.1520 C   0  0  0  0  0  0  0  0  0  0  0  0
  146.5713  133.6669  152.8865 C   0  0  0  0  0  0  0  0  0  0  0  0
  147.0809  132.4356  152.1306 C   0  0  0  0  0  0  0  0  0  0  0  0
  148.5767  132.5953  151.8274 C   0  0  0  0  0  0  0  0  0  0  0  0
  149.4045  132.8777  153.0996 C   0  0  2  0  0  0  0  0  0  0  0  0
  149.5659  131.6218  153.9828 C   0  0  0  0  0  0  0  0  0  0  0  0
  152.2214  139.8496  156.3987 N   0  0  0  0  0  0  0  0  0  0  0  0
  151.4030  141.9307  158.8816 H   0  0  0  0  0  0  0  0  0  0  0  0
  153.0226  141.8503  158.1958 H   0  0  0  0  0  0  0  0  0  0  0  0
  152.3593  140.4633  159.0583 H   0  0  0  0  0  0  0  0  0  0  0  0
  149.5654  141.8006  156.7974 H   0  0  0  0  0  0  0  0  0  0  0  0
  148.4350  140.9425  154.4432 H   0  0  0  0  0  0  0  0  0  0  0  0
  148.8386  139.2453  154.1924 H   0  0  0  0  0  0  0  0  0  0  0  0
  149.6846  140.5005  153.2822 H   0  0  0  0  0  0  0  0  0  0  0  0
  151.2616  138.6544  153.4599 H   0  0  0  0  0  0  0  0  0  0  0  0
  152.9105  138.9124  153.9932 H   0  0  0  0  0  0  0  0  0  0  0  0
  150.6751  136.5795  153.4700 H   0  0  0  0  0  0  0  0  0  0  0  0
  151.4595  134.2724  153.8525 H   0  0  0  0  0  0  0  0  0  0  0  0
  151.7624  134.7151  155.5190 H   0  0  0  0  0  0  0  0  0  0  0  0
  149.6000  133.7576  155.7977 H   0  0  0  0  0  0  0  0  0  0  0  0
  149.1538  135.3975  155.4292 H   0  0  0  0  0  0  0  0  0  0  0  0
  147.2563  133.1189  154.8742 H   0  0  0  0  0  0  0  0  0  0  0  0
  147.0466  134.8356  154.6282 H   0  0  0  0  0  0  0  0  0  0  0  0
  145.5219  133.5341  153.1511 H   0  0  0  0  0  0  0  0  0  0  0  0
  146.6177  134.5411  152.2356 H   0  0  0  0  0  0  0  0  0  0  0  0
  146.9096  131.5362  152.7231 H   0  0  0  0  0  0  0  0  0  0  0  0
  146.5220  132.3069  151.2033 H   0  0  0  0  0  0  0  0  0  0  0  0
  148.9524  131.7065  151.3190 H   0  0  0  0  0  0  0  0  0  0  0  0
  148.7082  133.4200  151.1256 H   0  0  0  0  0  0  0  0  0  0  0  0
  150.3992  133.1418  152.7432 H   0  0  0  0  0  0  0  0  0  0  0  0
  149.9481  130.7863  153.3958 H   0  0  0  0  0  0  0  0  0  0  0  0
  148.6236  131.3008  154.4256 H   0  0  0  0  0  0  0  0  0  0  0  0
  150.2773  131.7841  154.7921 H   0  0  0  0  0  0  0  0  0  0  0  0
  148.9005  134.8258  153.1744 H   0  0  0  0  0  0  0  0  0  0  0  0
  1  2  1  0  0  0  0
  1 21  1  0  0  0  0
  1 22  1  0  0  0  0
  1 23  1  0  0  0  0
  2 20  2  0  0  0  0
  2  3  1  0  0  0  0
  3  4  2  0  0  0  0
  3 24  1  0  0  0  0
  4  5  1  0  0  0  0
  4  6  1  0  0  0  0
  5 25  1  0  0  0  0
  5 26  1  0  0  0  0
  5 27  1  0  0  0  0
  6  7  1  0  0  0  0
  6 20  1  0  0  0  0
  7  8  1  0  0  0  0
  7 28  1  0  0  0  0
  7 29  1  0  0  0  0
  8  9  2  0  0  0  0
  8 10  1  0  0  0  0
 10 11  1  0  0  0  0
 10 30  1  0  0  0  0
 11 12  1  0  0  0  0
 11 31  1  0  0  0  0
 11 32  1  0  0  0  0
 12 13  1  0  0  0  0
 12 33  1  0  0  0  0
 12 34  1  0  0  0  0
 13 18  1  0  0  0  0
 13 14  1  0  0  0  0
 13 47  1  0  0  0  0
 14 15  1  0  0  0  0
 14 35  1  0  0  0  0
 14 36  1  0  0  0  0
 15 16  1  0  0  0  0
 15 37  1  0  0  0  0
 15 38  1  0  0  0  0
 16 17  1  0  0  0  0
 16 39  1  0  0  0  0
 16 40  1  0  0  0  0
 17 18  1  0  0  0  0
 17 41  1  0  0  0  0
 17 42  1  0  0  0  0
 18 19  1  0  0  0  0
 18 43  1  0  0  0  0
 19 44  1  0  0  0  0
 19 45  1  0  0  0  0
 19 46  1  0  0  0  0
M  CHG  1  13   1
M  END
> <s_m_source_file>
AV-unprocessed.smi

> <i_m_source_file_index>
3004

> <i_lp_mmshare_version>
43012

> <i_f3d_flags>
0

> <s_epik_input>
W0NIM11jMVtjSF1jKFtDSDNdKW4objEpW0NIMl1DKD1PKVtOSF1bQ0gyXVtDSDJdTjJbQ0gyXVtDSDJdW0NIMl1bQ0gyXVtDQEhdMltDSDNd

> <s_epik_cmdline>
J2VwaWtfcHl0aG9uJywgJy1waCcsICc3LjAnLCAnLXRuJywgJzgnLCAnLW1hJywgJzIwMCcsICctbWV0YWxfYmluZGluZycsICctaW1hZScsICc8aW5maWxlLm1hZT4nLCAnLW9tYWUnLCAnPG91dGZpbGUubWFlPic=

> <r_lp_tautomer_probability>
1

> <r_epik_Ionization_Penalty>
0.00303644

> <r_epik_Ionization_Penalty_Charging>
0.00284254

> <r_epik_Ionization_Penalty_Neutral>
0.000193908

> <r_epik_State_Penalty>
-0

> <r_epik_Charging_Adjusted_Penalty>
0.00284254

> <i_epik_Tot_Q>
1

> <i_epik_Tot_abs_Q>
1

> <r_epik_Metal_State_Penalty>
-0

> <b_epik_Metal_Only>
0

> <s_lp_Force_Field>
OPLS_2005

> <r_lp_Energy>
17.6316

> <b_lp_Chiralities_Consistent>
1

> <s_lp_Variant>
AV-unprocessed.smi:3004-3

> <Gold.Version>
5.8.1

> <Gold.Id.Protein>
6NUR|6NUR_protein|mol2

> <Gold.PLP.Fitness>
48.9188

> <Gold.PLP.PLP>
-36.1515

> <Gold.PLP.part.hbond>
-5.0000

> <Gold.PLP.part.metal>
0.0000

> <Gold.PLP.part.buried>
-1.0193

> <Gold.PLP.part.nonpolar>
-29.6479

> <Gold.PLP.part.repulsive>
0.1016

> <Gold.PLP.ligand.clash>
0.0000

> <Gold.PLP.ligand.torsion>
0.2443

> <Gold.PLP.Chemscore.Hbond>
4.3993

> <Gold.PLP.Chemscore.CHOScore>
0.0000

> <Gold.PLP.Chemscore.Metal>
0.0000

> <Gold.Chemscore.Hbonds>
donor molecule, donor type, donor heavy atom, donor atom, acceptor molecule, acceptor atom, score
      L1  H    10    30       P1  7949  0.22
      L1  H    13    47       P1  7948  1.80
      P1  H  7997  8008       L1    20  0.75
      P1  H 10752 10763       L1     9  0.42

> <Gold.PLP.Chemscore.Internal.Correction>
0.0579

> <Gold.Rescore>
     Score         DG    S(hbond)    S(metal)    S(lipo)     H(rot)  DE(clash)    DE(int)     intcor
     17.16     -17.91       2.44        0.00      73.17       1.67       0.05       0.70       ----

> <Gold.Chemscore.Fitness>
17.1589

> <Gold.Chemscore.DG>
-17.9149

> <Gold.Chemscore.ZeroCoef>
-5.4800

> <Gold.Chemscore.Hbond>
2.4367

> <Gold.Chemscore.Metal>
0.0000

> <Gold.Chemscore.Lipo>
73.1662

> <Gold.Chemscore.Internal_Hbond>
0.0000

> <Gold.Chemscore.DEClash>
0.0541

> <Gold.Chemscore.DEInternal>
0.7019

> <Gold.Chemscore.Rot>
1.6657

> <Gold.Chemscore.Internal.Correction>
   9.000000E+99

> <Gold.Chemscore.Hbonds>
donor molecule, donor type, donor heavy atom, donor atom, acceptor molecule, acceptor atom, score
      L1  H    10    30       P1  7949  0.01
      L1  H    13    47       P1  7948  0.18
      P1  H  7997  8008       L1    20  0.66
      P1  H 10752 10763       L1     9  0.02

> <Gold.Chemscore.Hbond.Weighted>
-8.1385

> <Gold.Chemscore.Metal.Weighted>
-0.0000

> <Gold.Chemscore.Lipo.Weighted>
-8.5604

> <Gold.Chemscore.Internal_Hbond.Weighted>
0.0000

> <Gold.Chemscore.DEClash.Weighted>
0.0541

> <Gold.Chemscore.DEInternal.Weighted>
0.7019

> <Gold.Chemscore.Rot.Weighted>
4.2641

> <Gold.Chemscore.Internal.Correction.Weighted>
   9.000000E+99

> <Gold.Protein.RotatedTorsions>
[ 6907 6896 6895 6894 ] final -123.75 input  -60.11 | X-H torsion
[ 7974 7965 7964 7962 ] final   62.15 input  175.53 | X-H torsion
[ 8008 7997 7996 7995 ] final  -49.03 input   59.86 | X-H torsion
[ 10167 10162 10161 10158 ] final    9.98 input  -65.29 | X-H torsion
[ 10718 10713 10712 10709 ] final   96.45 input   66.30 | X-H torsion
[ 10763 10752 10751 10750 ] final   98.40 input  -60.55 | X-H torsion
[ 11005 11000 10999 10996 ] final   51.12 input  -57.11 | X-H torsion

> <Gold.Protein.ActiveResidues>
 VAL166  LYS551  ARG553  GLY616  TRP617  ASP618  TYR619  PRO620  LYS621  CYS622 
 ASP623  PHE694  ASN695  SER759  ASP760  ASP761  ALA762  ILE779  LEU786  VAL792 
 PHE793  MET794  SER795  GLU796  ALA797  LYS798  CYS799  TRP800  GLU811  SER814 

> <Gold.Protein.RotatedAtoms>
  150.8701  133.7517  159.2963 H   0  0  0  0  0  0  0  0  0  0  0  0  # atno 6907 bound_to 6896
  151.5132  135.1064  159.9869 H   0  0  0  0  0  0  0  0  0  0  0  0  # atno 6908 bound_to 6896
  152.4689  133.7940  159.6973 H   0  0  0  0  0  0  0  0  0  0  0  0  # atno 6909 bound_to 6896
  145.8766  139.3414  143.0731 H   0  0  0  0  0  0  0  0  0  0  0  0  # atno 7974 bound_to 7965
  154.4037  140.1307  156.4435 H   0  0  0  0  0  0  0  0  0  0  0  0  # atno 8008 bound_to 7997
  155.7435  140.3489  155.5096 H   0  0  0  0  0  0  0  0  0  0  0  0  # atno 8009 bound_to 7997
  155.9016  140.1020  157.1335 H   0  0  0  0  0  0  0  0  0  0  0  0  # atno 8010 bound_to 7997
  140.6222  143.8179  150.7189 H   0  0  0  0  0  0  0  0  0  0  0  0  # atno 10167 bound_to 10162
  157.6927  131.0578  150.4492 H   0  0  0  0  0  0  0  0  0  0  0  0  # atno 10718 bound_to 10713
  153.2887  135.4149  155.1146 H   0  0  0  0  0  0  0  0  0  0  0  0  # atno 10763 bound_to 10752
  154.8513  135.3513  154.6012 H   0  0  0  0  0  0  0  0  0  0  0  0  # atno 10764 bound_to 10752
  153.6434  135.7056  153.5291 H   0  0  0  0  0  0  0  0  0  0  0  0  # atno 10765 bound_to 10752
  140.0959  134.5146  155.8807 H   0  0  0  0  0  0  0  0  0  0  0  0  # atno 11005 bound_to 11000
  145.9073  140.9203  143.0472 LP  0  0  0  0  0  0  0  0  0  0  0  0  # atno 17320 bound_to 7965
  144.6726  140.1113  143.7455 LP  0  0  0  0  0  0  0  0  0  0  0  0  # atno 17321 bound_to 7965
  140.1772  143.4145  152.1959 LP  0  0  0  0  0  0  0  0  0  0  0  0  # atno 17342 bound_to 10162
  139.5449  144.7289  151.4616 LP  0  0  0  0  0  0  0  0  0  0  0  0  # atno 17343 bound_to 10162
  156.4845  130.4081  149.6442 LP  0  0  0  0  0  0  0  0  0  0  0  0  # atno 17370 bound_to 10713
  156.3475  130.7415  151.2369 LP  0  0  0  0  0  0  0  0  0  0  0  0  # atno 17371 bound_to 10713
  141.2092  133.6681  156.6422 LP  0  0  0  0  0  0  0  0  0  0  0  0  # atno 17394 bound_to 11000
  140.3286  134.7947  157.4309 LP  0  0  0  0  0  0  0  0  0  0  0  0  # atno 17395 bound_to 11000

$$$$
