#       Name:                AV-unprocessed.smi:2414
#       Creating user name   scv26
#       Creation time:       Fri Mar 27 13:17:21 2020


#       File generated by GOLD software.
#

@<TRIPOS>MOLECULE
AV-unprocessed.smi:2414
    48    49     1
SMALL
NO_CHARGES


@<TRIPOS>ATOM
      1 ****        -2.7545  -4.1907   5.7905 C.3            1 S1                 0.0000
      2 ****        -2.2434  -3.0257   5.0125 C.2            1 S1                 0.0000
      3 ****        -1.8986  -1.7857   5.4903 C.2            1 S1                 0.0000
      4 ****        -1.4495  -0.9052   4.5036 N.2            1 S1                 0.0000
      5 ****        -1.4497  -1.4576   3.2868 C.2            1 S1                 0.0000
      6 ****        -1.0141  -0.7428   2.0466 C.3            1 S1                 0.0000
      7 ****        -1.9252   0.4566   1.7318 C.3            1 S1                 0.0000
      8 ****         0.4912  -0.4016   2.0869 C.3            1 S1                 0.0000
      9 ****         0.9611   0.2101   0.8482 N.am           1 S1                 0.0000
     10 ****         1.2207  -0.4555  -0.2855 C.2            1 S1                 0.0000
     11 ****         1.1197  -1.6763  -0.4077 O.2            1 S1                 0.0000
     12 ****         1.5891   0.3711  -1.2717 N.am           1 S1                 0.0000
     13 ****         1.8984  -0.0405  -2.6370 C.3            1 S1                 0.0000
     14 ****         1.6138   1.0821  -3.6581 C.3            1 S1                 0.0000
     15 ****         2.0618   0.6506  -5.0652 C.3            1 S1                 0.0000
     16 ****         0.1473   1.5609  -3.6668 C.3            1 S1                 0.0000
     17 ****         0.2765   3.0615  -3.8180 C.3            1 S1                 0.0000
     18 ****         1.5438   3.3353  -3.0219 C.3            1 S1                 0.0000
     19 ****         2.3919   2.2325  -3.3172 O.3            1 S1                 0.0000
     20 ****        -2.0088  -3.1267   3.2871 S.3            1 S1                 0.0000
     21 ****        -3.3940  -3.8611   6.6096 H              1 S1                 0.0000
     22 ****        -1.9292  -4.7629   6.2147 H              1 S1                 0.0000
     23 ****        -3.3389  -4.8592   5.1578 H              1 S1                 0.0000
     24 ****        -1.9407  -1.4448   6.5142 H              1 S1                 0.0000
     25 ****        -1.1560  -1.4528   1.2308 H              1 S1                 0.0000
     26 ****        -2.9681   0.1457   1.6645 H              1 S1                 0.0000
     27 ****        -1.6637   0.9220   0.7812 H              1 S1                 0.0000
     28 ****        -1.8550   1.2204   2.5068 H              1 S1                 0.0000
     29 ****         0.6945   0.2919   2.9034 H              1 S1                 0.0000
     30 ****         1.0771  -1.2989   2.2940 H              1 S1                 0.0000
     31 ****         1.0761   1.2130   0.8503 H              1 S1                 0.0000
     32 ****         1.6466   1.3593  -1.0727 H              1 S1                 0.0000
     33 ****         2.9504  -0.3260  -2.6750 H              1 S1                 0.0000
     34 ****         1.3213  -0.9268  -2.9069 H              1 S1                 0.0000
     35 ****         1.5029  -0.2208  -5.4074 H              1 S1                 0.0000
     36 ****         3.1208   0.3906  -5.0804 H              1 S1                 0.0000
     37 ****         1.9105   1.4481  -5.7933 H              1 S1                 0.0000
     38 ****        -0.4485   1.1083  -4.4602 H              1 S1                 0.0000
     39 ****        -0.3540   1.3410  -2.7238 H              1 S1                 0.0000
     40 ****         0.4240   3.3266  -4.8657 H              1 S1                 0.0000
     41 ****        -0.5897   3.6074  -3.4433 H              1 S1                 0.0000
     42 ****         2.0121   4.2843  -3.2832 H              1 S1                 0.0000
     43 ****         1.3289   3.3422  -1.9524 H              1 S1                 0.0000
     44 ****        -1.1600   0.0342   4.6873 LP             1 S1                 0.0000
     45 ****         0.8280  -2.2341   0.3693 LP             1 S1                 0.0000
     46 ****         1.3294  -2.1101  -1.2839 LP             1 S1                 0.0000
     47 ****         2.9844   2.4695  -4.0871 LP             1 S1                 0.0000
     48 ****         2.9534   2.0249  -2.5161 LP             1 S1                 0.0000
@<TRIPOS>BOND
    1    1    2 1     
    2    1   21 1     
    3    1   22 1     
    4    1   23 1     
    5    2   20 1     
    6    2    3 2     
    7    3    4 1     
    8    3   24 1     
    9    4    5 2     
   10    5    6 1     
   11    5   20 1     
   12    6    7 1     
   13    6    8 1     
   14    6   25 1     
   15    7   26 1     
   16    7   27 1     
   17    7   28 1     
   18    8    9 1     
   19    8   29 1     
   20    8   30 1     
   21    9   10 am    
   22    9   31 1     
   23   10   11 2     
   24   10   12 am    
   25   12   13 1     
   26   12   32 1     
   27   13   14 1     
   28   13   33 1     
   29   13   34 1     
   30   14   19 1     
   31   14   15 1     
   32   14   16 1     
   33   15   35 1     
   34   15   36 1     
   35   15   37 1     
   36   16   17 1     
   37   16   38 1     
   38   16   39 1     
   39   17   18 1     
   40   17   40 1     
   41   17   41 1     
   42   18   19 1     
   43   18   42 1     
   44   18   43 1     
   45    4   44 1     
   46   11   45 1     
   47   11   46 1     
   48   19   47 1     
   49   19   48 1     
@<TRIPOS>SUBSTRUCTURE
      1 S1             1
@<TRIPOS>SET
LONE_PAIRS      STATIC     ATOMS    <user>   **** ""
5 44 45 46 47 48
DONOR_HYDROGENS      STATIC     ATOMS    <user>   **** ""
2 31 32
ATOM$BLUE        STATIC     ATOMS    COLORGROUP SYSTEM
5 44 45 46 47 48
ATOM$RED        STATIC     ATOMS    COLORGROUP SYSTEM
2 31 32
