AV-unprocessed.smi:2886|AV-procd|sdf|11096|dock2
  -GOLD-   2272015563D 1   1.00000     0.00000
 Structure written by MMmdl.
 27 29  0  0  0  0  0  0  0  0  2 V2000
  151.2665  137.6247  156.7937 O   0  0  0  0  0  0  0  0  0  0  0  0
  151.0634  138.8040  156.5099 C   0  0  0  0  0  0  0  0  0  0  0  0
  150.6978  139.1974  155.2522 N   0  5  0  0  0  0  0  0  0  0  0  0
  150.4804  140.5977  154.9639 N   0  0  0  0  0  0  0  0  0  0  0  0
  150.6141  141.4835  155.8702 C   0  0  0  0  0  0  0  0  0  0  0  0
  150.9918  141.1435  157.2642 C   0  0  0  0  0  0  0  0  0  0  0  0
  151.1386  142.1088  158.2523 N   0  0  0  0  0  0  0  0  0  0  0  0
  150.9681  143.5515  158.1473 C   0  0  1  0  0  0  0  0  0  0  0  0
  149.9294  144.1054  159.1238 C   0  0  0  0  0  0  0  0  0  0  0  0
  150.7326  145.2000  159.8412 C   0  0  1  0  0  0  0  0  0  0  0  0
  151.7292  144.6020  160.8424 C   0  0  0  0  0  0  0  0  0  0  0  0
  152.7872  144.0108  159.9126 C   0  0  0  0  0  0  0  0  0  0  0  0
  152.2221  144.3586  158.5251 C   0  0  2  0  0  0  0  0  0  0  0  0
  151.6184  145.6094  158.8115 O   0  0  0  0  0  0  0  0  0  0  0  0
  151.2121  139.8342  157.5451 C   0  0  0  0  0  0  0  0  0  0  0  0
  151.6711  139.3387  159.1419 Cl  0  0  0  0  0  0  0  0  0  0  0  0
  150.4596  142.5427  155.6525 H   0  0  0  0  0  0  0  0  0  0  0  0
  151.2515  141.7662  159.1955 H   0  0  0  0  0  0  0  0  0  0  0  0
  150.6561  143.8197  157.1380 H   0  0  0  0  0  0  0  0  0  0  0  0
  149.0872  144.5321  158.5783 H   0  0  0  0  0  0  0  0  0  0  0  0
  149.5398  143.3613  159.8202 H   0  0  0  0  0  0  0  0  0  0  0  0
  150.1189  146.0013  160.2537 H   0  0  0  0  0  0  0  0  0  0  0  0
  152.1643  145.3801  161.4702 H   0  0  0  0  0  0  0  0  0  0  0  0
  151.2699  143.8554  161.4914 H   0  0  0  0  0  0  0  0  0  0  0  0
  153.7466  144.5049  160.0695 H   0  0  0  0  0  0  0  0  0  0  0  0
  152.9339  142.9404  160.0590 H   0  0  0  0  0  0  0  0  0  0  0  0
  152.9756  144.3941  157.7377 H   0  0  0  0  0  0  0  0  0  0  0  0
  1  2  2  0  0  0  0
  2 15  1  0  0  0  0
  2  3  1  0  0  0  0
  3  4  1  0  0  0  0
  4  5  2  0  0  0  0
  5  6  1  0  0  0  0
  5 17  1  0  0  0  0
  6  7  1  0  0  0  0
  6 15  2  0  0  0  0
  7  8  1  0  0  0  0
  7 18  1  0  0  0  0
  8 13  1  0  0  0  0
  8  9  1  0  0  0  0
  8 19  1  0  0  0  0
  9 10  1  0  0  0  0
  9 20  1  0  0  0  0
  9 21  1  0  0  0  0
 10 14  1  0  0  0  0
 10 11  1  0  0  0  0
 10 22  1  0  0  0  0
 11 12  1  0  0  0  0
 11 23  1  0  0  0  0
 11 24  1  0  0  0  0
 12 13  1  0  0  0  0
 12 25  1  0  0  0  0
 12 26  1  0  0  0  0
 13 14  1  0  0  0  0
 13 27  1  0  0  0  0
 15 16  1  0  0  0  0
M  CHG  1   3  -1
M  END
> <s_m_source_file>
AV-unprocessed.smi

> <i_m_source_file_index>
2886

> <i_lp_mmshare_version>
43012

> <i_f3d_flags>
0

> <s_epik_input>
Tz1jMVtuSF1uW2NIXWMoYzFDbClbTkhdW0NASF0oW0NIMl1bQ0BASF0yMylbQ0BASF0oTzMpW0NIMl1bQ0gyXTI=

> <s_epik_cmdline>
J2VwaWtfcHl0aG9uJywgJy1waCcsICc3LjAnLCAnLXRuJywgJzgnLCAnLW1hJywgJzIwMCcsICctbWV0YWxfYmluZGluZycsICctaW1hZScsICc8aW5maWxlLm1hZT4nLCAnLW9tYWUnLCAnPG91dGZpbGUubWFlPic=

> <r_lp_tautomer_probability>
0.986175

> <r_epik_Ionization_Penalty>
3.84253

> <r_epik_Ionization_Penalty_Charging>
0.0129711

> <r_epik_Ionization_Penalty_Neutral>
3.82956

> <r_epik_State_Penalty>
3.8249

> <r_epik_Charging_Adjusted_Penalty>
3.83787

> <i_epik_Tot_Q>
-1

> <i_epik_Tot_abs_Q>
1

> <r_epik_Metal_State_Penalty>
0.57612

> <b_epik_Metal_Only>
1

> <s_lp_Force_Field>
OPLS_2005

> <r_lp_Energy>
60.9826

> <b_lp_Chiralities_Consistent>
1

> <s_lp_Variant>
AV-unprocessed.smi:2886-10

> <Gold.Version>
5.8.1

> <Gold.Id.Protein>
6NUR|6NUR_protein|mol2

> <Gold.PLP.Fitness>
34.2126

> <Gold.PLP.PLP>
-29.4896

> <Gold.PLP.part.hbond>
-2.0000

> <Gold.PLP.part.metal>
0.0000

> <Gold.PLP.part.buried>
-5.1075

> <Gold.PLP.part.nonpolar>
-23.4576

> <Gold.PLP.part.repulsive>
0.3040

> <Gold.PLP.ligand.clash>
0.0000

> <Gold.PLP.ligand.torsion>
0.0052

> <Gold.PLP.Chemscore.Hbond>
0.9600

> <Gold.PLP.Chemscore.CHOScore>
0.6147

> <Gold.PLP.Chemscore.Metal>
0.0000

> <Gold.Chemscore.Hbonds>
donor molecule, donor type, donor heavy atom, donor atom, acceptor molecule, acceptor atom, score
      P1  H  7989  7998       L1     4  0.94
      L1  C     5    17       P1  8028  0.62

> <Gold.PLP.Chemscore.Internal.Correction>
0.0091

> <Gold.Rescore>
     Score         DG    S(hbond)    S(metal)    S(lipo)     H(rot)  DE(clash)    DE(int)     intcor
     16.16     -16.20       0.83        0.00      89.82       1.00       0.03       0.01       ----

> <Gold.Chemscore.Fitness>
16.1620

> <Gold.Chemscore.DG>
-16.2012

> <Gold.Chemscore.ZeroCoef>
-5.4800

> <Gold.Chemscore.Hbond>
0.8302

> <Gold.Chemscore.Metal>
0.0000

> <Gold.Chemscore.Lipo>
89.8154

> <Gold.Chemscore.Internal_Hbond>
0.0000

> <Gold.Chemscore.DEClash>
0.0275

> <Gold.Chemscore.DEInternal>
0.0118

> <Gold.Chemscore.Rot>
1.0000

> <Gold.Chemscore.Internal.Correction>
   9.000000E+99

> <Gold.Chemscore.Hbonds>
donor molecule, donor type, donor heavy atom, donor atom, acceptor molecule, acceptor atom, score
      P1  H  7989  7998       L1     4  0.26

> <Gold.Chemscore.Hbond.Weighted>
-2.7728

> <Gold.Chemscore.Metal.Weighted>
-0.0000

> <Gold.Chemscore.Lipo.Weighted>
-10.5084

> <Gold.Chemscore.Internal_Hbond.Weighted>
0.0000

> <Gold.Chemscore.DEClash.Weighted>
0.0275

> <Gold.Chemscore.DEInternal.Weighted>
0.0118

> <Gold.Chemscore.Rot.Weighted>
2.5600

> <Gold.Chemscore.Internal.Correction.Weighted>
   9.000000E+99

> <Gold.Protein.RotatedTorsions>
[ 6907 6896 6895 6894 ] final  149.76 input  -60.11 | X-H torsion
[ 7974 7965 7964 7962 ] final  168.74 input  175.53 | X-H torsion
[ 8008 7997 7996 7995 ] final -177.72 input   59.86 | X-H torsion
[ 10167 10162 10161 10158 ] final   94.69 input  -65.29 | X-H torsion
[ 10718 10713 10712 10709 ] final   57.79 input   66.30 | X-H torsion
[ 10763 10752 10751 10750 ] final  -29.82 input  -60.55 | X-H torsion
[ 11005 11000 10999 10996 ] final  102.67 input  -57.11 | X-H torsion

> <Gold.Protein.ActiveResidues>
 VAL166  LYS551  ARG553  GLY616  TRP617  ASP618  TYR619  PRO620  LYS621  CYS622 
 ASP623  PHE694  ASN695  SER759  ASP760  ASP761  ALA762  ILE779  LEU786  VAL792 
 PHE793  MET794  SER795  GLU796  ALA797  LYS798  CYS799  TRP800  GLU811  SER814 

> <Gold.Protein.RotatedAtoms>
  152.1236  133.4367  159.4687 H   0  0  0  0  0  0  0  0  0  0  0  0  # atno 6907 bound_to 6896
  150.6873  134.2505  159.4518 H   0  0  0  0  0  0  0  0  0  0  0  0  # atno 6908 bound_to 6896
  152.0383  134.9726  160.0624 H   0  0  0  0  0  0  0  0  0  0  0  0  # atno 6909 bound_to 6896
  144.7378  139.8951  143.6406 H   0  0  0  0  0  0  0  0  0  0  0  0  # atno 7974 bound_to 7965
  156.0104  140.1239  157.0460 H   0  0  0  0  0  0  0  0  0  0  0  0  # atno 8008 bound_to 7997
  154.4273  140.1089  156.5890 H   0  0  0  0  0  0  0  0  0  0  0  0  # atno 8009 bound_to 7997
  155.6088  140.3471  155.4618 H   0  0  0  0  0  0  0  0  0  0  0  0  # atno 8010 bound_to 7997
  139.8059  144.6794  150.9703 H   0  0  0  0  0  0  0  0  0  0  0  0  # atno 10167 bound_to 10162
  157.5543  130.8789  149.9012 H   0  0  0  0  0  0  0  0  0  0  0  0  # atno 10718 bound_to 10713
  153.7709  135.6912  153.4906 H   0  0  0  0  0  0  0  0  0  0  0  0  # atno 10763 bound_to 10752
  153.1875  135.4483  155.0105 H   0  0  0  0  0  0  0  0  0  0  0  0  # atno 10764 bound_to 10752
  154.8118  135.3381  154.7219 H   0  0  0  0  0  0  0  0  0  0  0  0  # atno 10765 bound_to 10752
  139.8779  134.9233  156.5094 H   0  0  0  0  0  0  0  0  0  0  0  0  # atno 11005 bound_to 11000
  146.1113  139.4118  143.0286 LP  0  0  0  0  0  0  0  0  0  0  0  0  # atno 17320 bound_to 7965
  145.7439  140.9998  143.1286 LP  0  0  0  0  0  0  0  0  0  0  0  0  # atno 17321 bound_to 7965
  140.7819  143.4234  151.0806 LP  0  0  0  0  0  0  0  0  0  0  0  0  # atno 17342 bound_to 10162
  139.7903  143.8228  152.3151 LP  0  0  0  0  0  0  0  0  0  0  0  0  # atno 17343 bound_to 10162
  156.0604  130.3701  150.0994 LP  0  0  0  0  0  0  0  0  0  0  0  0  # atno 17370 bound_to 10713
  156.9164  130.9668  151.3555 LP  0  0  0  0  0  0  0  0  0  0  0  0  # atno 17371 bound_to 10713
  140.8531  133.8116  155.9189 LP  0  0  0  0  0  0  0  0  0  0  0  0  # atno 17394 bound_to 11000
  140.9124  134.2244  157.4977 LP  0  0  0  0  0  0  0  0  0  0  0  0  # atno 17395 bound_to 11000

$$$$
