AV-unprocessed.smi:910|AV-procd|sdf|4119|dock1
  -GOLD-   22720 2 13D 1   1.00000     0.00000
 Structure written by MMmdl.
 46 47  0  0  0  0  0  0  0  0  1 V2000
  154.1799  131.4927  162.7770 C   0  0  0  0  0  0  0  0  0  0  0  0
  154.3594  132.9435  163.0969 C   0  0  0  0  0  0  0  0  0  0  0  0
  154.4851  133.9080  162.1071 N   0  0  0  0  0  0  0  0  0  0  0  0
  154.6238  135.0557  162.7732 C   0  0  0  0  0  0  0  0  0  0  0  0
  154.7908  136.3447  162.2088 N   0  0  0  0  0  0  0  0  0  0  0  0
  154.4589  136.7447  160.9703 C   0  0  0  0  0  0  0  0  0  0  0  0
  153.9161  136.0413  160.1177 O   0  0  0  0  0  0  0  0  0  0  0  0
  154.8063  138.0229  160.7646 N   0  0  0  0  0  0  0  0  0  0  0  0
  154.6672  138.7411  159.5017 C   0  0  0  0  0  0  0  0  0  0  0  0
  153.1926  138.9007  159.1026 C   0  0  0  0  0  0  0  0  0  0  0  0
  153.0598  140.0823  158.3262 O   0  0  0  0  0  0  0  0  0  0  0  0
  152.4053  141.1555  158.9891 C   0  0  1  0  0  0  0  0  0  0  0  0
  153.3590  141.7718  160.0328 C   0  0  0  0  0  0  0  0  0  0  0  0
  152.7528  143.0274  160.6768 C   0  0  0  0  0  0  0  0  0  0  0  0
  152.3625  144.0605  159.6103 C   0  0  0  0  0  0  0  0  0  0  0  0
  151.4041  143.4510  158.5758 C   0  0  0  0  0  0  0  0  0  0  0  0
  152.0006  142.1912  157.9164 C   0  0  2  0  0  0  0  0  0  0  0  0
  151.0184  141.5946  156.8940 C   0  0  0  0  0  0  0  0  0  0  0  0
  154.5980  134.9138  164.1250 O   0  0  0  0  0  0  0  0  0  0  0  0
  154.4288  133.5684  164.3164 C   0  0  0  0  0  0  0  0  0  0  0  0
  154.3590  133.0688  165.7194 C   0  0  0  0  0  0  0  0  0  0  0  0
  154.7282  130.8636  163.4785 H   0  0  0  0  0  0  0  0  0  0  0  0
  154.5389  131.2573  161.7745 H   0  0  0  0  0  0  0  0  0  0  0  0
  153.1290  131.2079  162.8281 H   0  0  0  0  0  0  0  0  0  0  0  0
  155.2304  137.0298  162.8054 H   0  0  0  0  0  0  0  0  0  0  0  0
  155.2447  138.5245  161.5227 H   0  0  0  0  0  0  0  0  0  0  0  0
  155.1501  139.7170  159.5715 H   0  0  0  0  0  0  0  0  0  0  0  0
  155.2000  138.1828  158.7316 H   0  0  0  0  0  0  0  0  0  0  0  0
  152.8644  138.0290  158.5345 H   0  0  0  0  0  0  0  0  0  0  0  0
  152.5683  138.9601  159.9943 H   0  0  0  0  0  0  0  0  0  0  0  0
  151.4974  140.8048  159.4837 H   0  0  0  0  0  0  0  0  0  0  0  0
  153.5944  141.0446  160.8096 H   0  0  0  0  0  0  0  0  0  0  0  0
  154.3052  142.0303  159.5556 H   0  0  0  0  0  0  0  0  0  0  0  0
  151.8729  142.7518  161.2594 H   0  0  0  0  0  0  0  0  0  0  0  0
  153.4639  143.4665  161.3773 H   0  0  0  0  0  0  0  0  0  0  0  0
  151.8977  144.9258  160.0836 H   0  0  0  0  0  0  0  0  0  0  0  0
  153.2588  144.4262  159.1079 H   0  0  0  0  0  0  0  0  0  0  0  0
  150.4596  143.2004  159.0613 H   0  0  0  0  0  0  0  0  0  0  0  0
  151.1701  144.1956  157.8142 H   0  0  0  0  0  0  0  0  0  0  0  0
  152.9003  142.4906  157.3765 H   0  0  0  0  0  0  0  0  0  0  0  0
  150.0994  141.2594  157.3757 H   0  0  0  0  0  0  0  0  0  0  0  0
  151.4523  140.7377  156.3776 H   0  0  0  0  0  0  0  0  0  0  0  0
  150.7477  142.3290  156.1352 H   0  0  0  0  0  0  0  0  0  0  0  0
  153.5857  132.3072  165.8212 H   0  0  0  0  0  0  0  0  0  0  0  0
  154.1280  133.8780  166.4125 H   0  0  0  0  0  0  0  0  0  0  0  0
  155.3098  132.6275  166.0186 H   0  0  0  0  0  0  0  0  0  0  0  0
  1  2  1  0  0  0  0
  1 22  1  0  0  0  0
  1 23  1  0  0  0  0
  1 24  1  0  0  0  0
  2 20  2  0  0  0  0
  2  3  1  0  0  0  0
  3  4  2  0  0  0  0
  4  5  1  0  0  0  0
  4 19  1  0  0  0  0
  5  6  1  0  0  0  0
  5 25  1  0  0  0  0
  6  7  2  0  0  0  0
  6  8  1  0  0  0  0
  8  9  1  0  0  0  0
  8 26  1  0  0  0  0
  9 10  1  0  0  0  0
  9 27  1  0  0  0  0
  9 28  1  0  0  0  0
 10 11  1  0  0  0  0
 10 29  1  0  0  0  0
 10 30  1  0  0  0  0
 11 12  1  0  0  0  0
 12 17  1  0  0  0  0
 12 13  1  0  0  0  0
 12 31  1  0  0  0  0
 13 14  1  0  0  0  0
 13 32  1  0  0  0  0
 13 33  1  0  0  0  0
 14 15  1  0  0  0  0
 14 34  1  0  0  0  0
 14 35  1  0  0  0  0
 15 16  1  0  0  0  0
 15 36  1  0  0  0  0
 15 37  1  0  0  0  0
 16 17  1  0  0  0  0
 16 38  1  0  0  0  0
 16 39  1  0  0  0  0
 17 18  1  0  0  0  0
 17 40  1  0  0  0  0
 18 41  1  0  0  0  0
 18 42  1  0  0  0  0
 18 43  1  0  0  0  0
 19 20  1  0  0  0  0
 20 21  1  0  0  0  0
 21 44  1  0  0  0  0
 21 45  1  0  0  0  0
 21 46  1  0  0  0  0
M  END
> <s_m_source_file>
AV-unprocessed.smi

> <i_m_source_file_index>
910

> <i_lp_mmshare_version>
43012

> <i_f3d_flags>
0

> <s_epik_input>
W0NIM11jMW5jKG9jMVtDSDNdKVtOSF1DKD1PKVtOSF1bQ0gyXVtDSDJdT1tDQEBIXTJbQ0gyXVtDSDJdW0NIMl1bQ0gyXVtDQEhdMltDSDNd

> <s_epik_cmdline>
J2VwaWtfcHl0aG9uJywgJy1waCcsICc3LjAnLCAnLXRuJywgJzgnLCAnLW1hJywgJzIwMCcsICctbWV0YWxfYmluZGluZycsICctaW1hZScsICc8aW5maWxlLm1hZT4nLCAnLW9tYWUnLCAnPG91dGZpbGUubWFlPic=

> <r_lp_tautomer_probability>
0.785861

> <r_epik_Ionization_Penalty>
4.15957e-05

> <r_epik_Ionization_Penalty_Charging>
0

> <r_epik_Ionization_Penalty_Neutral>
4.15957e-05

> <r_epik_State_Penalty>
0.0240523

> <r_epik_Charging_Adjusted_Penalty>
0.0240523

> <i_epik_Tot_Q>
0

> <i_epik_Tot_abs_Q>
0

> <r_epik_Metal_State_Penalty>
0.057053

> <b_epik_Metal_Only>
0

> <s_lp_Force_Field>
OPLS_2005

> <r_lp_Energy>
8.26637

> <b_lp_Chiralities_Consistent>
1

> <s_lp_Variant>
AV-unprocessed.smi:910-4

> <Gold.Version>
5.8.1

> <Gold.Id.Protein>
6NUR|6NUR_protein|mol2

> <Gold.PLP.Fitness>
40.2815

> <Gold.PLP.PLP>
-35.7242

> <Gold.PLP.part.hbond>
-2.0000

> <Gold.PLP.part.metal>
0.0000

> <Gold.PLP.part.buried>
-4.8667

> <Gold.PLP.part.nonpolar>
-28.6683

> <Gold.PLP.part.repulsive>
0.0889

> <Gold.PLP.ligand.clash>
0.0000

> <Gold.PLP.ligand.torsion>
0.7312

> <Gold.PLP.Chemscore.Hbond>
1.9913

> <Gold.PLP.Chemscore.CHOScore>
0.0000

> <Gold.PLP.Chemscore.Metal>
0.0000

> <Gold.Chemscore.Hbonds>
donor molecule, donor type, donor heavy atom, donor atom, acceptor molecule, acceptor atom, score
      P1  H  6896  6908       L1     7  1.00
      P1  H  7997  8008       L1    11  1.00

> <Gold.PLP.Chemscore.Internal.Correction>
0.0460

> <Gold.Rescore>
     Score         DG    S(hbond)    S(metal)    S(lipo)     H(rot)  DE(clash)    DE(int)     intcor
     17.11     -19.09       1.72        0.00     103.51       1.66       0.15       1.84       ----

> <Gold.Chemscore.Fitness>
17.1102

> <Gold.Chemscore.DG>
-19.0924

> <Gold.Chemscore.ZeroCoef>
-5.4800

> <Gold.Chemscore.Hbond>
1.7201

> <Gold.Chemscore.Metal>
0.0000

> <Gold.Chemscore.Lipo>
103.5122

> <Gold.Chemscore.Internal_Hbond>
0.0000

> <Gold.Chemscore.DEClash>
0.1461

> <Gold.Chemscore.DEInternal>
1.8361

> <Gold.Chemscore.Rot>
1.6576

> <Gold.Chemscore.Internal.Correction>
   9.000000E+99

> <Gold.Chemscore.Hbonds>
donor molecule, donor type, donor heavy atom, donor atom, acceptor molecule, acceptor atom, score
      P1  H  6896  6908       L1     7  0.96
      P1  H  7997  8008       L1    11  0.51

> <Gold.Chemscore.Hbond.Weighted>
-5.7451

> <Gold.Chemscore.Metal.Weighted>
-0.0000

> <Gold.Chemscore.Lipo.Weighted>
-12.1109

> <Gold.Chemscore.Internal_Hbond.Weighted>
0.0000

> <Gold.Chemscore.DEClash.Weighted>
0.1461

> <Gold.Chemscore.DEInternal.Weighted>
1.8361

> <Gold.Chemscore.Rot.Weighted>
4.2436

> <Gold.Chemscore.Internal.Correction.Weighted>
   9.000000E+99

> <Gold.Protein.RotatedTorsions>
[ 6907 6896 6895 6894 ] final  -60.45 input  -60.11 | X-H torsion
[ 7974 7965 7964 7962 ] final   22.63 input  175.53 | X-H torsion
[ 8008 7997 7996 7995 ] final  -86.02 input   59.86 | X-H torsion
[ 10167 10162 10161 10158 ] final  154.92 input  -65.29 | X-H torsion
[ 10718 10713 10712 10709 ] final  140.81 input   66.30 | X-H torsion
[ 10763 10752 10751 10750 ] final   43.13 input  -60.55 | X-H torsion
[ 11005 11000 10999 10996 ] final  166.32 input  -57.11 | X-H torsion

> <Gold.Protein.ActiveResidues>
 VAL166  LYS551  ARG553  GLY616  TRP617  ASP618  TYR619  PRO620  LYS621  CYS622 
 ASP623  PHE694  ASN695  SER759  ASP760  ASP761  ALA762  ILE779  LEU786  VAL792 
 PHE793  MET794  SER795  GLU796  ALA797  LYS798  CYS799  TRP800  GLU811  SER814 

> <Gold.Protein.RotatedAtoms>
  150.7855  134.6836  159.6457 H   0  0  0  0  0  0  0  0  0  0  0  0  # atno 6907 bound_to 6896
  152.3950  134.6376  160.0101 H   0  0  0  0  0  0  0  0  0  0  0  0  # atno 6908 bound_to 6896
  151.6664  133.3278  159.3222 H   0  0  0  0  0  0  0  0  0  0  0  0  # atno 6909 bound_to 6896
  146.2020  139.7858  142.8754 H   0  0  0  0  0  0  0  0  0  0  0  0  # atno 7974 bound_to 7965
  154.6472  140.0584  156.9914 H   0  0  0  0  0  0  0  0  0  0  0  0  # atno 8008 bound_to 7997
  155.1426  140.3267  155.4430 H   0  0  0  0  0  0  0  0  0  0  0  0  # atno 8009 bound_to 7997
  156.2559  140.1961  156.6541 H   0  0  0  0  0  0  0  0  0  0  0  0  # atno 8010 bound_to 7997
  139.4822  144.5144  151.7974 H   0  0  0  0  0  0  0  0  0  0  0  0  # atno 10167 bound_to 10162
  157.3991  131.1014  151.0570 H   0  0  0  0  0  0  0  0  0  0  0  0  # atno 10718 bound_to 10713
  152.9867  135.6111  154.3061 H   0  0  0  0  0  0  0  0  0  0  0  0  # atno 10763 bound_to 10752
  154.2779  135.2778  155.2711 H   0  0  0  0  0  0  0  0  0  0  0  0  # atno 10764 bound_to 10752
  154.5064  135.5853  153.6627 H   0  0  0  0  0  0  0  0  0  0  0  0  # atno 10765 bound_to 10752
  140.2652  134.7870  157.3626 H   0  0  0  0  0  0  0  0  0  0  0  0  # atno 11005 bound_to 11000
  145.3450  141.0296  143.3371 LP  0  0  0  0  0  0  0  0  0  0  0  0  # atno 17320 bound_to 7965
  144.8705  139.5044  143.6770 LP  0  0  0  0  0  0  0  0  0  0  0  0  # atno 17321 bound_to 7965
  140.4651  144.1667  150.5911 LP  0  0  0  0  0  0  0  0  0  0  0  0  # atno 17342 bound_to 10162
  140.4443  143.2513  151.9432 LP  0  0  0  0  0  0  0  0  0  0  0  0  # atno 17343 bound_to 10162
  157.1576  130.6211  149.5601 LP  0  0  0  0  0  0  0  0  0  0  0  0  # atno 17370 bound_to 10713
  155.9818  130.4828  150.6848 LP  0  0  0  0  0  0  0  0  0  0  0  0  # atno 17371 bound_to 10713
  140.1426  134.4952  155.8020 LP  0  0  0  0  0  0  0  0  0  0  0  0  # atno 17394 bound_to 11000
  141.2185  133.6831  156.7237 LP  0  0  0  0  0  0  0  0  0  0  0  0  # atno 17395 bound_to 11000

$$$$
