#       Name:                AV-unprocessed.smi:2623
#       Creating user name   scv26
#       Creation time:       Fri Mar 27 14:24:04 2020


#       File generated by GOLD software.
#

@<TRIPOS>MOLECULE
AV-unprocessed.smi:2623
    47    49     1
SMALL
NO_CHARGES


@<TRIPOS>ATOM
      1 ****        -2.5351   2.9325   3.6614 O.3            1 S1                 0.0000
      2 ****        -2.2721   1.8309   2.8178 C.3            1 S1                 0.0000
      3 ****        -2.1720   2.2049   1.3728 C.2            1 S1                 0.0000
      4 ****        -2.5113   3.4064   0.8233 N.pl3          1 S1                 1.0000
      5 ****        -2.2861   3.3796  -0.5534 C.ar           1 S1                 0.0000
      6 ****        -2.4781   4.3533  -1.5287 C.ar           1 S1                 0.0000
      7 ****        -2.1465   3.9966  -2.8525 C.ar           1 S1                 0.0000
      8 ****        -1.6461   2.7156  -3.1646 C.ar           1 S1                 0.0000
      9 ****        -1.4555   1.7369  -2.1670 C.ar           1 S1                 0.0000
     10 ****        -1.7852   2.0982  -0.8612 C.ar           1 S1                 0.0000
     11 ****        -1.7289   1.4103   0.3559 N.pl3          1 S1                 0.0000
     12 ****        -1.2411   0.0221   0.3721 C.3            1 S1                 0.0000
     13 ****         0.2971  -0.0777   0.3208 C.3            1 S1                 0.0000
     14 ****         0.8378   0.6236   1.4234 O.3            1 S1                 0.0000
     15 ****         0.7786  -1.5361   0.3796 C.3            1 S1                 0.0000
     16 ****         2.0892  -1.6091  -0.1662 O.3            1 S1                 0.0000
     17 ****         2.7107  -2.8387  -0.2122 C.ar           1 S1                 0.0000
     18 ****         4.0181  -2.8751  -0.7404 C.ar           1 S1                 0.0000
     19 ****         4.7284  -4.0881  -0.8259 C.ar           1 S1                 0.0000
     20 ****         4.1343  -5.2835  -0.3816 C.ar           1 S1                 0.0000
     21 ****         2.8301  -5.2626   0.1468 C.ar           1 S1                 0.0000
     22 ****         2.1200  -4.0489   0.2328 C.ar           1 S1                 0.0000
     23 ****        -2.5816   2.6224   4.5533 H              1 S1                 0.0000
     24 ****        -1.3406   1.3614   3.1348 H              1 S1                 0.0000
     25 ****        -3.0658   1.0933   2.9400 H              1 S1                 0.0000
     26 ****        -2.8619   5.3347  -1.2917 H              1 S1                 0.0000
     27 ****        -2.2788   4.7198  -3.6442 H              1 S1                 0.0000
     28 ****        -1.4032   2.4785  -4.1904 H              1 S1                 0.0000
     29 ****        -1.0710   0.7587  -2.4161 H              1 S1                 0.0000
     30 ****        -1.6217  -0.4544   1.2764 H              1 S1                 0.0000
     31 ****        -1.6945  -0.5089  -0.4660 H              1 S1                 0.0000
     32 ****         0.6564   0.3860  -0.5985 H              1 S1                 0.0000
     33 ****         0.6004   1.5348   1.3447 H              1 S1                 0.0000
     34 ****         0.7443  -1.9156   1.4025 H              1 S1                 0.0000
     35 ****         0.1191  -2.1570  -0.2292 H              1 S1                 0.0000
     36 ****         4.4824  -1.9621  -1.0834 H              1 S1                 0.0000
     37 ****         5.7290  -4.1006  -1.2324 H              1 S1                 0.0000
     38 ****         4.6778  -6.2147  -0.4461 H              1 S1                 0.0000
     39 ****         2.3722  -6.1794   0.4877 H              1 S1                 0.0000
     40 ****         1.1226  -4.0742   0.6442 H              1 S1                 0.0000
     41 ****        -2.8709   4.1855   1.3597 H              1 S1                 0.0000
     42 ****        -3.4050   3.3539   3.4049 LP             1 S1                 0.0000
     43 ****        -1.8006   3.6058   3.5761 LP             1 S1                 0.0000
     44 ****         1.8337   0.5334   1.4251 LP             1 S1                 0.0000
     45 ****         0.4679   0.2509   2.2745 LP             1 S1                 0.0000
     46 ****         2.6705  -1.0038   0.3776 LP             1 S1                 0.0000
     47 ****         2.0384  -1.2678  -1.1047 LP             1 S1                 0.0000
@<TRIPOS>BOND
    1    1    2 1     
    2    1   23 1     
    3    2    3 1     
    4    2   24 1     
    5    2   25 1     
    6    3   11 1     
    7    3    4 2     
    8    4    5 1     
    9    4   41 1     
   10    5   10 ar    
   11    5    6 ar    
   12    6    7 ar    
   13    6   26 1     
   14    7    8 ar    
   15    7   27 1     
   16    8    9 ar    
   17    8   28 1     
   18    9   10 ar    
   19    9   29 1     
   20   10   11 1     
   21   11   12 1     
   22   12   13 1     
   23   12   30 1     
   24   12   31 1     
   25   13   14 1     
   26   13   15 1     
   27   13   32 1     
   28   14   33 1     
   29   15   16 1     
   30   15   34 1     
   31   15   35 1     
   32   16   17 1     
   33   17   22 ar    
   34   17   18 ar    
   35   18   19 ar    
   36   18   36 1     
   37   19   20 ar    
   38   19   37 1     
   39   20   21 ar    
   40   20   38 1     
   41   21   22 ar    
   42   21   39 1     
   43   22   40 1     
   44    1   42 1     
   45    1   43 1     
   46   14   44 1     
   47   14   45 1     
   48   16   46 1     
   49   16   47 1     
@<TRIPOS>SUBSTRUCTURE
      1 S1             1
@<TRIPOS>SET
LONE_PAIRS      STATIC     ATOMS    <user>   **** ""
6 42 43 44 45 46 47
DONOR_HYDROGENS      STATIC     ATOMS    <user>   **** ""
3 23 41 33
ATOM$BLUE        STATIC     ATOMS    COLORGROUP SYSTEM
6 42 43 44 45 46 47
ATOM$RED        STATIC     ATOMS    COLORGROUP SYSTEM
3 23 41 33
