AV-unprocessed.smi:171|AV-procd|sdf|1419|dock8
  -GOLD-   2262019183D 1   1.00000     0.00000
 Structure written by MMmdl.
 56 59  0  0  0  0  0  0  0  0  1 V2000
  152.4892  145.3433  159.2101 C   0  0  0  0  0  0  0  0  0  0  0  0
  151.8221  143.9780  159.4487 C   0  0  0  0  0  0  0  0  0  0  0  0
  152.5355  143.2222  160.5799 C   0  0  0  0  0  0  0  0  0  0  0  0
  151.7654  143.1112  158.1686 C   0  0  0  0  0  0  0  0  0  0  0  0
  150.8142  141.8910  158.2339 C   0  0  1  0  0  0  0  0  0  0  0  0
  149.4159  142.2726  157.6973 C   0  0  0  0  0  0  0  0  0  0  0  0
  148.7130  143.0514  158.3379 O   0  0  0  0  0  0  0  0  0  0  0  0
  148.9903  141.7426  156.5361 N   0  0  0  0  0  0  0  0  0  0  0  0
  149.7314  140.7936  155.7059 C   0  0  0  0  0  0  0  0  0  0  0  0
  151.2286  140.7436  156.0540 C   0  0  0  0  0  0  0  0  0  0  0  0
  151.4049  140.7595  157.5028 N   0  0  0  0  0  0  0  0  0  0  0  0
  151.4329  139.5373  158.0904 C   0  0  0  0  0  0  0  0  0  0  0  0
  150.3271  138.7467  158.0809 N   0  0  0  0  0  0  0  0  0  0  0  0
  150.3597  137.5382  158.6503 C   0  0  0  0  0  0  0  0  0  0  0  0
  151.3761  136.9343  159.2701 N   0  0  0  0  0  0  0  0  0  0  0  0
  152.4882  137.7240  159.2801 C   0  0  0  0  0  0  0  0  0  0  0  0
  152.6010  139.0266  158.7191 C   0  0  0  0  0  0  0  0  0  0  0  0
  153.8797  139.5273  158.9319 N   0  0  0  0  0  0  0  0  0  0  0  0
  154.4907  138.5711  159.5765 C   0  0  0  0  0  0  0  0  0  0  0  0
  153.7318  137.4486  159.8209 N   0  0  0  0  0  0  0  0  0  0  0  0
  154.1586  136.2405  160.5089 C   0  0  0  0  0  0  0  0  0  0  0  0
  154.4652  136.4646  162.0085 C   0  0  1  0  0  0  0  0  0  0  0  0
  155.5465  137.3774  162.1184 O   0  0  0  0  0  0  0  0  0  0  0  0
  153.2928  137.0220  162.8037 C   0  0  0  0  0  0  0  0  0  0  0  0
  153.6088  136.5614  164.2203 C   0  0  0  0  0  0  0  0  0  0  0  0
  154.1549  135.2611  164.0509 O   0  0  0  0  0  0  0  0  0  0  0  0
  154.7689  135.1509  162.7671 C   0  0  2  0  0  0  0  0  0  0  0  0
  156.2501  134.7623  162.9062 C   0  0  0  0  0  0  0  0  0  0  0  0
  153.4985  145.2281  158.8135 H   0  0  0  0  0  0  0  0  0  0  0  0
  152.5595  145.9122  160.1376 H   0  0  0  0  0  0  0  0  0  0  0  0
  151.9195  145.9514  158.5076 H   0  0  0  0  0  0  0  0  0  0  0  0
  150.8029  144.1634  159.7900 H   0  0  0  0  0  0  0  0  0  0  0  0
  153.5701  142.9988  160.3167 H   0  0  0  0  0  0  0  0  0  0  0  0
  152.0363  142.2780  160.7991 H   0  0  0  0  0  0  0  0  0  0  0  0
  152.5457  143.8076  161.4998 H   0  0  0  0  0  0  0  0  0  0  0  0
  151.4751  143.7473  157.3308 H   0  0  0  0  0  0  0  0  0  0  0  0
  152.7741  142.7666  157.9356 H   0  0  0  0  0  0  0  0  0  0  0  0
  150.6801  141.6394  159.2864 H   0  0  0  0  0  0  0  0  0  0  0  0
  148.0735  142.0108  156.2088 H   0  0  0  0  0  0  0  0  0  0  0  0
  149.2879  139.8091  155.8590 H   0  0  0  0  0  0  0  0  0  0  0  0
  149.5921  141.0415  154.6534 H   0  0  0  0  0  0  0  0  0  0  0  0
  151.6933  139.8743  155.5876 H   0  0  0  0  0  0  0  0  0  0  0  0
  151.7354  141.6142  155.6366 H   0  0  0  0  0  0  0  0  0  0  0  0
  149.4401  136.9740  158.6018 H   0  0  0  0  0  0  0  0  0  0  0  0
  155.5212  138.6573  159.8894 H   0  0  0  0  0  0  0  0  0  0  0  0
  153.3731  135.4929  160.3911 H   0  0  0  0  0  0  0  0  0  0  0  0
  155.0367  135.8424  159.9985 H   0  0  0  0  0  0  0  0  0  0  0  0
  155.6744  137.7930  161.2792 H   0  0  0  0  0  0  0  0  0  0  0  0
  153.1781  138.1036  162.7197 H   0  0  0  0  0  0  0  0  0  0  0  0
  152.3604  136.5595  162.4767 H   0  0  0  0  0  0  0  0  0  0  0  0
  154.3597  137.2075  164.6771 H   0  0  0  0  0  0  0  0  0  0  0  0
  152.7311  136.5473  164.8665 H   0  0  0  0  0  0  0  0  0  0  0  0
  154.2506  134.3302  162.2696 H   0  0  0  0  0  0  0  0  0  0  0  0
  156.7295  134.6863  161.9299 H   0  0  0  0  0  0  0  0  0  0  0  0
  156.3491  133.7955  163.4001 H   0  0  0  0  0  0  0  0  0  0  0  0
  156.8035  135.4899  163.5008 H   0  0  0  0  0  0  0  0  0  0  0  0
  1  2  1  0  0  0  0
  1 29  1  0  0  0  0
  1 30  1  0  0  0  0
  1 31  1  0  0  0  0
  2  3  1  0  0  0  0
  2  4  1  0  0  0  0
  2 32  1  0  0  0  0
  3 33  1  0  0  0  0
  3 34  1  0  0  0  0
  3 35  1  0  0  0  0
  4  5  1  0  0  0  0
  4 36  1  0  0  0  0
  4 37  1  0  0  0  0
  5 11  1  0  0  0  0
  5  6  1  0  0  0  0
  5 38  1  0  0  0  0
  6  7  2  0  0  0  0
  6  8  1  0  0  0  0
  8  9  1  0  0  0  0
  8 39  1  0  0  0  0
  9 10  1  0  0  0  0
  9 40  1  0  0  0  0
  9 41  1  0  0  0  0
 10 11  1  0  0  0  0
 10 42  1  0  0  0  0
 10 43  1  0  0  0  0
 11 12  1  0  0  0  0
 12 17  1  0  0  0  0
 12 13  2  0  0  0  0
 13 14  1  0  0  0  0
 14 15  2  0  0  0  0
 14 44  1  0  0  0  0
 15 16  1  0  0  0  0
 16 20  1  0  0  0  0
 16 17  2  0  0  0  0
 17 18  1  0  0  0  0
 18 19  2  0  0  0  0
 19 20  1  0  0  0  0
 19 45  1  0  0  0  0
 20 21  1  0  0  0  0
 21 22  1  0  0  0  0
 21 46  1  0  0  0  0
 21 47  1  0  0  0  0
 22 27  1  0  0  0  0
 22 23  1  0  0  0  0
 22 24  1  0  0  0  0
 23 48  1  0  0  0  0
 24 25  1  0  0  0  0
 24 49  1  0  0  0  0
 24 50  1  0  0  0  0
 25 26  1  0  0  0  0
 25 51  1  0  0  0  0
 25 52  1  0  0  0  0
 26 27  1  0  0  0  0
 27 28  1  0  0  0  0
 27 53  1  0  0  0  0
 28 54  1  0  0  0  0
 28 55  1  0  0  0  0
 28 56  1  0  0  0  0
M  END
> <s_m_source_file>
AV-unprocessed.smi

> <i_m_source_file_index>
171

> <i_lp_mmshare_version>
43012

> <i_f3d_flags>
0

> <s_epik_input>
W0NIM11bQ0hdKFtDSDNdKVtDSDJdW0NAQEhdMUMoPU8pW05IXVtDSDJdW0NIMl1OMWMobltjSF1uMiljKGMyMyluW2NIXW4zW0NIMl1bQ0BAXTQoW09IXSlbQ0gyXVtDSDJdT1tDQEhdNFtDSDNd

> <s_epik_cmdline>
J2VwaWtfcHl0aG9uJywgJy1waCcsICc3LjAnLCAnLXRuJywgJzgnLCAnLW1hJywgJzIwMCcsICctbWV0YWxfYmluZGluZycsICctaW1hZScsICc8aW5maWxlLm1hZT4nLCAnLW9tYWUnLCAnPG91dGZpbGUubWFlPic=

> <r_lp_tautomer_probability>
1

> <r_epik_Ionization_Penalty>
0.000670584

> <r_epik_Ionization_Penalty_Charging>
0

> <r_epik_Ionization_Penalty_Neutral>
0.000670584

> <r_epik_State_Penalty>
0.000304767

> <r_epik_Charging_Adjusted_Penalty>
0.000304767

> <i_epik_Tot_Q>
0

> <i_epik_Tot_abs_Q>
0

> <r_epik_Metal_State_Penalty>
-0

> <b_epik_Metal_Only>
0

> <s_lp_Force_Field>
OPLS_2005

> <r_lp_Energy>
42.7998

> <b_lp_Chiralities_Consistent>
1

> <s_lp_Variant>
AV-unprocessed.smi:171-6

> <Gold.Version>
5.8.1

> <Gold.Id.Protein>
6NUR|6NUR_protein|mol2

> <Gold.PLP.Fitness>
49.9409

> <Gold.PLP.PLP>
-47.4809

> <Gold.PLP.part.hbond>
-2.1277

> <Gold.PLP.part.metal>
0.0000

> <Gold.PLP.part.buried>
-7.4849

> <Gold.PLP.part.nonpolar>
-37.7189

> <Gold.PLP.part.repulsive>
0.2684

> <Gold.PLP.ligand.clash>
0.0000

> <Gold.PLP.ligand.torsion>
1.9519

> <Gold.PLP.Chemscore.Hbond>
2.0000

> <Gold.PLP.Chemscore.CHOScore>
0.0000

> <Gold.PLP.Chemscore.Metal>
0.0000

> <Gold.Chemscore.Hbonds>
donor molecule, donor type, donor heavy atom, donor atom, acceptor molecule, acceptor atom, score
      P1  H  6896  6907       L1    15  1.00
      P1  H  7997  8010       L1    18  0.99

> <Gold.PLP.Chemscore.Internal.Correction>
0.3638

> <Gold.Rescore>
     Score         DG    S(hbond)    S(metal)    S(lipo)     H(rot)  DE(clash)    DE(int)     intcor
     16.35     -18.34       1.79        0.00     109.02       2.29       0.01       1.99       ----

> <Gold.Chemscore.Fitness>
16.3480

> <Gold.Chemscore.DG>
-18.3439

> <Gold.Chemscore.ZeroCoef>
-5.4800

> <Gold.Chemscore.Hbond>
1.7899

> <Gold.Chemscore.Metal>
0.0000

> <Gold.Chemscore.Lipo>
109.0194

> <Gold.Chemscore.Internal_Hbond>
0.0000

> <Gold.Chemscore.DEClash>
0.0053

> <Gold.Chemscore.DEInternal>
1.9906

> <Gold.Chemscore.Rot>
2.2928

> <Gold.Chemscore.Internal.Correction>
   9.000000E+99

> <Gold.Chemscore.Hbonds>
donor molecule, donor type, donor heavy atom, donor atom, acceptor molecule, acceptor atom, score
      P1  H  6896  6907       L1    15  0.84
      P1  H  7997  8010       L1    18  0.62

> <Gold.Chemscore.Hbond.Weighted>
-5.9782

> <Gold.Chemscore.Metal.Weighted>
-0.0000

> <Gold.Chemscore.Lipo.Weighted>
-12.7553

> <Gold.Chemscore.Internal_Hbond.Weighted>
0.0000

> <Gold.Chemscore.DEClash.Weighted>
0.0053

> <Gold.Chemscore.DEInternal.Weighted>
1.9906

> <Gold.Chemscore.Rot.Weighted>
5.8696

> <Gold.Chemscore.Internal.Correction.Weighted>
   9.000000E+99

> <Gold.Protein.RotatedTorsions>
[ 6907 6896 6895 6894 ] final    5.70 input  -60.11 | X-H torsion
[ 7974 7965 7964 7962 ] final  -46.66 input  175.53 | X-H torsion
[ 8008 7997 7996 7995 ] final   25.47 input   59.86 | X-H torsion
[ 10167 10162 10161 10158 ] final -158.25 input  -65.29 | X-H torsion
[ 10718 10713 10712 10709 ] final  -57.51 input   66.30 | X-H torsion
[ 10763 10752 10751 10750 ] final  -95.08 input  -60.55 | X-H torsion
[ 11005 11000 10999 10996 ] final  134.93 input  -57.11 | X-H torsion

> <Gold.Protein.ActiveResidues>
 VAL166  LYS551  ARG553  GLY616  TRP617  ASP618  TYR619  PRO620  LYS621  CYS622 
 ASP623  PHE694  ASN695  SER759  ASP760  ASP761  ALA762  ILE779  LEU786  VAL792 
 PHE793  MET794  SER795  GLU796  ALA797  LYS798  CYS799  TRP800  GLU811  SER814 

> <Gold.Protein.RotatedAtoms>
  151.6618  135.0988  160.0180 H   0  0  0  0  0  0  0  0  0  0  0  0  # atno 6907 bound_to 6896
  152.3942  133.6719  159.6271 H   0  0  0  0  0  0  0  0  0  0  0  0  # atno 6908 bound_to 6896
  150.7852  133.8818  159.3329 H   0  0  0  0  0  0  0  0  0  0  0  0  # atno 6909 bound_to 6896
  145.9696  140.7396  142.9417 H   0  0  0  0  0  0  0  0  0  0  0  0  # atno 7974 bound_to 7965
  155.0123  140.3138  155.4825 H   0  0  0  0  0  0  0  0  0  0  0  0  # atno 8008 bound_to 7997
  156.2907  140.2212  156.5179 H   0  0  0  0  0  0  0  0  0  0  0  0  # atno 8009 bound_to 7997
  154.7524  140.0465  157.0892 H   0  0  0  0  0  0  0  0  0  0  0  0  # atno 8010 bound_to 7997
  139.6707  143.9750  152.2282 H   0  0  0  0  0  0  0  0  0  0  0  0  # atno 10167 bound_to 10162
  156.1205  130.4166  150.0450 H   0  0  0  0  0  0  0  0  0  0  0  0  # atno 10718 bound_to 10713
  154.7115  135.5134  153.8673 H   0  0  0  0  0  0  0  0  0  0  0  0  # atno 10763 bound_to 10752
  153.0784  135.6624  154.0105 H   0  0  0  0  0  0  0  0  0  0  0  0  # atno 10764 bound_to 10752
  153.9946  135.3016  155.3388 H   0  0  0  0  0  0  0  0  0  0  0  0  # atno 10765 bound_to 10752
  139.9947  134.9502  156.9936 H   0  0  0  0  0  0  0  0  0  0  0  0  # atno 11005 bound_to 11000
  144.6834  140.2727  143.7303 LP  0  0  0  0  0  0  0  0  0  0  0  0  # atno 17320 bound_to 7965
  145.7925  139.1932  143.2095 LP  0  0  0  0  0  0  0  0  0  0  0  0  # atno 17321 bound_to 7965
  139.9514  144.6618  150.8168 LP  0  0  0  0  0  0  0  0  0  0  0  0  # atno 17342 bound_to 10162
  140.7617  143.3180  151.2688 LP  0  0  0  0  0  0  0  0  0  0  0  0  # atno 17343 bound_to 10162
  156.8390  130.9419  151.3633 LP  0  0  0  0  0  0  0  0  0  0  0  0  # atno 17370 bound_to 10713
  157.6389  130.8789  149.9410 LP  0  0  0  0  0  0  0  0  0  0  0  0  # atno 17371 bound_to 10713
  140.4842  134.1259  155.7222 LP  0  0  0  0  0  0  0  0  0  0  0  0  # atno 17394 bound_to 11000
  141.1594  133.8821  157.1889 LP  0  0  0  0  0  0  0  0  0  0  0  0  # atno 17395 bound_to 11000

$$$$
