#       Name:                AV-unprocessed.smi:276
#       Creating user name   scv26
#       Creation time:       Thu Mar 26 21:33:08 2020


#       File generated by GOLD software.
#

@<TRIPOS>MOLECULE
AV-unprocessed.smi:276
    67    71     1
SMALL
NO_CHARGES


@<TRIPOS>ATOM
      1 ****        -6.9913  -1.3125  -2.2273 C.3            1 S1                 0.0000
      2 ****        -5.6144  -1.1491  -2.5189 O.3            1 S1                 0.0000
      3 ****        -4.8180  -1.0441  -1.3497 C.3            1 S1                 0.0000
      4 ****        -4.8749   0.3282  -0.6694 C.3            1 S1                 0.0000
      5 ****        -3.3758   0.1626  -0.3878 C.3            1 S1                 0.0000
      6 ****        -2.6346   1.4228  -0.4795 N.3            1 S1                 0.0000
      7 ****        -2.9911   2.4476   0.4939 C.3            1 S1                 0.0000
      8 ****        -1.2897   1.3232  -0.5832 C.ar           1 S1                 0.0000
      9 ****        -0.6841   2.1294  -1.4907 N.ar           1 S1                 0.0000
     10 ****         0.6410   2.0790  -1.6540 C.ar           1 S1                 0.0000
     11 ****         1.5314   1.3138  -1.0197 N.ar           1 S1                 0.0000
     12 ****         0.9286   0.5176  -0.0912 C.ar           1 S1                 0.0000
     13 ****        -0.4644   0.4630   0.1976 C.ar           1 S1                 0.0000
     14 ****        -0.6970  -0.4505   1.2197 N.2            1 S1                 0.0000
     15 ****         0.4858  -0.9217   1.5048 C.2            1 S1                 0.0000
     16 ****         1.5191  -0.3944   0.7652 N.pl3          1 S1                 0.0000
     17 ****         2.9265  -0.7339   0.8783 C.3            1 S1                 0.0000
     18 ****         3.6226   0.0294   2.0212 C.3            1 S1                 0.0000
     19 ****         3.5534   1.4259   1.8031 O.3            1 S1                 0.0000
     20 ****         5.0826  -0.4186   2.2362 C.3            1 S1                 0.0000
     21 ****         5.8829   0.3427   3.2965 C.3            1 S1                 0.0000
     22 ****         7.3000   0.0677   2.8465 C.3            1 S1                 0.0000
     23 ****         7.1607   0.1240   1.3268 C.3            1 S1                 0.0000
     24 ****         5.8485  -0.3505   1.0358 O.3            1 S1                 0.0000
     25 ****        -3.3276  -0.7685  -1.6296 C.3            1 S1                 0.0000
     26 ****        -2.3301  -1.9300  -1.7325 C.3            1 S1                 0.0000
     27 ****        -1.6252  -1.1940  -2.8766 C.3            1 S1                 0.0000
     28 ****        -2.8590  -0.2966  -3.0216 C.3            1 S1                 0.0000
     29 ****        -7.5554  -1.3916  -3.1565 H              1 S1                 0.0000
     30 ****        -7.3835  -0.4620  -1.6685 H              1 S1                 0.0000
     31 ****        -7.1652  -2.2208  -1.6491 H              1 S1                 0.0000
     32 ****        -4.9555  -1.8725  -0.6510 H              1 S1                 0.0000
     33 ****        -5.1015   1.1370  -1.3671 H              1 S1                 0.0000
     34 ****        -5.5048   0.3709   0.2193 H              1 S1                 0.0000
     35 ****        -3.2198  -0.3833   0.5435 H              1 S1                 0.0000
     36 ****        -2.7930   2.1008   1.5087 H              1 S1                 0.0000
     37 ****        -4.0495   2.6963   0.4199 H              1 S1                 0.0000
     38 ****        -2.4269   3.3667   0.3289 H              1 S1                 0.0000
     39 ****         1.0454   2.7460  -2.4012 H              1 S1                 0.0000
     40 ****         0.6390  -1.6685   2.2705 H              1 S1                 0.0000
     41 ****         3.0035  -1.8094   1.0421 H              1 S1                 0.0000
     42 ****         3.4144  -0.5296  -0.0755 H              1 S1                 0.0000
     43 ****         3.0779  -0.1648   2.9461 H              1 S1                 0.0000
     44 ****         2.6486   1.6645   1.6711 H              1 S1                 0.0000
     45 ****         5.0754  -1.4720   2.5213 H              1 S1                 0.0000
     46 ****         5.6903   1.4152   3.2554 H              1 S1                 0.0000
     47 ****         5.6806  -0.0014   4.3111 H              1 S1                 0.0000
     48 ****         8.0222   0.7858   3.2360 H              1 S1                 0.0000
     49 ****         7.6060  -0.9312   3.1603 H              1 S1                 0.0000
     50 ****         7.2399   1.1541   0.9769 H              1 S1                 0.0000
     51 ****         7.9209  -0.4666   0.8152 H              1 S1                 0.0000
     52 ****        -1.7131  -2.0845  -0.8478 H              1 S1                 0.0000
     53 ****        -2.8002  -2.8583  -2.0600 H              1 S1                 0.0000
     54 ****        -0.7372  -0.6527  -2.5503 H              1 S1                 0.0000
     55 ****        -1.4151  -1.8146  -3.7480 H              1 S1                 0.0000
     56 ****        -3.5079  -0.6298  -3.8320 H              1 S1                 0.0000
     57 ****        -2.6386   0.7666  -3.1116 H              1 S1                 0.0000
     58 ****        -5.4985  -0.3170  -3.0613 LP             1 S1                 0.0000
     59 ****        -5.3034  -1.9383  -3.0486 LP             1 S1                 0.0000
     60 ****        -2.9664   1.7369  -1.3691 LP             1 S1                 0.0000
     61 ****        -1.2307   2.7627  -2.0386 LP             1 S1                 0.0000
     62 ****         2.5146   1.3230  -1.2019 LP             1 S1                 0.0000
     63 ****        -1.5716  -0.6915   1.6404 LP             1 S1                 0.0000
     64 ****         4.0875   1.6676   0.9930 LP             1 S1                 0.0000
     65 ****         3.9172   1.9099   2.5989 LP             1 S1                 0.0000
     66 ****         5.4043   0.2742   0.3935 LP             1 S1                 0.0000
     67 ****         5.9077  -1.2615   0.6276 LP             1 S1                 0.0000
@<TRIPOS>BOND
    1    1    2 1     
    2    1   29 1     
    3    1   30 1     
    4    1   31 1     
    5    2    3 1     
    6    3   25 1     
    7    3    4 1     
    8    3   32 1     
    9    4    5 1     
   10    4   33 1     
   11    4   34 1     
   12    5    6 1     
   13    5   25 1     
   14    5   35 1     
   15    6    7 1     
   16    6    8 1     
   17    7   36 1     
   18    7   37 1     
   19    7   38 1     
   20    8   13 ar    
   21    8    9 ar    
   22    9   10 ar    
   23   10   11 ar    
   24   10   39 1     
   25   11   12 ar    
   26   12   16 1     
   27   12   13 ar    
   28   13   14 1     
   29   14   15 2     
   30   15   16 1     
   31   15   40 1     
   32   16   17 1     
   33   17   18 1     
   34   17   41 1     
   35   17   42 1     
   36   18   19 1     
   37   18   20 1     
   38   18   43 1     
   39   19   44 1     
   40   20   24 1     
   41   20   21 1     
   42   20   45 1     
   43   21   22 1     
   44   21   46 1     
   45   21   47 1     
   46   22   23 1     
   47   22   48 1     
   48   22   49 1     
   49   23   24 1     
   50   23   50 1     
   51   23   51 1     
   52   25   28 1     
   53   25   26 1     
   54   26   27 1     
   55   26   52 1     
   56   26   53 1     
   57   27   28 1     
   58   27   54 1     
   59   27   55 1     
   60   28   56 1     
   61   28   57 1     
   62    2   58 1     
   63    2   59 1     
   64    6   60 1     
   65    9   61 1     
   66   11   62 1     
   67   14   63 1     
   68   19   64 1     
   69   19   65 1     
   70   24   66 1     
   71   24   67 1     
@<TRIPOS>SUBSTRUCTURE
      1 S1             1
@<TRIPOS>SET
LONE_PAIRS      STATIC     ATOMS    <user>   **** ""
10 58 59 60 61 62 63 64 65 66 67
DONOR_HYDROGENS      STATIC     ATOMS    <user>   **** ""
1 44
ATOM$BLUE        STATIC     ATOMS    COLORGROUP SYSTEM
10 58 59 60 61 62 63 64 65 66 67
ATOM$RED        STATIC     ATOMS    COLORGROUP SYSTEM
1 44
