AV-unprocessed.smi:2167|AV-procd|sdf|8816|dock4
  -GOLD-   2272012 03D 1   1.00000     0.00000
 Structure written by MMmdl.
 41 42  0  0  0  0  0  0  0  0  1 V2000
  146.8906  134.7984  161.5989 C   0  0  0  0  0  0  0  0  0  0  0  0
  147.6465  136.1222  161.7832 C   0  0  0  0  0  0  0  0  0  0  0  0
  146.8673  137.1514  162.6146 C   0  0  0  0  0  0  0  0  0  0  0  0
  148.1118  136.6899  160.4794 C   0  0  0  0  0  0  0  0  0  0  0  0
  149.3985  136.8718  160.1670 N   0  0  0  0  0  0  0  0  0  0  0  0
  149.5747  137.4089  158.8875 C   0  0  0  0  0  0  0  0  0  0  0  0
  150.9577  137.6729  158.3682 C   0  0  0  0  0  0  0  0  0  0  0  0
  151.0663  139.1131  157.8662 C   0  0  0  0  0  0  0  0  0  0  0  0
  150.5832  139.4244  156.7776 O   0  0  0  0  0  0  0  0  0  0  0  0
  151.7016  139.9814  158.6707 N   0  0  0  0  0  0  0  0  0  0  0  0
  151.9132  141.4033  158.3915 C   0  0  2  0  0  0  0  0  0  0  0  0
  152.4388  142.0596  159.6889 C   0  0  0  0  0  0  0  0  0  0  0  0
  153.2082  143.3710  159.4530 C   0  0  0  0  0  0  0  0  0  0  0  0
  152.3682  144.5236  158.8818 C   0  0  0  0  0  0  0  0  0  0  0  0
  151.7815  144.2325  157.4898 C   0  0  0  0  0  0  0  0  0  0  0  0
  150.6173  143.3588  157.5561 N   0  0  0  0  0  0  0  0  0  0  0  0
  150.5880  142.0855  157.9778 C   0  0  0  0  0  0  0  0  0  0  0  0
  149.5205  141.4753  158.0368 O   0  0  0  0  0  0  0  0  0  0  0  0
  148.3909  137.6426  158.2328 C   0  0  0  0  0  0  0  0  0  0  0  0
  147.0134  137.1860  159.1964 S   0  0  0  0  0  0  0  0  0  0  0  0
  147.5093  134.0624  161.0843 H   0  0  0  0  0  0  0  0  0  0  0  0
  145.9819  134.9384  161.0124 H   0  0  0  0  0  0  0  0  0  0  0  0
  146.6028  134.3732  162.5606 H   0  0  0  0  0  0  0  0  0  0  0  0
  148.5461  135.8854  162.3529 H   0  0  0  0  0  0  0  0  0  0  0  0
  147.4672  138.0436  162.7962 H   0  0  0  0  0  0  0  0  0  0  0  0
  146.5846  136.7405  163.5841 H   0  0  0  0  0  0  0  0  0  0  0  0
  145.9537  137.4619  162.1064 H   0  0  0  0  0  0  0  0  0  0  0  0
  151.6991  137.5086  159.1513 H   0  0  0  0  0  0  0  0  0  0  0  0
  151.2095  136.9864  157.5585 H   0  0  0  0  0  0  0  0  0  0  0  0
  152.0628  139.6329  159.5469 H   0  0  0  0  0  0  0  0  0  0  0  0
  152.6515  141.5024  157.5938 H   0  0  0  0  0  0  0  0  0  0  0  0
  151.6287  142.2205  160.4027 H   0  0  0  0  0  0  0  0  0  0  0  0
  153.1272  141.3709  160.1818 H   0  0  0  0  0  0  0  0  0  0  0  0
  153.6387  143.6951  160.4011 H   0  0  0  0  0  0  0  0  0  0  0  0
  154.0559  143.1791  158.7939 H   0  0  0  0  0  0  0  0  0  0  0  0
  151.5719  144.7915  159.5775 H   0  0  0  0  0  0  0  0  0  0  0  0
  153.0081  145.4035  158.8081 H   0  0  0  0  0  0  0  0  0  0  0  0
  151.4533  145.1682  157.0371 H   0  0  0  0  0  0  0  0  0  0  0  0
  152.5358  143.8163  156.8207 H   0  0  0  0  0  0  0  0  0  0  0  0
  149.7367  143.7697  157.2813 H   0  0  0  0  0  0  0  0  0  0  0  0
  148.2474  138.0500  157.2429 H   0  0  0  0  0  0  0  0  0  0  0  0
  1  2  1  0  0  0  0
  1 21  1  0  0  0  0
  1 22  1  0  0  0  0
  1 23  1  0  0  0  0
  2  3  1  0  0  0  0
  2  4  1  0  0  0  0
  2 24  1  0  0  0  0
  3 25  1  0  0  0  0
  3 26  1  0  0  0  0
  3 27  1  0  0  0  0
  4 20  1  0  0  0  0
  4  5  2  0  0  0  0
  5  6  1  0  0  0  0
  6  7  1  0  0  0  0
  6 19  2  0  0  0  0
  7  8  1  0  0  0  0
  7 28  1  0  0  0  0
  7 29  1  0  0  0  0
  8  9  2  0  0  0  0
  8 10  1  0  0  0  0
 10 11  1  0  0  0  0
 10 30  1  0  0  0  0
 11 17  1  0  0  0  0
 11 12  1  0  0  0  0
 11 31  1  0  0  0  0
 12 13  1  0  0  0  0
 12 32  1  0  0  0  0
 12 33  1  0  0  0  0
 13 14  1  0  0  0  0
 13 34  1  0  0  0  0
 13 35  1  0  0  0  0
 14 15  1  0  0  0  0
 14 36  1  0  0  0  0
 14 37  1  0  0  0  0
 15 16  1  0  0  0  0
 15 38  1  0  0  0  0
 15 39  1  0  0  0  0
 16 17  1  0  0  0  0
 16 40  1  0  0  0  0
 17 18  2  0  0  0  0
 19 20  1  0  0  0  0
 19 41  1  0  0  0  0
M  END
> <s_m_source_file>
AV-unprocessed.smi

> <i_m_source_file_index>
2167

> <i_lp_mmshare_version>
43012

> <i_f3d_flags>
0

> <s_epik_input>
W0NIM11bQ0hdKFtDSDNdKWMxbmMoW2NIXXMxKVtDSDJdQyg9TylbTkhdW0NAQEhdMltDSDJdW0NIMl1bQ0gyXVtDSDJdW05IXUMyPU8=

> <s_epik_cmdline>
J2VwaWtfcHl0aG9uJywgJy1waCcsICc3LjAnLCAnLXRuJywgJzgnLCAnLW1hJywgJzIwMCcsICctbWV0YWxfYmluZGluZycsICctaW1hZScsICc8aW5maWxlLm1hZT4nLCAnLW9tYWUnLCAnPG91dGZpbGUubWFlPic=

> <r_lp_tautomer_probability>
1

> <r_epik_Ionization_Penalty>
3.1619e-05

> <r_epik_Ionization_Penalty_Charging>
0

> <r_epik_Ionization_Penalty_Neutral>
3.1619e-05

> <r_epik_State_Penalty>
-0

> <r_epik_Charging_Adjusted_Penalty>
0

> <i_epik_Tot_Q>
0

> <i_epik_Tot_abs_Q>
0

> <r_epik_Metal_State_Penalty>
-0

> <b_epik_Metal_Only>
0

> <s_lp_Force_Field>
OPLS_2005

> <r_lp_Energy>
2.42102

> <b_lp_Chiralities_Consistent>
1

> <s_lp_Variant>
AV-unprocessed.smi:2167-1

> <Gold.Version>
5.8.1

> <Gold.Id.Protein>
6NUR|6NUR_protein|mol2

> <Gold.PLP.Fitness>
42.6316

> <Gold.PLP.PLP>
-40.4724

> <Gold.PLP.part.hbond>
-2.0000

> <Gold.PLP.part.metal>
0.0000

> <Gold.PLP.part.buried>
-4.4936

> <Gold.PLP.part.nonpolar>
-33.7717

> <Gold.PLP.part.repulsive>
0.1852

> <Gold.PLP.ligand.clash>
0.0000

> <Gold.PLP.ligand.torsion>
0.4228

> <Gold.PLP.Chemscore.Hbond>
0.9760

> <Gold.PLP.Chemscore.CHOScore>
0.0000

> <Gold.PLP.Chemscore.Metal>
0.0000

> <Gold.Chemscore.Hbonds>
donor molecule, donor type, donor heavy atom, donor atom, acceptor molecule, acceptor atom, score
      L1  H    16    40       P1  8028  0.77

> <Gold.PLP.Chemscore.Internal.Correction>
0.0769

> <Gold.Rescore>
     Score         DG    S(hbond)    S(metal)    S(lipo)     H(rot)  DE(clash)    DE(int)     intcor
     13.10     -13.59       0.00        0.00     103.71       1.57       0.05       0.44       ----

> <Gold.Chemscore.Fitness>
13.0967

> <Gold.Chemscore.DG>
-13.5866

> <Gold.Chemscore.ZeroCoef>
-5.4800

> <Gold.Chemscore.Hbond>
0.0000

> <Gold.Chemscore.Metal>
0.0000

> <Gold.Chemscore.Lipo>
103.7108

> <Gold.Chemscore.Internal_Hbond>
0.0000

> <Gold.Chemscore.DEClash>
0.0491

> <Gold.Chemscore.DEInternal>
0.4408

> <Gold.Chemscore.Rot>
1.5733

> <Gold.Chemscore.Internal.Correction>
   9.000000E+99

> <Gold.Chemscore.Hbonds>
donor molecule, donor type, donor heavy atom, donor atom, acceptor molecule, acceptor atom, score
      L1  H    16    40       P1  8028  0.57

> <Gold.Chemscore.Hbond.Weighted>
-0.0000

> <Gold.Chemscore.Metal.Weighted>
-0.0000

> <Gold.Chemscore.Lipo.Weighted>
-12.1342

> <Gold.Chemscore.Internal_Hbond.Weighted>
0.0000

> <Gold.Chemscore.DEClash.Weighted>
0.0491

> <Gold.Chemscore.DEInternal.Weighted>
0.4408

> <Gold.Chemscore.Rot.Weighted>
4.0276

> <Gold.Chemscore.Internal.Correction.Weighted>
   9.000000E+99

> <Gold.Protein.RotatedTorsions>
[ 6907 6896 6895 6894 ] final -125.58 input  -60.11 | X-H torsion
[ 7974 7965 7964 7962 ] final  168.09 input  175.53 | X-H torsion
[ 8008 7997 7996 7995 ] final -165.47 input   59.86 | X-H torsion
[ 10167 10162 10161 10158 ] final  168.37 input  -65.29 | X-H torsion
[ 10718 10713 10712 10709 ] final   79.64 input   66.30 | X-H torsion
[ 10763 10752 10751 10750 ] final -115.37 input  -60.55 | X-H torsion
[ 11005 11000 10999 10996 ] final   -3.12 input  -57.11 | X-H torsion

> <Gold.Protein.ActiveResidues>
 VAL166  LYS551  ARG553  GLY616  TRP617  ASP618  TYR619  PRO620  LYS621  CYS622 
 ASP623  PHE694  ASN695  SER759  ASP760  ASP761  ALA762  ILE779  LEU786  VAL792 
 PHE793  MET794  SER795  GLU796  ALA797  LYS798  CYS799  TRP800  GLU811  SER814 

> <Gold.Protein.RotatedAtoms>
  150.8882  133.7279  159.2912 H   0  0  0  0  0  0  0  0  0  0  0  0  # atno 6907 bound_to 6896
  151.4838  135.1052  159.9794 H   0  0  0  0  0  0  0  0  0  0  0  0  # atno 6908 bound_to 6896
  152.4803  133.8192  159.7100 H   0  0  0  0  0  0  0  0  0  0  0  0  # atno 6909 bound_to 6896
  144.7401  139.8856  143.6399 H   0  0  0  0  0  0  0  0  0  0  0  0  # atno 7974 bound_to 7965
  155.8502  140.0962  157.1679 H   0  0  0  0  0  0  0  0  0  0  0  0  # atno 8008 bound_to 7997
  154.3985  140.1384  156.3897 H   0  0  0  0  0  0  0  0  0  0  0  0  # atno 8009 bound_to 7997
  155.7969  140.3454  155.5383 H   0  0  0  0  0  0  0  0  0  0  0  0  # atno 8010 bound_to 7997
  139.4966  144.3822  151.9610 H   0  0  0  0  0  0  0  0  0  0  0  0  # atno 10167 bound_to 10162
  157.6783  130.9923  150.1963 H   0  0  0  0  0  0  0  0  0  0  0  0  # atno 10718 bound_to 10713
  154.8478  135.4384  154.1652 H   0  0  0  0  0  0  0  0  0  0  0  0  # atno 10763 bound_to 10752
  153.2779  135.6951  153.7421 H   0  0  0  0  0  0  0  0  0  0  0  0  # atno 10764 bound_to 10752
  153.6636  135.3431  155.3109 H   0  0  0  0  0  0  0  0  0  0  0  0  # atno 10765 bound_to 10752
  140.6659  133.9279  155.8464 H   0  0  0  0  0  0  0  0  0  0  0  0  # atno 11005 bound_to 11000
  146.1179  139.4193  143.0246 LP  0  0  0  0  0  0  0  0  0  0  0  0  # atno 17320 bound_to 7965
  145.7347  141.0030  143.1333 LP  0  0  0  0  0  0  0  0  0  0  0  0  # atno 17321 bound_to 7965
  140.3259  144.3374  150.5998 LP  0  0  0  0  0  0  0  0  0  0  0  0  # atno 17342 bound_to 10162
  140.5685  143.2183  151.7641 LP  0  0  0  0  0  0  0  0  0  0  0  0  # atno 17343 bound_to 10162
  156.2663  130.3716  149.8078 LP  0  0  0  0  0  0  0  0  0  0  0  0  # atno 17370 bound_to 10713
  156.5808  130.8465  151.3382 LP  0  0  0  0  0  0  0  0  0  0  0  0  # atno 17371 bound_to 10713
  141.0429  134.0595  157.3879 LP  0  0  0  0  0  0  0  0  0  0  0  0  # atno 17394 bound_to 11000
  139.8997  135.0160  156.7210 LP  0  0  0  0  0  0  0  0  0  0  0  0  # atno 17395 bound_to 11000

$$$$
