AV-unprocessed.smi:652|AV-procd|sdf|3195|dock9
  -GOLD-   22720 0123D 1   1.00000     0.00000
 Structure written by MMmdl.
 48 49  0  0  0  0  0  0  0  0  2 V2000
  151.2844  142.0992  157.5123 C   0  0  0  0  0  0  0  0  0  0  0  0
  151.1191  140.6158  157.8793 C   0  0  0  0  0  0  0  0  0  0  0  0
  152.4473  139.9943  158.3307 C   0  0  0  0  0  0  0  0  0  0  0  0
  150.5903  139.8625  156.7451 N   0  0  0  0  0  0  0  0  0  0  0  0
  151.2716  139.5560  155.6298 C   0  0  0  0  0  0  0  0  0  0  0  0
  152.4442  139.8825  155.4435 O   0  0  0  0  0  0  0  0  0  0  0  0
  150.5040  138.7660  154.5646 C   0  0  0  0  0  0  0  0  0  0  0  0
  149.1684  139.4295  154.1684 C   0  0  0  0  0  0  0  0  0  0  0  0
  148.1932  138.4622  153.6050 N   0  3  2  0  0  0  0  0  0  0  0  0
  147.1649  139.1273  152.7698 C   0  0  0  0  0  0  0  0  0  0  0  0
  146.1996  138.0904  152.1742 C   0  0  0  0  0  0  0  0  0  0  0  0
  145.6114  137.3343  153.2246 O   0  0  0  0  0  0  0  0  0  0  0  0
  146.5793  136.6023  153.9699 C   0  0  2  0  0  0  0  0  0  0  0  0
  145.8404  135.7554  155.0155 C   0  0  0  0  0  0  0  0  0  0  0  0
  144.5291  136.3071  155.3198 N   0  0  0  0  0  0  0  0  0  0  0  0
  143.3978  135.8793  154.6141 C   0  0  0  0  0  0  0  0  0  0  0  0
  143.4761  135.1351  153.4144 C   0  0  0  0  0  0  0  0  0  0  0  0
  142.2674  134.7600  152.8023 C   0  0  0  0  0  0  0  0  0  0  0  0
  141.0737  135.1558  153.4324 C   0  0  0  0  0  0  0  0  0  0  0  0
  141.0591  135.8695  154.5803 N   0  0  0  0  0  0  0  0  0  0  0  0
  142.2099  136.2261  155.1622 N   0  0  0  0  0  0  0  0  0  0  0  0
  147.5495  137.6022  154.6294 C   0  0  0  0  0  0  0  0  0  0  0  0
  151.6728  142.6689  158.3568 H   0  0  0  0  0  0  0  0  0  0  0  0
  150.3318  142.5470  157.2275 H   0  0  0  0  0  0  0  0  0  0  0  0
  151.9760  142.2280  156.6792 H   0  0  0  0  0  0  0  0  0  0  0  0
  150.4183  140.5402  158.7127 H   0  0  0  0  0  0  0  0  0  0  0  0
  152.8461  140.5144  159.2021 H   0  0  0  0  0  0  0  0  0  0  0  0
  153.1984  140.0439  157.5417 H   0  0  0  0  0  0  0  0  0  0  0  0
  152.3188  138.9465  158.6044 H   0  0  0  0  0  0  0  0  0  0  0  0
  149.6299  139.5587  156.8131 H   0  0  0  0  0  0  0  0  0  0  0  0
  151.1367  138.6660  153.6811 H   0  0  0  0  0  0  0  0  0  0  0  0
  150.3371  137.7603  154.9503 H   0  0  0  0  0  0  0  0  0  0  0  0
  148.7232  139.9455  155.0209 H   0  0  0  0  0  0  0  0  0  0  0  0
  149.3699  140.1928  153.4144 H   0  0  0  0  0  0  0  0  0  0  0  0
  146.6111  139.8467  153.3752 H   0  0  0  0  0  0  0  0  0  0  0  0
  147.6434  139.6863  151.9647 H   0  0  0  0  0  0  0  0  0  0  0  0
  145.4096  138.5906  151.6139 H   0  0  0  0  0  0  0  0  0  0  0  0
  146.7164  137.4296  151.4762 H   0  0  0  0  0  0  0  0  0  0  0  0
  147.1372  135.9416  153.3031 H   0  0  0  0  0  0  0  0  0  0  0  0
  145.7060  134.7431  154.6326 H   0  0  0  0  0  0  0  0  0  0  0  0
  146.4341  135.6819  155.9278 H   0  0  0  0  0  0  0  0  0  0  0  0
  144.3955  136.7734  156.2059 H   0  0  0  0  0  0  0  0  0  0  0  0
  144.4179  134.8560  152.9665 H   0  0  0  0  0  0  0  0  0  0  0  0
  142.2551  134.1907  151.8848 H   0  0  0  0  0  0  0  0  0  0  0  0
  140.1144  134.8968  153.0099 H   0  0  0  0  0  0  0  0  0  0  0  0
  148.3058  137.0496  155.1860 H   0  0  0  0  0  0  0  0  0  0  0  0
  147.0159  138.2271  155.3477 H   0  0  0  0  0  0  0  0  0  0  0  0
  148.7091  137.8518  152.9873 H   0  0  0  0  0  0  0  0  0  0  0  0
  1  2  1  0  0  0  0
  1 23  1  0  0  0  0
  1 24  1  0  0  0  0
  1 25  1  0  0  0  0
  2  3  1  0  0  0  0
  2  4  1  0  0  0  0
  2 26  1  0  0  0  0
  3 27  1  0  0  0  0
  3 28  1  0  0  0  0
  3 29  1  0  0  0  0
  4  5  1  0  0  0  0
  4 30  1  0  0  0  0
  5  6  2  0  0  0  0
  5  7  1  0  0  0  0
  7  8  1  0  0  0  0
  7 31  1  0  0  0  0
  7 32  1  0  0  0  0
  8  9  1  0  0  0  0
  8 33  1  0  0  0  0
  8 34  1  0  0  0  0
  9 22  1  0  0  0  0
  9 10  1  0  0  0  0
  9 48  1  0  0  0  0
 10 11  1  0  0  0  0
 10 35  1  0  0  0  0
 10 36  1  0  0  0  0
 11 12  1  0  0  0  0
 11 37  1  0  0  0  0
 11 38  1  0  0  0  0
 12 13  1  0  0  0  0
 13 14  1  0  0  0  0
 13 22  1  0  0  0  0
 13 39  1  0  0  0  0
 14 15  1  0  0  0  0
 14 40  1  0  0  0  0
 14 41  1  0  0  0  0
 15 16  1  0  0  0  0
 15 42  1  0  0  0  0
 16 21  1  0  0  0  0
 16 17  2  0  0  0  0
 17 18  1  0  0  0  0
 17 43  1  0  0  0  0
 18 19  2  0  0  0  0
 18 44  1  0  0  0  0
 19 20  1  0  0  0  0
 19 45  1  0  0  0  0
 20 21  2  0  0  0  0
 22 46  1  0  0  0  0
 22 47  1  0  0  0  0
M  CHG  1   9   1
M  END
> <s_m_source_file>
AV-unprocessed.smi

> <i_m_source_file_index>
652

> <i_lp_mmshare_version>
43012

> <i_f3d_flags>
0

> <s_epik_input>
W0NIM11bQ0hdKFtDSDNdKVtOSF1DKD1PKVtDSDJdW0NIMl1OMVtDSDJdW0NIMl1PW0NASF0oW0NIMl0xKVtDSDJdW05IXWMyW2NIXVtjSF1bY0hdbm4y

> <s_epik_cmdline>
J2VwaWtfcHl0aG9uJywgJy1waCcsICc3LjAnLCAnLXRuJywgJzgnLCAnLW1hJywgJzIwMCcsICctbWV0YWxfYmluZGluZycsICctaW1hZScsICc8aW5maWxlLm1hZT4nLCAnLW9tYWUnLCAnPG91dGZpbGUubWFlPic=

> <r_lp_tautomer_probability>
0.999978

> <r_epik_Ionization_Penalty>
0.433079

> <r_epik_Ionization_Penalty_Charging>
0.413784

> <r_epik_Ionization_Penalty_Neutral>
0.0192945

> <r_epik_State_Penalty>
0.425138

> <r_epik_Charging_Adjusted_Penalty>
0.838922

> <i_epik_Tot_Q>
1

> <i_epik_Tot_abs_Q>
1

> <r_epik_Metal_State_Penalty>
0.422073

> <b_epik_Metal_Only>
0

> <s_lp_Force_Field>
OPLS_2005

> <r_lp_Energy>
22.402

> <b_lp_Chiralities_Consistent>
1

> <s_lp_Variant>
AV-unprocessed.smi:652-4

> <Gold.Version>
5.8.1

> <Gold.Id.Protein>
6NUR|6NUR_protein|mol2

> <Gold.PLP.Fitness>
43.8072

> <Gold.PLP.PLP>
-32.0536

> <Gold.PLP.part.hbond>
-4.9182

> <Gold.PLP.part.metal>
0.0000

> <Gold.PLP.part.buried>
-1.6384

> <Gold.PLP.part.nonpolar>
-25.5568

> <Gold.PLP.part.repulsive>
0.3273

> <Gold.PLP.ligand.clash>
0.0000

> <Gold.PLP.ligand.torsion>
1.1770

> <Gold.PLP.Chemscore.Hbond>
3.6832

> <Gold.PLP.Chemscore.CHOScore>
0.9633

> <Gold.PLP.Chemscore.Metal>
0.0000

> <Gold.Chemscore.Hbonds>
donor molecule, donor type, donor heavy atom, donor atom, acceptor molecule, acceptor atom, score
      L1  H     9    48       P1  7948  2.00
      P1  H  7989  7998       L1     6  0.06
      P1  H  7997  8008       L1     6  0.96
      P1  H 11000 11005       L1    20  0.66
      L1  C    19    45       P1 10187  0.94

> <Gold.PLP.Chemscore.Internal.Correction>
0.1680

> <Gold.Rescore>
     Score         DG    S(hbond)    S(metal)    S(lipo)     H(rot)  DE(clash)    DE(int)     intcor
     11.23     -13.82       1.98        0.00      64.04       2.26       0.46       2.13       ----

> <Gold.Chemscore.Fitness>
11.2297

> <Gold.Chemscore.DG>
-13.8162

> <Gold.Chemscore.ZeroCoef>
-5.4800

> <Gold.Chemscore.Hbond>
1.9843

> <Gold.Chemscore.Metal>
0.0000

> <Gold.Chemscore.Lipo>
64.0417

> <Gold.Chemscore.Internal_Hbond>
0.0000

> <Gold.Chemscore.DEClash>
0.4584

> <Gold.Chemscore.DEInternal>
2.1281

> <Gold.Chemscore.Rot>
2.2594

> <Gold.Chemscore.Internal.Correction>
   9.000000E+99

> <Gold.Chemscore.Hbonds>
donor molecule, donor type, donor heavy atom, donor atom, acceptor molecule, acceptor atom, score
      L1  H     9    48       P1  7948  0.97
      P1  H  7997  8008       L1     6  0.90
      P1  H 11000 11005       L1    20  0.13

> <Gold.Chemscore.Hbond.Weighted>
-6.6274

> <Gold.Chemscore.Metal.Weighted>
-0.0000

> <Gold.Chemscore.Lipo.Weighted>
-7.4929

> <Gold.Chemscore.Internal_Hbond.Weighted>
0.0000

> <Gold.Chemscore.DEClash.Weighted>
0.4584

> <Gold.Chemscore.DEInternal.Weighted>
2.1281

> <Gold.Chemscore.Rot.Weighted>
5.7841

> <Gold.Chemscore.Internal.Correction.Weighted>
   9.000000E+99

> <Gold.Protein.RotatedTorsions>
[ 6907 6896 6895 6894 ] final   -0.85 input  -60.11 | X-H torsion
[ 7974 7965 7964 7962 ] final  -60.04 input  175.53 | X-H torsion
[ 8008 7997 7996 7995 ] final  -29.46 input   59.86 | X-H torsion
[ 10167 10162 10161 10158 ] final -121.99 input  -65.29 | X-H torsion
[ 10718 10713 10712 10709 ] final -166.31 input   66.30 | X-H torsion
[ 10763 10752 10751 10750 ] final  117.65 input  -60.55 | X-H torsion
[ 11005 11000 10999 10996 ] final   53.88 input  -57.11 | X-H torsion

> <Gold.Protein.ActiveResidues>
 VAL166  LYS551  ARG553  GLY616  TRP617  ASP618  TYR619  PRO620  LYS621  CYS622 
 ASP623  PHE694  ASN695  SER759  ASP760  ASP761  ALA762  ILE779  LEU786  VAL792 
 PHE793  MET794  SER795  GLU796  ALA797  LYS798  CYS799  TRP800  GLU811  SER814 

> <Gold.Protein.RotatedAtoms>
  151.5555  135.1066  159.9959 H   0  0  0  0  0  0  0  0  0  0  0  0  # atno 6907 bound_to 6896
  152.4471  133.7554  159.6727 H   0  0  0  0  0  0  0  0  0  0  0  0  # atno 6908 bound_to 6896
  150.8390  133.7900  159.3092 H   0  0  0  0  0  0  0  0  0  0  0  0  # atno 6909 bound_to 6896
  145.8202  140.8544  143.0136 H   0  0  0  0  0  0  0  0  0  0  0  0  # atno 7974 bound_to 7965
  154.4289  140.1817  156.1252 H   0  0  0  0  0  0  0  0  0  0  0  0  # atno 8008 bound_to 7997
  156.0111  140.3350  155.6917 H   0  0  0  0  0  0  0  0  0  0  0  0  # atno 8009 bound_to 7997
  155.6109  140.0650  157.2697 H   0  0  0  0  0  0  0  0  0  0  0  0  # atno 8010 bound_to 7997
  140.0190  143.5363  152.2229 H   0  0  0  0  0  0  0  0  0  0  0  0  # atno 10167 bound_to 10162
  156.6660  130.9065  151.3036 H   0  0  0  0  0  0  0  0  0  0  0  0  # atno 10718 bound_to 10713
  153.5557  135.3531  155.2778 H   0  0  0  0  0  0  0  0  0  0  0  0  # atno 10763 bound_to 10752
  154.8701  135.4124  154.2887 H   0  0  0  0  0  0  0  0  0  0  0  0  # atno 10764 bound_to 10752
  153.3622  135.7060  153.6772 H   0  0  0  0  0  0  0  0  0  0  0  0  # atno 10765 bound_to 10752
  140.0731  134.5442  155.9025 H   0  0  0  0  0  0  0  0  0  0  0  0  # atno 11005 bound_to 11000
  144.6748  140.0523  143.7478 LP  0  0  0  0  0  0  0  0  0  0  0  0  # atno 17320 bound_to 7965
  145.9683  139.2850  143.1114 LP  0  0  0  0  0  0  0  0  0  0  0  0  # atno 17321 bound_to 7965
  139.6152  144.7618  151.2861 LP  0  0  0  0  0  0  0  0  0  0  0  0  # atno 17342 bound_to 10162
  140.7350  143.6749  150.8050 LP  0  0  0  0  0  0  0  0  0  0  0  0  # atno 17343 bound_to 10162
  157.7093  130.9422  150.1037 LP  0  0  0  0  0  0  0  0  0  0  0  0  # atno 17370 bound_to 10713
  156.1975  130.3658  149.8831 LP  0  0  0  0  0  0  0  0  0  0  0  0  # atno 17371 bound_to 10713
  141.2019  133.6622  156.5978 LP  0  0  0  0  0  0  0  0  0  0  0  0  # atno 17394 bound_to 11000
  140.3598  134.7697  157.4525 LP  0  0  0  0  0  0  0  0  0  0  0  0  # atno 17395 bound_to 11000

$$$$
