AV-unprocessed.smi:765|AV-procd|sdf|3648|dock1
  -GOLD-   22720 1 53D 1   1.00000     0.00000
 Structure written by MMmdl.
 39 40  0  0  0  0  0  0  0  0  1 V2000
  153.1773  141.9976  160.8561 C   0  0  0  0  0  0  0  0  0  0  0  0
  152.1678  142.8917  160.1220 C   0  0  1  0  0  0  0  0  0  0  0  0
  152.8044  144.2293  159.7042 C   0  0  0  0  0  0  0  0  0  0  0  0
  151.8055  145.1199  158.9523 C   0  0  0  0  0  0  0  0  0  0  0  0
  151.2149  144.3864  157.7374 C   0  0  0  0  0  0  0  0  0  0  0  0
  150.5445  143.0471  158.1312 C   0  0  1  0  0  0  0  0  0  0  0  0
  149.3721  143.2859  158.9972 C   0  0  0  0  0  0  0  0  0  0  0  0
  148.4530  143.4741  159.6746 N   0  0  0  0  0  0  0  0  0  0  0  0
  150.1660  142.3107  156.9235 N   0  0  0  0  0  0  0  0  0  0  0  0
  149.6396  141.0756  156.8597 C   0  0  0  0  0  0  0  0  0  0  0  0
  149.4267  140.3806  157.8533 O   0  0  0  0  0  0  0  0  0  0  0  0
  149.2994  140.5597  155.4524 C   0  0  1  0  0  0  0  0  0  0  0  0
  149.1442  141.6938  154.4186 C   0  0  0  0  0  0  0  0  0  0  0  0
  150.2755  139.5608  155.0319 N   0  0  0  0  0  0  0  0  0  0  0  0
  150.0467  138.2443  154.6859 C   0  0  0  0  0  0  0  0  0  0  0  0
  151.2560  137.6769  154.4034 C   0  0  0  0  0  0  0  0  0  0  0  0
  152.1831  138.7343  154.6172 C   0  0  0  0  0  0  0  0  0  0  0  0
  151.5961  139.8559  155.0004 N   0  0  0  0  0  0  0  0  0  0  0  0
  151.5731  142.1778  158.8907 C   0  0  0  0  0  0  0  0  0  0  0  0
  154.0233  141.7448  160.2159 H   0  0  0  0  0  0  0  0  0  0  0  0
  152.7142  141.0648  161.1792 H   0  0  0  0  0  0  0  0  0  0  0  0
  153.5692  142.4950  161.7438 H   0  0  0  0  0  0  0  0  0  0  0  0
  151.3575  143.1062  160.8201 H   0  0  0  0  0  0  0  0  0  0  0  0
  153.1754  144.7579  160.5830 H   0  0  0  0  0  0  0  0  0  0  0  0
  153.6711  144.0422  159.0687 H   0  0  0  0  0  0  0  0  0  0  0  0
  151.0047  145.4259  159.6265 H   0  0  0  0  0  0  0  0  0  0  0  0
  152.2994  146.0358  158.6267 H   0  0  0  0  0  0  0  0  0  0  0  0
  150.4985  145.0416  157.2407 H   0  0  0  0  0  0  0  0  0  0  0  0
  152.0098  144.2012  157.0131 H   0  0  0  0  0  0  0  0  0  0  0  0
  150.3023  142.7970  156.0493 H   0  0  0  0  0  0  0  0  0  0  0  0
  148.3338  140.0555  155.5202 H   0  0  0  0  0  0  0  0  0  0  0  0
  148.3727  142.4011  154.7245 H   0  0  0  0  0  0  0  0  0  0  0  0
  148.8534  141.2951  153.4463 H   0  0  0  0  0  0  0  0  0  0  0  0
  150.0697  142.2546  154.2813 H   0  0  0  0  0  0  0  0  0  0  0  0
  149.0518  137.8243  154.6703 H   0  0  0  0  0  0  0  0  0  0  0  0
  151.4495  136.6603  154.0950 H   0  0  0  0  0  0  0  0  0  0  0  0
  153.2578  138.7196  154.5106 H   0  0  0  0  0  0  0  0  0  0  0  0
  152.3846  141.8971  158.2166 H   0  0  0  0  0  0  0  0  0  0  0  0
  151.1030  141.2438  159.2030 H   0  0  0  0  0  0  0  0  0  0  0  0
  1  2  1  0  0  0  0
  1 20  1  0  0  0  0
  1 21  1  0  0  0  0
  1 22  1  0  0  0  0
  2 19  1  0  0  0  0
  2  3  1  0  0  0  0
  2 23  1  0  0  0  0
  3  4  1  0  0  0  0
  3 24  1  0  0  0  0
  3 25  1  0  0  0  0
  4  5  1  0  0  0  0
  4 26  1  0  0  0  0
  4 27  1  0  0  0  0
  5  6  1  0  0  0  0
  5 28  1  0  0  0  0
  5 29  1  0  0  0  0
  6  7  1  0  0  0  0
  6  9  1  0  0  0  0
  6 19  1  0  0  0  0
  7  8  3  0  0  0  0
  9 10  1  0  0  0  0
  9 30  1  0  0  0  0
 10 11  2  0  0  0  0
 10 12  1  0  0  0  0
 12 13  1  0  0  0  0
 12 14  1  0  0  0  0
 12 31  1  0  0  0  0
 13 32  1  0  0  0  0
 13 33  1  0  0  0  0
 13 34  1  0  0  0  0
 14 18  1  0  0  0  0
 14 15  1  0  0  0  0
 15 16  2  0  0  0  0
 15 35  1  0  0  0  0
 16 17  1  0  0  0  0
 16 36  1  0  0  0  0
 17 18  2  0  0  0  0
 17 37  1  0  0  0  0
 19 38  1  0  0  0  0
 19 39  1  0  0  0  0
M  END
> <s_m_source_file>
AV-unprocessed.smi

> <i_m_source_file_index>
765

> <i_lp_mmshare_version>
43012

> <i_f3d_flags>
0

> <s_epik_input>
W0NIM11bQ0BASF0oW0NIMl0xKVtDSDJdW0NIMl1bQ0gyXVtDQEBdMShDI04pW05IXUMoPU8pW0NASF0oW0NIM10pbjJbY0hdW2NIXVtjSF1uMg==

> <s_epik_cmdline>
J2VwaWtfcHl0aG9uJywgJy1waCcsICc3LjAnLCAnLXRuJywgJzgnLCAnLW1hJywgJzIwMCcsICctbWV0YWxfYmluZGluZycsICctaW1hZScsICc8aW5maWxlLm1hZT4nLCAnLW9tYWUnLCAnPG91dGZpbGUubWFlPic=

> <r_lp_tautomer_probability>
1

> <r_epik_Ionization_Penalty>
2.71142e-05

> <r_epik_Ionization_Penalty_Charging>
0

> <r_epik_Ionization_Penalty_Neutral>
2.71142e-05

> <r_epik_State_Penalty>
-0

> <r_epik_Charging_Adjusted_Penalty>
0

> <i_epik_Tot_Q>
0

> <i_epik_Tot_abs_Q>
0

> <r_epik_Metal_State_Penalty>
-0

> <b_epik_Metal_Only>
0

> <s_lp_Force_Field>
OPLS_2005

> <r_lp_Energy>
11.5189

> <b_lp_Chiralities_Consistent>
1

> <s_lp_Variant>
AV-unprocessed.smi:765-6

> <Gold.Version>
5.8.1

> <Gold.Id.Protein>
6NUR|6NUR_protein|mol2

> <Gold.PLP.Fitness>
45.1216

> <Gold.PLP.PLP>
-41.3010

> <Gold.PLP.part.hbond>
-3.0000

> <Gold.PLP.part.metal>
0.0000

> <Gold.PLP.part.buried>
-2.7264

> <Gold.PLP.part.nonpolar>
-36.2467

> <Gold.PLP.part.repulsive>
0.1870

> <Gold.PLP.ligand.clash>
0.0000

> <Gold.PLP.ligand.torsion>
0.5625

> <Gold.PLP.Chemscore.Hbond>
1.6149

> <Gold.PLP.Chemscore.CHOScore>
0.0000

> <Gold.PLP.Chemscore.Metal>
0.0000

> <Gold.Chemscore.Hbonds>
donor molecule, donor type, donor heavy atom, donor atom, acceptor molecule, acceptor atom, score
      L1  H     9    30       P1  8028  0.01
      P1  H  6933  6944       L1     8  0.61
      P1  H  7989  7998       L1    18  1.00

> <Gold.PLP.Chemscore.Internal.Correction>
0.1008

> <Gold.Rescore>
     Score         DG    S(hbond)    S(metal)    S(lipo)     H(rot)  DE(clash)    DE(int)     intcor
     16.65     -18.60       1.12        0.00     111.10       1.42       0.51       1.44       ----

> <Gold.Chemscore.Fitness>
16.6501

> <Gold.Chemscore.DG>
-18.5973

> <Gold.Chemscore.ZeroCoef>
-5.4800

> <Gold.Chemscore.Hbond>
1.1226

> <Gold.Chemscore.Metal>
0.0000

> <Gold.Chemscore.Lipo>
111.0993

> <Gold.Chemscore.Internal_Hbond>
0.0000

> <Gold.Chemscore.DEClash>
0.5085

> <Gold.Chemscore.DEInternal>
1.4387

> <Gold.Chemscore.Rot>
1.4183

> <Gold.Chemscore.Internal.Correction>
   9.000000E+99

> <Gold.Chemscore.Hbonds>
donor molecule, donor type, donor heavy atom, donor atom, acceptor molecule, acceptor atom, score
      L1  H     9    30       P1  8028  0.03
      P1  H  6933  6944       L1     8  0.48
      P1  H  7989  7998       L1    18  0.10

> <Gold.Chemscore.Hbond.Weighted>
-3.7496

> <Gold.Chemscore.Metal.Weighted>
-0.0000

> <Gold.Chemscore.Lipo.Weighted>
-12.9986

> <Gold.Chemscore.Internal_Hbond.Weighted>
0.0000

> <Gold.Chemscore.DEClash.Weighted>
0.5085

> <Gold.Chemscore.DEInternal.Weighted>
1.4387

> <Gold.Chemscore.Rot.Weighted>
3.6309

> <Gold.Chemscore.Internal.Correction.Weighted>
   9.000000E+99

> <Gold.Protein.RotatedTorsions>
[ 6907 6896 6895 6894 ] final   55.19 input  -60.11 | X-H torsion
[ 7974 7965 7964 7962 ] final   51.08 input  175.53 | X-H torsion
[ 8008 7997 7996 7995 ] final  -24.91 input   59.86 | X-H torsion
[ 10167 10162 10161 10158 ] final  -58.35 input  -65.29 | X-H torsion
[ 10718 10713 10712 10709 ] final  176.22 input   66.30 | X-H torsion
[ 10763 10752 10751 10750 ] final -121.26 input  -60.55 | X-H torsion
[ 11005 11000 10999 10996 ] final  128.15 input  -57.11 | X-H torsion

> <Gold.Protein.ActiveResidues>
 VAL166  LYS551  ARG553  GLY616  TRP617  ASP618  TYR619  PRO620  LYS621  CYS622 
 ASP623  PHE694  ASN695  SER759  ASP760  ASP761  ALA762  ILE779  LEU786  VAL792 
 PHE793  MET794  SER795  GLU796  ALA797  LYS798  CYS799  TRP800  GLU811  SER814 

> <Gold.Protein.RotatedAtoms>
  152.3514  134.7000  160.0234 H   0  0  0  0  0  0  0  0  0  0  0  0  # atno 6907 bound_to 6896
  151.7353  133.3314  159.3359 H   0  0  0  0  0  0  0  0  0  0  0  0  # atno 6908 bound_to 6896
  150.7542  134.6260  159.6205 H   0  0  0  0  0  0  0  0  0  0  0  0  # atno 6909 bound_to 6896
  145.9949  139.4377  143.0051 H   0  0  0  0  0  0  0  0  0  0  0  0  # atno 7974 bound_to 7965
  154.4504  140.1941  156.0537 H   0  0  0  0  0  0  0  0  0  0  0  0  # atno 8008 bound_to 7997
  156.0635  140.3294  155.7462 H   0  0  0  0  0  0  0  0  0  0  0  0  # atno 8009 bound_to 7997
  155.5375  140.0583  157.2867 H   0  0  0  0  0  0  0  0  0  0  0  0  # atno 8010 bound_to 7997
  140.6203  143.2417  151.5497 H   0  0  0  0  0  0  0  0  0  0  0  0  # atno 10167 bound_to 10162
  156.9233  130.9947  151.3000 H   0  0  0  0  0  0  0  0  0  0  0  0  # atno 10718 bound_to 10713
  154.8664  135.4174  154.2592 H   0  0  0  0  0  0  0  0  0  0  0  0  # atno 10763 bound_to 10752
  153.3523  135.6999  153.6784 H   0  0  0  0  0  0  0  0  0  0  0  0  # atno 10764 bound_to 10752
  153.5718  135.3590  155.2813 H   0  0  0  0  0  0  0  0  0  0  0  0  # atno 10765 bound_to 10752
  139.9545  134.9616  156.8959 H   0  0  0  0  0  0  0  0  0  0  0  0  # atno 11005 bound_to 11000
  145.7575  140.9948  143.1217 LP  0  0  0  0  0  0  0  0  0  0  0  0  # atno 17320 bound_to 7965
  144.6900  139.9290  143.7471 LP  0  0  0  0  0  0  0  0  0  0  0  0  # atno 17321 bound_to 7965
  139.5433  144.2589  152.1393 LP  0  0  0  0  0  0  0  0  0  0  0  0  # atno 17342 bound_to 10162
  140.1808  144.4846  150.6529 LP  0  0  0  0  0  0  0  0  0  0  0  0  # atno 17343 bound_to 10162
  157.5894  130.8433  149.8637 LP  0  0  0  0  0  0  0  0  0  0  0  0  # atno 17370 bound_to 10713
  156.0481  130.3723  150.1268 LP  0  0  0  0  0  0  0  0  0  0  0  0  # atno 17371 bound_to 10713
  140.5641  134.0506  155.7408 LP  0  0  0  0  0  0  0  0  0  0  0  0  # atno 17394 bound_to 11000
  141.1214  133.9455  157.2722 LP  0  0  0  0  0  0  0  0  0  0  0  0  # atno 17395 bound_to 11000

$$$$
