#       Name:                AV-unprocessed.smi:283
#       Creating user name   scv26
#       Creation time:       Thu Mar 26 21:45:34 2020


#       File generated by GOLD software.
#

@<TRIPOS>MOLECULE
AV-unprocessed.smi:283
    59    62     1
SMALL
NO_CHARGES


@<TRIPOS>ATOM
      1 ****        -5.2737   0.2108  -1.3726 C.3            1 S1                 0.0000
      2 ****        -3.9010   0.7302  -0.9247 C.3            1 S1                 0.0000
      3 ****        -2.8726  -0.2713  -1.2017 N.pl3          1 S1                 0.0000
      4 ****        -1.5629   0.0182  -1.0336 C.ar           1 S1                 0.0000
      5 ****        -1.1394   1.3015  -0.8940 N.ar           1 S1                 0.0000
      6 ****         0.1600   1.5609  -0.7263 C.ar           1 S1                 0.0000
      7 ****         1.1807   0.7031  -0.6747 N.ar           1 S1                 0.0000
      8 ****         0.7641  -0.5882  -0.8199 C.ar           1 S1                 0.0000
      9 ****        -0.5836  -1.0077  -1.0028 C.ar           1 S1                 0.0000
     10 ****        -0.6373  -2.3907  -1.1095 N.2            1 S1                 0.0000
     11 ****         0.6088  -2.7633  -0.9964 C.2            1 S1                 0.0000
     12 ****         1.5196  -1.7457  -0.8168 N.pl3          1 S1                 0.0000
     13 ****         3.0045  -1.8855  -0.6549 C.3            1 S1                 0.0000
     14 ****         3.6503  -0.8134  -1.2762 O.3            1 S1                 0.0000
     15 ****         4.3892  -0.0516  -0.3222 C.3            1 S1                 0.0000
     16 ****         5.6045   0.6270  -0.9773 C.3            1 S1                 0.0000
     17 ****         5.2021   1.8154  -1.6240 O.3            1 S1                 0.0000
     18 ****         4.7107  -1.0636   0.7853 C.3            1 S1                 0.0000
     19 ****         5.8436  -1.8454   0.4516 O.3            1 S1                 0.0000
     20 ****         3.4576  -1.9244   0.8190 C.3            1 S1                 0.0000
     21 ****         2.5103  -1.3887   1.7262 O.3            1 S1                 0.0000
     22 ****        -3.9512   1.1869   0.5351 C.ar           1 S1                 0.0000
     23 ****        -3.8015   0.2345   1.5698 C.ar           1 S1                 0.0000
     24 ****        -3.8416   0.6288   2.9202 C.ar           1 S1                 0.0000
     25 ****        -4.0374   1.9815   3.2513 C.ar           1 S1                 0.0000
     26 ****        -4.1976   2.9364   2.2303 C.ar           1 S1                 0.0000
     27 ****        -4.1592   2.5473   0.8760 C.ar           1 S1                 0.0000
     28 ****        -4.3729   3.7632  -0.3347 Cl             1 S1                 0.0000
     29 ****         3.2522  -2.8006  -1.1941 H              1 S1                 0.0000
     30 ****         3.7338   0.7064   0.1084 H              1 S1                 0.0000
     31 ****         4.9083  -0.5744   1.7402 H              1 S1                 0.0000
     32 ****         3.6634  -2.9541   1.1144 H              1 S1                 0.0000
     33 ****        -6.0408   0.9755  -1.2471 H              1 S1                 0.0000
     34 ****        -5.5769  -0.6630  -0.7948 H              1 S1                 0.0000
     35 ****        -5.2623  -0.0730  -2.4254 H              1 S1                 0.0000
     36 ****        -3.6629   1.5848  -1.5567 H              1 S1                 0.0000
     37 ****        -3.2079  -1.2133  -1.3431 H              1 S1                 0.0000
     38 ****         0.4186   2.6039  -0.6181 H              1 S1                 0.0000
     39 ****         0.9012  -3.8025  -1.0386 H              1 S1                 0.0000
     40 ****         6.3374   0.9009  -0.2179 H              1 S1                 0.0000
     41 ****         6.0999  -0.0384  -1.6849 H              1 S1                 0.0000
     42 ****         4.5605   1.5948  -2.2820 H              1 S1                 0.0000
     43 ****         5.6983  -2.2382  -0.3955 H              1 S1                 0.0000
     44 ****         1.6981  -1.8609   1.6250 H              1 S1                 0.0000
     45 ****        -3.6528  -0.8085   1.3315 H              1 S1                 0.0000
     46 ****        -3.7224  -0.1071   3.7017 H              1 S1                 0.0000
     47 ****        -4.0673   2.2861   4.2870 H              1 S1                 0.0000
     48 ****        -4.3520   3.9738   2.4882 H              1 S1                 0.0000
     49 ****        -1.8003   2.0516  -0.9168 LP             1 S1                 0.0000
     50 ****         2.1347   0.9736  -0.5454 LP             1 S1                 0.0000
     51 ****        -1.4433  -2.9676  -1.2422 LP             1 S1                 0.0000
     52 ****         2.9677  -0.2247  -1.7093 LP             1 S1                 0.0000
     53 ****         4.2765  -1.1653  -1.9719 LP             1 S1                 0.0000
     54 ****         5.9929   2.2494  -2.0556 LP             1 S1                 0.0000
     55 ****         4.8000   2.4431  -0.9574 LP             1 S1                 0.0000
     56 ****         5.9732  -2.5614   1.1376 LP             1 S1                 0.0000
     57 ****         6.6567  -1.2641   0.4188 LP             1 S1                 0.0000
     58 ****         2.3640  -0.4195   1.5280 LP             1 S1                 0.0000
     59 ****         2.8452  -1.4905   2.6629 LP             1 S1                 0.0000
@<TRIPOS>BOND
    1    1    2 1     
    2    1   33 1     
    3    1   34 1     
    4    1   35 1     
    5    2    3 1     
    6    2   22 1     
    7    2   36 1     
    8    3    4 1     
    9    3   37 1     
   10    4    9 ar    
   11    4    5 ar    
   12    5    6 ar    
   13    6    7 ar    
   14    6   38 1     
   15    7    8 ar    
   16    8   12 1     
   17    8    9 ar    
   18    9   10 1     
   19   10   11 2     
   20   11   12 1     
   21   11   39 1     
   22   12   13 1     
   23   13   29 1     
   24   13   20 1     
   25   13   14 1     
   26   14   15 1     
   27   15   30 1     
   28   15   16 1     
   29   15   18 1     
   30   16   17 1     
   31   16   40 1     
   32   16   41 1     
   33   17   42 1     
   34   18   31 1     
   35   18   19 1     
   36   18   20 1     
   37   19   43 1     
   38   20   32 1     
   39   20   21 1     
   40   21   44 1     
   41   22   27 ar    
   42   22   23 ar    
   43   23   24 ar    
   44   23   45 1     
   45   24   25 ar    
   46   24   46 1     
   47   25   26 ar    
   48   25   47 1     
   49   26   27 ar    
   50   26   48 1     
   51   27   28 1     
   52    5   49 1     
   53    7   50 1     
   54   10   51 1     
   55   14   52 1     
   56   14   53 1     
   57   17   54 1     
   58   17   55 1     
   59   19   56 1     
   60   19   57 1     
   61   21   58 1     
   62   21   59 1     
@<TRIPOS>SUBSTRUCTURE
      1 S1             1
@<TRIPOS>SET
LONE_PAIRS      STATIC     ATOMS    <user>   **** ""
11 49 50 51 52 53 54 55 56 57 58 59
DONOR_HYDROGENS      STATIC     ATOMS    <user>   **** ""
4 37 42 43 44
ATOM$BLUE        STATIC     ATOMS    COLORGROUP SYSTEM
11 49 50 51 52 53 54 55 56 57 58 59
ATOM$RED        STATIC     ATOMS    COLORGROUP SYSTEM
4 37 42 43 44
