AV-unprocessed.smi:1511|AV-procd|sdf|6098|dock7
  -GOLD-   22720 6223D 1   1.00000     0.00000
 Structure written by MMmdl.
 32 33  0  0  0  0  0  0  0  0  1 V2000
  149.6759  142.7179  158.8144 O   0  0  0  0  0  0  0  0  0  0  0  0
  150.6135  143.1296  158.1320 C   0  0  0  0  0  0  0  0  0  0  0  0
  151.6756  144.0373  158.7565 C   0  0  0  0  0  0  0  0  0  0  0  0
  152.1109  143.5297  160.0472 N   0  0  0  0  0  0  0  0  0  0  0  0
  151.9492  144.1019  161.2921 C   0  0  0  0  0  0  0  0  0  0  0  0
  152.5389  143.2714  162.2015 C   0  0  0  0  0  0  0  0  0  0  0  0
  153.0384  142.2013  161.4079 C   0  0  0  0  0  0  0  0  0  0  0  0
  152.7799  142.3578  160.1197 N   0  0  0  0  0  0  0  0  0  0  0  0
  150.7802  142.8131  156.8383 N   0  0  0  0  0  0  0  0  0  0  0  0
  149.9604  141.8647  156.0940 C   0  0  0  0  0  0  0  0  0  0  0  0
  150.8015  140.7141  155.5044 C   0  0  2  0  0  0  0  0  0  0  0  0
  149.9645  139.6675  154.7378 C   0  0  0  0  0  0  0  0  0  0  0  0
  150.8488  138.4503  154.4544 C   0  0  0  0  0  0  0  0  0  0  0  0
  151.9592  138.3030  155.9023 S   0  0  0  0  0  0  0  0  0  0  0  0
  151.4212  137.2971  156.8305 O   0  0  0  0  0  0  0  0  0  0  0  0
  153.3518  138.2337  155.4346 O   0  0  0  0  0  0  0  0  0  0  0  0
  151.6174  139.9738  156.5763 C   0  0  0  0  0  0  0  0  0  0  0  0
  152.5372  144.1070  158.0915 H   0  0  0  0  0  0  0  0  0  0  0  0
  151.2830  145.0474  158.8842 H   0  0  0  0  0  0  0  0  0  0  0  0
  151.4378  145.0438  161.4251 H   0  0  0  0  0  0  0  0  0  0  0  0
  152.6039  143.4077  163.2707 H   0  0  0  0  0  0  0  0  0  0  0  0
  153.5784  141.3223  161.7272 H   0  0  0  0  0  0  0  0  0  0  0  0
  151.5721  143.2090  156.3528 H   0  0  0  0  0  0  0  0  0  0  0  0
  149.1726  141.4692  156.7374 H   0  0  0  0  0  0  0  0  0  0  0  0
  149.4604  142.4107  155.2934 H   0  0  0  0  0  0  0  0  0  0  0  0
  151.5159  141.1337  154.7944 H   0  0  0  0  0  0  0  0  0  0  0  0
  149.1225  139.3572  155.3578 H   0  0  0  0  0  0  0  0  0  0  0  0
  149.5485  140.0729  153.8146 H   0  0  0  0  0  0  0  0  0  0  0  0
  150.2823  137.5297  154.3145 H   0  0  0  0  0  0  0  0  0  0  0  0
  151.4660  138.6204  153.5719 H   0  0  0  0  0  0  0  0  0  0  0  0
  152.5523  140.4789  156.8190 H   0  0  0  0  0  0  0  0  0  0  0  0
  151.0433  139.8493  157.4946 H   0  0  0  0  0  0  0  0  0  0  0  0
  1  2  2  0  0  0  0
  2  3  1  0  0  0  0
  2  9  1  0  0  0  0
  3  4  1  0  0  0  0
  3 18  1  0  0  0  0
  3 19  1  0  0  0  0
  4  8  1  0  0  0  0
  4  5  1  0  0  0  0
  5  6  2  0  0  0  0
  5 20  1  0  0  0  0
  6  7  1  0  0  0  0
  6 21  1  0  0  0  0
  7  8  2  0  0  0  0
  7 22  1  0  0  0  0
  9 10  1  0  0  0  0
  9 23  1  0  0  0  0
 10 11  1  0  0  0  0
 10 24  1  0  0  0  0
 10 25  1  0  0  0  0
 11 17  1  0  0  0  0
 11 12  1  0  0  0  0
 11 26  1  0  0  0  0
 12 13  1  0  0  0  0
 12 27  1  0  0  0  0
 12 28  1  0  0  0  0
 13 14  1  0  0  0  0
 13 29  1  0  0  0  0
 13 30  1  0  0  0  0
 14 15  2  0  0  0  0
 14 16  2  0  0  0  0
 14 17  1  0  0  0  0
 17 31  1  0  0  0  0
 17 32  1  0  0  0  0
M  END
> <s_m_source_file>
AV-unprocessed.smi

> <i_m_source_file_index>
1511

> <i_lp_mmshare_version>
43012

> <i_f3d_flags>
0

> <s_epik_input>
bjFbY0hdW2NIXVtjSF1uMVtDSDJdQyg9TylbTkhdW0NIMl1bQ0BASF0oW0NIMl0yKVtDSDJdW0NIMl1TMig9Tyk9Tw==

> <s_epik_cmdline>
J2VwaWtfcHl0aG9uJywgJy1waCcsICc3LjAnLCAnLXRuJywgJzgnLCAnLW1hJywgJzIwMCcsICctbWV0YWxfYmluZGluZycsICctaW1hZScsICc8aW5maWxlLm1hZT4nLCAnLW9tYWUnLCAnPG91dGZpbGUubWFlPic=

> <r_lp_tautomer_probability>
1

> <r_epik_Ionization_Penalty>
1.34373e-05

> <r_epik_Ionization_Penalty_Charging>
0

> <r_epik_Ionization_Penalty_Neutral>
1.34373e-05

> <r_epik_State_Penalty>
-0

> <r_epik_Charging_Adjusted_Penalty>
0

> <i_epik_Tot_Q>
0

> <i_epik_Tot_abs_Q>
0

> <r_epik_Metal_State_Penalty>
-0

> <b_epik_Metal_Only>
0

> <s_lp_Force_Field>
OPLS_2005

> <r_lp_Energy>
3.80917

> <b_lp_Chiralities_Consistent>
1

> <s_lp_Variant>
AV-unprocessed.smi:1511-1

> <Gold.Version>
5.8.1

> <Gold.Id.Protein>
6NUR|6NUR_protein|mol2

> <Gold.PLP.Fitness>
43.4062

> <Gold.PLP.PLP>
-41.5504

> <Gold.PLP.part.hbond>
-2.9491

> <Gold.PLP.part.metal>
0.0000

> <Gold.PLP.part.buried>
-4.3900

> <Gold.PLP.part.nonpolar>
-33.7740

> <Gold.PLP.part.repulsive>
0.1214

> <Gold.PLP.ligand.clash>
0.0000

> <Gold.PLP.ligand.torsion>
0.2040

> <Gold.PLP.Chemscore.Hbond>
0.7520

> <Gold.PLP.Chemscore.CHOScore>
0.0000

> <Gold.PLP.Chemscore.Metal>
0.0000

> <Gold.Chemscore.Hbonds>
donor molecule, donor type, donor heavy atom, donor atom, acceptor molecule, acceptor atom, score
      P1  H  7997  8010       L1    16  0.35

> <Gold.PLP.Chemscore.Internal.Correction>
0.0078

> <Gold.Rescore>
     Score         DG    S(hbond)    S(metal)    S(lipo)     H(rot)  DE(clash)    DE(int)     intcor
     12.47     -12.83       0.67        0.00      83.44       1.82       0.06       0.30       ----

> <Gold.Chemscore.Fitness>
12.4735

> <Gold.Chemscore.DG>
-12.8328

> <Gold.Chemscore.ZeroCoef>
-5.4800

> <Gold.Chemscore.Hbond>
0.6717

> <Gold.Chemscore.Metal>
0.0000

> <Gold.Chemscore.Lipo>
83.4435

> <Gold.Chemscore.Internal_Hbond>
0.0000

> <Gold.Chemscore.DEClash>
0.0635

> <Gold.Chemscore.DEInternal>
0.2958

> <Gold.Chemscore.Rot>
1.8178

> <Gold.Chemscore.Internal.Correction>
   9.000000E+99

> <Gold.Chemscore.Hbonds>
donor molecule, donor type, donor heavy atom, donor atom, acceptor molecule, acceptor atom, score
      P1  H  7997  8010       L1    16  0.25

> <Gold.Chemscore.Hbond.Weighted>
-2.2436

> <Gold.Chemscore.Metal.Weighted>
-0.0000

> <Gold.Chemscore.Lipo.Weighted>
-9.7629

> <Gold.Chemscore.Internal_Hbond.Weighted>
0.0000

> <Gold.Chemscore.DEClash.Weighted>
0.0635

> <Gold.Chemscore.DEInternal.Weighted>
0.2958

> <Gold.Chemscore.Rot.Weighted>
4.6537

> <Gold.Chemscore.Internal.Correction.Weighted>
   9.000000E+99

> <Gold.Protein.RotatedTorsions>
[ 6907 6896 6895 6894 ] final   13.84 input  -60.11 | X-H torsion
[ 7974 7965 7964 7962 ] final -135.23 input  175.53 | X-H torsion
[ 8008 7997 7996 7995 ] final   95.93 input   59.86 | X-H torsion
[ 10167 10162 10161 10158 ] final  -77.70 input  -65.29 | X-H torsion
[ 10718 10713 10712 10709 ] final -166.93 input   66.30 | X-H torsion
[ 10763 10752 10751 10750 ] final  -30.67 input  -60.55 | X-H torsion
[ 11005 11000 10999 10996 ] final   63.00 input  -57.11 | X-H torsion

> <Gold.Protein.ActiveResidues>
 VAL166  LYS551  ARG553  GLY616  TRP617  ASP618  TYR619  PRO620  LYS621  CYS622 
 ASP623  PHE694  ASN695  SER759  ASP760  ASP761  ALA762  ILE779  LEU786  VAL792 
 PHE793  MET794  SER795  GLU796  ALA797  LYS798  CYS799  TRP800  GLU811  SER814 

> <Gold.Protein.RotatedAtoms>
  151.7928  135.0731  160.0389 H   0  0  0  0  0  0  0  0  0  0  0  0  # atno 6907 bound_to 6896
  152.3144  133.5783  159.5711 H   0  0  0  0  0  0  0  0  0  0  0  0  # atno 6908 bound_to 6896
  150.7337  134.0020  159.3683 H   0  0  0  0  0  0  0  0  0  0  0  0  # atno 6909 bound_to 6896
  144.9032  140.6799  143.5071 H   0  0  0  0  0  0  0  0  0  0  0  0  # atno 7974 bound_to 7965
  156.0742  140.3279  155.7613 H   0  0  0  0  0  0  0  0  0  0  0  0  # atno 8008 bound_to 7997
  155.5257  140.0589  157.2916 H   0  0  0  0  0  0  0  0  0  0  0  0  # atno 8009 bound_to 7997
  154.4546  140.1936  156.0434 H   0  0  0  0  0  0  0  0  0  0  0  0  # atno 8010 bound_to 7997
  140.4747  143.2417  151.8150 H   0  0  0  0  0  0  0  0  0  0  0  0  # atno 10167 bound_to 10162
  156.6750  130.9099  151.3049 H   0  0  0  0  0  0  0  0  0  0  0  0  # atno 10718 bound_to 10713
  153.7847  135.6902  153.4882 H   0  0  0  0  0  0  0  0  0  0  0  0  # atno 10763 bound_to 10752
  153.1788  135.4514  154.9999 H   0  0  0  0  0  0  0  0  0  0  0  0  # atno 10764 bound_to 10752
  154.8068  135.3360  154.7348 H   0  0  0  0  0  0  0  0  0  0  0  0  # atno 10765 bound_to 10752
  140.0054  134.6378  155.9864 H   0  0  0  0  0  0  0  0  0  0  0  0  # atno 11005 bound_to 11000
  145.3580  139.1689  143.4399 LP  0  0  0  0  0  0  0  0  0  0  0  0  # atno 17320 bound_to 7965
  146.3120  140.3639  142.8667 LP  0  0  0  0  0  0  0  0  0  0  0  0  # atno 17321 bound_to 7965
  139.4824  144.4848  151.9261 LP  0  0  0  0  0  0  0  0  0  0  0  0  # atno 17342 bound_to 10162
  140.3933  144.2588  150.5898 LP  0  0  0  0  0  0  0  0  0  0  0  0  # atno 17343 bound_to 10162
  157.7064  130.9389  150.0944 LP  0  0  0  0  0  0  0  0  0  0  0  0  # atno 17370 bound_to 10713
  156.1910  130.3654  149.8910 LP  0  0  0  0  0  0  0  0  0  0  0  0  # atno 17371 bound_to 10713
  141.1673  133.6537  156.4524 LP  0  0  0  0  0  0  0  0  0  0  0  0  # atno 17394 bound_to 11000
  140.4651  134.6805  157.5103 LP  0  0  0  0  0  0  0  0  0  0  0  0  # atno 17395 bound_to 11000

$$$$
