#       Name:                AV-unprocessed.smi:102
#       Creating user name   scv26
#       Creation time:       Thu Mar 26 17:49:12 2020


#       File generated by GOLD software.
#

@<TRIPOS>MOLECULE
AV-unprocessed.smi:102
    56    57     1
SMALL
NO_CHARGES


@<TRIPOS>ATOM
      1 ****        -3.0631   3.9891   2.2879 C.3            1 S1                 0.0000
      2 ****        -2.7044   2.7144   1.5359 C.2            1 S1                 0.0000
      3 ****        -2.8852   1.6026   2.0337 O.2            1 S1                 0.0000
      4 ****        -2.1916   2.9646   0.3173 O.3            1 S1                 0.0000
      5 ****        -1.7908   1.8950  -0.5282 C.3            1 S1                 0.0000
      6 ****        -0.3117   1.5296  -0.2989 C.3            1 S1                 0.0000
      7 ****        -0.1640   0.8287   0.9289 O.3            1 S1                 0.0000
      8 ****        -0.3328  -0.5300   0.6939 C.3            1 S1                 0.0000
      9 ****         0.4128  -1.3069   1.7477 N.am           1 S1                 0.0000
     10 ****         1.6079  -0.8354   2.2732 C.2            1 S1                 0.0000
     11 ****         2.3159  -1.5106   3.2092 C.2            1 S1                 0.0000
     12 ****         3.4663  -0.9931   3.6723 F              1 S1                 0.0000
     13 ****         1.8467  -2.7991   3.7115 C.2            1 S1                 0.0000
     14 ****         2.4147  -3.4825   4.5611 O.2            1 S1                 0.0000
     15 ****         0.6519  -3.2433   3.1362 N.am           1 S1                 0.0000
     16 ****        -0.0850  -2.5595   2.1672 C.2            1 S1                 0.0000
     17 ****        -1.1139  -3.0567   1.7114 O.2            1 S1                 0.0000
     18 ****         0.2418  -0.8161  -0.6919 C.3            1 S1                 0.0000
     19 ****        -0.5713  -1.7595  -1.3755 O.3            1 S1                 0.0000
     20 ****        -0.0561  -2.4898  -2.3772 C.2            1 S1                 0.0000
     21 ****        -1.0728  -3.4536  -2.9737 C.3            1 S1                 0.0000
     22 ****         1.0963  -2.4225  -2.8050 O.2            1 S1                 0.0000
     23 ****         0.2096   0.5528  -1.3674 C.3            1 S1                 0.0000
     24 ****         1.5238   0.8926  -1.7913 O.3            1 S1                 0.0000
     25 ****         1.7076   1.7520  -2.8088 C.2            1 S1                 0.0000
     26 ****         3.1814   1.9804  -3.1158 C.3            1 S1                 0.0000
     27 ****         0.8214   2.3213  -3.4461 O.2            1 S1                 0.0000
     28 ****         0.2959  -4.1368   3.4437 H              1 S1                 0.0000
     29 ****        -3.9280   4.4675   1.8285 H              1 S1                 0.0000
     30 ****        -2.2282   4.6898   2.2698 H              1 S1                 0.0000
     31 ****        -3.3030   3.7653   3.3276 H              1 S1                 0.0000
     32 ****        -2.4428   1.0271  -0.4199 H              1 S1                 0.0000
     33 ****        -1.9135   2.2421  -1.5543 H              1 S1                 0.0000
     34 ****         0.2831   2.4435  -0.2737 H              1 S1                 0.0000
     35 ****        -1.3958  -0.7615   0.7934 H              1 S1                 0.0000
     36 ****         2.0050   0.1065   1.9227 H              1 S1                 0.0000
     37 ****         1.2687  -1.1691  -0.5774 H              1 S1                 0.0000
     38 ****        -1.4839  -4.0994  -2.1975 H              1 S1                 0.0000
     39 ****        -0.6065  -4.0806  -3.7338 H              1 S1                 0.0000
     40 ****        -1.8913  -2.9014  -3.4357 H              1 S1                 0.0000
     41 ****        -0.4641   0.5295  -2.2259 H              1 S1                 0.0000
     42 ****         3.6767   1.0327  -3.3278 H              1 S1                 0.0000
     43 ****         3.6764   2.4479  -2.2645 H              1 S1                 0.0000
     44 ****         3.2958   2.6317  -3.9825 H              1 S1                 0.0000
     45 ****        -3.2754   1.5229   2.9510 LP             1 S1                 0.0000
     46 ****        -2.6418   0.7795   1.5206 LP             1 S1                 0.0000
     47 ****        -0.8531   1.1448   1.5810 LP             1 S1                 0.0000
     48 ****         0.7489   0.9940   1.3022 LP             1 S1                 0.0000
     49 ****         3.2718  -3.1652   4.9668 LP             1 S1                 0.0000
     50 ****         2.0196  -4.3557   4.8464 LP             1 S1                 0.0000
     51 ****        -1.6371  -2.5699   1.0119 LP             1 S1                 0.0000
     52 ****        -1.4270  -3.9476   2.0404 LP             1 S1                 0.0000
     53 ****         1.7437  -1.7778  -2.3985 LP             1 S1                 0.0000
     54 ****         1.3850  -3.0125  -3.5590 LP             1 S1                 0.0000
     55 ****        -0.1393   2.1594  -3.2207 LP             1 S1                 0.0000
     56 ****         1.0623   2.9456  -4.1892 LP             1 S1                 0.0000
@<TRIPOS>BOND
    1    1    2 1     
    2    1   29 1     
    3    1   30 1     
    4    1   31 1     
    5    2    3 2     
    6    2    4 1     
    7    4    5 1     
    8    5    6 1     
    9    5   32 1     
   10    5   33 1     
   11    6   23 1     
   12    6    7 1     
   13    6   34 1     
   14    7    8 1     
   15    8    9 1     
   16    8   18 1     
   17    8   35 1     
   18    9   16 1     
   19    9   10 1     
   20   10   11 2     
   21   10   36 1     
   22   11   12 1     
   23   11   13 1     
   24   13   14 2     
   25   13   15 1     
   26   15   28 1     
   27   15   16 1     
   28   16   17 2     
   29   18   19 1     
   30   18   23 1     
   31   18   37 1     
   32   19   20 1     
   33   20   21 1     
   34   20   22 2     
   35   21   38 1     
   36   21   39 1     
   37   21   40 1     
   38   23   24 1     
   39   23   41 1     
   40   24   25 1     
   41   25   26 1     
   42   25   27 2     
   43   26   42 1     
   44   26   43 1     
   45   26   44 1     
   46    3   45 1     
   47    3   46 1     
   48    7   47 1     
   49    7   48 1     
   50   14   49 1     
   51   14   50 1     
   52   17   51 1     
   53   17   52 1     
   54   22   53 1     
   55   22   54 1     
   56   27   55 1     
   57   27   56 1     
@<TRIPOS>SUBSTRUCTURE
      1 S1             1
@<TRIPOS>SET
LONE_PAIRS      STATIC     ATOMS    <user>   **** ""
12 45 46 47 48 49 50 51 52 53 54 55 56
DONOR_HYDROGENS      STATIC     ATOMS    <user>   **** ""
1 28
ATOM$BLUE        STATIC     ATOMS    COLORGROUP SYSTEM
12 45 46 47 48 49 50 51 52 53 54 55 56
ATOM$RED        STATIC     ATOMS    COLORGROUP SYSTEM
1 28
