AV-unprocessed.smi:1554|AV-procd|sdf|6258|dock2
  -GOLD-   22720 6443D 1   1.00000     0.00000
 Structure written by MMmdl.
 49 51  0  0  0  0  0  0  0  0  3 V2000
  145.6212  130.0312  151.8096 C   0  0  0  0  0  0  0  0  0  0  0  0
  145.5313  131.5400  151.9639 C   0  0  0  0  0  0  0  0  0  0  0  0
  144.6182  132.2482  151.1502 C   0  0  0  0  0  0  0  0  0  0  0  0
  144.5555  133.6264  151.3182 C   0  0  0  0  0  0  0  0  0  0  0  0
  143.7713  134.5923  150.6836 N   0  3  0  0  0  0  0  0  0  0  0  0
  144.0630  135.8214  151.1924 C   0  0  0  0  0  0  0  0  0  0  0  0
  145.0208  135.6539  152.1450 N   0  0  0  0  0  0  0  0  0  0  0  0
  145.6846  136.6414  153.0066 C   0  0  0  0  0  0  0  0  0  0  0  0
  146.2298  137.8478  152.2168 C   0  0  2  0  0  0  0  0  0  0  0  0
  147.1449  137.3868  151.2412 O   0  0  0  0  0  0  0  0  0  0  0  0
  146.9404  138.8656  153.1311 C   0  0  0  0  0  0  0  0  0  0  0  0
  147.9578  138.2269  154.0100 N   0  3  2  0  0  0  0  0  0  0  0  0
  147.3943  137.6549  155.2572 C   0  0  0  0  0  0  0  0  0  0  0  0
  147.1183  138.7543  156.2983 C   0  0  0  0  0  0  0  0  0  0  0  0
  148.3199  139.4694  156.5598 O   0  0  0  0  0  0  0  0  0  0  0  0
  148.8278  140.1249  155.4027 C   0  0  1  0  0  0  0  0  0  0  0  0
  150.0751  140.9159  155.8113 C   0  0  0  0  0  0  0  0  0  0  0  0
  149.1409  139.0729  154.3160 C   0  0  0  0  0  0  0  0  0  0  0  0
  145.3619  134.3017  152.2546 C   0  0  0  0  0  0  0  0  0  0  0  0
  146.2697  133.6203  153.0614 C   0  0  0  0  0  0  0  0  0  0  0  0
  146.3474  132.2178  152.9066 C   0  0  0  0  0  0  0  0  0  0  0  0
  147.3272  131.4468  153.7748 C   0  0  0  0  0  0  0  0  0  0  0  0
  144.9418  129.6676  151.0383 H   0  0  0  0  0  0  0  0  0  0  0  0
  145.3595  129.5353  152.7446 H   0  0  0  0  0  0  0  0  0  0  0  0
  146.6321  129.7337  151.5305 H   0  0  0  0  0  0  0  0  0  0  0  0
  143.9945  131.7388  150.4300 H   0  0  0  0  0  0  0  0  0  0  0  0
  143.6114  136.7575  150.8968 H   0  0  0  0  0  0  0  0  0  0  0  0
  144.9733  136.9615  153.7691 H   0  0  0  0  0  0  0  0  0  0  0  0
  146.4932  136.1307  153.5319 H   0  0  0  0  0  0  0  0  0  0  0  0
  145.4001  138.3248  151.6972 H   0  0  0  0  0  0  0  0  0  0  0  0
  147.6171  136.6472  151.5927 H   0  0  0  0  0  0  0  0  0  0  0  0
  147.4053  139.6496  152.5333 H   0  0  0  0  0  0  0  0  0  0  0  0
  146.1861  139.3640  153.7418 H   0  0  0  0  0  0  0  0  0  0  0  0
  146.4909  137.0812  155.0470 H   0  0  0  0  0  0  0  0  0  0  0  0
  148.1163  136.9467  155.6661 H   0  0  0  0  0  0  0  0  0  0  0  0
  146.3370  139.4358  155.9588 H   0  0  0  0  0  0  0  0  0  0  0  0
  146.7668  138.3079  157.2286 H   0  0  0  0  0  0  0  0  0  0  0  0
  148.0828  140.8338  155.0394 H   0  0  0  0  0  0  0  0  0  0  0  0
  150.4955  141.4529  154.9604 H   0  0  0  0  0  0  0  0  0  0  0  0
  150.8491  140.2583  156.2080 H   0  0  0  0  0  0  0  0  0  0  0  0
  149.8357  141.6499  156.5810 H   0  0  0  0  0  0  0  0  0  0  0  0
  149.9365  138.4157  154.6699 H   0  0  0  0  0  0  0  0  0  0  0  0
  149.5258  139.5538  153.4178 H   0  0  0  0  0  0  0  0  0  0  0  0
  146.8902  134.1360  153.7790 H   0  0  0  0  0  0  0  0  0  0  0  0
  147.8674  132.1090  154.4522 H   0  0  0  0  0  0  0  0  0  0  0  0
  148.0627  130.9316  153.1564 H   0  0  0  0  0  0  0  0  0  0  0  0
  146.8035  130.7067  154.3804 H   0  0  0  0  0  0  0  0  0  0  0  0
  148.2979  137.4383  153.4774 H   0  0  0  0  0  0  0  0  0  0  0  0
  143.0853  134.4271  149.9579 H   0  0  0  0  0  0  0  0  0  0  0  0
  1  2  1  0  0  0  0
  1 23  1  0  0  0  0
  1 24  1  0  0  0  0
  1 25  1  0  0  0  0
  2 21  1  0  0  0  0
  2  3  2  0  0  0  0
  3  4  1  0  0  0  0
  3 26  1  0  0  0  0
  4 19  2  0  0  0  0
  4  5  1  0  0  0  0
  5  6  2  0  0  0  0
  5 49  1  0  0  0  0
  6  7  1  0  0  0  0
  6 27  1  0  0  0  0
  7  8  1  0  0  0  0
  7 19  1  0  0  0  0
  8  9  1  0  0  0  0
  8 28  1  0  0  0  0
  8 29  1  0  0  0  0
  9 10  1  0  0  0  0
  9 11  1  0  0  0  0
  9 30  1  0  0  0  0
 10 31  1  0  0  0  0
 11 12  1  0  0  0  0
 11 32  1  0  0  0  0
 11 33  1  0  0  0  0
 12 18  1  0  0  0  0
 12 13  1  0  0  0  0
 12 48  1  0  0  0  0
 13 14  1  0  0  0  0
 13 34  1  0  0  0  0
 13 35  1  0  0  0  0
 14 15  1  0  0  0  0
 14 36  1  0  0  0  0
 14 37  1  0  0  0  0
 15 16  1  0  0  0  0
 16 17  1  0  0  0  0
 16 18  1  0  0  0  0
 16 38  1  0  0  0  0
 17 39  1  0  0  0  0
 17 40  1  0  0  0  0
 17 41  1  0  0  0  0
 18 42  1  0  0  0  0
 18 43  1  0  0  0  0
 19 20  1  0  0  0  0
 20 21  2  0  0  0  0
 20 44  1  0  0  0  0
 21 22  1  0  0  0  0
 22 45  1  0  0  0  0
 22 46  1  0  0  0  0
 22 47  1  0  0  0  0
M  CHG  1   5   1
M  CHG  1  12   1
M  END
> <s_m_source_file>
AV-unprocessed.smi

> <i_m_source_file_index>
1554

> <i_lp_mmshare_version>
43012

> <i_f3d_flags>
0

> <s_epik_input>
W0NIM11jKFtjSF0xKWMoW0NIM10pW2NIXWMoYzEyKW4oW2NIXW4yKVtDSDJdW0NASF0oW09IXSlbQ0gyXU4zW0NIMl1bQ0gyXU9bQ0BASF0oW0NIM10pW0NIMl0z

> <s_epik_cmdline>
J2VwaWtfcHl0aG9uJywgJy1waCcsICc3LjAnLCAnLXRuJywgJzgnLCAnLW1hJywgJzIwMCcsICctbWV0YWxfYmluZGluZycsICctaW1hZScsICc8aW5maWxlLm1hZT4nLCAnLW9tYWUnLCAnPG91dGZpbGUubWFlPic=

> <r_epik_Ionization_Penalty>
1.8848

> <r_epik_Ionization_Penalty_Charging>
1.88479

> <r_epik_Ionization_Penalty_Neutral>
1.42224e-05

> <r_epik_State_Penalty>
1.94551

> <r_epik_Charging_Adjusted_Penalty>
3.8303

> <i_epik_Tot_Q>
2

> <i_epik_Tot_abs_Q>
2

> <r_epik_Metal_State_Penalty>
5.95849

> <b_epik_Metal_Only>
0

> <s_lp_Force_Field>
OPLS_2005

> <r_lp_Energy>
31.481

> <b_lp_Chiralities_Consistent>
1

> <s_lp_Variant>
AV-unprocessed.smi:1554-19

> <Gold.Version>
5.8.1

> <Gold.Id.Protein>
6NUR|6NUR_protein|mol2

> <Gold.PLP.Fitness>
52.4718

> <Gold.PLP.PLP>
-34.4372

> <Gold.PLP.part.hbond>
-3.6246

> <Gold.PLP.part.metal>
0.0000

> <Gold.PLP.part.buried>
-2.8034

> <Gold.PLP.part.nonpolar>
-28.7217

> <Gold.PLP.part.repulsive>
0.0202

> <Gold.PLP.ligand.clash>
0.0000

> <Gold.PLP.ligand.torsion>
0.4962

> <Gold.PLP.Chemscore.Hbond>
5.3325

> <Gold.PLP.Chemscore.CHOScore>
1.0000

> <Gold.PLP.Chemscore.Metal>
0.0000

> <Gold.Chemscore.Hbonds>
donor molecule, donor type, donor heavy atom, donor atom, acceptor molecule, acceptor atom, score
      L1  H     5    49       P1 10186  1.38
      L1  H    10    31       P1  7948  0.51
      L1  H    12    48       P1  7948  1.59
      P1  H  7954  7966       L1    10  1.00
      L1  C     6    27       P1 10171  1.00

> <Gold.PLP.Chemscore.Internal.Correction>
0.0295

> <Gold.Rescore>
     Score         DG    S(hbond)    S(metal)    S(lipo)     H(rot)  DE(clash)    DE(int)     intcor
     18.88     -19.78       2.86        0.00      86.64       2.11       0.23       0.66       ----

> <Gold.Chemscore.Fitness>
18.8849

> <Gold.Chemscore.DG>
-19.7771

> <Gold.Chemscore.ZeroCoef>
-5.4800

> <Gold.Chemscore.Hbond>
2.8647

> <Gold.Chemscore.Metal>
0.0000

> <Gold.Chemscore.Lipo>
86.6358

> <Gold.Chemscore.Internal_Hbond>
0.0000

> <Gold.Chemscore.DEClash>
0.2311

> <Gold.Chemscore.DEInternal>
0.6611

> <Gold.Chemscore.Rot>
2.1122

> <Gold.Chemscore.Internal.Correction>
   9.000000E+99

> <Gold.Chemscore.Hbonds>
donor molecule, donor type, donor heavy atom, donor atom, acceptor molecule, acceptor atom, score
      L1  H     5    49       P1 10186  0.62
      L1  H    10    31       P1  7948  0.50
      L1  H    12    48       P1  7948  0.78
      P1  H  7954  7966       L1    10  0.30

> <Gold.Chemscore.Hbond.Weighted>
-9.5679

> <Gold.Chemscore.Metal.Weighted>
-0.0000

> <Gold.Chemscore.Lipo.Weighted>
-10.1364

> <Gold.Chemscore.Internal_Hbond.Weighted>
0.0000

> <Gold.Chemscore.DEClash.Weighted>
0.2311

> <Gold.Chemscore.DEInternal.Weighted>
0.6611

> <Gold.Chemscore.Rot.Weighted>
5.4073

> <Gold.Chemscore.Internal.Correction.Weighted>
   9.000000E+99

> <Gold.Protein.RotatedTorsions>
[ 6907 6896 6895 6894 ] final -125.22 input  -60.11 | X-H torsion
[ 7974 7965 7964 7962 ] final   33.14 input  175.53 | X-H torsion
[ 8008 7997 7996 7995 ] final  161.57 input   59.86 | X-H torsion
[ 10167 10162 10161 10158 ] final   68.77 input  -65.29 | X-H torsion
[ 10718 10713 10712 10709 ] final  -89.78 input   66.30 | X-H torsion
[ 10763 10752 10751 10750 ] final -105.46 input  -60.55 | X-H torsion
[ 11005 11000 10999 10996 ] final   63.39 input  -57.11 | X-H torsion

> <Gold.Protein.ActiveResidues>
 VAL166  LYS551  ARG553  GLY616  TRP617  ASP618  TYR619  PRO620  LYS621  CYS622 
 ASP623  PHE694  ASN695  SER759  ASP760  ASP761  ALA762  ILE779  LEU786  VAL792 
 PHE793  MET794  SER795  GLU796  ALA797  LYS798  CYS799  TRP800  GLU811  SER814 

> <Gold.Protein.RotatedAtoms>
  150.8846  133.7326  159.2922 H   0  0  0  0  0  0  0  0  0  0  0  0  # atno 6907 bound_to 6896
  151.4896  135.1055  159.9809 H   0  0  0  0  0  0  0  0  0  0  0  0  # atno 6908 bound_to 6896
  152.4781  133.8142  159.7075 H   0  0  0  0  0  0  0  0  0  0  0  0  # atno 6909 bound_to 6896
  146.1440  139.6435  142.9143 H   0  0  0  0  0  0  0  0  0  0  0  0  # atno 7974 bound_to 7965
  156.2093  140.1773  156.7730 H   0  0  0  0  0  0  0  0  0  0  0  0  # atno 8008 bound_to 7997
  154.5700  140.0684  156.8979 H   0  0  0  0  0  0  0  0  0  0  0  0  # atno 8009 bound_to 7997
  155.2690  140.3341  155.4269 H   0  0  0  0  0  0  0  0  0  0  0  0  # atno 8010 bound_to 7997
  140.0751  144.5119  150.7200 H   0  0  0  0  0  0  0  0  0  0  0  0  # atno 10167 bound_to 10162
  155.9985  130.4885  150.5223 H   0  0  0  0  0  0  0  0  0  0  0  0  # atno 10718 bound_to 10713
  154.7948  135.4748  154.0135 H   0  0  0  0  0  0  0  0  0  0  0  0  # atno 10763 bound_to 10752
  153.1686  135.6821  153.8647 H   0  0  0  0  0  0  0  0  0  0  0  0  # atno 10764 bound_to 10752
  153.8237  135.3201  155.3390 H   0  0  0  0  0  0  0  0  0  0  0  0  # atno 10765 bound_to 10752
  140.0028  134.6416  155.9903 H   0  0  0  0  0  0  0  0  0  0  0  0  # atno 11005 bound_to 11000
  145.4980  141.0438  143.2556 LP  0  0  0  0  0  0  0  0  0  0  0  0  # atno 17320 bound_to 7965
  144.7825  139.6495  143.7148 LP  0  0  0  0  0  0  0  0  0  0  0  0  # atno 17321 bound_to 7965
  140.7106  143.2502  151.4592 LP  0  0  0  0  0  0  0  0  0  0  0  0  # atno 17342 bound_to 10162
  139.5813  144.1704  152.1971 LP  0  0  0  0  0  0  0  0  0  0  0  0  # atno 17343 bound_to 10162
  157.3183  131.0677  151.1950 LP  0  0  0  0  0  0  0  0  0  0  0  0  # atno 17370 bound_to 10713
  157.2873  130.6779  149.6096 LP  0  0  0  0  0  0  0  0  0  0  0  0  # atno 17371 bound_to 10713
  141.1655  133.6537  156.4464 LP  0  0  0  0  0  0  0  0  0  0  0  0  # atno 17394 bound_to 11000
  140.4696  134.6765  157.5123 LP  0  0  0  0  0  0  0  0  0  0  0  0  # atno 17395 bound_to 11000

$$$$
