#       Name:                AV-unprocessed.smi:3303
#       Creating user name   scv26
#       Creation time:       Fri Mar 27 19:00:32 2020


#       File generated by GOLD software.
#

@<TRIPOS>MOLECULE
AV-unprocessed.smi:3303
    46    47     1
SMALL
NO_CHARGES


@<TRIPOS>ATOM
      1 ****        -0.8531  -0.4233   2.5095 C.3            1 S1                 0.0000
      2 ****        -1.2098  -1.2057   1.2332 C.3            1 S1                 0.0000
      3 ****        -2.7387  -1.4326   1.1657 C.3            1 S1                 0.0000
      4 ****        -3.1550  -2.1646  -0.0583 N.4            1 S1                 1.0000
      5 ****        -2.8371  -3.6144  -0.0015 C.3            1 S1                 0.0000
      6 ****        -2.7128  -1.4571  -1.2942 C.3            1 S1                 0.0000
      7 ****        -3.2206  -2.1261  -2.5832 C.3            1 S1                 0.0000
      8 ****        -1.1848  -1.2475  -1.3015 C.3            1 S1                 0.0000
      9 ****        -0.7085  -0.4936  -0.0459 C.3            1 S1                 0.0000
     10 ****         0.7696  -0.4005  -0.0566 N.4            1 S1                 1.0000
     11 ****         1.3044   0.9760  -0.0578 C.3            1 S1                 0.0000
     12 ****         2.8382   0.9701  -0.0101 C.3            1 S1                 0.0000
     13 ****         3.4177   2.3715  -0.0154 C.ar           1 S1                 0.0000
     14 ****         3.8563   2.9756   1.1821 C.ar           1 S1                 0.0000
     15 ****         4.3811   4.2812   1.1211 C.ar           1 S1                 0.0000
     16 ****         4.4451   4.9284  -0.1279 C.ar           1 S1                 0.0000
     17 ****         3.9792   4.2391  -1.2652 C.ar           1 S1                 0.0000
     18 ****         3.4727   2.9875  -1.2174 N.ar           1 S1                 0.0000
     19 ****        -1.2894   0.5761   2.4977 H              1 S1                 0.0000
     20 ****         0.2251  -0.3141   2.6275 H              1 S1                 0.0000
     21 ****        -1.2234  -0.9351   3.3983 H              1 S1                 0.0000
     22 ****        -0.7217  -2.1791   1.3006 H              1 S1                 0.0000
     23 ****        -3.0856  -1.9702   2.0493 H              1 S1                 0.0000
     24 ****        -3.2532  -0.4703   1.1787 H              1 S1                 0.0000
     25 ****        -1.7665  -3.8038  -0.0737 H              1 S1                 0.0000
     26 ****        -3.3340  -4.1604  -0.8029 H              1 S1                 0.0000
     27 ****        -3.1902  -4.0450   0.9361 H              1 S1                 0.0000
     28 ****        -3.1777  -0.4702  -1.2595 H              1 S1                 0.0000
     29 ****        -3.0153  -1.4977  -3.4503 H              1 S1                 0.0000
     30 ****        -4.2985  -2.2878  -2.5463 H              1 S1                 0.0000
     31 ****        -2.7393  -3.0878  -2.7632 H              1 S1                 0.0000
     32 ****        -0.6752  -2.2090  -1.3778 H              1 S1                 0.0000
     33 ****        -0.8989  -0.6846  -2.1911 H              1 S1                 0.0000
     34 ****        -1.1381   0.5100  -0.0733 H              1 S1                 0.0000
     35 ****         1.1244  -0.8781   0.7598 H              1 S1                 0.0000
     36 ****         0.9564   1.4926  -0.9535 H              1 S1                 0.0000
     37 ****         0.9099   1.5173   0.8033 H              1 S1                 0.0000
     38 ****         3.1820   0.4446   0.8819 H              1 S1                 0.0000
     39 ****         3.2382   0.4204  -0.8636 H              1 S1                 0.0000
     40 ****         3.7940   2.4546   2.1263 H              1 S1                 0.0000
     41 ****         4.7270   4.7776   2.0157 H              1 S1                 0.0000
     42 ****         4.8419   5.9293  -0.2126 H              1 S1                 0.0000
     43 ****         4.0129   4.7056  -2.2386 H              1 S1                 0.0000
     44 ****         1.1161  -0.8744  -0.8789 H              1 S1                 0.0000
     45 ****        -4.1647  -2.1236  -0.0659 H              1 S1                 0.0000
     46 ****         3.1484   2.5308  -2.0458 LP             1 S1                 0.0000
@<TRIPOS>BOND
    1    1    2 1     
    2    1   19 1     
    3    1   20 1     
    4    1   21 1     
    5    2    9 1     
    6    2    3 1     
    7    2   22 1     
    8    3    4 1     
    9    3   23 1     
   10    3   24 1     
   11    4    5 1     
   12    4    6 1     
   13    4   45 1     
   14    5   25 1     
   15    5   26 1     
   16    5   27 1     
   17    6    7 1     
   18    6    8 1     
   19    6   28 1     
   20    7   29 1     
   21    7   30 1     
   22    7   31 1     
   23    8    9 1     
   24    8   32 1     
   25    8   33 1     
   26    9   10 1     
   27    9   34 1     
   28   10   11 1     
   29   10   35 1     
   30   10   44 1     
   31   11   12 1     
   32   11   36 1     
   33   11   37 1     
   34   12   13 1     
   35   12   38 1     
   36   12   39 1     
   37   13   18 ar    
   38   13   14 ar    
   39   14   15 ar    
   40   14   40 1     
   41   15   16 ar    
   42   15   41 1     
   43   16   17 ar    
   44   16   42 1     
   45   17   18 ar    
   46   17   43 1     
   47   18   46 1     
@<TRIPOS>SUBSTRUCTURE
      1 S1             1
@<TRIPOS>SET
LONE_PAIRS      STATIC     ATOMS    <user>   **** ""
1 46
DONOR_HYDROGENS      STATIC     ATOMS    <user>   **** ""
3 45 35 44
ATOM$BLUE        STATIC     ATOMS    COLORGROUP SYSTEM
1 46
ATOM$RED        STATIC     ATOMS    COLORGROUP SYSTEM
3 45 35 44
