AV-unprocessed.smi:157|AV-procd|sdf|1298|dock10
  -GOLD-   2262018583D 1   1.00000     0.00000
 Structure written by MMmdl.
 35 37  0  0  0  0  0  0  0  0  1 V2000
  152.7718  136.4043  156.7005 O   0  0  0  0  0  0  0  0  0  0  0  0
  153.2667  137.6152  157.2328 C   0  0  0  0  0  0  0  0  0  0  0  0
  152.3716  138.1150  158.3861 C   0  0  2  0  0  0  0  0  0  0  0  0
  151.0675  138.3396  157.8471 O   0  0  0  0  0  0  0  0  0  0  0  0
  150.7823  139.7073  157.7884 C   0  0  2  0  0  0  0  0  0  0  0  0
  150.2958  140.0442  156.4132 N   0  0  0  0  0  0  0  0  0  0  0  0
  150.9493  139.8366  155.2619 C   0  0  0  0  0  0  0  0  0  0  0  0
  150.3021  140.2406  154.1822 N   0  0  0  0  0  0  0  0  0  0  0  0
  149.1097  140.7619  154.6807 C   0  0  0  0  0  0  0  0  0  0  0  0
  149.0857  140.6498  156.0635 C   0  0  0  0  0  0  0  0  0  0  0  0
  148.2097  140.9931  157.0755 N   0  0  0  0  0  0  0  0  0  0  0  0
  146.9743  141.2224  156.7586 C   0  0  0  0  0  0  0  0  0  0  0  0
  146.3634  141.2740  155.5139 N   0  0  0  0  0  0  0  0  0  0  0  0
  146.8997  142.0270  154.3928 C   0  0  0  0  0  0  0  0  0  0  0  0
  148.1127  141.3612  153.7315 C   0  0  2  0  0  0  0  0  0  0  0  0
  147.6700  140.3193  152.8860 O   0  0  0  0  0  0  0  0  0  0  0  0
  152.0798  140.4531  158.0865 C   0  0  0  0  0  0  0  0  0  0  0  0
  152.7627  139.4675  159.0074 C   0  0  2  0  0  0  0  0  0  0  0  0
  154.1537  139.7045  159.0868 O   0  0  0  0  0  0  0  0  0  0  0  0
  152.3020  137.3428  159.1535 H   0  0  0  0  0  0  0  0  0  0  0  0
  149.9651  139.9478  158.4695 H   0  0  0  0  0  0  0  0  0  0  0  0
  148.6047  142.0966  153.0941 H   0  0  0  0  0  0  0  0  0  0  0  0
  152.3312  139.5464  160.0064 H   0  0  0  0  0  0  0  0  0  0  0  0
  152.7051  135.7731  157.4008 H   0  0  0  0  0  0  0  0  0  0  0  0
  154.3019  137.4901  157.5503 H   0  0  0  0  0  0  0  0  0  0  0  0
  153.2690  138.3468  156.4244 H   0  0  0  0  0  0  0  0  0  0  0  0
  151.9275  139.3822  155.2114 H   0  0  0  0  0  0  0  0  0  0  0  0
  146.2620  141.4187  157.5613 H   0  0  0  0  0  0  0  0  0  0  0  0
  145.3559  141.2219  155.4698 H   0  0  0  0  0  0  0  0  0  0  0  0
  146.1132  142.2147  153.6614 H   0  0  0  0  0  0  0  0  0  0  0  0
  147.1998  143.0042  154.7740 H   0  0  0  0  0  0  0  0  0  0  0  0
  148.2949  140.2249  152.1831 H   0  0  0  0  0  0  0  0  0  0  0  0
  152.6486  140.5930  157.1654 H   0  0  0  0  0  0  0  0  0  0  0  0
  151.8842  141.4255  158.5397 H   0  0  0  0  0  0  0  0  0  0  0  0
  154.5054  139.1898  159.7972 H   0  0  0  0  0  0  0  0  0  0  0  0
  1  2  1  0  0  0  0
  1 24  1  0  0  0  0
  2  3  1  0  0  0  0
  2 25  1  0  0  0  0
  2 26  1  0  0  0  0
  3 20  1  0  0  0  0
  3 18  1  0  0  0  0
  3  4  1  0  0  0  0
  4  5  1  0  0  0  0
  5 21  1  0  0  0  0
  5  6  1  0  0  0  0
  5 17  1  0  0  0  0
  6 10  1  0  0  0  0
  6  7  1  0  0  0  0
  7  8  2  0  0  0  0
  7 27  1  0  0  0  0
  8  9  1  0  0  0  0
  9 15  1  0  0  0  0
  9 10  2  0  0  0  0
 10 11  1  0  0  0  0
 11 12  2  0  0  0  0
 12 13  1  0  0  0  0
 12 28  1  0  0  0  0
 13 14  1  0  0  0  0
 13 29  1  0  0  0  0
 14 15  1  0  0  0  0
 14 30  1  0  0  0  0
 14 31  1  0  0  0  0
 15 22  1  0  0  0  0
 15 16  1  0  0  0  0
 16 32  1  0  0  0  0
 17 18  1  0  0  0  0
 17 33  1  0  0  0  0
 17 34  1  0  0  0  0
 18 23  1  0  0  0  0
 18 19  1  0  0  0  0
 19 35  1  0  0  0  0
M  END
> <s_m_source_file>
AV-unprocessed.smi

> <i_m_source_file_index>
157

> <i_lp_mmshare_version>
43012

> <i_f3d_flags>
0

> <s_epik_input>
W09IXVtDSDJdW0NASF0xT1tDQEhdKFtDSDJdW0NAQEhdMVtPSF0pbihbY0hdbjIpYyhjMjMpTj1bQ0hdW05IXVtDSDJdW0NASF0zW09IXQ==

> <s_epik_cmdline>
J2VwaWtfcHl0aG9uJywgJy1waCcsICc3LjAnLCAnLXRuJywgJzgnLCAnLW1hJywgJzIwMCcsICctbWV0YWxfYmluZGluZycsICctaW1hZScsICc8aW5maWxlLm1hZT4nLCAnLW9tYWUnLCAnPG91dGZpbGUubWFlPic=

> <r_lp_tautomer_probability>
1

> <r_epik_Ionization_Penalty>
0.0357149

> <r_epik_Ionization_Penalty_Charging>
0.0355056

> <r_epik_Ionization_Penalty_Neutral>
0.000209255

> <r_epik_State_Penalty>
0.0296046

> <r_epik_Charging_Adjusted_Penalty>
0.0651102

> <i_epik_Tot_Q>
0

> <i_epik_Tot_abs_Q>
0

> <r_epik_Metal_State_Penalty>
3.03559e-05

> <b_epik_Metal_Only>
0

> <s_epik_Chemistry_Notes>
This compound has an imine and may undergo hydrolysis. This compound contains an acetal/aminal-like group ( X-CH(R)-Y where X, Y are N, S, or O) that may be acid/base labile, releasing an aldehyde.

> <s_lp_Force_Field>
OPLS_2005

> <r_lp_Energy>
46.5194

> <b_lp_Chiralities_Consistent>
1

> <s_lp_Variant>
AV-unprocessed.smi:157-8

> <Gold.Version>
5.8.1

> <Gold.Id.Protein>
6NUR|6NUR_protein|mol2

> <Gold.PLP.Fitness>
38.7118

> <Gold.PLP.PLP>
-26.8733

> <Gold.PLP.part.hbond>
-3.9148

> <Gold.PLP.part.metal>
0.0000

> <Gold.PLP.part.buried>
-3.0654

> <Gold.PLP.part.nonpolar>
-19.7106

> <Gold.PLP.part.repulsive>
0.1947

> <Gold.PLP.ligand.clash>
0.0000

> <Gold.PLP.ligand.torsion>
0.0116

> <Gold.PLP.Chemscore.Hbond>
3.9500

> <Gold.PLP.Chemscore.CHOScore>
0.0000

> <Gold.PLP.Chemscore.Metal>
0.0000

> <Gold.Chemscore.Hbonds>
donor molecule, donor type, donor heavy atom, donor atom, acceptor molecule, acceptor atom, score
      L1  H    16    32       P1  7957  1.00
      P1  H  7989  7998       L1     8  0.74
      P1  H  7997  8008       L1    19  1.00
      P1  H 10752 10765       L1     1  1.00

> <Gold.PLP.Chemscore.Internal.Correction>
0.0117

> <Gold.Rescore>
     Score         DG    S(hbond)    S(metal)    S(lipo)     H(rot)  DE(clash)    DE(int)     intcor
     12.07     -12.10       3.35        0.00      40.38       3.64       0.00       0.02       ----

> <Gold.Chemscore.Fitness>
12.0711

> <Gold.Chemscore.DG>
-12.0986

> <Gold.Chemscore.ZeroCoef>
-5.4800

> <Gold.Chemscore.Hbond>
3.3541

> <Gold.Chemscore.Metal>
0.0000

> <Gold.Chemscore.Lipo>
40.3819

> <Gold.Chemscore.Internal_Hbond>
0.0000

> <Gold.Chemscore.DEClash>
0.0033

> <Gold.Chemscore.DEInternal>
0.0242

> <Gold.Chemscore.Rot>
3.6362

> <Gold.Chemscore.Internal.Correction>
   9.000000E+99

> <Gold.Chemscore.Hbonds>
donor molecule, donor type, donor heavy atom, donor atom, acceptor molecule, acceptor atom, score
      L1  H    16    32       P1  7957  1.00
      P1  H  7989  7998       L1     8  0.09
      P1  H  7997  8008       L1    19  0.79
      P1  H 10752 10765       L1     1  0.60

> <Gold.Chemscore.Hbond.Weighted>
-11.2027

> <Gold.Chemscore.Metal.Weighted>
-0.0000

> <Gold.Chemscore.Lipo.Weighted>
-4.7247

> <Gold.Chemscore.Internal_Hbond.Weighted>
0.0000

> <Gold.Chemscore.DEClash.Weighted>
0.0033

> <Gold.Chemscore.DEInternal.Weighted>
0.0242

> <Gold.Chemscore.Rot.Weighted>
9.3087

> <Gold.Chemscore.Internal.Correction.Weighted>
   9.000000E+99

> <Gold.Protein.RotatedTorsions>
[ 6907 6896 6895 6894 ] final  124.63 input  -60.11 | X-H torsion
[ 7974 7965 7964 7962 ] final  102.89 input  175.53 | X-H torsion
[ 8008 7997 7996 7995 ] final -111.77 input   59.86 | X-H torsion
[ 10167 10162 10161 10158 ] final  -27.04 input  -65.29 | X-H torsion
[ 10718 10713 10712 10709 ] final  110.75 input   66.30 | X-H torsion
[ 10763 10752 10751 10750 ] final -140.81 input  -60.55 | X-H torsion
[ 11005 11000 10999 10996 ] final -166.37 input  -57.11 | X-H torsion

> <Gold.Protein.ActiveResidues>
 VAL166  LYS551  ARG553  GLY616  TRP617  ASP618  TYR619  PRO620  LYS621  CYS622 
 ASP623  PHE694  ASN695  SER759  ASP760  ASP761  ALA762  ILE779  LEU786  VAL792 
 PHE793  MET794  SER795  GLU796  ALA797  LYS798  CYS799  TRP800  GLU811  SER814 

> <Gold.Protein.RotatedAtoms>
  152.4061  133.6891  159.6357 H   0  0  0  0  0  0  0  0  0  0  0  0  # atno 6907 bound_to 6896
  150.7946  133.8706  159.3266 H   0  0  0  0  0  0  0  0  0  0  0  0  # atno 6908 bound_to 6896
  151.6460  135.1009  160.0202 H   0  0  0  0  0  0  0  0  0  0  0  0  # atno 6909 bound_to 6896
  145.3531  139.2435  143.3547 H   0  0  0  0  0  0  0  0  0  0  0  0  # atno 7974 bound_to 7965
  154.9949  140.0395  157.2335 H   0  0  0  0  0  0  0  0  0  0  0  0  # atno 8008 bound_to 7997
  154.7595  140.2782  155.6203 H   0  0  0  0  0  0  0  0  0  0  0  0  # atno 8009 bound_to 7997
  156.2901  140.2631  156.2370 H   0  0  0  0  0  0  0  0  0  0  0  0  # atno 8010 bound_to 7997
  140.7279  143.4127  151.1079 H   0  0  0  0  0  0  0  0  0  0  0  0  # atno 10167 bound_to 10162
  157.6479  131.0938  150.6648 H   0  0  0  0  0  0  0  0  0  0  0  0  # atno 10718 bound_to 10713
  154.8566  135.3542  154.5767 H   0  0  0  0  0  0  0  0  0  0  0  0  # atno 10763 bound_to 10752
  153.6379  135.6999  153.5256 H   0  0  0  0  0  0  0  0  0  0  0  0  # atno 10764 bound_to 10752
  153.2995  135.4210  155.1199 H   0  0  0  0  0  0  0  0  0  0  0  0  # atno 10765 bound_to 10752
  140.5652  134.5293  157.5151 H   0  0  0  0  0  0  0  0  0  0  0  0  # atno 11005 bound_to 11000
  146.2959  140.4151  142.8722 LP  0  0  0  0  0  0  0  0  0  0  0  0  # atno 17320 bound_to 7965
  144.8703  140.7263  143.6051 LP  0  0  0  0  0  0  0  0  0  0  0  0  # atno 17321 bound_to 7965
  139.7762  143.8421  152.3130 LP  0  0  0  0  0  0  0  0  0  0  0  0  # atno 17342 bound_to 10162
  139.8357  144.7233  150.9394 LP  0  0  0  0  0  0  0  0  0  0  0  0  # atno 17343 bound_to 10162
  156.6963  130.4610  149.5585 LP  0  0  0  0  0  0  0  0  0  0  0  0  # atno 17370 bound_to 10713
  156.1827  130.6509  151.0970 LP  0  0  0  0  0  0  0  0  0  0  0  0  # atno 17371 bound_to 10713
  139.9388  134.7825  156.0732 LP  0  0  0  0  0  0  0  0  0  0  0  0  # atno 17394 bound_to 11000
  141.1090  133.6650  156.2933 LP  0  0  0  0  0  0  0  0  0  0  0  0  # atno 17395 bound_to 11000

$$$$
