#       Name:                AV-unprocessed.smi:630
#       Creating user name   scv26
#       Creation time:       Fri Mar 27 00:04:17 2020


#       File generated by GOLD software.
#

@<TRIPOS>MOLECULE
AV-unprocessed.smi:630
    42    43     1
SMALL
NO_CHARGES


@<TRIPOS>ATOM
      1 ****        -1.9355   1.2559  -3.2835 N.am           1 S1                 0.0000
      2 ****        -1.1103   0.4081  -2.6635 C.2            1 S1                 0.0000
      3 ****         0.0338   0.2029  -3.0665 O.2            1 S1                 0.0000
      4 ****        -1.6552  -0.3241  -1.4213 C.3            1 S1                 0.0000
      5 ****        -1.3711  -1.8444  -1.5149 C.3            1 S1                 0.0000
      6 ****        -2.3326  -2.6875  -0.6588 C.3            1 S1                 0.0000
      7 ****        -1.9218  -2.8915   0.8107 C.3            1 S1                 0.0000
      8 ****        -1.2295  -1.7116   1.5159 C.3            1 S1                 0.0000
      9 ****        -1.7709  -0.3105   1.1681 C.3            1 S1                 0.0000
     10 ****        -1.1595   0.3287  -0.1027 C.3            1 S1                 0.0000
     11 ****         0.3045   0.3728  -0.0269 N.am           1 S1                 0.0000
     12 ****         1.0272   1.2739   0.6535 C.2            1 S1                 0.0000
     13 ****         0.5299   2.1800   1.3229 O.2            1 S1                 0.0000
     14 ****         2.3440   1.0501   0.5021 N.am           1 S1                 0.0000
     15 ****         3.4286   1.7812   1.0526 C.2            1 S1                 0.0000
     16 ****         3.2938   2.8548   1.8399 N.2            1 S1                 0.0000
     17 ****         4.5298   3.3745   2.2329 C.2            1 S1                 0.0000
     18 ****         5.6023   2.6783   1.7334 C.2            1 S1                 0.0000
     19 ****         5.1001   1.3347   0.7427 S.3            1 S1                 0.0000
     20 ****        -1.6154   1.7594  -4.0980 H              1 S1                 0.0000
     21 ****        -2.8728   1.3953  -2.9349 H              1 S1                 0.0000
     22 ****        -2.7388  -0.1964  -1.4537 H              1 S1                 0.0000
     23 ****        -1.5020  -2.1627  -2.5507 H              1 S1                 0.0000
     24 ****        -0.3337  -2.0741  -1.2683 H              1 S1                 0.0000
     25 ****        -3.3330  -2.2554  -0.6999 H              1 S1                 0.0000
     26 ****        -2.4347  -3.6738  -1.1131 H              1 S1                 0.0000
     27 ****        -2.8142  -3.1674   1.3738 H              1 S1                 0.0000
     28 ****        -1.2602  -3.7559   0.8769 H              1 S1                 0.0000
     29 ****        -1.3335  -1.8653   2.5904 H              1 S1                 0.0000
     30 ****        -0.1564  -1.7623   1.3338 H              1 S1                 0.0000
     31 ****        -2.8590  -0.3333   1.0984 H              1 S1                 0.0000
     32 ****        -1.5529   0.3483   2.0096 H              1 S1                 0.0000
     33 ****        -1.5119   1.3621  -0.1284 H              1 S1                 0.0000
     34 ****         0.8023  -0.3304  -0.5533 H              1 S1                 0.0000
     35 ****         2.6013   0.2657  -0.0783 H              1 S1                 0.0000
     36 ****         4.5543   4.2448   2.8718 H              1 S1                 0.0000
     37 ****         6.6529   2.8743   1.8880 H              1 S1                 0.0000
     38 ****         0.3698   0.6771  -3.8803 LP             1 S1                 0.0000
     39 ****         0.6278  -0.4380  -2.5803 LP             1 S1                 0.0000
     40 ****        -0.4642   2.2721   1.3795 LP             1 S1                 0.0000
     41 ****         1.1202   2.8238   1.8098 LP             1 S1                 0.0000
     42 ****         2.4126   3.2397   2.1145 LP             1 S1                 0.0000
@<TRIPOS>BOND
    1    1    2 am    
    2    1   20 1     
    3    1   21 1     
    4    2    3 2     
    5    2    4 1     
    6    4   10 1     
    7    4    5 1     
    8    4   22 1     
    9    5    6 1     
   10    5   23 1     
   11    5   24 1     
   12    6    7 1     
   13    6   25 1     
   14    6   26 1     
   15    7    8 1     
   16    7   27 1     
   17    7   28 1     
   18    8    9 1     
   19    8   29 1     
   20    8   30 1     
   21    9   10 1     
   22    9   31 1     
   23    9   32 1     
   24   10   11 1     
   25   10   33 1     
   26   11   12 am    
   27   11   34 1     
   28   12   13 2     
   29   12   14 am    
   30   14   15 1     
   31   14   35 1     
   32   15   19 1     
   33   15   16 2     
   34   16   17 1     
   35   17   18 2     
   36   17   36 1     
   37   18   19 1     
   38   18   37 1     
   39    3   38 1     
   40    3   39 1     
   41   13   40 1     
   42   13   41 1     
   43   16   42 1     
@<TRIPOS>SUBSTRUCTURE
      1 S1             1
@<TRIPOS>SET
LONE_PAIRS      STATIC     ATOMS    <user>   **** ""
5 38 39 40 41 42
DONOR_HYDROGENS      STATIC     ATOMS    <user>   **** ""
4 20 21 34 35
ATOM$BLUE        STATIC     ATOMS    COLORGROUP SYSTEM
5 38 39 40 41 42
ATOM$RED        STATIC     ATOMS    COLORGROUP SYSTEM
4 20 21 34 35
