AV-unprocessed.smi:850|AV-procd|sdf|3948|dock8
  -GOLD-   22720 1423D 1   1.00000     0.00000
 Structure written by MMmdl.
 40 42  0  0  0  0  0  0  0  0  1 V2000
  153.6473  140.7987  160.3659 C   0  0  0  0  0  0  0  0  0  0  0  0
  152.8205  141.4984  159.3898 N   0  0  0  0  0  0  0  0  0  0  0  0
  152.3621  141.0134  158.2119 C   0  0  0  0  0  0  0  0  0  0  0  0
  152.5730  139.8877  157.7605 O   0  0  0  0  0  0  0  0  0  0  0  0
  151.6342  141.9858  157.6138 N   0  0  0  0  0  0  0  0  0  0  0  0
  150.9724  141.9010  156.3138 C   0  0  0  0  0  0  0  0  0  0  0  0
  149.5353  141.3565  156.4411 C   0  0  1  0  0  0  0  0  0  0  0  0
  148.6583  142.3702  156.8883 O   0  0  0  0  0  0  0  0  0  0  0  0
  148.9804  140.8044  155.1174 C   0  0  0  0  0  0  0  0  0  0  0  0
  147.7971  140.0546  155.3655 O   0  0  0  0  0  0  0  0  0  0  0  0
  147.2350  139.3534  154.3206 C   0  0  0  0  0  0  0  0  0  0  0  0
  147.4762  139.8428  153.0199 C   0  0  0  0  0  0  0  0  0  0  0  0
  146.9436  139.1882  151.8926 C   0  0  0  0  0  0  0  0  0  0  0  0
  146.1597  138.0313  152.0563 C   0  0  0  0  0  0  0  0  0  0  0  0
  145.9092  137.5329  153.3484 C   0  0  0  0  0  0  0  0  0  0  0  0
  146.4423  138.1877  154.4760 C   0  0  0  0  0  0  0  0  0  0  0  0
  151.6397  143.1294  158.4256 C   0  0  0  0  0  0  0  0  0  0  0  0
  151.0506  144.3936  158.2492 C   0  0  0  0  0  0  0  0  0  0  0  0
  151.2538  145.3492  159.2726 C   0  0  0  0  0  0  0  0  0  0  0  0
  152.0233  145.0318  160.4222 C   0  0  0  0  0  0  0  0  0  0  0  0
  152.6061  143.7516  160.5734 C   0  0  0  0  0  0  0  0  0  0  0  0
  152.3871  142.8217  159.5425 C   0  0  0  0  0  0  0  0  0  0  0  0
  153.7657  139.7425  160.1202 H   0  0  0  0  0  0  0  0  0  0  0  0
  153.1980  140.8629  161.3571 H   0  0  0  0  0  0  0  0  0  0  0  0
  154.6388  141.2496  160.4096 H   0  0  0  0  0  0  0  0  0  0  0  0
  150.9819  142.8671  155.8059 H   0  0  0  0  0  0  0  0  0  0  0  0
  151.5630  141.2327  155.6864 H   0  0  0  0  0  0  0  0  0  0  0  0
  149.5063  140.5525  157.1776 H   0  0  0  0  0  0  0  0  0  0  0  0
  148.7876  143.1363  156.3498 H   0  0  0  0  0  0  0  0  0  0  0  0
  148.7385  141.6444  154.4642 H   0  0  0  0  0  0  0  0  0  0  0  0
  149.7335  140.1971  154.6119 H   0  0  0  0  0  0  0  0  0  0  0  0
  148.0772  140.7303  152.8856 H   0  0  0  0  0  0  0  0  0  0  0  0
  147.1373  139.5742  150.9028 H   0  0  0  0  0  0  0  0  0  0  0  0
  145.7509  137.5277  151.1927 H   0  0  0  0  0  0  0  0  0  0  0  0
  145.3064  136.6457  153.4758 H   0  0  0  0  0  0  0  0  0  0  0  0
  146.2283  137.7751  155.4501 H   0  0  0  0  0  0  0  0  0  0  0  0
  150.4682  144.6302  157.3709 H   0  0  0  0  0  0  0  0  0  0  0  0
  150.8188  146.3333  159.1770 H   0  0  0  0  0  0  0  0  0  0  0  0
  152.1667  145.7773  161.1904 H   0  0  0  0  0  0  0  0  0  0  0  0
  153.1948  143.5026  161.4440 H   0  0  0  0  0  0  0  0  0  0  0  0
  1  2  1  0  0  0  0
  1 23  1  0  0  0  0
  1 24  1  0  0  0  0
  1 25  1  0  0  0  0
  2 22  1  0  0  0  0
  2  3  1  0  0  0  0
  3  4  2  0  0  0  0
  3  5  1  0  0  0  0
  5  6  1  0  0  0  0
  5 17  1  0  0  0  0
  6  7  1  0  0  0  0
  6 26  1  0  0  0  0
  6 27  1  0  0  0  0
  7  8  1  0  0  0  0
  7  9  1  0  0  0  0
  7 28  1  0  0  0  0
  8 29  1  0  0  0  0
  9 10  1  0  0  0  0
  9 30  1  0  0  0  0
  9 31  1  0  0  0  0
 10 11  1  0  0  0  0
 11 16  1  0  0  0  0
 11 12  2  0  0  0  0
 12 13  1  0  0  0  0
 12 32  1  0  0  0  0
 13 14  2  0  0  0  0
 13 33  1  0  0  0  0
 14 15  1  0  0  0  0
 14 34  1  0  0  0  0
 15 16  2  0  0  0  0
 15 35  1  0  0  0  0
 16 36  1  0  0  0  0
 17 22  2  0  0  0  0
 17 18  1  0  0  0  0
 18 19  2  0  0  0  0
 18 37  1  0  0  0  0
 19 20  1  0  0  0  0
 19 38  1  0  0  0  0
 20 21  2  0  0  0  0
 20 39  1  0  0  0  0
 21 22  1  0  0  0  0
 21 40  1  0  0  0  0
M  END
> <s_m_source_file>
AV-unprocessed.smi

> <i_m_source_file_index>
850

> <i_lp_mmshare_version>
43012

> <i_f3d_flags>
0

> <s_epik_input>
W2NIXTFbY0hdW2NIXVtjSF1jKGMxMiluKFtDSDNdKWMoPU8pbjJbQ0gyXVtDQEhdKFtPSF0pW0NIMl1PYzNbY0hdW2NIXVtjSF1bY0hdW2NIXTM=

> <s_epik_cmdline>
J2VwaWtfcHl0aG9uJywgJy1waCcsICc3LjAnLCAnLXRuJywgJzgnLCAnLW1hJywgJzIwMCcsICctbWV0YWxfYmluZGluZycsICctaW1hZScsICc8aW5maWxlLm1hZT4nLCAnLW9tYWUnLCAnPG91dGZpbGUubWFlPic=

> <r_lp_tautomer_probability>
1

> <r_epik_Ionization_Penalty>
2.40205e-06

> <r_epik_Ionization_Penalty_Charging>
2.75209e-09

> <r_epik_Ionization_Penalty_Neutral>
2.3993e-06

> <r_epik_State_Penalty>
-0

> <r_epik_Charging_Adjusted_Penalty>
2.75209e-09

> <i_epik_Tot_Q>
0

> <i_epik_Tot_abs_Q>
0

> <r_epik_Metal_State_Penalty>
-0

> <b_epik_Metal_Only>
0

> <s_lp_Force_Field>
OPLS_2005

> <r_lp_Energy>
47.9965

> <b_lp_Chiralities_Consistent>
1

> <s_lp_Variant>
AV-unprocessed.smi:850-2

> <Gold.Version>
5.8.1

> <Gold.Id.Protein>
6NUR|6NUR_protein|mol2

> <Gold.PLP.Fitness>
49.6637

> <Gold.PLP.PLP>
-45.6186

> <Gold.PLP.part.hbond>
-2.0000

> <Gold.PLP.part.metal>
0.0000

> <Gold.PLP.part.buried>
-1.0416

> <Gold.PLP.part.nonpolar>
-42.9443

> <Gold.PLP.part.repulsive>
0.0255

> <Gold.PLP.ligand.clash>
0.0000

> <Gold.PLP.ligand.torsion>
0.9924

> <Gold.PLP.Chemscore.Hbond>
2.0000

> <Gold.PLP.Chemscore.CHOScore>
0.0000

> <Gold.PLP.Chemscore.Metal>
0.0000

> <Gold.Chemscore.Hbonds>
donor molecule, donor type, donor heavy atom, donor atom, acceptor molecule, acceptor atom, score
      L1  H     8    29       P1  8028  1.00
      P1  H  7997  8009       L1     4  0.83

> <Gold.PLP.Chemscore.Internal.Correction>
0.0299

> <Gold.Rescore>
     Score         DG    S(hbond)    S(metal)    S(lipo)     H(rot)  DE(clash)    DE(int)     intcor
     17.86     -19.13       1.27        0.00     126.65       2.12       0.31       0.96       ----

> <Gold.Chemscore.Fitness>
17.8611

> <Gold.Chemscore.DG>
-19.1291

> <Gold.Chemscore.ZeroCoef>
-5.4800

> <Gold.Chemscore.Hbond>
1.2738

> <Gold.Chemscore.Metal>
0.0000

> <Gold.Chemscore.Lipo>
126.6488

> <Gold.Chemscore.Internal_Hbond>
0.0000

> <Gold.Chemscore.DEClash>
0.3052

> <Gold.Chemscore.DEInternal>
0.9628

> <Gold.Chemscore.Rot>
2.1184

> <Gold.Chemscore.Internal.Correction>
   9.000000E+99

> <Gold.Chemscore.Hbonds>
donor molecule, donor type, donor heavy atom, donor atom, acceptor molecule, acceptor atom, score
      L1  H     8    29       P1  8028  0.98
      P1  H  7997  8009       L1     4  0.36

> <Gold.Chemscore.Hbond.Weighted>
-4.2543

> <Gold.Chemscore.Metal.Weighted>
-0.0000

> <Gold.Chemscore.Lipo.Weighted>
-14.8179

> <Gold.Chemscore.Internal_Hbond.Weighted>
0.0000

> <Gold.Chemscore.DEClash.Weighted>
0.3052

> <Gold.Chemscore.DEInternal.Weighted>
0.9628

> <Gold.Chemscore.Rot.Weighted>
5.4231

> <Gold.Chemscore.Internal.Correction.Weighted>
   9.000000E+99

> <Gold.Protein.RotatedTorsions>
[ 6907 6896 6895 6894 ] final   91.22 input  -60.11 | X-H torsion
[ 7974 7965 7964 7962 ] final  -79.42 input  175.53 | X-H torsion
[ 8008 7997 7996 7995 ] final  168.38 input   59.86 | X-H torsion
[ 10167 10162 10161 10158 ] final   42.73 input  -65.29 | X-H torsion
[ 10718 10713 10712 10709 ] final -108.75 input   66.30 | X-H torsion
[ 10763 10752 10751 10750 ] final  156.65 input  -60.55 | X-H torsion
[ 11005 11000 10999 10996 ] final  147.69 input  -57.11 | X-H torsion

> <Gold.Protein.ActiveResidues>
 VAL166  LYS551  ARG553  GLY616  TRP617  ASP618  TYR619  PRO620  LYS621  CYS622 
 ASP623  PHE694  ASN695  SER759  ASP760  ASP761  ALA762  ILE779  LEU786  VAL792 
 PHE793  MET794  SER795  GLU796  ALA797  LYS798  CYS799  TRP800  GLU811  SER814 

> <Gold.Protein.RotatedAtoms>
  152.5449  134.1691  159.8589 H   0  0  0  0  0  0  0  0  0  0  0  0  # atno 6907 bound_to 6896
  151.1703  133.4782  159.2601 H   0  0  0  0  0  0  0  0  0  0  0  0  # atno 6908 bound_to 6896
  151.1282  135.0127  159.8625 H   0  0  0  0  0  0  0  0  0  0  0  0  # atno 6909 bound_to 6896
  145.5735  140.9461  143.1382 H   0  0  0  0  0  0  0  0  0  0  0  0  # atno 7974 bound_to 7965
  156.1552  140.1592  156.8704 H   0  0  0  0  0  0  0  0  0  0  0  0  # atno 8008 bound_to 7997
  154.5108  140.0801  156.8022 H   0  0  0  0  0  0  0  0  0  0  0  0  # atno 8009 bound_to 7997
  155.3817  140.3405  155.4249 H   0  0  0  0  0  0  0  0  0  0  0  0  # atno 8010 bound_to 7997
  140.3515  144.2344  150.6145 H   0  0  0  0  0  0  0  0  0  0  0  0  # atno 10167 bound_to 10162
  156.0501  130.5729  150.8005 H   0  0  0  0  0  0  0  0  0  0  0  0  # atno 10718 bound_to 10713
  154.1877  135.2796  155.3032 H   0  0  0  0  0  0  0  0  0  0  0  0  # atno 10763 bound_to 10752
  154.5953  135.5547  153.7323 H   0  0  0  0  0  0  0  0  0  0  0  0  # atno 10764 bound_to 10752
  153.0121  135.6378  154.2016 H   0  0  0  0  0  0  0  0  0  0  0  0  # atno 10765 bound_to 10752
  140.0896  134.9048  157.1630 H   0  0  0  0  0  0  0  0  0  0  0  0  # atno 11005 bound_to 11000
  144.7427  139.7405  143.7304 LP  0  0  0  0  0  0  0  0  0  0  0  0  # atno 17320 bound_to 7965
  146.1767  139.4941  142.9892 LP  0  0  0  0  0  0  0  0  0  0  0  0  # atno 17321 bound_to 7965
  140.5215  143.2265  151.8382 LP  0  0  0  0  0  0  0  0  0  0  0  0  # atno 17342 bound_to 10162
  139.4826  144.4831  151.9281 LP  0  0  0  0  0  0  0  0  0  0  0  0  # atno 17343 bound_to 10162
  157.5419  131.0941  150.9815 LP  0  0  0  0  0  0  0  0  0  0  0  0  # atno 17370 bound_to 10713
  157.0096  130.5631  149.5319 LP  0  0  0  0  0  0  0  0  0  0  0  0  # atno 17371 bound_to 10713
  140.3370  134.2746  155.7218 LP  0  0  0  0  0  0  0  0  0  0  0  0  # atno 17394 bound_to 11000
  141.2074  133.7807  157.0123 LP  0  0  0  0  0  0  0  0  0  0  0  0  # atno 17395 bound_to 11000

$$$$
