AV-unprocessed.smi:2068|AV-procd|sdf|8429|dock4
  -GOLD-   2272011123D 1   1.00000     0.00000
 Structure written by MMmdl.
 32 33  0  0  0  0  0  0  0  0  2 V2000
  148.7665  141.6084  154.4997 N   0  0  0  0  0  0  0  0  0  0  0  0
  148.1077  140.4616  154.6915 C   0  0  0  0  0  0  0  0  0  0  0  0
  147.0380  140.4130  155.2955 O   0  0  0  0  0  0  0  0  0  0  0  0
  148.7459  139.1832  154.1412 C   0  0  0  0  0  0  0  0  0  0  0  0
  150.1776  139.0707  154.5809 C   0  0  0  0  0  0  0  0  0  0  0  0
  151.1656  138.3207  153.9962 C   0  0  0  0  0  0  0  0  0  0  0  0
  152.6836  138.4942  154.8293 S   0  0  0  0  0  0  0  0  0  0  0  0
  151.9184  139.6013  155.9705 C   0  0  0  0  0  0  0  0  0  0  0  0
  152.5413  140.1951  157.0004 N   0  5  0  0  0  0  0  0  0  0  0  0
  151.8285  140.9622  157.8594 C   0  0  0  0  0  0  0  0  0  0  0  0
  150.7021  141.4399  157.7095 O   0  0  0  0  0  0  0  0  0  0  0  0
  152.5944  141.2067  159.1702 C   0  0  0  0  0  0  0  0  0  0  0  0
  152.9307  142.6905  159.4441 C   0  0  2  0  0  0  0  0  0  0  0  0
  153.0307  143.0314  160.9116 C   0  0  0  0  0  0  0  0  0  0  0  0
  152.2679  144.0677  161.2521 C   0  0  0  0  0  0  0  0  0  0  0  0
  151.5034  144.6277  160.0850 C   0  0  0  0  0  0  0  0  0  0  0  0
  151.8460  143.6683  158.9232 C   0  0  0  0  0  0  0  0  0  0  0  0
  150.6199  139.7772  155.7032 N   0  0  0  0  0  0  0  0  0  0  0  0
  148.3706  142.4774  154.8266 H   0  0  0  0  0  0  0  0  0  0  0  0
  149.6491  141.6028  154.0075 H   0  0  0  0  0  0  0  0  0  0  0  0
  148.1648  138.3244  154.4793 H   0  0  0  0  0  0  0  0  0  0  0  0
  148.6826  139.1871  153.0522 H   0  0  0  0  0  0  0  0  0  0  0  0
  151.0942  137.6844  153.1270 H   0  0  0  0  0  0  0  0  0  0  0  0
  151.9860  140.8171  159.9871 H   0  0  0  0  0  0  0  0  0  0  0  0
  153.5208  140.6281  159.1756 H   0  0  0  0  0  0  0  0  0  0  0  0
  153.8877  142.9426  158.9846 H   0  0  0  0  0  0  0  0  0  0  0  0
  153.6728  142.4869  161.5885 H   0  0  0  0  0  0  0  0  0  0  0  0
  152.1961  144.4887  162.2441 H   0  0  0  0  0  0  0  0  0  0  0  0
  150.4339  144.6440  160.2966 H   0  0  0  0  0  0  0  0  0  0  0  0
  151.8353  145.6458  159.8789 H   0  0  0  0  0  0  0  0  0  0  0  0
  152.1941  144.2147  158.0460 H   0  0  0  0  0  0  0  0  0  0  0  0
  150.9482  143.1260  158.6232 H   0  0  0  0  0  0  0  0  0  0  0  0
  1  2  1  0  0  0  0
  1 19  1  0  0  0  0
  1 20  1  0  0  0  0
  2  3  2  0  0  0  0
  2  4  1  0  0  0  0
  4  5  1  0  0  0  0
  4 21  1  0  0  0  0
  4 22  1  0  0  0  0
  5 18  1  0  0  0  0
  5  6  2  0  0  0  0
  6  7  1  0  0  0  0
  6 23  1  0  0  0  0
  7  8  1  0  0  0  0
  8  9  1  0  0  0  0
  8 18  2  0  0  0  0
  9 10  1  0  0  0  0
 10 11  2  0  0  0  0
 10 12  1  0  0  0  0
 12 13  1  0  0  0  0
 12 24  1  0  0  0  0
 12 25  1  0  0  0  0
 13 17  1  0  0  0  0
 13 14  1  0  0  0  0
 13 26  1  0  0  0  0
 14 15  2  0  0  0  0
 14 27  1  0  0  0  0
 15 16  1  0  0  0  0
 15 28  1  0  0  0  0
 16 17  1  0  0  0  0
 16 29  1  0  0  0  0
 16 30  1  0  0  0  0
 17 31  1  0  0  0  0
 17 32  1  0  0  0  0
M  CHG  1   9  -1
M  END
> <s_m_source_file>
AV-unprocessed.smi

> <i_m_source_file_index>
2068

> <i_lp_mmshare_version>
43012

> <i_f3d_flags>
0

> <s_epik_input>
W05IMl1DKD1PKVtDSDJdYzFbY0hdc2MobjEpW05IXUMoPU8pW0NIMl1bQ0BASF0yW0NIXT1bQ0hdW0NIMl1bQ0gyXTI=

> <s_epik_cmdline>
J2VwaWtfcHl0aG9uJywgJy1waCcsICc3LjAnLCAnLXRuJywgJzgnLCAnLW1hJywgJzIwMCcsICctbWV0YWxfYmluZGluZycsICctaW1hZScsICc8aW5maWxlLm1hZT4nLCAnLW9tYWUnLCAnPG91dGZpbGUubWFlPic=

> <r_lp_tautomer_probability>
1

> <r_epik_Ionization_Penalty>
4.99584

> <r_epik_Ionization_Penalty_Charging>
4.63763

> <r_epik_Ionization_Penalty_Neutral>
0.358213

> <r_epik_State_Penalty>
4.63739

> <r_epik_Charging_Adjusted_Penalty>
9.27502

> <i_epik_Tot_Q>
-1

> <i_epik_Tot_abs_Q>
1

> <r_epik_Metal_State_Penalty>
0.891949

> <b_epik_Metal_Only>
1

> <s_lp_Force_Field>
OPLS_2005

> <r_lp_Energy>
13.7628

> <b_lp_Chiralities_Consistent>
1

> <s_lp_Variant>
AV-unprocessed.smi:2068-3

> <Gold.Version>
5.8.1

> <Gold.Id.Protein>
6NUR|6NUR_protein|mol2

> <Gold.PLP.Fitness>
52.3115

> <Gold.PLP.PLP>
-41.7582

> <Gold.PLP.part.hbond>
-2.0000

> <Gold.PLP.part.metal>
0.0000

> <Gold.PLP.part.buried>
-5.1077

> <Gold.PLP.part.nonpolar>
-35.3765

> <Gold.PLP.part.repulsive>
0.8730

> <Gold.PLP.ligand.clash>
0.0000

> <Gold.PLP.ligand.torsion>
0.7781

> <Gold.PLP.Chemscore.Hbond>
3.0000

> <Gold.PLP.Chemscore.CHOScore>
0.9936

> <Gold.PLP.Chemscore.Metal>
0.0000

> <Gold.Chemscore.Hbonds>
donor molecule, donor type, donor heavy atom, donor atom, acceptor molecule, acceptor atom, score
      L1  H     1    19       P1  8028  0.01
      P1  H  7997  8008       L1     9  1.86
      L1  C     6    23       P1  7948  0.03
      L1  C     6    23       P1  7949  1.00

> <Gold.PLP.Chemscore.Internal.Correction>
0.1286

> <Gold.Rescore>
     Score         DG    S(hbond)    S(metal)    S(lipo)     H(rot)  DE(clash)    DE(int)     intcor
     12.46     -16.91       1.63        0.00      98.45       2.17       0.40       4.06       ----

> <Gold.Chemscore.Fitness>
12.4569

> <Gold.Chemscore.DG>
-16.9131

> <Gold.Chemscore.ZeroCoef>
-5.4800

> <Gold.Chemscore.Hbond>
1.6338

> <Gold.Chemscore.Metal>
0.0000

> <Gold.Chemscore.Lipo>
98.4494

> <Gold.Chemscore.Internal_Hbond>
0.0000

> <Gold.Chemscore.DEClash>
0.3969

> <Gold.Chemscore.DEInternal>
4.0593

> <Gold.Chemscore.Rot>
2.1650

> <Gold.Chemscore.Internal.Correction>
   9.000000E+99

> <Gold.Chemscore.Hbonds>
donor molecule, donor type, donor heavy atom, donor atom, acceptor molecule, acceptor atom, score
      L1  H     1    19       P1  8028  0.07
      P1  H  7997  8008       L1     9  0.67

> <Gold.Chemscore.Hbond.Weighted>
-5.4570

> <Gold.Chemscore.Metal.Weighted>
-0.0000

> <Gold.Chemscore.Lipo.Weighted>
-11.5186

> <Gold.Chemscore.Internal_Hbond.Weighted>
0.0000

> <Gold.Chemscore.DEClash.Weighted>
0.3969

> <Gold.Chemscore.DEInternal.Weighted>
4.0593

> <Gold.Chemscore.Rot.Weighted>
5.5425

> <Gold.Chemscore.Internal.Correction.Weighted>
   9.000000E+99

> <Gold.Protein.RotatedTorsions>
[ 6907 6896 6895 6894 ] final -108.97 input  -60.11 | X-H torsion
[ 7974 7965 7964 7962 ] final  -77.08 input  175.53 | X-H torsion
[ 8008 7997 7996 7995 ] final  -70.14 input   59.86 | X-H torsion
[ 10167 10162 10161 10158 ] final  172.86 input  -65.29 | X-H torsion
[ 10718 10713 10712 10709 ] final  -35.22 input   66.30 | X-H torsion
[ 10763 10752 10751 10750 ] final  155.00 input  -60.55 | X-H torsion
[ 11005 11000 10999 10996 ] final   -6.40 input  -57.11 | X-H torsion

> <Gold.Protein.ActiveResidues>
 VAL166  LYS551  ARG553  GLY616  TRP617  ASP618  TYR619  PRO620  LYS621  CYS622 
 ASP623  PHE694  ASN695  SER759  ASP760  ASP761  ALA762  ILE779  LEU786  VAL792 
 PHE793  MET794  SER795  GLU796  ALA797  LYS798  CYS799  TRP800  GLU811  SER814 

> <Gold.Protein.RotatedAtoms>
  150.7533  133.9599  159.3511 H   0  0  0  0  0  0  0  0  0  0  0  0  # atno 6907 bound_to 6896
  151.7523  135.0827  160.0342 H   0  0  0  0  0  0  0  0  0  0  0  0  # atno 6908 bound_to 6896
  152.3458  133.6083  159.5945 H   0  0  0  0  0  0  0  0  0  0  0  0  # atno 6909 bound_to 6896
  145.6044  140.9401  143.1223 H   0  0  0  0  0  0  0  0  0  0  0  0  # atno 7974 bound_to 7965
  154.4990  140.0840  156.7757 H   0  0  0  0  0  0  0  0  0  0  0  0  # atno 8008 bound_to 7997
  155.4049  140.3439  155.4241 H   0  0  0  0  0  0  0  0  0  0  0  0  # atno 8009 bound_to 7997
  156.1431  140.1535  156.8877 H   0  0  0  0  0  0  0  0  0  0  0  0  # atno 8010 bound_to 7997
  139.5090  144.3326  152.0097 H   0  0  0  0  0  0  0  0  0  0  0  0  # atno 10167 bound_to 10162
  156.3412  130.4294  149.7786 H   0  0  0  0  0  0  0  0  0  0  0  0  # atno 10718 bound_to 10713
  154.1614  135.2809  155.3107 H   0  0  0  0  0  0  0  0  0  0  0  0  # atno 10763 bound_to 10752
  154.6144  135.5488  153.7511 H   0  0  0  0  0  0  0  0  0  0  0  0  # atno 10764 bound_to 10752
  153.0191  135.6423  154.1756 H   0  0  0  0  0  0  0  0  0  0  0  0  # atno 10765 bound_to 10752
  140.7016  133.8985  155.8687 H   0  0  0  0  0  0  0  0  0  0  0  0  # atno 11005 bound_to 11000
  144.7296  139.7767  143.7352 LP  0  0  0  0  0  0  0  0  0  0  0  0  # atno 17320 bound_to 7965
  146.1552  139.4647  143.0023 LP  0  0  0  0  0  0  0  0  0  0  0  0  # atno 17321 bound_to 7965
  140.2765  144.3907  150.6133 LP  0  0  0  0  0  0  0  0  0  0  0  0  # atno 17342 bound_to 10162
  140.6050  143.2167  151.6999 LP  0  0  0  0  0  0  0  0  0  0  0  0  # atno 17343 bound_to 10162
  156.5022  130.8134  151.3137 LP  0  0  0  0  0  0  0  0  0  0  0  0  # atno 17370 bound_to 10713
  157.7447  130.9941  150.2696 LP  0  0  0  0  0  0  0  0  0  0  0  0  # atno 17371 bound_to 10713
  141.0159  134.0956  157.4172 LP  0  0  0  0  0  0  0  0  0  0  0  0  # atno 17394 bound_to 11000
  139.8895  135.0106  156.6684 LP  0  0  0  0  0  0  0  0  0  0  0  0  # atno 17395 bound_to 11000

$$$$
