AV-unprocessed.smi:1393|AV-procd|sdf|5663|dock1
  -GOLD-   22720 5283D 1   1.00000     0.00000
 Structure written by MMmdl.
 39 40  0  0  0  0  0  0  0  0  1 V2000
  150.7972  140.6940  157.5242 O   0  0  0  0  0  0  0  0  0  0  0  0
  150.6292  141.8670  157.1870 C   0  0  0  0  0  0  0  0  0  0  0  0
  151.5463  142.9822  157.7100 C   0  0  0  0  0  0  0  0  0  0  0  0
  152.1447  142.6880  159.0235 N   0  0  0  0  0  0  0  0  0  0  0  0
  151.8480  143.5791  160.0701 C   0  0  0  0  0  0  0  0  0  0  0  0
  152.3358  143.4039  161.3055 C   0  0  0  0  0  0  0  0  0  0  0  0
  153.1821  142.2613  161.5489 C   0  0  0  0  0  0  0  0  0  0  0  0
  153.4851  141.3861  160.5621 C   0  0  0  0  0  0  0  0  0  0  0  0
  154.3672  140.1639  160.8067 C   0  0  0  0  0  0  0  0  0  0  0  0
  155.4732  140.2326  160.0650 F   0  0  0  0  0  0  0  0  0  0  0  0
  154.7378  140.0685  162.0844 F   0  0  0  0  0  0  0  0  0  0  0  0
  153.7201  139.0422  160.4872 F   0  0  0  0  0  0  0  0  0  0  0  0
  152.9459  141.5920  159.2021 C   0  0  0  0  0  0  0  0  0  0  0  0
  153.1967  140.8260  158.2700 O   0  0  0  0  0  0  0  0  0  0  0  0
  149.6483  142.2613  156.3609 N   0  0  0  0  0  0  0  0  0  0  0  0
  148.6460  141.3925  155.7437 C   0  0  2  0  0  0  0  0  0  0  0  0
  147.8903  140.5765  156.8262 C   0  0  0  0  0  0  0  0  0  0  0  0
  147.3121  139.2180  156.3769 C   0  0  0  0  0  0  0  0  0  0  0  0
  146.3707  139.2667  155.1564 C   0  0  0  0  0  0  0  0  0  0  0  0
  146.9183  139.9621  153.8880 C   0  0  0  0  0  0  0  0  0  0  0  0
  148.3753  139.9272  153.7704 N   0  0  0  0  0  0  0  0  0  0  0  0
  149.2343  140.5729  154.5781 C   0  0  0  0  0  0  0  0  0  0  0  0
  150.4509  140.5016  154.4082 O   0  0  0  0  0  0  0  0  0  0  0  0
  152.3296  143.1733  156.9739 H   0  0  0  0  0  0  0  0  0  0  0  0
  150.9673  143.9058  157.7530 H   0  0  0  0  0  0  0  0  0  0  0  0
  151.2007  144.4029  159.8070 H   0  0  0  0  0  0  0  0  0  0  0  0
  152.0975  144.0963  162.0994 H   0  0  0  0  0  0  0  0  0  0  0  0
  153.5700  142.1143  162.5457 H   0  0  0  0  0  0  0  0  0  0  0  0
  149.5790  143.2458  156.1462 H   0  0  0  0  0  0  0  0  0  0  0  0
  147.9201  142.0584  155.2752 H   0  0  0  0  0  0  0  0  0  0  0  0
  148.5614  140.3812  157.6640 H   0  0  0  0  0  0  0  0  0  0  0  0
  147.0873  141.1915  157.2345 H   0  0  0  0  0  0  0  0  0  0  0  0
  148.1313  138.5269  156.1727 H   0  0  0  0  0  0  0  0  0  0  0  0
  146.7731  138.7741  157.2143 H   0  0  0  0  0  0  0  0  0  0  0  0
  146.1122  138.2385  154.9004 H   0  0  0  0  0  0  0  0  0  0  0  0
  145.4305  139.7410  155.4394 H   0  0  0  0  0  0  0  0  0  0  0  0
  146.4893  139.4938  153.0019 H   0  0  0  0  0  0  0  0  0  0  0  0
  146.5804  140.9984  153.8548 H   0  0  0  0  0  0  0  0  0  0  0  0
  148.7598  139.3801  153.0137 H   0  0  0  0  0  0  0  0  0  0  0  0
  1  2  2  0  0  0  0
  2  3  1  0  0  0  0
  2 15  1  0  0  0  0
  3  4  1  0  0  0  0
  3 24  1  0  0  0  0
  3 25  1  0  0  0  0
  4 13  1  0  0  0  0
  4  5  1  0  0  0  0
  5  6  2  0  0  0  0
  5 26  1  0  0  0  0
  6  7  1  0  0  0  0
  6 27  1  0  0  0  0
  7  8  2  0  0  0  0
  7 28  1  0  0  0  0
  8  9  1  0  0  0  0
  8 13  1  0  0  0  0
  9 10  1  0  0  0  0
  9 11  1  0  0  0  0
  9 12  1  0  0  0  0
 13 14  2  0  0  0  0
 15 16  1  0  0  0  0
 15 29  1  0  0  0  0
 16 22  1  0  0  0  0
 16 17  1  0  0  0  0
 16 30  1  0  0  0  0
 17 18  1  0  0  0  0
 17 31  1  0  0  0  0
 17 32  1  0  0  0  0
 18 19  1  0  0  0  0
 18 33  1  0  0  0  0
 18 34  1  0  0  0  0
 19 20  1  0  0  0  0
 19 35  1  0  0  0  0
 19 36  1  0  0  0  0
 20 21  1  0  0  0  0
 20 37  1  0  0  0  0
 20 38  1  0  0  0  0
 21 22  1  0  0  0  0
 21 39  1  0  0  0  0
 22 23  2  0  0  0  0
M  END
> <s_m_source_file>
AV-unprocessed.smi

> <i_m_source_file_index>
1393

> <i_lp_mmshare_version>
43012

> <i_f3d_flags>
0

> <s_epik_input>
RkMoRikoRiljKGMxPU8pW2NIXVtjSF1bY0hdbjFbQ0gyXUMoPU8pW05IXVtDQEBIXTJbQ0gyXVtDSDJdW0NIMl1bQ0gyXVtOSF1DMj1P

> <s_epik_cmdline>
J2VwaWtfcHl0aG9uJywgJy1waCcsICc3LjAnLCAnLXRuJywgJzgnLCAnLW1hJywgJzIwMCcsICctbWV0YWxfYmluZGluZycsICctaW1hZScsICc8aW5maWxlLm1hZT4nLCAnLW9tYWUnLCAnPG91dGZpbGUubWFlPic=

> <r_lp_tautomer_probability>
1

> <r_epik_Ionization_Penalty>
5.5009e-08

> <r_epik_Ionization_Penalty_Charging>
1.68727e-09

> <r_epik_Ionization_Penalty_Neutral>
5.33217e-08

> <r_epik_State_Penalty>
-0

> <r_epik_Charging_Adjusted_Penalty>
1.68727e-09

> <i_epik_Tot_Q>
0

> <i_epik_Tot_abs_Q>
0

> <r_epik_Metal_State_Penalty>
-0

> <b_epik_Metal_Only>
0

> <s_lp_Force_Field>
OPLS_2005

> <r_lp_Energy>
24.6208

> <b_lp_Chiralities_Consistent>
1

> <s_lp_Variant>
AV-unprocessed.smi:1393-1

> <Gold.Version>
5.8.1

> <Gold.Id.Protein>
6NUR|6NUR_protein|mol2

> <Gold.PLP.Fitness>
50.7578

> <Gold.PLP.PLP>
-42.4876

> <Gold.PLP.part.hbond>
-3.7381

> <Gold.PLP.part.metal>
0.0000

> <Gold.PLP.part.buried>
-2.7445

> <Gold.PLP.part.nonpolar>
-36.0559

> <Gold.PLP.part.repulsive>
0.2829

> <Gold.PLP.ligand.clash>
0.3131

> <Gold.PLP.ligand.torsion>
0.4964

> <Gold.PLP.Chemscore.Hbond>
3.0489

> <Gold.PLP.Chemscore.CHOScore>
0.0000

> <Gold.PLP.Chemscore.Metal>
0.0000

> <Gold.Chemscore.Hbonds>
donor molecule, donor type, donor heavy atom, donor atom, acceptor molecule, acceptor atom, score
      L1  H    15    29       P1  8028  1.00
      L1  H    21    39       P1  7957  0.43
      P1  H  7989  7998       L1    23  0.97
      P1  H  7997  8009       L1    14  0.61

> <Gold.PLP.Chemscore.Internal.Correction>
0.4293

> <Gold.Rescore>
     Score         DG    S(hbond)    S(metal)    S(lipo)     H(rot)  DE(clash)    DE(int)     intcor
     12.40     -20.87       3.40        0.00      72.17       1.72       0.20       8.27       ----

> <Gold.Chemscore.Fitness>
12.3999

> <Gold.Chemscore.DG>
-20.8684

> <Gold.Chemscore.ZeroCoef>
-5.4800

> <Gold.Chemscore.Hbond>
3.3984

> <Gold.Chemscore.Metal>
0.0000

> <Gold.Chemscore.Lipo>
72.1702

> <Gold.Chemscore.Internal_Hbond>
0.0000

> <Gold.Chemscore.DEClash>
0.1996

> <Gold.Chemscore.DEInternal>
8.2689

> <Gold.Chemscore.Rot>
1.7212

> <Gold.Chemscore.Internal.Correction>
   9.000000E+99

> <Gold.Chemscore.Hbonds>
donor molecule, donor type, donor heavy atom, donor atom, acceptor molecule, acceptor atom, score
      L1  H    15    29       P1  8028  0.99
      L1  H    21    39       P1  7957  0.44
      P1  H  7989  7998       L1    23  0.86
      P1  H  7997  8009       L1    14  0.59

> <Gold.Chemscore.Hbond.Weighted>
-11.3507

> <Gold.Chemscore.Metal.Weighted>
-0.0000

> <Gold.Chemscore.Lipo.Weighted>
-8.4439

> <Gold.Chemscore.Internal_Hbond.Weighted>
0.0000

> <Gold.Chemscore.DEClash.Weighted>
0.1996

> <Gold.Chemscore.DEInternal.Weighted>
8.2689

> <Gold.Chemscore.Rot.Weighted>
4.4062

> <Gold.Chemscore.Internal.Correction.Weighted>
   9.000000E+99

> <Gold.Protein.RotatedTorsions>
[ 6907 6896 6895 6894 ] final   36.84 input  -60.11 | X-H torsion
[ 7974 7965 7964 7962 ] final   29.34 input  175.53 | X-H torsion
[ 8008 7997 7996 7995 ] final  156.62 input   59.86 | X-H torsion
[ 10167 10162 10161 10158 ] final   -7.48 input  -65.29 | X-H torsion
[ 10718 10713 10712 10709 ] final -155.35 input   66.30 | X-H torsion
[ 10763 10752 10751 10750 ] final -149.90 input  -60.55 | X-H torsion
[ 11005 11000 10999 10996 ] final  -61.73 input  -57.11 | X-H torsion

> <Gold.Protein.ActiveResidues>
 VAL166  LYS551  ARG553  GLY616  TRP617  ASP618  TYR619  PRO620  LYS621  CYS622 
 ASP623  PHE694  ASN695  SER759  ASP760  ASP761  ALA762  ILE779  LEU786  VAL792 
 PHE793  MET794  SER795  GLU796  ALA797  LYS798  CYS799  TRP800  GLU811  SER814 

> <Gold.Protein.RotatedAtoms>
  152.1352  134.9104  160.0556 H   0  0  0  0  0  0  0  0  0  0  0  0  # atno 6907 bound_to 6896
  152.0194  133.3887  159.4260 H   0  0  0  0  0  0  0  0  0  0  0  0  # atno 6908 bound_to 6896
  150.6860  134.3565  159.4975 H   0  0  0  0  0  0  0  0  0  0  0  0  # atno 6909 bound_to 6896
  146.1677  139.6935  142.8989 H   0  0  0  0  0  0  0  0  0  0  0  0  # atno 7974 bound_to 7965
  156.2412  140.1907  156.6983 H   0  0  0  0  0  0  0  0  0  0  0  0  # atno 8008 bound_to 7997
  154.6201  140.0610  156.9630 H   0  0  0  0  0  0  0  0  0  0  0  0  # atno 8009 bound_to 7997
  155.1876  140.3281  155.4367 H   0  0  0  0  0  0  0  0  0  0  0  0  # atno 8010 bound_to 7997
  140.7030  143.6076  150.8736 H   0  0  0  0  0  0  0  0  0  0  0  0  # atno 10167 bound_to 10162
  156.5116  130.8437  151.2648 H   0  0  0  0  0  0  0  0  0  0  0  0  # atno 10718 bound_to 10713
  154.8151  135.3298  154.7199 H   0  0  0  0  0  0  0  0  0  0  0  0  # atno 10763 bound_to 10752
  153.7842  135.6916  153.4887 H   0  0  0  0  0  0  0  0  0  0  0  0  # atno 10764 bound_to 10752
  153.1960  135.4533  155.0155 H   0  0  0  0  0  0  0  0  0  0  0  0  # atno 10765 bound_to 10752
  141.1335  133.6633  156.5420 H   0  0  0  0  0  0  0  0  0  0  0  0  # atno 11005 bound_to 11000
  145.4423  141.0423  143.2850 LP  0  0  0  0  0  0  0  0  0  0  0  0  # atno 17320 bound_to 7965
  144.8117  139.5951  143.7026 LP  0  0  0  0  0  0  0  0  0  0  0  0  # atno 17321 bound_to 7965
  139.9799  143.5962  152.2946 LP  0  0  0  0  0  0  0  0  0  0  0  0  # atno 17342 bound_to 10162
  139.6580  144.7662  151.2019 LP  0  0  0  0  0  0  0  0  0  0  0  0  # atno 17343 bound_to 10162
  157.7449  130.9947  150.2719 LP  0  0  0  0  0  0  0  0  0  0  0  0  # atno 17370 bound_to 10713
  156.3234  130.3789  149.7554 LP  0  0  0  0  0  0  0  0  0  0  0  0  # atno 17371 bound_to 10713
  140.4132  134.7253  157.4848 LP  0  0  0  0  0  0  0  0  0  0  0  0  # atno 17394 bound_to 11000
  140.0412  134.6264  155.8978 LP  0  0  0  0  0  0  0  0  0  0  0  0  # atno 17395 bound_to 11000

$$$$
