AV-unprocessed.smi:1284|AV-procd|sdf|5365|dock6
  -GOLD-   22720 4503D 1   1.00000     0.00000
 Structure written by MMmdl.
 40 42  0  0  0  0  0  0  0  0  2 V2000
  149.9425  135.7016  154.2985 N   0  0  0  0  0  0  0  0  0  0  0  0
  151.0223  136.2336  154.8769 C   0  0  0  0  0  0  0  0  0  0  0  0
  151.5885  135.6994  155.8286 O   0  0  0  0  0  0  0  0  0  0  0  0
  151.5433  137.5569  154.3116 C   0  0  0  0  0  0  0  0  0  0  0  0
  150.4629  138.5972  154.2991 C   0  0  0  0  0  0  0  0  0  0  0  0
  149.3179  138.5450  153.5577 N   0  3  0  0  0  0  0  0  0  0  0  0
  148.5462  139.6826  153.7912 C   0  0  0  0  0  0  0  0  0  0  0  0
  147.3189  140.0750  153.2661 C   0  0  0  0  0  0  0  0  0  0  0  0
  146.8031  141.3077  153.7175 C   0  0  0  0  0  0  0  0  0  0  0  0
  147.5016  142.0970  154.6543 C   0  0  0  0  0  0  0  0  0  0  0  0
  148.7441  141.6869  155.1810 C   0  0  0  0  0  0  0  0  0  0  0  0
  149.2469  140.4666  154.7296 C   0  0  0  0  0  0  0  0  0  0  0  0
  150.4166  139.7560  155.0229 N   0  0  0  0  0  0  0  0  0  0  0  0
  151.3597  140.3209  156.0026 C   0  0  0  0  0  0  0  0  0  0  0  0
  151.1111  139.8220  157.4398 C   0  0  2  0  0  0  0  0  0  0  0  0
  149.7215  139.7633  157.6958 O   0  0  0  0  0  0  0  0  0  0  0  0
  151.8477  140.6823  158.4539 C   0  0  0  0  0  0  0  0  0  0  0  0
  152.8365  140.1056  159.2799 C   0  0  0  0  0  0  0  0  0  0  0  0
  153.5305  140.8977  160.2155 C   0  0  0  0  0  0  0  0  0  0  0  0
  153.2409  142.2709  160.3292 C   0  0  0  0  0  0  0  0  0  0  0  0
  152.2583  142.8526  159.5055 C   0  0  0  0  0  0  0  0  0  0  0  0
  151.5645  142.0615  158.5694 C   0  0  0  0  0  0  0  0  0  0  0  0
  149.5641  134.8322  154.6464 H   0  0  0  0  0  0  0  0  0  0  0  0
  149.5025  136.1712  153.5194 H   0  0  0  0  0  0  0  0  0  0  0  0
  152.3721  137.9119  154.9251 H   0  0  0  0  0  0  0  0  0  0  0  0
  151.9388  137.3992  153.3085 H   0  0  0  0  0  0  0  0  0  0  0  0
  146.7828  139.4720  152.5479 H   0  0  0  0  0  0  0  0  0  0  0  0
  145.8532  141.6550  153.3370 H   0  0  0  0  0  0  0  0  0  0  0  0
  147.0758  143.0364  154.9758 H   0  0  0  0  0  0  0  0  0  0  0  0
  149.2712  142.2996  155.8973 H   0  0  0  0  0  0  0  0  0  0  0  0
  152.3733  140.0782  155.6809 H   0  0  0  0  0  0  0  0  0  0  0  0
  151.2880  141.4073  155.9557 H   0  0  0  0  0  0  0  0  0  0  0  0
  151.4831  138.8008  157.5285 H   0  0  0  0  0  0  0  0  0  0  0  0
  149.5389  140.2801  158.4661 H   0  0  0  0  0  0  0  0  0  0  0  0
  153.0683  139.0538  159.1987 H   0  0  0  0  0  0  0  0  0  0  0  0
  154.2856  140.4518  160.8460 H   0  0  0  0  0  0  0  0  0  0  0  0
  153.7734  142.8778  161.0466 H   0  0  0  0  0  0  0  0  0  0  0  0
  152.0372  143.9063  159.5912 H   0  0  0  0  0  0  0  0  0  0  0  0
  150.8159  142.5181  157.9387 H   0  0  0  0  0  0  0  0  0  0  0  0
  149.0903  137.7849  152.9290 H   0  0  0  0  0  0  0  0  0  0  0  0
  1  2  1  0  0  0  0
  1 23  1  0  0  0  0
  1 24  1  0  0  0  0
  2  3  2  0  0  0  0
  2  4  1  0  0  0  0
  4  5  1  0  0  0  0
  4 25  1  0  0  0  0
  4 26  1  0  0  0  0
  5 13  1  0  0  0  0
  5  6  2  0  0  0  0
  6  7  1  0  0  0  0
  6 40  1  0  0  0  0
  7 12  2  0  0  0  0
  7  8  1  0  0  0  0
  8  9  2  0  0  0  0
  8 27  1  0  0  0  0
  9 10  1  0  0  0  0
  9 28  1  0  0  0  0
 10 11  2  0  0  0  0
 10 29  1  0  0  0  0
 11 12  1  0  0  0  0
 11 30  1  0  0  0  0
 12 13  1  0  0  0  0
 13 14  1  0  0  0  0
 14 15  1  0  0  0  0
 14 31  1  0  0  0  0
 14 32  1  0  0  0  0
 15 16  1  0  0  0  0
 15 17  1  0  0  0  0
 15 33  1  0  0  0  0
 16 34  1  0  0  0  0
 17 22  1  0  0  0  0
 17 18  2  0  0  0  0
 18 19  1  0  0  0  0
 18 35  1  0  0  0  0
 19 20  2  0  0  0  0
 19 36  1  0  0  0  0
 20 21  1  0  0  0  0
 20 37  1  0  0  0  0
 21 22  2  0  0  0  0
 21 38  1  0  0  0  0
 22 39  1  0  0  0  0
M  CHG  1   6   1
M  END
> <s_m_source_file>
AV-unprocessed.smi

> <i_m_source_file_index>
1284

> <i_lp_mmshare_version>
43012

> <i_f3d_flags>
0

> <s_epik_input>
W2NIXTFbY0hdW2NIXVtjSF1jKGMxMiluKGMobjIpW0NIMl1DKD1PKVtOSDJdKVtDSDJdW0NASF0oW09IXSljM1tjSF1bY0hdW2NIXVtjSF1bY0hdMw==

> <s_epik_cmdline>
J2VwaWtfcHl0aG9uJywgJy1waCcsICc3LjAnLCAnLXRuJywgJzgnLCAnLW1hJywgJzIwMCcsICctbWV0YWxfYmluZGluZycsICctaW1hZScsICc8aW5maWxlLm1hZT4nLCAnLW9tYWUnLCAnPG91dGZpbGUubWFlPic=

> <r_epik_Ionization_Penalty>
1.66646

> <r_epik_Ionization_Penalty_Charging>
1.66645

> <r_epik_Ionization_Penalty_Neutral>
1.67657e-06

> <r_epik_State_Penalty>
1.76975

> <r_epik_Charging_Adjusted_Penalty>
3.43621

> <i_epik_Tot_Q>
1

> <i_epik_Tot_abs_Q>
1

> <r_epik_Metal_State_Penalty>
1.80493

> <b_epik_Metal_Only>
0

> <s_lp_Force_Field>
OPLS_2005

> <r_lp_Energy>
13.978

> <b_lp_Chiralities_Consistent>
1

> <s_lp_Variant>
AV-unprocessed.smi:1284-3

> <Gold.Version>
5.8.1

> <Gold.Id.Protein>
6NUR|6NUR_protein|mol2

> <Gold.PLP.Fitness>
58.5555

> <Gold.PLP.PLP>
-47.6547

> <Gold.PLP.part.hbond>
-4.4954

> <Gold.PLP.part.metal>
0.0000

> <Gold.PLP.part.buried>
3.4008

> <Gold.PLP.part.nonpolar>
-46.3556

> <Gold.PLP.part.repulsive>
0.1558

> <Gold.PLP.ligand.clash>
0.0000

> <Gold.PLP.ligand.torsion>
0.5648

> <Gold.PLP.Chemscore.Hbond>
4.0000

> <Gold.PLP.Chemscore.CHOScore>
0.0000

> <Gold.PLP.Chemscore.Metal>
0.0000

> <Gold.Chemscore.Hbonds>
donor molecule, donor type, donor heavy atom, donor atom, acceptor molecule, acceptor atom, score
      L1  H     1    24       P1  7948  1.00
      L1  H     6    40       P1  7948  2.00
      P1  H 10752 10765       L1     3  0.93

> <Gold.PLP.Chemscore.Internal.Correction>
0.0304

> <Gold.Rescore>
     Score         DG    S(hbond)    S(metal)    S(lipo)     H(rot)  DE(clash)    DE(int)     intcor
     16.55     -19.76       2.36        0.00     118.67       2.92       2.00       1.21       ----

> <Gold.Chemscore.Fitness>
16.5527

> <Gold.Chemscore.DG>
-19.7624

> <Gold.Chemscore.ZeroCoef>
-5.4800

> <Gold.Chemscore.Hbond>
2.3591

> <Gold.Chemscore.Metal>
0.0000

> <Gold.Chemscore.Lipo>
118.6687

> <Gold.Chemscore.Internal_Hbond>
0.0000

> <Gold.Chemscore.DEClash>
1.9987

> <Gold.Chemscore.DEInternal>
1.2110

> <Gold.Chemscore.Rot>
2.9223

> <Gold.Chemscore.Internal.Correction>
   9.000000E+99

> <Gold.Chemscore.Hbonds>
donor molecule, donor type, donor heavy atom, donor atom, acceptor molecule, acceptor atom, score
      L1  H     1    24       P1  7948  0.53
      L1  H     6    40       P1  7948  1.00
      P1  H 10752 10765       L1     3  0.31

> <Gold.Chemscore.Hbond.Weighted>
-7.8793

> <Gold.Chemscore.Metal.Weighted>
-0.0000

> <Gold.Chemscore.Lipo.Weighted>
-13.8842

> <Gold.Chemscore.Internal_Hbond.Weighted>
0.0000

> <Gold.Chemscore.DEClash.Weighted>
1.9987

> <Gold.Chemscore.DEInternal.Weighted>
1.2110

> <Gold.Chemscore.Rot.Weighted>
7.4812

> <Gold.Chemscore.Internal.Correction.Weighted>
   9.000000E+99

> <Gold.Protein.RotatedTorsions>
[ 6907 6896 6895 6894 ] final   77.95 input  -60.11 | X-H torsion
[ 7974 7965 7964 7962 ] final   16.99 input  175.53 | X-H torsion
[ 8008 7997 7996 7995 ] final  -66.93 input   59.86 | X-H torsion
[ 10167 10162 10161 10158 ] final  -65.01 input  -65.29 | X-H torsion
[ 10718 10713 10712 10709 ] final  -47.38 input   66.30 | X-H torsion
[ 10763 10752 10751 10750 ] final -138.20 input  -60.55 | X-H torsion
[ 11005 11000 10999 10996 ] final   92.35 input  -57.11 | X-H torsion

> <Gold.Protein.ActiveResidues>
 VAL166  LYS551  ARG553  GLY616  TRP617  ASP618  TYR619  PRO620  LYS621  CYS622 
 ASP623  PHE694  ASN695  SER759  ASP760  ASP761  ALA762  ILE779  LEU786  VAL792 
 PHE793  MET794  SER795  GLU796  ALA797  LYS798  CYS799  TRP800  GLU811  SER814 

> <Gold.Protein.RotatedAtoms>
  152.5139  134.3739  159.9327 H   0  0  0  0  0  0  0  0  0  0  0  0  # atno 6907 bound_to 6896
  151.3694  133.3854  159.2706 H   0  0  0  0  0  0  0  0  0  0  0  0  # atno 6908 bound_to 6896
  150.9590  134.9000  159.7777 H   0  0  0  0  0  0  0  0  0  0  0  0  # atno 6909 bound_to 6896
  146.2232  139.8667  142.8595 H   0  0  0  0  0  0  0  0  0  0  0  0  # atno 7974 bound_to 7965
  154.4766  140.0903  156.7277 H   0  0  0  0  0  0  0  0  0  0  0  0  # atno 8008 bound_to 7997
  155.4580  140.3460  155.4291 H   0  0  0  0  0  0  0  0  0  0  0  0  # atno 8009 bound_to 7997
  156.1126  140.1452  156.9305 H   0  0  0  0  0  0  0  0  0  0  0  0  # atno 8010 bound_to 7997
  140.5760  143.2322  151.6441 H   0  0  0  0  0  0  0  0  0  0  0  0  # atno 10167 bound_to 10162
  156.2090  130.4160  149.9140 H   0  0  0  0  0  0  0  0  0  0  0  0  # atno 10718 bound_to 10713
  154.8643  135.3619  154.5346 H   0  0  0  0  0  0  0  0  0  0  0  0  # atno 10763 bound_to 10752
  153.5970  135.7014  153.5405 H   0  0  0  0  0  0  0  0  0  0  0  0  # atno 10764 bound_to 10752
  153.3324  135.4121  155.1467 H   0  0  0  0  0  0  0  0  0  0  0  0  # atno 10765 bound_to 10752
  139.8825  134.8727  156.3559 H   0  0  0  0  0  0  0  0  0  0  0  0  # atno 11005 bound_to 11000
  145.2649  141.0089  143.3805 LP  0  0  0  0  0  0  0  0  0  0  0  0  # atno 17320 bound_to 7965
  144.9269  139.4345  143.6514 LP  0  0  0  0  0  0  0  0  0  0  0  0  # atno 17321 bound_to 7965
  139.5143  144.3415  152.0736 LP  0  0  0  0  0  0  0  0  0  0  0  0  # atno 17342 bound_to 10162
  140.2559  144.4119  150.6204 LP  0  0  0  0  0  0  0  0  0  0  0  0  # atno 17343 bound_to 10162
  156.6824  130.8863  151.3577 LP  0  0  0  0  0  0  0  0  0  0  0  0  # atno 17370 bound_to 10713
  157.7028  130.9352  150.0837 LP  0  0  0  0  0  0  0  0  0  0  0  0  # atno 17371 bound_to 10713
  140.9562  133.7418  156.0339 LP  0  0  0  0  0  0  0  0  0  0  0  0  # atno 17394 bound_to 11000
  140.8045  134.3470  157.5430 LP  0  0  0  0  0  0  0  0  0  0  0  0  # atno 17395 bound_to 11000

$$$$
