AV-unprocessed.smi:3234|AV-procd|sdf|12356|dock2
  -GOLD-   2272018213D 1   1.00000     0.00000
 Structure written by MMmdl.
 37 39  0  0  0  0  0  0  0  0  4 V2000
  145.2317  138.1671  153.8141 O   0  0  0  0  0  0  0  0  0  0  0  0
  146.1458  137.6182  153.1882 C   0  0  0  0  0  0  0  0  0  0  0  0
  147.3495  138.2096  153.0867 N   0  0  0  0  0  0  0  0  0  0  0  0
  147.7624  139.4784  153.5743 C   0  0  0  0  0  0  0  0  0  0  0  0
  146.8221  140.5317  153.5476 C   0  0  0  0  0  0  0  0  0  0  0  0
  147.1863  141.8000  154.0434 C   0  0  0  0  0  0  0  0  0  0  0  0
  148.4223  141.9940  154.5515 N   0  3  0  0  0  0  0  0  0  0  0  0
  149.3481  141.0127  154.6154 C   0  0  0  0  0  0  0  0  0  0  0  0
  149.0416  139.7239  154.1338 C   0  0  0  0  0  0  0  0  0  0  0  0
  146.1152  136.4081  152.5669 N   0  5  0  0  0  0  0  0  0  0  0  0
  145.0297  135.9399  151.7004 C   0  0  2  0  0  0  0  0  0  0  0  0
  143.7621  135.6353  152.5217 C   0  0  0  0  0  0  0  0  0  0  0  0
  143.2777  134.2800  152.0098 C   0  0  0  0  0  0  0  0  0  0  0  0
  144.5105  133.5800  151.6121 N   0  3  1  0  0  0  0  0  0  0  0  0
  144.2907  132.3993  150.7503 C   0  0  0  0  0  0  0  0  0  0  0  0
  145.4157  132.1466  149.7756 C   0  0  0  0  0  0  0  0  0  0  0  0
  144.1123  132.7437  149.2910 C   0  0  0  0  0  0  0  0  0  0  0  0
  145.4034  134.6029  151.0323 C   0  0  0  0  0  0  0  0  0  0  0  0
  148.0726  137.6488  152.6604 H   0  0  0  0  0  0  0  0  0  0  0  0
  145.8322  140.3732  153.1442 H   0  0  0  0  0  0  0  0  0  0  0  0
  146.5296  142.6575  154.0510 H   0  0  0  0  0  0  0  0  0  0  0  0
  150.2976  141.2834  155.0533 H   0  0  0  0  0  0  0  0  0  0  0  0
  149.7834  138.9433  154.2125 H   0  0  0  0  0  0  0  0  0  0  0  0
  144.7871  136.6568  150.9144 H   0  0  0  0  0  0  0  0  0  0  0  0
  143.9923  135.5481  153.5854 H   0  0  0  0  0  0  0  0  0  0  0  0
  143.0035  136.4115  152.4170 H   0  0  0  0  0  0  0  0  0  0  0  0
  142.7278  133.7223  152.7685 H   0  0  0  0  0  0  0  0  0  0  0  0
  142.6218  134.4051  151.1447 H   0  0  0  0  0  0  0  0  0  0  0  0
  143.7430  131.5689  151.1929 H   0  0  0  0  0  0  0  0  0  0  0  0
  146.2851  132.8008  149.8113 H   0  0  0  0  0  0  0  0  0  0  0  0
  145.6219  131.1133  149.5038 H   0  0  0  0  0  0  0  0  0  0  0  0
  143.4605  132.1036  148.7001 H   0  0  0  0  0  0  0  0  0  0  0  0
  144.1151  133.7944  149.0063 H   0  0  0  0  0  0  0  0  0  0  0  0
  145.2219  134.6760  149.9586 H   0  0  0  0  0  0  0  0  0  0  0  0
  146.4493  134.3214  151.1653 H   0  0  0  0  0  0  0  0  0  0  0  0
  144.9526  133.2703  152.4657 H   0  0  0  0  0  0  0  0  0  0  0  0
  148.6651  142.9188  154.9075 H   0  0  0  0  0  0  0  0  0  0  0  0
  1  2  2  0  0  0  0
  2  3  1  0  0  0  0
  2 10  1  0  0  0  0
  3  4  1  0  0  0  0
  3 19  1  0  0  0  0
  4  9  1  0  0  0  0
  4  5  2  0  0  0  0
  5  6  1  0  0  0  0
  5 20  1  0  0  0  0
  6  7  2  0  0  0  0
  6 21  1  0  0  0  0
  7  8  1  0  0  0  0
  7 37  1  0  0  0  0
  8  9  2  0  0  0  0
  8 22  1  0  0  0  0
  9 23  1  0  0  0  0
 10 11  1  0  0  0  0
 11 18  1  0  0  0  0
 11 12  1  0  0  0  0
 11 24  1  0  0  0  0
 12 13  1  0  0  0  0
 12 25  1  0  0  0  0
 12 26  1  0  0  0  0
 13 14  1  0  0  0  0
 13 27  1  0  0  0  0
 13 28  1  0  0  0  0
 14 15  1  0  0  0  0
 14 18  1  0  0  0  0
 14 36  1  0  0  0  0
 15 17  1  0  0  0  0
 15 16  1  0  0  0  0
 15 29  1  0  0  0  0
 16 17  1  0  0  0  0
 16 30  1  0  0  0  0
 16 31  1  0  0  0  0
 17 32  1  0  0  0  0
 17 33  1  0  0  0  0
 18 34  1  0  0  0  0
 18 35  1  0  0  0  0
M  CHG  1   7   1
M  CHG  1  10  -1
M  CHG  1  14   1
M  END
> <s_m_source_file>
AV-unprocessed.smi

> <i_m_source_file_index>
3234

> <i_lp_mmshare_version>
43012

> <i_f3d_flags>
0

> <s_epik_input>
W2NIXTFbY0hdbltjSF1bY0hdYzFbTkhdQyg9TylbTkhdW0NAQEhdMltDSDJdW0NIMl1OKFtDSDJdMilbQ0hdM1tDSDJdW0NIMl0z

> <s_epik_cmdline>
J2VwaWtfcHl0aG9uJywgJy1waCcsICc3LjAnLCAnLXRuJywgJzgnLCAnLW1hJywgJzIwMCcsICctbWV0YWxfYmluZGluZycsICctaW1hZScsICc8aW5maWxlLm1hZT4nLCAnLW9tYWUnLCAnPG91dGZpbGUubWFlPic=

> <r_epik_Ionization_Penalty>
8.3234

> <r_epik_Ionization_Penalty_Charging>
8.3234

> <r_epik_Ionization_Penalty_Neutral>
3.58513e-06

> <r_epik_State_Penalty>
7.99376

> <r_epik_Charging_Adjusted_Penalty>
16.3172

> <i_epik_Tot_Q>
1

> <i_epik_Tot_abs_Q>
3

> <r_epik_Metal_State_Penalty>
3.98956

> <b_epik_Metal_Only>
1

> <s_lp_Force_Field>
OPLS_2005

> <r_lp_Energy>
40.8871

> <b_lp_Chiralities_Consistent>
1

> <s_lp_Variant>
AV-unprocessed.smi:3234-9

> <Gold.Version>
5.8.1

> <Gold.Id.Protein>
6NUR|6NUR_protein|mol2

> <Gold.PLP.Fitness>
41.0694

> <Gold.PLP.PLP>
-33.5273

> <Gold.PLP.part.hbond>
-2.0000

> <Gold.PLP.part.metal>
0.0000

> <Gold.PLP.part.buried>
-5.3288

> <Gold.PLP.part.nonpolar>
-29.0373

> <Gold.PLP.part.repulsive>
2.0401

> <Gold.PLP.ligand.clash>
0.0000

> <Gold.PLP.ligand.torsion>
1.3625

> <Gold.PLP.Chemscore.Hbond>
3.0000

> <Gold.PLP.Chemscore.CHOScore>
0.0000

> <Gold.PLP.Chemscore.Metal>
0.0000

> <Gold.Chemscore.Hbonds>
donor molecule, donor type, donor heavy atom, donor atom, acceptor molecule, acceptor atom, score
      L1  H     3    19       P1  7948  1.00
      L1  H     7    37       P1  8028  2.00

> <Gold.PLP.Chemscore.Internal.Correction>
1.2671

> <Gold.Rescore>
     Score         DG    S(hbond)    S(metal)    S(lipo)     H(rot)  DE(clash)    DE(int)     intcor
     15.69     -19.00       1.93        0.00      86.84       1.21       0.63       2.68       ----

> <Gold.Chemscore.Fitness>
15.6915

> <Gold.Chemscore.DG>
-19.0001

> <Gold.Chemscore.ZeroCoef>
-5.4800

> <Gold.Chemscore.Hbond>
1.9341

> <Gold.Chemscore.Metal>
0.0000

> <Gold.Chemscore.Lipo>
86.8355

> <Gold.Chemscore.Internal_Hbond>
0.0000

> <Gold.Chemscore.DEClash>
0.6292

> <Gold.Chemscore.DEInternal>
2.6794

> <Gold.Chemscore.Rot>
1.2108

> <Gold.Chemscore.Internal.Correction>
   9.000000E+99

> <Gold.Chemscore.Hbonds>
donor molecule, donor type, donor heavy atom, donor atom, acceptor molecule, acceptor atom, score
      L1  H     3    19       P1  7948  1.00
      L1  H     7    37       P1  8028  0.99

> <Gold.Chemscore.Hbond.Weighted>
-6.4599

> <Gold.Chemscore.Metal.Weighted>
-0.0000

> <Gold.Chemscore.Lipo.Weighted>
-10.1598

> <Gold.Chemscore.Internal_Hbond.Weighted>
0.0000

> <Gold.Chemscore.DEClash.Weighted>
0.6292

> <Gold.Chemscore.DEInternal.Weighted>
2.6794

> <Gold.Chemscore.Rot.Weighted>
3.0996

> <Gold.Chemscore.Internal.Correction.Weighted>
   9.000000E+99

> <Gold.Protein.RotatedTorsions>
[ 6907 6896 6895 6894 ] final -102.94 input  -60.11 | X-H torsion
[ 7974 7965 7964 7962 ] final -142.78 input  175.53 | X-H torsion
[ 8008 7997 7996 7995 ] final  140.65 input   59.86 | X-H torsion
[ 10167 10162 10161 10158 ] final  -27.54 input  -65.29 | X-H torsion
[ 10718 10713 10712 10709 ] final  -94.68 input   66.30 | X-H torsion
[ 10763 10752 10751 10750 ] final   -5.16 input  -60.55 | X-H torsion
[ 11005 11000 10999 10996 ] final  -69.07 input  -57.11 | X-H torsion

> <Gold.Protein.ActiveResidues>
 VAL166  LYS551  ARG553  GLY616  TRP617  ASP618  TYR619  PRO620  LYS621  CYS622 
 ASP623  PHE694  ASN695  SER759  ASP760  ASP761  ALA762  ILE779  LEU786  VAL792 
 PHE793  MET794  SER795  GLU796  ALA797  LYS798  CYS799  TRP800  GLU811  SER814 

> <Gold.Protein.RotatedAtoms>
  150.7218  134.0505  159.3796 H   0  0  0  0  0  0  0  0  0  0  0  0  # atno 6907 bound_to 6896
  151.8482  135.0565  160.0465 H   0  0  0  0  0  0  0  0  0  0  0  0  # atno 6908 bound_to 6896
  152.2811  133.5435  159.5535 H   0  0  0  0  0  0  0  0  0  0  0  0  # atno 6909 bound_to 6896
  144.8418  140.5916  143.5447 H   0  0  0  0  0  0  0  0  0  0  0  0  # atno 7974 bound_to 7965
  156.2976  140.2336  156.4436 H   0  0  0  0  0  0  0  0  0  0  0  0  # atno 8008 bound_to 7997
  154.8164  140.0440  157.1400 H   0  0  0  0  0  0  0  0  0  0  0  0  # atno 8009 bound_to 7997
  154.9365  140.3023  155.5145 H   0  0  0  0  0  0  0  0  0  0  0  0  # atno 8010 bound_to 7997
  140.7276  143.4085  151.1145 H   0  0  0  0  0  0  0  0  0  0  0  0  # atno 10167 bound_to 10162
  156.0031  130.5078  150.5963 H   0  0  0  0  0  0  0  0  0  0  0  0  # atno 10718 bound_to 10713
  153.3947  135.7003  153.6469 H   0  0  0  0  0  0  0  0  0  0  0  0  # atno 10763 bound_to 10752
  153.5027  135.3648  155.2548 H   0  0  0  0  0  0  0  0  0  0  0  0  # atno 10764 bound_to 10752
  154.8705  135.4116  154.3270 H   0  0  0  0  0  0  0  0  0  0  0  0  # atno 10765 bound_to 10752
  141.1546  133.6755  156.6542 H   0  0  0  0  0  0  0  0  0  0  0  0  # atno 11005 bound_to 11000
  145.4679  139.1506  143.3830 LP  0  0  0  0  0  0  0  0  0  0  0  0  # atno 17320 bound_to 7965
  146.2709  140.4811  142.8815 LP  0  0  0  0  0  0  0  0  0  0  0  0  # atno 17321 bound_to 7965
  139.7715  143.8488  152.3121 LP  0  0  0  0  0  0  0  0  0  0  0  0  # atno 17342 bound_to 10162
  139.8408  144.7211  150.9334 LP  0  0  0  0  0  0  0  0  0  0  0  0  # atno 17343 bound_to 10162
  157.3819  131.0782  151.1469 LP  0  0  0  0  0  0  0  0  0  0  0  0  # atno 17370 bound_to 10713
  157.2189  130.6472  149.5803 LP  0  0  0  0  0  0  0  0  0  0  0  0  # atno 17371 bound_to 10713
  140.3297  134.7939  157.4316 LP  0  0  0  0  0  0  0  0  0  0  0  0  # atno 17394 bound_to 11000
  140.1027  134.5451  155.8338 LP  0  0  0  0  0  0  0  0  0  0  0  0  # atno 17395 bound_to 11000

$$$$
