AV-unprocessed.smi:49|AV-procd|sdf|467|dock8
  -GOLD-   2262016333D 1   1.00000     0.00000
 Structure written by MMmdl.
 28 29  0  0  0  0  0  0  0  0  2 V2000
  146.8899  138.3212  154.5100 C   0  0  0  0  0  0  0  0  0  0  0  0
  146.7041  136.8108  154.3253 C   0  0  0  0  0  0  0  0  0  0  0  0
  145.8910  136.4852  153.1165 C   0  0  0  0  0  0  0  0  0  0  0  0
  145.6935  135.2042  152.6811 N   0  0  0  0  0  0  0  0  0  0  0  0
  144.9709  135.4335  151.5864 C   0  0  0  0  0  0  0  0  0  0  0  0
  144.4183  134.3915  150.6607 C   0  0  2  0  0  0  0  0  0  0  0  0
  143.5504  133.3253  151.3303 C   0  0  0  0  0  0  0  0  0  0  0  0
  143.7954  132.0893  150.4662 C   0  0  1  0  0  0  0  0  0  0  0  0
  142.9172  132.0901  149.3581 O   0  0  0  0  0  0  0  0  0  0  0  0
  145.2457  132.2489  149.9818 C   0  0  0  0  0  0  0  0  0  0  0  0
  145.5939  133.6778  150.1251 N   0  3  0  0  0  0  0  0  0  0  0  0
  144.7602  136.7362  151.3835 N   0  0  0  0  0  0  0  0  0  0  0  0
  145.3614  137.4459  152.3613 N   0  0  0  0  0  0  0  0  0  0  0  0
  143.8831  134.8580  149.8321 H   0  0  0  0  0  0  0  0  0  0  0  0
  143.6510  131.1632  151.0239 H   0  0  0  0  0  0  0  0  0  0  0  0
  144.2454  137.1673  150.6287 H   0  0  0  0  0  0  0  0  0  0  0  0
  147.4864  138.5333  155.3976 H   0  0  0  0  0  0  0  0  0  0  0  0
  145.9295  138.8244  154.6262 H   0  0  0  0  0  0  0  0  0  0  0  0
  147.3991  138.7631  153.6529 H   0  0  0  0  0  0  0  0  0  0  0  0
  147.6774  136.3259  154.2407 H   0  0  0  0  0  0  0  0  0  0  0  0
  146.2230  136.3865  155.2074 H   0  0  0  0  0  0  0  0  0  0  0  0
  143.9214  133.1230  152.3366 H   0  0  0  0  0  0  0  0  0  0  0  0
  142.5016  133.6124  151.4175 H   0  0  0  0  0  0  0  0  0  0  0  0
  142.2858  132.7849  149.4717 H   0  0  0  0  0  0  0  0  0  0  0  0
  145.9207  131.6761  150.6184 H   0  0  0  0  0  0  0  0  0  0  0  0
  145.3904  131.9052  148.9565 H   0  0  0  0  0  0  0  0  0  0  0  0
  145.8760  134.0761  149.2412 H   0  0  0  0  0  0  0  0  0  0  0  0
  146.3488  133.7589  150.7921 H   0  0  0  0  0  0  0  0  0  0  0  0
  1  2  1  0  0  0  0
  1 17  1  0  0  0  0
  1 18  1  0  0  0  0
  1 19  1  0  0  0  0
  2 20  1  0  0  0  0
  2 21  1  0  0  0  0
  2  3  1  0  0  0  0
  3  4  1  0  0  0  0
  3 13  2  0  0  0  0
  4  5  2  0  0  0  0
  5  6  1  0  0  0  0
  5 12  1  0  0  0  0
  6 14  1  0  0  0  0
  6 11  1  0  0  0  0
  6  7  1  0  0  0  0
  7  8  1  0  0  0  0
  7 22  1  0  0  0  0
  7 23  1  0  0  0  0
  8 15  1  0  0  0  0
  8  9  1  0  0  0  0
  8 10  1  0  0  0  0
  9 24  1  0  0  0  0
 10 11  1  0  0  0  0
 10 25  1  0  0  0  0
 10 26  1  0  0  0  0
 11 27  1  0  0  0  0
 11 28  1  0  0  0  0
 12 13  1  0  0  0  0
 12 16  1  0  0  0  0
M  CHG  1  11   1
M  END
> <s_m_source_file>
AV-unprocessed.smi

> <i_m_source_file_index>
49

> <i_lp_mmshare_version>
43012

> <i_f3d_flags>
0

> <s_epik_input>
W0NIM11bQ0gyXWMxbmMobltuSF0xKVtDQEBIXTJbQ0gyXVtDQEBIXShbT0hdKVtDSDJdW05IXTI=

> <s_epik_cmdline>
J2VwaWtfcHl0aG9uJywgJy1waCcsICc3LjAnLCAnLXRuJywgJzgnLCAnLW1hJywgJzIwMCcsICctbWV0YWxfYmluZGluZycsICctaW1hZScsICc8aW5maWxlLm1hZT4nLCAnLW9tYWUnLCAnPG91dGZpbGUubWFlPic=

> <r_epik_Ionization_Penalty>
0.372103

> <r_epik_Ionization_Penalty_Charging>
0.0688988

> <r_epik_Ionization_Penalty_Neutral>
0.303204

> <r_epik_State_Penalty>
0.737493

> <r_epik_Charging_Adjusted_Penalty>
0.806392

> <i_epik_Tot_Q>
1

> <i_epik_Tot_abs_Q>
1

> <r_epik_Metal_State_Penalty>
1.01235

> <b_epik_Metal_Only>
0

> <s_lp_Force_Field>
OPLS_2005

> <r_lp_Energy>
18.9462

> <b_lp_Chiralities_Consistent>
1

> <s_lp_Variant>
AV-unprocessed.smi:49-5

> <Gold.Version>
5.8.1

> <Gold.Id.Protein>
6NUR|6NUR_protein|mol2

> <Gold.PLP.Fitness>
34.1379

> <Gold.PLP.PLP>
-22.9080

> <Gold.PLP.part.hbond>
-4.9258

> <Gold.PLP.part.metal>
0.0000

> <Gold.PLP.part.buried>
-5.5424

> <Gold.PLP.part.nonpolar>
-13.4205

> <Gold.PLP.part.repulsive>
0.4758

> <Gold.PLP.ligand.clash>
0.0000

> <Gold.PLP.ligand.torsion>
0.0450

> <Gold.PLP.Chemscore.Hbond>
3.7668

> <Gold.PLP.Chemscore.CHOScore>
0.0000

> <Gold.PLP.Chemscore.Metal>
0.0000

> <Gold.Chemscore.Hbonds>
donor molecule, donor type, donor heavy atom, donor atom, acceptor molecule, acceptor atom, score
      L1  H     9    24       P1 10186  0.91
      L1  H    11    27       P1  7921  1.00
      L1  H    12    16       P1 10171  0.96
      P1  H 10785 10796       L1     9  0.88

> <Gold.PLP.Chemscore.Internal.Correction>
0.0196

> <Gold.Rescore>
     Score         DG    S(hbond)    S(metal)    S(lipo)     H(rot)  DE(clash)    DE(int)     intcor
     14.22     -14.26       2.77        0.00      37.32       1.89       0.01       0.03       ----

> <Gold.Chemscore.Fitness>
14.2171

> <Gold.Chemscore.DG>
-14.2576

> <Gold.Chemscore.ZeroCoef>
-5.4800

> <Gold.Chemscore.Hbond>
2.7679

> <Gold.Chemscore.Metal>
0.0000

> <Gold.Chemscore.Lipo>
37.3225

> <Gold.Chemscore.Internal_Hbond>
0.0000

> <Gold.Chemscore.DEClash>
0.0144

> <Gold.Chemscore.DEInternal>
0.0261

> <Gold.Chemscore.Rot>
1.8883

> <Gold.Chemscore.Internal.Correction>
   9.000000E+99

> <Gold.Chemscore.Hbonds>
donor molecule, donor type, donor heavy atom, donor atom, acceptor molecule, acceptor atom, score
      L1  H     9    24       P1 10186  0.87
      L1  H    11    27       P1  7921  0.35
      L1  H    12    16       P1 10171  0.92
      P1  H 10785 10796       L1     9  0.19

> <Gold.Chemscore.Hbond.Weighted>
-9.2449

> <Gold.Chemscore.Metal.Weighted>
-0.0000

> <Gold.Chemscore.Lipo.Weighted>
-4.3667

> <Gold.Chemscore.Internal_Hbond.Weighted>
0.0000

> <Gold.Chemscore.DEClash.Weighted>
0.0144

> <Gold.Chemscore.DEInternal.Weighted>
0.0261

> <Gold.Chemscore.Rot.Weighted>
4.8340

> <Gold.Chemscore.Internal.Correction.Weighted>
   9.000000E+99

> <Gold.Protein.RotatedTorsions>
[ 6907 6896 6895 6894 ] final  177.12 input  -60.11 | X-H torsion
[ 7974 7965 7964 7962 ] final  -94.38 input  175.53 | X-H torsion
[ 8008 7997 7996 7995 ] final -118.85 input   59.86 | X-H torsion
[ 10167 10162 10161 10158 ] final -128.54 input  -65.29 | X-H torsion
[ 10718 10713 10712 10709 ] final  -71.34 input   66.30 | X-H torsion
[ 10763 10752 10751 10750 ] final  159.51 input  -60.55 | X-H torsion
[ 11005 11000 10999 10996 ] final   -5.56 input  -57.11 | X-H torsion

> <Gold.Protein.ActiveResidues>
 VAL166  LYS551  ARG553  GLY616  TRP617  ASP618  TYR619  PRO620  LYS621  CYS622 
 ASP623  PHE694  ASN695  SER759  ASP760  ASP761  ALA762  ILE779  LEU786  VAL792 
 PHE793  MET794  SER795  GLU796  ALA797  LYS798  CYS799  TRP800  GLU811  SER814 

> <Gold.Protein.RotatedAtoms>
  151.7091  133.3312  159.3285 H   0  0  0  0  0  0  0  0  0  0  0  0  # atno 6907 bound_to 6896
  150.7702  134.6548  159.6317 H   0  0  0  0  0  0  0  0  0  0  0  0  # atno 6908 bound_to 6896
  152.3722  134.6719  160.0224 H   0  0  0  0  0  0  0  0  0  0  0  0  # atno 6909 bound_to 6896
  145.3741  140.9509  143.2431 H   0  0  0  0  0  0  0  0  0  0  0  0  # atno 7974 bound_to 7965
  155.1063  140.0396  157.2711 H   0  0  0  0  0  0  0  0  0  0  0  0  # atno 8008 bound_to 7997
  154.6719  140.2614  155.6972 H   0  0  0  0  0  0  0  0  0  0  0  0  # atno 8009 bound_to 7997
  156.2662  140.2796  156.1232 H   0  0  0  0  0  0  0  0  0  0  0  0  # atno 8010 bound_to 7997
  139.9492  143.6075  152.2480 H   0  0  0  0  0  0  0  0  0  0  0  0  # atno 10167 bound_to 10162
  156.0367  130.4349  150.2429 H   0  0  0  0  0  0  0  0  0  0  0  0  # atno 10718 bound_to 10713
  154.2329  135.2777  155.2883 H   0  0  0  0  0  0  0  0  0  0  0  0  # atno 10763 bound_to 10752
  154.5609  135.5647  153.7009 H   0  0  0  0  0  0  0  0  0  0  0  0  # atno 10764 bound_to 10752
  153.0016  135.6297  154.2472 H   0  0  0  0  0  0  0  0  0  0  0  0  # atno 10765 bound_to 10752
  140.6925  133.9059  155.8628 H   0  0  0  0  0  0  0  0  0  0  0  0  # atno 11005 bound_to 11000
  144.8555  139.5256  143.6836 LP  0  0  0  0  0  0  0  0  0  0  0  0  # atno 17320 bound_to 7965
  146.2872  139.7037  142.9187 LP  0  0  0  0  0  0  0  0  0  0  0  0  # atno 17321 bound_to 7965
  139.6642  144.7662  151.1905 LP  0  0  0  0  0  0  0  0  0  0  0  0  # atno 17342 bound_to 10162
  140.7588  143.5963  150.8745 LP  0  0  0  0  0  0  0  0  0  0  0  0  # atno 17343 bound_to 10162
  157.0527  131.0067  151.3248 LP  0  0  0  0  0  0  0  0  0  0  0  0  # atno 17370 bound_to 10713
  157.5128  130.7949  149.7724 LP  0  0  0  0  0  0  0  0  0  0  0  0  # atno 17371 bound_to 10713
  141.0230  134.0863  157.4100 LP  0  0  0  0  0  0  0  0  0  0  0  0  # atno 17394 bound_to 11000
  139.8919  135.0121  156.6819 LP  0  0  0  0  0  0  0  0  0  0  0  0  # atno 17395 bound_to 11000

$$$$
