AV-unprocessed.smi:2830|AV-procd|sdf|10907|dock8
  -GOLD-   2272015353D 1   1.00000     0.00000
 Structure written by MMmdl.
 28 28  0  0  0  0  0  0  0  0  1 V2000
  147.5080  139.1085  157.5402 C   0  0  0  0  0  0  0  0  0  0  0  0
  148.3544  139.7812  156.6247 O   0  0  0  0  0  0  0  0  0  0  0  0
  149.0476  140.8673  157.2190 C   0  0  0  0  0  0  0  0  0  0  0  0
  149.9802  141.5031  156.1721 C   0  0  1  0  0  0  0  0  0  0  0  0
  150.6563  142.6612  156.7538 N   0  0  0  0  0  0  0  0  0  0  0  0
  151.3480  142.5950  157.9731 C   0  0  0  0  0  0  0  0  0  0  0  0
  151.8227  143.7966  158.5402 C   0  0  0  0  0  0  0  0  0  0  0  0
  152.5185  143.7440  159.7639 C   0  0  0  0  0  0  0  0  0  0  0  0
  152.7166  142.4917  160.3777 C   0  0  0  0  0  0  0  0  0  0  0  0
  153.4267  142.3847  161.6405 C   0  0  0  0  0  0  0  0  0  0  0  0
  153.9922  142.2996  162.6464 N   0  0  0  0  0  0  0  0  0  0  0  0
  152.2080  141.3449  159.7349 C   0  0  0  0  0  0  0  0  0  0  0  0
  151.5414  141.3899  158.5614 N   0  0  0  0  0  0  0  0  0  0  0  0
  150.9511  140.4403  155.6328 C   0  0  0  0  0  0  0  0  0  0  0  0
  151.9037  140.0102  156.4642 N   0  0  0  0  0  0  0  0  0  0  0  0
  150.8540  140.0238  154.4795 O   0  0  0  0  0  0  0  0  0  0  0  0
  147.0034  138.2852  157.0345 H   0  0  0  0  0  0  0  0  0  0  0  0
  146.7444  139.7786  157.9372 H   0  0  0  0  0  0  0  0  0  0  0  0
  148.0777  138.6933  158.3728 H   0  0  0  0  0  0  0  0  0  0  0  0
  148.3433  141.6056  157.6079 H   0  0  0  0  0  0  0  0  0  0  0  0
  149.6239  140.4912  158.0668 H   0  0  0  0  0  0  0  0  0  0  0  0
  149.3565  141.8427  155.3429 H   0  0  0  0  0  0  0  0  0  0  0  0
  150.5029  143.5622  156.3252 H   0  0  0  0  0  0  0  0  0  0  0  0
  151.6570  144.7448  158.0499 H   0  0  0  0  0  0  0  0  0  0  0  0
  152.8898  144.6515  160.2178 H   0  0  0  0  0  0  0  0  0  0  0  0
  152.3362  140.3635  160.1684 H   0  0  0  0  0  0  0  0  0  0  0  0
  152.5704  139.3189  156.1526 H   0  0  0  0  0  0  0  0  0  0  0  0
  151.9583  140.3855  157.4000 H   0  0  0  0  0  0  0  0  0  0  0  0
  1  2  1  0  0  0  0
  1 17  1  0  0  0  0
  1 18  1  0  0  0  0
  1 19  1  0  0  0  0
  2  3  1  0  0  0  0
  3  4  1  0  0  0  0
  3 20  1  0  0  0  0
  3 21  1  0  0  0  0
  4  5  1  0  0  0  0
  4 14  1  0  0  0  0
  4 22  1  0  0  0  0
  5  6  1  0  0  0  0
  5 23  1  0  0  0  0
  6 13  1  0  0  0  0
  6  7  2  0  0  0  0
  7  8  1  0  0  0  0
  7 24  1  0  0  0  0
  8  9  2  0  0  0  0
  8 25  1  0  0  0  0
  9 10  1  0  0  0  0
  9 12  1  0  0  0  0
 10 11  3  0  0  0  0
 12 13  2  0  0  0  0
 12 26  1  0  0  0  0
 14 15  1  0  0  0  0
 14 16  2  0  0  0  0
 15 27  1  0  0  0  0
 15 28  1  0  0  0  0
M  END
> <s_m_source_file>
AV-unprocessed.smi

> <i_m_source_file_index>
2830

> <i_lp_mmshare_version>
43012

> <i_f3d_flags>
0

> <s_epik_input>
W0NIM11PW0NIMl1bQ0BASF0oQyg9TylbTkgyXSlbTkhdYzFbY0hdW2NIXWMoQyNOKVtjSF1uMQ==

> <s_epik_cmdline>
J2VwaWtfcHl0aG9uJywgJy1waCcsICc3LjAnLCAnLXRuJywgJzgnLCAnLW1hJywgJzIwMCcsICctbWV0YWxfYmluZGluZycsICctaW1hZScsICc8aW5maWxlLm1hZT4nLCAnLW9tYWUnLCAnPG91dGZpbGUubWFlPic=

> <r_lp_tautomer_probability>
1

> <r_epik_Ionization_Penalty>
4.37908e-06

> <r_epik_Ionization_Penalty_Charging>
0

> <r_epik_Ionization_Penalty_Neutral>
4.37908e-06

> <r_epik_State_Penalty>
-0

> <r_epik_Charging_Adjusted_Penalty>
0

> <i_epik_Tot_Q>
0

> <i_epik_Tot_abs_Q>
0

> <r_epik_Metal_State_Penalty>
-0

> <b_epik_Metal_Only>
0

> <s_lp_Force_Field>
OPLS_2005

> <r_lp_Energy>
3.76959

> <b_lp_Chiralities_Consistent>
1

> <s_lp_Variant>
AV-unprocessed.smi:2830-2

> <Gold.Version>
5.8.1

> <Gold.Id.Protein>
6NUR|6NUR_protein|mol2

> <Gold.PLP.Fitness>
35.8521

> <Gold.PLP.PLP>
-31.4394

> <Gold.PLP.part.hbond>
-3.0000

> <Gold.PLP.part.metal>
0.0000

> <Gold.PLP.part.buried>
-3.9653

> <Gold.PLP.part.nonpolar>
-24.2496

> <Gold.PLP.part.repulsive>
0.3141

> <Gold.PLP.ligand.clash>
0.0000

> <Gold.PLP.ligand.torsion>
0.2643

> <Gold.PLP.Chemscore.Hbond>
1.6365

> <Gold.PLP.Chemscore.CHOScore>
0.0000

> <Gold.PLP.Chemscore.Metal>
0.0000

> <Gold.Chemscore.Hbonds>
donor molecule, donor type, donor heavy atom, donor atom, acceptor molecule, acceptor atom, score
      L1  H     5    23       P1  8028  0.68
      P1  H  7989  7998       L1    16  0.94

> <Gold.PLP.Chemscore.Internal.Correction>
0.0319

> <Gold.Rescore>
     Score         DG    S(hbond)    S(metal)    S(lipo)     H(rot)  DE(clash)    DE(int)     intcor
     10.43     -11.98       1.94        0.00      50.86       2.32       0.00       1.55       ----

> <Gold.Chemscore.Fitness>
10.4272

> <Gold.Chemscore.DG>
-11.9815

> <Gold.Chemscore.ZeroCoef>
-5.4800

> <Gold.Chemscore.Hbond>
1.9430

> <Gold.Chemscore.Metal>
0.0000

> <Gold.Chemscore.Lipo>
50.8570

> <Gold.Chemscore.Internal_Hbond>
0.0000

> <Gold.Chemscore.DEClash>
0.0021

> <Gold.Chemscore.DEInternal>
1.5521

> <Gold.Chemscore.Rot>
2.3197

> <Gold.Chemscore.Internal.Correction>
   9.000000E+99

> <Gold.Chemscore.Hbonds>
donor molecule, donor type, donor heavy atom, donor atom, acceptor molecule, acceptor atom, score
      L1  H     5    23       P1  8028  0.65
      P1  H  7989  7998       L1    16  0.77

> <Gold.Chemscore.Hbond.Weighted>
-6.4896

> <Gold.Chemscore.Metal.Weighted>
-0.0000

> <Gold.Chemscore.Lipo.Weighted>
-5.9503

> <Gold.Chemscore.Internal_Hbond.Weighted>
0.0000

> <Gold.Chemscore.DEClash.Weighted>
0.0021

> <Gold.Chemscore.DEInternal.Weighted>
1.5521

> <Gold.Chemscore.Rot.Weighted>
5.9384

> <Gold.Chemscore.Internal.Correction.Weighted>
   9.000000E+99

> <Gold.Protein.RotatedTorsions>
[ 6907 6896 6895 6894 ] final  -77.61 input  -60.11 | X-H torsion
[ 7974 7965 7964 7962 ] final  161.54 input  175.53 | X-H torsion
[ 8008 7997 7996 7995 ] final    9.68 input   59.86 | X-H torsion
[ 10167 10162 10161 10158 ] final  -73.31 input  -65.29 | X-H torsion
[ 10718 10713 10712 10709 ] final  -44.43 input   66.30 | X-H torsion
[ 10763 10752 10751 10750 ] final  -55.64 input  -60.55 | X-H torsion
[ 11005 11000 10999 10996 ] final   98.98 input  -57.11 | X-H torsion

> <Gold.Protein.ActiveResidues>
 VAL166  LYS551  ARG553  GLY616  TRP617  ASP618  TYR619  PRO620  LYS621  CYS622 
 ASP623  PHE694  ASN695  SER759  ASP760  ASP761  ALA762  ILE779  LEU786  VAL792 
 PHE793  MET794  SER795  GLU796  ALA797  LYS798  CYS799  TRP800  GLU811  SER814 

> <Gold.Protein.RotatedAtoms>
  150.6994  134.4396  159.5285 H   0  0  0  0  0  0  0  0  0  0  0  0  # atno 6907 bound_to 6896
  152.2108  134.8500  160.0506 H   0  0  0  0  0  0  0  0  0  0  0  0  # atno 6908 bound_to 6896
  151.9386  133.3596  159.3993 H   0  0  0  0  0  0  0  0  0  0  0  0  # atno 6909 bound_to 6896
  144.7680  139.7913  143.6307 H   0  0  0  0  0  0  0  0  0  0  0  0  # atno 7974 bound_to 7965
  154.7832  140.2822  155.6048 H   0  0  0  0  0  0  0  0  0  0  0  0  # atno 8008 bound_to 7997
  156.2953  140.2619  156.2591 H   0  0  0  0  0  0  0  0  0  0  0  0  # atno 8009 bound_to 7997
  154.9759  140.0375  157.2245 H   0  0  0  0  0  0  0  0  0  0  0  0  # atno 8010 bound_to 7997
  140.5121  143.2343  151.7576 H   0  0  0  0  0  0  0  0  0  0  0  0  # atno 10167 bound_to 10162
  156.2386  130.4178  149.8787 H   0  0  0  0  0  0  0  0  0  0  0  0  # atno 10718 bound_to 10713
  154.1940  135.6422  153.5068 H   0  0  0  0  0  0  0  0  0  0  0  0  # atno 10763 bound_to 10752
  153.0028  135.5435  154.6385 H   0  0  0  0  0  0  0  0  0  0  0  0  # atno 10764 bound_to 10752
  154.5781  135.2923  155.0733 H   0  0  0  0  0  0  0  0  0  0  0  0  # atno 10765 bound_to 10752
  139.8771  134.9074  156.4538 H   0  0  0  0  0  0  0  0  0  0  0  0  # atno 11005 bound_to 11000
  146.1804  139.4994  142.9870 LP  0  0  0  0  0  0  0  0  0  0  0  0  # atno 17320 bound_to 7965
  145.6409  141.0284  143.1812 LP  0  0  0  0  0  0  0  0  0  0  0  0  # atno 17321 bound_to 7965
  139.4899  144.4376  151.9801 LP  0  0  0  0  0  0  0  0  0  0  0  0  # atno 17342 bound_to 10162
  140.3469  144.3136  150.5956 LP  0  0  0  0  0  0  0  0  0  0  0  0  # atno 17343 bound_to 10162
  156.6377  130.8692  151.3508 LP  0  0  0  0  0  0  0  0  0  0  0  0  # atno 17370 bound_to 10713
  157.7165  130.9504  150.1276 LP  0  0  0  0  0  0  0  0  0  0  0  0  # atno 17371 bound_to 10713
  140.8913  133.7846  155.9575 LP  0  0  0  0  0  0  0  0  0  0  0  0  # atno 17394 bound_to 11000
  140.8750  134.2680  157.5172 LP  0  0  0  0  0  0  0  0  0  0  0  0  # atno 17395 bound_to 11000

$$$$
