AV-unprocessed.smi:362|AV-procd|sdf|2422|dock6
  -GOLD-   2262022363D 1   1.00000     0.00000
 Structure written by MMmdl.
 35 37  0  0  0  0  0  0  0  0  2 V2000
  150.0903  141.2566  158.0135 O   0  0  0  0  0  0  0  0  0  0  0  0
  151.1179  141.3153  157.3370 C   0  0  0  0  0  0  0  0  0  0  0  0
  151.1644  140.6826  155.9401 C   0  0  0  0  0  0  0  0  0  0  0  0
  150.9558  139.2263  155.9738 N   0  0  0  0  0  0  0  0  0  0  0  0
  149.6712  138.7554  156.2974 C   0  0  0  0  0  0  0  0  0  0  0  0
  149.3913  137.4396  156.3574 C   0  0  0  0  0  0  0  0  0  0  0  0
  150.4626  136.4923  156.0747 C   0  0  0  0  0  0  0  0  0  0  0  0
  150.2234  135.2871  156.1179 O   0  0  0  0  0  0  0  0  0  0  0  0
  151.6939  136.9984  155.7712 N   0  5  0  0  0  0  0  0  0  0  0  0
  151.9647  138.3395  155.7172 C   0  0  0  0  0  0  0  0  0  0  0  0
  153.0841  138.7753  155.4443 O   0  0  0  0  0  0  0  0  0  0  0  0
  152.2384  141.9359  157.7405 N   0  0  0  0  0  0  0  0  0  0  0  0
  152.4628  142.5839  159.0307 C   0  0  0  0  0  0  0  0  0  0  0  0
  152.4987  141.6127  160.2015 C   0  0  0  0  0  0  0  0  0  0  0  0
  153.0692  142.0167  161.5398 C   0  0  0  0  0  0  0  0  0  0  0  0
  153.7997  141.0127  160.6759 C   0  0  0  0  0  0  0  0  0  0  0  0
  151.5175  143.7423  159.3136 C   0  0  0  0  0  0  0  0  0  0  0  0
  151.6709  145.0679  158.6077 C   0  0  0  0  0  0  0  0  0  0  0  0
  151.9770  144.9570  160.0847 C   0  0  0  0  0  0  0  0  0  0  0  0
  150.4045  141.1645  155.3239 H   0  0  0  0  0  0  0  0  0  0  0  0
  152.1153  140.9129  155.4551 H   0  0  0  0  0  0  0  0  0  0  0  0
  148.9373  139.5218  156.4993 H   0  0  0  0  0  0  0  0  0  0  0  0
  148.4002  137.0937  156.6117 H   0  0  0  0  0  0  0  0  0  0  0  0
  153.0225  141.9281  157.1045 H   0  0  0  0  0  0  0  0  0  0  0  0
  153.4636  143.0097  158.9477 H   0  0  0  0  0  0  0  0  0  0  0  0
  151.6358  140.9507  160.2458 H   0  0  0  0  0  0  0  0  0  0  0  0
  153.5069  143.0087  161.6305 H   0  0  0  0  0  0  0  0  0  0  0  0
  152.5679  141.6446  162.4309 H   0  0  0  0  0  0  0  0  0  0  0  0
  153.7843  139.9703  160.9872 H   0  0  0  0  0  0  0  0  0  0  0  0
  154.7156  141.3399  160.1879 H   0  0  0  0  0  0  0  0  0  0  0  0
  150.4935  143.4315  159.5121 H   0  0  0  0  0  0  0  0  0  0  0  0
  152.5127  145.1867  157.9282 H   0  0  0  0  0  0  0  0  0  0  0  0
  150.7608  145.5897  158.3187 H   0  0  0  0  0  0  0  0  0  0  0  0
  151.2710  145.4049  160.7810 H   0  0  0  0  0  0  0  0  0  0  0  0
  153.0220  145.0075  160.3831 H   0  0  0  0  0  0  0  0  0  0  0  0
  1  2  2  0  0  0  0
  2  3  1  0  0  0  0
  2 12  1  0  0  0  0
  3  4  1  0  0  0  0
  3 20  1  0  0  0  0
  3 21  1  0  0  0  0
  4 10  1  0  0  0  0
  4  5  1  0  0  0  0
  5  6  2  0  0  0  0
  5 22  1  0  0  0  0
  6  7  1  0  0  0  0
  6 23  1  0  0  0  0
  7  8  2  0  0  0  0
  7  9  1  0  0  0  0
  9 10  1  0  0  0  0
 10 11  2  0  0  0  0
 12 13  1  0  0  0  0
 12 24  1  0  0  0  0
 13 14  1  0  0  0  0
 13 17  1  0  0  0  0
 13 25  1  0  0  0  0
 14 16  1  0  0  0  0
 14 15  1  0  0  0  0
 14 26  1  0  0  0  0
 15 16  1  0  0  0  0
 15 27  1  0  0  0  0
 15 28  1  0  0  0  0
 16 29  1  0  0  0  0
 16 30  1  0  0  0  0
 17 19  1  0  0  0  0
 17 18  1  0  0  0  0
 17 31  1  0  0  0  0
 18 19  1  0  0  0  0
 18 32  1  0  0  0  0
 18 33  1  0  0  0  0
 19 34  1  0  0  0  0
 19 35  1  0  0  0  0
M  CHG  1   9  -1
M  END
> <s_m_source_file>
AV-unprocessed.smi

> <i_m_source_file_index>
362

> <i_lp_mmshare_version>
43012

> <i_f3d_flags>
0

> <s_epik_input>
W0NIMl0xW0NIMl1bQ0hdMVtDSF0oW0NIXTJbQ0gyXVtDSDJdMilbTkhdQyg9TylbQ0gyXW4zW2NIXVtjSF1jKD1PKVtuSF1jMz1P

> <s_epik_cmdline>
J2VwaWtfcHl0aG9uJywgJy1waCcsICc3LjAnLCAnLXRuJywgJzgnLCAnLW1hJywgJzIwMCcsICctbWV0YWxfYmluZGluZycsICctaW1hZScsICc8aW5maWxlLm1hZT4nLCAnLW9tYWUnLCAnPG91dGZpbGUubWFlPic=

> <r_lp_tautomer_probability>
0.999537

> <r_epik_Ionization_Penalty>
3.10326

> <r_epik_Ionization_Penalty_Charging>
2.95532e-08

> <r_epik_Ionization_Penalty_Neutral>
3.10326

> <r_epik_State_Penalty>
3.10233

> <r_epik_Charging_Adjusted_Penalty>
3.10233

> <i_epik_Tot_Q>
-1

> <i_epik_Tot_abs_Q>
1

> <r_epik_Metal_State_Penalty>
0.461987

> <b_epik_Metal_Only>
1

> <s_lp_Force_Field>
OPLS_2005

> <r_lp_Energy>
32.875

> <b_lp_Chiralities_Consistent>
1

> <s_lp_Variant>
AV-unprocessed.smi:362-2

> <Gold.Version>
5.8.1

> <Gold.Id.Protein>
6NUR|6NUR_protein|mol2

> <Gold.PLP.Fitness>
45.1469

> <Gold.PLP.PLP>
-36.5151

> <Gold.PLP.part.hbond>
-2.0000

> <Gold.PLP.part.metal>
0.0000

> <Gold.PLP.part.buried>
-2.6500

> <Gold.PLP.part.nonpolar>
-32.8070

> <Gold.PLP.part.repulsive>
0.1983

> <Gold.PLP.ligand.clash>
0.0000

> <Gold.PLP.ligand.torsion>
1.2491

> <Gold.PLP.Chemscore.Hbond>
2.9840

> <Gold.PLP.Chemscore.CHOScore>
0.0000

> <Gold.PLP.Chemscore.Metal>
0.0000

> <Gold.Chemscore.Hbonds>
donor molecule, donor type, donor heavy atom, donor atom, acceptor molecule, acceptor atom, score
      P1  H  7997  8010       L1    11  1.00
      P1  H 10752 10765       L1     9  1.30

> <Gold.PLP.Chemscore.Internal.Correction>
2.1779

> <Gold.Rescore>
     Score         DG    S(hbond)    S(metal)    S(lipo)     H(rot)  DE(clash)    DE(int)     intcor
     13.17     -15.88       1.67        0.00      86.91       2.09       1.11       1.59       ----

> <Gold.Chemscore.Fitness>
13.1714

> <Gold.Chemscore.DG>
-15.8758

> <Gold.Chemscore.ZeroCoef>
-5.4800

> <Gold.Chemscore.Hbond>
1.6721

> <Gold.Chemscore.Metal>
0.0000

> <Gold.Chemscore.Lipo>
86.9144

> <Gold.Chemscore.Internal_Hbond>
0.0000

> <Gold.Chemscore.DEClash>
1.1136

> <Gold.Chemscore.DEInternal>
1.5907

> <Gold.Chemscore.Rot>
2.0929

> <Gold.Chemscore.Internal.Correction>
   9.000000E+99

> <Gold.Chemscore.Hbonds>
donor molecule, donor type, donor heavy atom, donor atom, acceptor molecule, acceptor atom, score
      P1  H  7997  8010       L1    11  0.95
      P1  H 10752 10765       L1     9  0.56

> <Gold.Chemscore.Hbond.Weighted>
-5.5847

> <Gold.Chemscore.Metal.Weighted>
-0.0000

> <Gold.Chemscore.Lipo.Weighted>
-10.1690

> <Gold.Chemscore.Internal_Hbond.Weighted>
0.0000

> <Gold.Chemscore.DEClash.Weighted>
1.1136

> <Gold.Chemscore.DEInternal.Weighted>
1.5907

> <Gold.Chemscore.Rot.Weighted>
5.3579

> <Gold.Chemscore.Internal.Correction.Weighted>
   9.000000E+99

> <Gold.Protein.RotatedTorsions>
[ 6907 6896 6895 6894 ] final   57.61 input  -60.11 | X-H torsion
[ 7974 7965 7964 7962 ] final -119.30 input  175.53 | X-H torsion
[ 8008 7997 7996 7995 ] final   96.50 input   59.86 | X-H torsion
[ 10167 10162 10161 10158 ] final  100.66 input  -65.29 | X-H torsion
[ 10718 10713 10712 10709 ] final  -67.94 input   66.30 | X-H torsion
[ 10763 10752 10751 10750 ] final -167.85 input  -60.55 | X-H torsion
[ 11005 11000 10999 10996 ] final  -50.59 input  -57.11 | X-H torsion

> <Gold.Protein.ActiveResidues>
 VAL166  LYS551  ARG553  GLY616  TRP617  ASP618  TYR619  PRO620  LYS621  CYS622 
 ASP623  PHE694  ASN695  SER759  ASP760  ASP761  ALA762  ILE779  LEU786  VAL792 
 PHE793  MET794  SER795  GLU796  ALA797  LYS798  CYS799  TRP800  GLU811  SER814 

> <Gold.Protein.RotatedAtoms>
  152.3747  134.6681  160.0163 H   0  0  0  0  0  0  0  0  0  0  0  0  # atno 6907 bound_to 6896
  151.6962  133.3305  159.3263 H   0  0  0  0  0  0  0  0  0  0  0  0  # atno 6908 bound_to 6896
  150.7701  134.6590  159.6374 H   0  0  0  0  0  0  0  0  0  0  0  0  # atno 6909 bound_to 6896
  145.0641  140.8311  143.4135 H   0  0  0  0  0  0  0  0  0  0  0  0  # atno 7974 bound_to 7965
  156.0803  140.3272  155.7685 H   0  0  0  0  0  0  0  0  0  0  0  0  # atno 8008 bound_to 7997
  155.5164  140.0581  157.2932 H   0  0  0  0  0  0  0  0  0  0  0  0  # atno 8009 bound_to 7997
  154.4578  140.1951  156.0346 H   0  0  0  0  0  0  0  0  0  0  0  0  # atno 8010 bound_to 7997
  139.7507  144.6985  151.0436 H   0  0  0  0  0  0  0  0  0  0  0  0  # atno 10167 bound_to 10162
  156.0531  130.4286  150.1927 H   0  0  0  0  0  0  0  0  0  0  0  0  # atno 10718 bound_to 10713
  154.6689  135.2936  154.9768 H   0  0  0  0  0  0  0  0  0  0  0  0  # atno 10763 bound_to 10752
  154.0802  135.6605  153.4840 H   0  0  0  0  0  0  0  0  0  0  0  0  # atno 10764 bound_to 10752
  153.0474  135.5195  154.7676 H   0  0  0  0  0  0  0  0  0  0  0  0  # atno 10765 bound_to 10752
  141.0824  133.6650  156.3754 H   0  0  0  0  0  0  0  0  0  0  0  0  # atno 11005 bound_to 11000
  145.1373  139.2594  143.5508 LP  0  0  0  0  0  0  0  0  0  0  0  0  # atno 17320 bound_to 7965
  146.3526  140.1040  142.8607 LP  0  0  0  0  0  0  0  0  0  0  0  0  # atno 17321 bound_to 7965
  140.7797  143.4812  151.0015 LP  0  0  0  0  0  0  0  0  0  0  0  0  # atno 17342 bound_to 10162
  139.8500  143.7451  152.3178 LP  0  0  0  0  0  0  0  0  0  0  0  0  # atno 17343 bound_to 10162
  157.0008  130.9921  151.3391 LP  0  0  0  0  0  0  0  0  0  0  0  0  # atno 17370 bound_to 10713
  157.5476  130.8161  149.8105 LP  0  0  0  0  0  0  0  0  0  0  0  0  # atno 17371 bound_to 10713
  140.5438  134.6094  157.5388 LP  0  0  0  0  0  0  0  0  0  0  0  0  # atno 17394 bound_to 11000
  139.9639  134.7405  156.0178 LP  0  0  0  0  0  0  0  0  0  0  0  0  # atno 17395 bound_to 11000

$$$$
