#       Name:                AV-unprocessed.smi:1803
#       Creating user name   scv26
#       Creation time:       Fri Mar 27 08:54:24 2020


#       File generated by GOLD software.
#

@<TRIPOS>MOLECULE
AV-unprocessed.smi:1803
    40    42     1
SMALL
NO_CHARGES


@<TRIPOS>ATOM
      1 ****        -2.0485  -2.2297  -1.1930 O.2            1 S1                 0.0000
      2 ****        -0.8240  -2.1828  -1.2954 C.2            1 S1                 0.0000
      3 ****        -0.0849  -3.3090  -1.3826 N.am           1 S1                 0.0000
      4 ****        -0.4632  -4.6833  -1.3787 C.2            1 S1                 0.0000
      5 ****        -1.7313  -5.1205  -1.4523 N.2            1 S1                 0.0000
      6 ****        -1.8075  -6.5064  -1.4531 N.2            1 S1                 0.0000
      7 ****        -0.5948  -7.0633  -1.3939 C.2            1 S1                 0.0000
      8 ****         0.7580  -5.9473  -1.3306 S.3            1 S1                 0.0000
      9 ****        -0.1453  -1.0242  -1.3297 N.am           1 S1                 0.0000
     10 ****        -0.7390   0.3027  -1.2017 C.3            1 S1                 0.0000
     11 ****         0.1774   1.4209  -1.6811 C.3            1 S1                 0.0000
     12 ****        -0.4187   2.6650  -1.0150 C.3            1 S1                 0.0000
     13 ****        -1.1080   2.2054   0.2160 N.4            1 S1                 1.0000
     14 ****        -0.6445   2.8827   1.4568 C.3            1 S1                 0.0000
     15 ****        -1.0889   2.1075   2.7060 C.3            1 S1                 0.0000
     16 ****        -0.4839   0.6911   2.7366 C.3            1 S1                 0.0000
     17 ****        -0.1009   0.1830   1.3335 C.3            1 S1                 0.0000
     18 ****        -1.0666   0.7156   0.2459 C.3            1 S1                 0.0000
     19 ****         0.8995  -3.1513  -1.5431 H              1 S1                 0.0000
     20 ****        -0.4962  -8.1388  -1.3913 H              1 S1                 0.0000
     21 ****         0.8599  -1.0699  -1.4207 H              1 S1                 0.0000
     22 ****        -1.6539   0.3450  -1.7969 H              1 S1                 0.0000
     23 ****         1.1938   1.2589  -1.3187 H              1 S1                 0.0000
     24 ****         0.2170   1.5022  -2.7679 H              1 S1                 0.0000
     25 ****         0.3439   3.4215  -0.8248 H              1 S1                 0.0000
     26 ****        -1.1666   3.1160  -1.6681 H              1 S1                 0.0000
     27 ****         0.4438   2.9671   1.4567 H              1 S1                 0.0000
     28 ****        -1.0393   3.8990   1.4742 H              1 S1                 0.0000
     29 ****        -0.8142   2.6500   3.6112 H              1 S1                 0.0000
     30 ****        -2.1777   2.0387   2.7111 H              1 S1                 0.0000
     31 ****         0.4020   0.6745   3.3725 H              1 S1                 0.0000
     32 ****        -1.1999   0.0100   3.1982 H              1 S1                 0.0000
     33 ****         0.9159   0.5012   1.0994 H              1 S1                 0.0000
     34 ****        -0.0804  -0.9069   1.3458 H              1 S1                 0.0000
     35 ****        -2.0666   0.3567   0.4939 H              1 S1                 0.0000
     36 ****        -2.0818   2.4484   0.1019 H              1 S1                 0.0000
     37 ****        -2.5150  -3.1140  -1.1731 LP             1 S1                 0.0000
     38 ****        -2.5777  -1.3836  -1.1297 LP             1 S1                 0.0000
     39 ****        -2.5276  -4.5176  -1.5009 LP             1 S1                 0.0000
     40 ****        -2.6628  -7.0230  -1.4929 LP             1 S1                 0.0000
@<TRIPOS>BOND
    1    1    2 2     
    2    2    3 am    
    3    2    9 am    
    4    3    4 1     
    5    3   19 1     
    6    4    8 1     
    7    4    5 2     
    8    5    6 1     
    9    6    7 2     
   10    7    8 1     
   11    7   20 1     
   12    9   10 1     
   13    9   21 1     
   14   10   18 1     
   15   10   11 1     
   16   10   22 1     
   17   11   12 1     
   18   11   23 1     
   19   11   24 1     
   20   12   13 1     
   21   12   25 1     
   22   12   26 1     
   23   13   18 1     
   24   13   14 1     
   25   13   36 1     
   26   14   15 1     
   27   14   27 1     
   28   14   28 1     
   29   15   16 1     
   30   15   29 1     
   31   15   30 1     
   32   16   17 1     
   33   16   31 1     
   34   16   32 1     
   35   17   18 1     
   36   17   33 1     
   37   17   34 1     
   38   18   35 1     
   39    1   37 1     
   40    1   38 1     
   41    5   39 1     
   42    6   40 1     
@<TRIPOS>SUBSTRUCTURE
      1 S1             1
@<TRIPOS>SET
LONE_PAIRS      STATIC     ATOMS    <user>   **** ""
4 37 38 39 40
DONOR_HYDROGENS      STATIC     ATOMS    <user>   **** ""
3 19 21 36
ATOM$BLUE        STATIC     ATOMS    COLORGROUP SYSTEM
4 37 38 39 40
ATOM$RED        STATIC     ATOMS    COLORGROUP SYSTEM
3 19 21 36
