AV-unprocessed.smi:71|AV-procd|sdf|661|dock1
  -GOLD-   2262016563D 1   1.00000     0.00000
 Structure written by MMmdl.
 31 32  0  0  0  0  0  0  0  0  1 V2000
  150.9103  144.9925  157.9053 N   0  0  0  0  0  0  0  0  0  0  0  0
  151.5386  143.8691  158.4360 C   0  0  0  0  0  0  0  0  0  0  0  0
  152.2000  143.9488  159.6780 C   0  0  0  0  0  0  0  0  0  0  0  0
  152.8175  142.7888  160.1828 C   0  0  0  0  0  0  0  0  0  0  0  0
  152.7535  141.6023  159.4276 C   0  0  0  0  0  0  0  0  0  0  0  0
  152.0785  141.6246  158.1857 C   0  0  0  0  0  0  0  0  0  0  0  0
  151.9658  140.3795  157.3559 C   0  0  0  0  0  0  0  0  0  0  0  0
  152.9178  139.5996  157.3114 O   0  0  0  0  0  0  0  0  0  0  0  0
  150.8051  140.1655  156.6925 N   0  0  0  0  0  0  0  0  0  0  0  0
  149.5698  140.9352  156.8684 C   0  0  0  0  0  0  0  0  0  0  0  0
  148.5310  140.2900  155.9527 C   0  0  0  0  0  0  0  0  0  0  0  0
  149.0394  138.8710  155.7526 C   0  0  0  0  0  0  0  0  0  0  0  0
  150.5662  138.9915  155.8438 C   0  0  1  0  0  0  0  0  0  0  0  0
  151.2406  139.1667  154.4666 C   0  0  0  0  0  0  0  0  0  0  0  0
  150.6906  140.2760  153.7881 O   0  0  0  0  0  0  0  0  0  0  0  0
  151.4737  142.7356  157.7062 N   0  0  0  0  0  0  0  0  0  0  0  0
  150.4296  144.9604  157.0178 H   0  0  0  0  0  0  0  0  0  0  0  0
  150.9447  145.8846  158.3770 H   0  0  0  0  0  0  0  0  0  0  0  0
  152.2314  144.8737  160.2352 H   0  0  0  0  0  0  0  0  0  0  0  0
  153.3282  142.8081  161.1341 H   0  0  0  0  0  0  0  0  0  0  0  0
  153.2106  140.6957  159.7969 H   0  0  0  0  0  0  0  0  0  0  0  0
  149.2515  140.8693  157.9102 H   0  0  0  0  0  0  0  0  0  0  0  0
  149.6924  141.9882  156.6164 H   0  0  0  0  0  0  0  0  0  0  0  0
  147.5228  140.3241  156.3665 H   0  0  0  0  0  0  0  0  0  0  0  0
  148.5149  140.8098  154.9937 H   0  0  0  0  0  0  0  0  0  0  0  0
  148.6775  138.2423  156.5673 H   0  0  0  0  0  0  0  0  0  0  0  0
  148.6909  138.4272  154.8196 H   0  0  0  0  0  0  0  0  0  0  0  0
  150.9665  138.0979  156.3276 H   0  0  0  0  0  0  0  0  0  0  0  0
  152.3183  139.2972  154.5694 H   0  0  0  0  0  0  0  0  0  0  0  0
  151.0825  138.2870  153.8423 H   0  0  0  0  0  0  0  0  0  0  0  0
  150.4355  140.0017  152.9204 H   0  0  0  0  0  0  0  0  0  0  0  0
  1  2  1  0  0  0  0
  1 17  1  0  0  0  0
  1 18  1  0  0  0  0
  2 16  1  0  0  0  0
  2  3  2  0  0  0  0
  3  4  1  0  0  0  0
  3 19  1  0  0  0  0
  4  5  2  0  0  0  0
  4 20  1  0  0  0  0
  5  6  1  0  0  0  0
  5 21  1  0  0  0  0
  6  7  1  0  0  0  0
  6 16  2  0  0  0  0
  7  8  2  0  0  0  0
  7  9  1  0  0  0  0
  9 13  1  0  0  0  0
  9 10  1  0  0  0  0
 10 11  1  0  0  0  0
 10 22  1  0  0  0  0
 10 23  1  0  0  0  0
 11 12  1  0  0  0  0
 11 24  1  0  0  0  0
 11 25  1  0  0  0  0
 12 13  1  0  0  0  0
 12 26  1  0  0  0  0
 12 27  1  0  0  0  0
 13 14  1  0  0  0  0
 13 28  1  0  0  0  0
 14 15  1  0  0  0  0
 14 29  1  0  0  0  0
 14 30  1  0  0  0  0
 15 31  1  0  0  0  0
M  END
> <s_m_source_file>
AV-unprocessed.smi

> <i_m_source_file_index>
71

> <i_lp_mmshare_version>
43012

> <i_f3d_flags>
0

> <s_epik_input>
W05IMl1jMVtjSF1bY0hdW2NIXWMobjEpQyg9TylOMltDSDJdW0NIMl1bQ0gyXVtDQEhdMltDSDJdW09IXQ==

> <s_epik_cmdline>
J2VwaWtfcHl0aG9uJywgJy1waCcsICc3LjAnLCAnLXRuJywgJzgnLCAnLW1hJywgJzIwMCcsICctbWV0YWxfYmluZGluZycsICctaW1hZScsICc8aW5maWxlLm1hZT4nLCAnLW9tYWUnLCAnPG91dGZpbGUubWFlPic=

> <r_lp_tautomer_probability>
1

> <r_epik_Ionization_Penalty>
2.21614e-05

> <r_epik_Ionization_Penalty_Charging>
0

> <r_epik_Ionization_Penalty_Neutral>
2.21614e-05

> <r_epik_State_Penalty>
-0

> <r_epik_Charging_Adjusted_Penalty>
0

> <i_epik_Tot_Q>
0

> <i_epik_Tot_abs_Q>
0

> <r_epik_Metal_State_Penalty>
-0

> <b_epik_Metal_Only>
0

> <s_lp_Force_Field>
OPLS_2005

> <r_lp_Energy>
36.7339

> <b_lp_Chiralities_Consistent>
1

> <s_lp_Variant>
AV-unprocessed.smi:71-1

> <Gold.Version>
5.8.1

> <Gold.Id.Protein>
6NUR|6NUR_protein|mol2

> <Gold.PLP.Fitness>
40.6099

> <Gold.PLP.PLP>
-29.1989

> <Gold.PLP.part.hbond>
-4.8701

> <Gold.PLP.part.metal>
0.0000

> <Gold.PLP.part.buried>
-3.9722

> <Gold.PLP.part.nonpolar>
-21.0654

> <Gold.PLP.part.repulsive>
0.2140

> <Gold.PLP.ligand.clash>
0.0000

> <Gold.PLP.ligand.torsion>
0.5691

> <Gold.PLP.Chemscore.Hbond>
3.8069

> <Gold.PLP.Chemscore.CHOScore>
0.0000

> <Gold.PLP.Chemscore.Metal>
0.0000

> <Gold.Chemscore.Hbonds>
donor molecule, donor type, donor heavy atom, donor atom, acceptor molecule, acceptor atom, score
      L1  H     1    17       P1  8028  1.00
      L1  H    15    31       P1  7957  1.00
      P1  H  7989  7998       L1    15  0.01
      P1  H  7997  8009       L1     8  0.99

> <Gold.PLP.Chemscore.Internal.Correction>
1.1285

> <Gold.Rescore>
     Score         DG    S(hbond)    S(metal)    S(lipo)     H(rot)  DE(clash)    DE(int)     intcor
     15.02     -17.16       2.64        0.00      57.33       1.50       0.03       2.11       ----

> <Gold.Chemscore.Fitness>
15.0169

> <Gold.Chemscore.DG>
-17.1606

> <Gold.Chemscore.ZeroCoef>
-5.4800

> <Gold.Chemscore.Hbond>
2.6356

> <Gold.Chemscore.Metal>
0.0000

> <Gold.Chemscore.Lipo>
57.3268

> <Gold.Chemscore.Internal_Hbond>
0.0000

> <Gold.Chemscore.DEClash>
0.0310

> <Gold.Chemscore.DEInternal>
2.1127

> <Gold.Chemscore.Rot>
1.4959

> <Gold.Chemscore.Internal.Correction>
   9.000000E+99

> <Gold.Chemscore.Hbonds>
donor molecule, donor type, donor heavy atom, donor atom, acceptor molecule, acceptor atom, score
      L1  H     1    17       P1  8028  0.37
      L1  H    15    31       P1  7957  0.97
      P1  H  7997  8009       L1     8  0.90

> <Gold.Chemscore.Hbond.Weighted>
-8.8028

> <Gold.Chemscore.Metal.Weighted>
-0.0000

> <Gold.Chemscore.Lipo.Weighted>
-6.7072

> <Gold.Chemscore.Internal_Hbond.Weighted>
0.0000

> <Gold.Chemscore.DEClash.Weighted>
0.0310

> <Gold.Chemscore.DEInternal.Weighted>
2.1127

> <Gold.Chemscore.Rot.Weighted>
3.8295

> <Gold.Chemscore.Internal.Correction.Weighted>
   9.000000E+99

> <Gold.Protein.RotatedTorsions>
[ 6907 6896 6895 6894 ] final  160.33 input  -60.11 | X-H torsion
[ 7974 7965 7964 7962 ] final   12.27 input  175.53 | X-H torsion
[ 8008 7997 7996 7995 ] final -166.87 input   59.86 | X-H torsion
[ 10167 10162 10161 10158 ] final   35.18 input  -65.29 | X-H torsion
[ 10718 10713 10712 10709 ] final   41.60 input   66.30 | X-H torsion
[ 10763 10752 10751 10750 ] final   76.04 input  -60.55 | X-H torsion
[ 11005 11000 10999 10996 ] final  124.01 input  -57.11 | X-H torsion

> <Gold.Protein.ActiveResidues>
 VAL166  LYS551  ARG553  GLY616  TRP617  ASP618  TYR619  PRO620  LYS621  CYS622 
 ASP623  PHE694  ASN695  SER759  ASP760  ASP761  ALA762  ILE779  LEU786  VAL792 
 PHE793  MET794  SER795  GLU796  ALA797  LYS798  CYS799  TRP800  GLU811  SER814 

> <Gold.Protein.RotatedAtoms>
  151.9722  133.3730  159.4075 H   0  0  0  0  0  0  0  0  0  0  0  0  # atno 6907 bound_to 6896
  150.6947  134.4127  159.5178 H   0  0  0  0  0  0  0  0  0  0  0  0  # atno 6908 bound_to 6896
  152.1833  134.8735  160.0575 H   0  0  0  0  0  0  0  0  0  0  0  0  # atno 6909 bound_to 6896
  146.2354  139.9361  142.8489 H   0  0  0  0  0  0  0  0  0  0  0  0  # atno 7974 bound_to 7965
  155.8698  140.0991  157.1558 H   0  0  0  0  0  0  0  0  0  0  0  0  # atno 8008 bound_to 7997
  154.3996  140.1349  156.4127 H   0  0  0  0  0  0  0  0  0  0  0  0  # atno 8009 bound_to 7997
  155.7763  140.3459  155.5276 H   0  0  0  0  0  0  0  0  0  0  0  0  # atno 8010 bound_to 7997
  140.4246  144.1412  150.6152 H   0  0  0  0  0  0  0  0  0  0  0  0  # atno 10167 bound_to 10162
  157.3954  130.7830  149.7304 H   0  0  0  0  0  0  0  0  0  0  0  0  # atno 10718 bound_to 10713
  153.0697  135.4966  154.8277 H   0  0  0  0  0  0  0  0  0  0  0  0  # atno 10763 bound_to 10752
  154.7004  135.3000  154.9351 H   0  0  0  0  0  0  0  0  0  0  0  0  # atno 10764 bound_to 10752
  154.0077  135.6758  153.4816 H   0  0  0  0  0  0  0  0  0  0  0  0  # atno 10765 bound_to 10752
  139.9339  134.9640  156.8345 H   0  0  0  0  0  0  0  0  0  0  0  0  # atno 11005 bound_to 11000
  145.1997  140.9849  143.4163 LP  0  0  0  0  0  0  0  0  0  0  0  0  # atno 17320 bound_to 7965
  144.9784  139.3808  143.6274 LP  0  0  0  0  0  0  0  0  0  0  0  0  # atno 17321 bound_to 7965
  140.4496  143.2492  151.9366 LP  0  0  0  0  0  0  0  0  0  0  0  0  # atno 17342 bound_to 10162
  139.4783  144.5575  151.8290 LP  0  0  0  0  0  0  0  0  0  0  0  0  # atno 17343 bound_to 10162
  155.9809  130.4025  150.3502 LP  0  0  0  0  0  0  0  0  0  0  0  0  # atno 17370 bound_to 10713
  157.1623  131.0348  151.2835 LP  0  0  0  0  0  0  0  0  0  0  0  0  # atno 17371 bound_to 10713
  140.6129  134.0066  155.7584 LP  0  0  0  0  0  0  0  0  0  0  0  0  # atno 17394 bound_to 11000
  141.0942  133.9869  157.3187 LP  0  0  0  0  0  0  0  0  0  0  0  0  # atno 17395 bound_to 11000

$$$$
