#       Name:                AV-unprocessed.smi:1840
#       Creating user name   scv26
#       Creation time:       Fri Mar 27 09:19:18 2020


#       File generated by GOLD software.
#

@<TRIPOS>MOLECULE
AV-unprocessed.smi:1840
    46    47     1
SMALL
NO_CHARGES


@<TRIPOS>ATOM
      1 ****        -3.9402  -1.2090   1.5521 C.3            1 S1                 0.0000
      2 ****        -3.1121  -0.5684   0.4304 C.3            1 S1                 0.0000
      3 ****        -3.1857  -1.3968  -0.8710 C.3            1 S1                 0.0000
      4 ****        -2.4692  -0.7738  -1.9718 N.pl3          1 S1                 0.0000
      5 ****        -2.8527   0.3024  -2.7440 C.2            1 S1                 0.0000
      6 ****        -1.8429   0.5464  -3.6304 C.2            1 S1                 0.0000
      7 ****        -0.8729  -0.4476  -3.3209 C.2            1 S1                 0.0000
      8 ****        -1.2525  -1.2398  -2.3316 N.2            1 S1                 0.0000
      9 ****        -1.7255  -0.4321   0.8743 N.am           1 S1                 0.0000
     10 ****        -0.9438   0.6351   0.6544 C.2            1 S1                 0.0000
     11 ****        -1.3345   1.6894   0.1526 O.2            1 S1                 0.0000
     12 ****         0.3281   0.3941   0.9979 N.am           1 S1                 0.0000
     13 ****         1.4538   1.2990   0.7637 C.3            1 S1                 0.0000
     14 ****         1.8579   1.3082  -0.7288 C.3            1 S1                 0.0000
     15 ****         2.4861  -0.0257  -1.1659 C.3            1 S1                 0.0000
     16 ****         3.6853  -0.3886  -0.2771 C.3            1 S1                 0.0000
     17 ****         3.2957  -0.4120   1.2102 C.3            1 S1                 0.0000
     18 ****         2.6633   0.9240   1.6557 C.3            1 S1                 0.0000
     19 ****         2.3195   0.9154   3.1552 C.3            1 S1                 0.0000
     20 ****        -4.9872  -1.2995   1.2622 H              1 S1                 0.0000
     21 ****        -3.9022  -0.6074   2.4609 H              1 S1                 0.0000
     22 ****        -3.5752  -2.2072   1.7965 H              1 S1                 0.0000
     23 ****        -3.5392   0.4175   0.2376 H              1 S1                 0.0000
     24 ****        -2.7888  -2.4007  -0.7089 H              1 S1                 0.0000
     25 ****        -4.2251  -1.5205  -1.1768 H              1 S1                 0.0000
     26 ****        -3.7967   0.8050  -2.5927 H              1 S1                 0.0000
     27 ****        -1.8015   1.3202  -4.3825 H              1 S1                 0.0000
     28 ****         0.0894  -0.6154  -3.7819 H              1 S1                 0.0000
     29 ****        -1.3040  -1.2471   1.2953 H              1 S1                 0.0000
     30 ****         0.5485  -0.5059   1.3985 H              1 S1                 0.0000
     31 ****         1.1338   2.3062   1.0374 H              1 S1                 0.0000
     32 ****         0.9998   1.5383  -1.3616 H              1 S1                 0.0000
     33 ****         2.5759   2.1116  -0.8983 H              1 S1                 0.0000
     34 ****         1.7390  -0.8191  -1.1197 H              1 S1                 0.0000
     35 ****         2.8016   0.0374  -2.2077 H              1 S1                 0.0000
     36 ****         4.0858  -1.3590  -0.5720 H              1 S1                 0.0000
     37 ****         4.4858   0.3359  -0.4323 H              1 S1                 0.0000
     38 ****         2.6003  -1.2326   1.3908 H              1 S1                 0.0000
     39 ****         4.1800  -0.6230   1.8123 H              1 S1                 0.0000
     40 ****         3.4175   1.6997   1.5131 H              1 S1                 0.0000
     41 ****         1.6069   0.1283   3.4031 H              1 S1                 0.0000
     42 ****         1.8858   1.8673   3.4630 H              1 S1                 0.0000
     43 ****         3.2124   0.7514   3.7593 H              1 S1                 0.0000
     44 ****        -0.7515  -2.0107  -1.9382 LP             1 S1                 0.0000
     45 ****        -2.2915   1.7889  -0.1199 LP             1 S1                 0.0000
     46 ****        -0.6948   2.4461   0.0176 LP             1 S1                 0.0000
@<TRIPOS>BOND
    1    1    2 1     
    2    1   20 1     
    3    1   21 1     
    4    1   22 1     
    5    2    3 1     
    6    2    9 1     
    7    2   23 1     
    8    3    4 1     
    9    3   24 1     
   10    3   25 1     
   11    4    8 1     
   12    4    5 1     
   13    5    6 2     
   14    5   26 1     
   15    6    7 1     
   16    6   27 1     
   17    7    8 2     
   18    7   28 1     
   19    9   10 am    
   20    9   29 1     
   21   10   11 2     
   22   10   12 am    
   23   12   13 1     
   24   12   30 1     
   25   13   18 1     
   26   13   14 1     
   27   13   31 1     
   28   14   15 1     
   29   14   32 1     
   30   14   33 1     
   31   15   16 1     
   32   15   34 1     
   33   15   35 1     
   34   16   17 1     
   35   16   36 1     
   36   16   37 1     
   37   17   18 1     
   38   17   38 1     
   39   17   39 1     
   40   18   19 1     
   41   18   40 1     
   42   19   41 1     
   43   19   42 1     
   44   19   43 1     
   45    8   44 1     
   46   11   45 1     
   47   11   46 1     
@<TRIPOS>SUBSTRUCTURE
      1 S1             1
@<TRIPOS>SET
LONE_PAIRS      STATIC     ATOMS    <user>   **** ""
3 44 45 46
DONOR_HYDROGENS      STATIC     ATOMS    <user>   **** ""
2 29 30
ATOM$BLUE        STATIC     ATOMS    COLORGROUP SYSTEM
3 44 45 46
ATOM$RED        STATIC     ATOMS    COLORGROUP SYSTEM
2 29 30
