#       Name:                AV-unprocessed.smi:550
#       Creating user name   scv26
#       Creation time:       Thu Mar 26 23:39:22 2020


#       File generated by GOLD software.
#

@<TRIPOS>MOLECULE
AV-unprocessed.smi:550
    49    51     1
SMALL
NO_CHARGES


@<TRIPOS>ATOM
      1 ****         2.0749   0.3855   0.6865 O.2            1 S1                 0.0000
      2 ****         1.5596  -0.7267   0.7975 C.2            1 S1                 0.0000
      3 ****         2.2658  -1.8638   0.8680 N.am           1 S1                 0.0000
      4 ****         3.7218  -1.9480   0.8118 C.3            1 S1                 0.0000
      5 ****         4.2482  -1.8840  -0.6352 C.3            1 S1                 0.0000
      6 ****         5.7863  -1.9524  -0.7032 C.3            1 S1                 0.0000
      7 ****         6.1992  -2.1757  -2.1604 C.3            1 S1                 0.0000
      8 ****         4.9135  -3.2699  -2.8668 S.o2           1 S1                 0.0000
      9 ****         4.4239  -2.6903  -4.1266 O.2            1 S1                 0.0000
     10 ****         5.3728  -4.6656  -2.8025 O.2            1 S1                 0.0000
     11 ****         3.6790  -2.9933  -1.5391 C.3            1 S1                 0.0000
     12 ****         0.2378  -0.9683   0.8398 N.am           1 S1                 0.0000
     13 ****        -0.8293  -0.0299   0.8184 C.ar           1 S1                 0.0000
     14 ****        -2.1079  -0.4918   0.4383 C.ar           1 S1                 0.0000
     15 ****        -3.1979   0.4024   0.4176 C.ar           1 S1                 0.0000
     16 ****        -2.9954   1.7518   0.7895 C.ar           1 S1                 0.0000
     17 ****        -4.0106   2.7188   0.8055 N.3            1 S1                 0.0000
     18 ****        -4.6362   2.9731  -0.4815 C.3            1 S1                 0.0000
     19 ****        -5.9374   3.7148  -0.1643 C.3            1 S1                 0.0000
     20 ****        -6.2468   3.3604   1.2951 C.3            1 S1                 0.0000
     21 ****        -5.0981   2.4463   1.7304 C.3            1 S1                 0.0000
     22 ****        -1.7600   2.1516   1.1618 N.pl3          1 S1                 1.0000
     23 ****        -0.6894   1.3287   1.1935 C.ar           1 S1                 0.0000
     24 ****         1.7637  -2.7352   0.9557 H              1 S1                 0.0000
     25 ****         4.1655  -1.1527   1.4132 H              1 S1                 0.0000
     26 ****         4.0231  -2.8867   1.2779 H              1 S1                 0.0000
     27 ****         3.9565  -0.9270  -1.0710 H              1 S1                 0.0000
     28 ****         6.2491  -1.0546  -0.2922 H              1 S1                 0.0000
     29 ****         6.1372  -2.7947  -0.1053 H              1 S1                 0.0000
     30 ****         6.1860  -1.2364  -2.7138 H              1 S1                 0.0000
     31 ****         7.1842  -2.6309  -2.2643 H              1 S1                 0.0000
     32 ****         3.5659  -3.9302  -0.9929 H              1 S1                 0.0000
     33 ****         2.7153  -2.7285  -1.9747 H              1 S1                 0.0000
     34 ****        -0.0370  -1.9397   0.8404 H              1 S1                 0.0000
     35 ****        -2.2557  -1.5246   0.1578 H              1 S1                 0.0000
     36 ****        -4.1752   0.0502   0.1212 H              1 S1                 0.0000
     37 ****        -3.9847   3.5655  -1.1247 H              1 S1                 0.0000
     38 ****        -4.8550   2.0360  -0.9952 H              1 S1                 0.0000
     39 ****        -5.7934   4.7916  -0.2609 H              1 S1                 0.0000
     40 ****        -6.7410   3.4249  -0.8420 H              1 S1                 0.0000
     41 ****        -6.2623   4.2665   1.9021 H              1 S1                 0.0000
     42 ****        -7.2138   2.8692   1.4070 H              1 S1                 0.0000
     43 ****        -5.4056   1.4020   1.6647 H              1 S1                 0.0000
     44 ****        -4.7970   2.6439   2.7596 H              1 S1                 0.0000
     45 ****         0.2268   1.7907   1.5292 H              1 S1                 0.0000
     46 ****        -1.6282   3.1255   1.4361 H              1 S1                 0.0000
     47 ****         3.0702   0.4735   0.6444 LP             1 S1                 0.0000
     48 ****         1.4984   1.2012   0.6383 LP             1 S1                 0.0000
     49 ****        -3.4917   3.5203   1.1028 LP             1 S1                 0.0000
@<TRIPOS>BOND
    1    1    2 2     
    2    2    3 am    
    3    2   12 am    
    4    3    4 1     
    5    3   24 1     
    6    4    5 1     
    7    4   25 1     
    8    4   26 1     
    9    5   11 1     
   10    5    6 1     
   11    5   27 1     
   12    6    7 1     
   13    6   28 1     
   14    6   29 1     
   15    7    8 1     
   16    7   30 1     
   17    7   31 1     
   18    8    9 2     
   19    8   10 2     
   20    8   11 1     
   21   11   32 1     
   22   11   33 1     
   23   12   13 1     
   24   12   34 1     
   25   13   23 ar    
   26   13   14 ar    
   27   14   15 ar    
   28   14   35 1     
   29   15   16 ar    
   30   15   36 1     
   31   16   17 1     
   32   16   22 ar    
   33   17   21 1     
   34   17   18 1     
   35   18   19 1     
   36   18   37 1     
   37   18   38 1     
   38   19   20 1     
   39   19   39 1     
   40   19   40 1     
   41   20   21 1     
   42   20   41 1     
   43   20   42 1     
   44   21   43 1     
   45   21   44 1     
   46   22   23 ar    
   47   22   46 1     
   48   23   45 1     
   49    1   47 1     
   50    1   48 1     
   51   17   49 1     
@<TRIPOS>SUBSTRUCTURE
      1 S1             1
@<TRIPOS>SET
LONE_PAIRS      STATIC     ATOMS    <user>   **** ""
5 47 48 9 10 49
DONOR_HYDROGENS      STATIC     ATOMS    <user>   **** ""
3 24 34 46
ATOM$BLUE        STATIC     ATOMS    COLORGROUP SYSTEM
5 47 48 9 10 49
ATOM$RED        STATIC     ATOMS    COLORGROUP SYSTEM
3 24 34 46
