AV-unprocessed.smi:1286|AV-procd|sdf|5375|dock8
  -GOLD-   22720 4523D 1   1.00000     0.00000
 Structure written by MMmdl.
 36 37  0  0  0  0  0  0  0  0  1 V2000
  152.7878  138.9648  154.8153 C   0  0  0  0  0  0  0  0  0  0  0  0
  151.6019  138.5061  155.6746 C   0  0  2  0  0  0  0  0  0  0  0  0
  150.3628  138.1983  154.8084 C   0  0  0  0  0  0  0  0  0  0  0  0
  149.5088  139.3573  154.6137 N   0  0  0  0  0  0  0  0  0  0  0  0
  148.1743  139.3881  154.2668 C   0  0  0  0  0  0  0  0  0  0  0  0
  147.8021  140.6999  154.1993 C   0  0  0  0  0  0  0  0  0  0  0  0
  148.9933  141.4060  154.5269 C   0  0  0  0  0  0  0  0  0  0  0  0
  150.0112  140.5998  154.7807 N   0  0  0  0  0  0  0  0  0  0  0  0
  151.2892  139.5445  156.6559 N   0  0  0  0  0  0  0  0  0  0  0  0
  152.0780  139.9306  157.6714 C   0  0  0  0  0  0  0  0  0  0  0  0
  153.2083  139.4824  157.8629 O   0  0  0  0  0  0  0  0  0  0  0  0
  151.4884  140.9764  158.6254 C   0  0  0  0  0  0  0  0  0  0  0  0
  152.5366  141.9408  159.2255 C   0  0  2  0  0  0  0  0  0  0  0  0
  153.4474  141.2945  160.2416 C   0  0  0  0  0  0  0  0  0  0  0  0
  153.4666  141.9425  161.4037 C   0  0  0  0  0  0  0  0  0  0  0  0
  152.5747  143.1525  161.4020 C   0  0  0  0  0  0  0  0  0  0  0  0
  151.9022  143.1176  160.0111 C   0  0  0  0  0  0  0  0  0  0  0  0
  153.0598  138.2021  154.0850 H   0  0  0  0  0  0  0  0  0  0  0  0
  153.6669  139.1585  155.4306 H   0  0  0  0  0  0  0  0  0  0  0  0
  152.5539  139.8795  154.2693 H   0  0  0  0  0  0  0  0  0  0  0  0
  151.9059  137.5868  156.1784 H   0  0  0  0  0  0  0  0  0  0  0  0
  150.6660  137.8221  153.8303 H   0  0  0  0  0  0  0  0  0  0  0  0
  149.7652  137.4121  155.2720 H   0  0  0  0  0  0  0  0  0  0  0  0
  147.6084  138.4845  154.0948 H   0  0  0  0  0  0  0  0  0  0  0  0
  146.8286  141.0950  153.9500 H   0  0  0  0  0  0  0  0  0  0  0  0
  149.1473  142.4730  154.5894 H   0  0  0  0  0  0  0  0  0  0  0  0
  150.3803  139.9773  156.5794 H   0  0  0  0  0  0  0  0  0  0  0  0
  150.7366  141.5469  158.0792 H   0  0  0  0  0  0  0  0  0  0  0  0
  150.9614  140.4654  159.4330 H   0  0  0  0  0  0  0  0  0  0  0  0
  153.1667  142.3399  158.4292 H   0  0  0  0  0  0  0  0  0  0  0  0
  154.0266  140.4113  160.0168 H   0  0  0  0  0  0  0  0  0  0  0  0
  154.0570  141.6622  162.2637 H   0  0  0  0  0  0  0  0  0  0  0  0
  151.8437  143.0915  162.2087 H   0  0  0  0  0  0  0  0  0  0  0  0
  153.1721  144.0546  161.5389 H   0  0  0  0  0  0  0  0  0  0  0  0
  152.0420  144.0614  159.4830 H   0  0  0  0  0  0  0  0  0  0  0  0
  150.8268  142.9770  160.1269 H   0  0  0  0  0  0  0  0  0  0  0  0
  1  2  1  0  0  0  0
  1 18  1  0  0  0  0
  1 19  1  0  0  0  0
  1 20  1  0  0  0  0
  2  3  1  0  0  0  0
  2  9  1  0  0  0  0
  2 21  1  0  0  0  0
  3  4  1  0  0  0  0
  3 22  1  0  0  0  0
  3 23  1  0  0  0  0
  4  8  1  0  0  0  0
  4  5  1  0  0  0  0
  5  6  2  0  0  0  0
  5 24  1  0  0  0  0
  6  7  1  0  0  0  0
  6 25  1  0  0  0  0
  7  8  2  0  0  0  0
  7 26  1  0  0  0  0
  9 10  1  0  0  0  0
  9 27  1  0  0  0  0
 10 11  2  0  0  0  0
 10 12  1  0  0  0  0
 12 13  1  0  0  0  0
 12 28  1  0  0  0  0
 12 29  1  0  0  0  0
 13 17  1  0  0  0  0
 13 14  1  0  0  0  0
 13 30  1  0  0  0  0
 14 15  2  0  0  0  0
 14 31  1  0  0  0  0
 15 16  1  0  0  0  0
 15 32  1  0  0  0  0
 16 17  1  0  0  0  0
 16 33  1  0  0  0  0
 16 34  1  0  0  0  0
 17 35  1  0  0  0  0
 17 36  1  0  0  0  0
M  END
> <s_m_source_file>
AV-unprocessed.smi

> <i_m_source_file_index>
1286

> <i_lp_mmshare_version>
43012

> <i_f3d_flags>
0

> <s_epik_input>
bjFbY0hdW2NIXVtjSF1uMVtDSDJdW0NAQEhdKFtDSDNdKVtOSF1DKD1PKVtDSDJdW0NAQEhdMltDSF09W0NIXVtDSDJdW0NIMl0y

> <s_epik_cmdline>
J2VwaWtfcHl0aG9uJywgJy1waCcsICc3LjAnLCAnLXRuJywgJzgnLCAnLW1hJywgJzIwMCcsICctbWV0YWxfYmluZGluZycsICctaW1hZScsICc8aW5maWxlLm1hZT4nLCAnLW9tYWUnLCAnPG91dGZpbGUubWFlPic=

> <r_lp_tautomer_probability>
1

> <r_epik_Ionization_Penalty>
0.000301761

> <r_epik_Ionization_Penalty_Charging>
0

> <r_epik_Ionization_Penalty_Neutral>
0.000301761

> <r_epik_State_Penalty>
-0

> <r_epik_Charging_Adjusted_Penalty>
0

> <i_epik_Tot_Q>
0

> <i_epik_Tot_abs_Q>
0

> <r_epik_Metal_State_Penalty>
-0

> <b_epik_Metal_Only>
0

> <s_lp_Force_Field>
OPLS_2005

> <r_lp_Energy>
16.2222

> <b_lp_Chiralities_Consistent>
1

> <s_lp_Variant>
AV-unprocessed.smi:1286-1

> <Gold.Version>
5.8.1

> <Gold.Id.Protein>
6NUR|6NUR_protein|mol2

> <Gold.PLP.Fitness>
46.2039

> <Gold.PLP.PLP>
-40.8878

> <Gold.PLP.part.hbond>
-2.0000

> <Gold.PLP.part.metal>
0.0000

> <Gold.PLP.part.buried>
-2.3060

> <Gold.PLP.part.nonpolar>
-36.3136

> <Gold.PLP.part.repulsive>
0.1968

> <Gold.PLP.ligand.clash>
0.0000

> <Gold.PLP.ligand.torsion>
1.1360

> <Gold.PLP.Chemscore.Hbond>
1.5200

> <Gold.PLP.Chemscore.CHOScore>
1.0000

> <Gold.PLP.Chemscore.Metal>
0.0000

> <Gold.Chemscore.Hbonds>
donor molecule, donor type, donor heavy atom, donor atom, acceptor molecule, acceptor atom, score
      P1  H  7989  7998       L1     8  0.77
      P1  H  7997  8008       L1    11  0.67
      L1  C     7    26       P1  8028  1.00

> <Gold.PLP.Chemscore.Internal.Correction>
0.0282

> <Gold.Rescore>
     Score         DG    S(hbond)    S(metal)    S(lipo)     H(rot)  DE(clash)    DE(int)     intcor
     18.08     -19.33       1.77        0.00     103.85       1.64       0.01       1.24       ----

> <Gold.Chemscore.Fitness>
18.0785

> <Gold.Chemscore.DG>
-19.3336

> <Gold.Chemscore.ZeroCoef>
-5.4800

> <Gold.Chemscore.Hbond>
1.7666

> <Gold.Chemscore.Metal>
0.0000

> <Gold.Chemscore.Lipo>
103.8462

> <Gold.Chemscore.Internal_Hbond>
0.0000

> <Gold.Chemscore.DEClash>
0.0106

> <Gold.Chemscore.DEInternal>
1.2444

> <Gold.Chemscore.Rot>
1.6394

> <Gold.Chemscore.Internal.Correction>
   9.000000E+99

> <Gold.Chemscore.Hbonds>
donor molecule, donor type, donor heavy atom, donor atom, acceptor molecule, acceptor atom, score
      P1  H  7989  7998       L1     8  0.46
      P1  H  7997  8008       L1    11  0.66

> <Gold.Chemscore.Hbond.Weighted>
-5.9005

> <Gold.Chemscore.Metal.Weighted>
-0.0000

> <Gold.Chemscore.Lipo.Weighted>
-12.1500

> <Gold.Chemscore.Internal_Hbond.Weighted>
0.0000

> <Gold.Chemscore.DEClash.Weighted>
0.0106

> <Gold.Chemscore.DEInternal.Weighted>
1.2444

> <Gold.Chemscore.Rot.Weighted>
4.1969

> <Gold.Chemscore.Internal.Correction.Weighted>
   9.000000E+99

> <Gold.Protein.RotatedTorsions>
[ 6907 6896 6895 6894 ] final  -51.56 input  -60.11 | X-H torsion
[ 7974 7965 7964 7962 ] final   13.02 input  175.53 | X-H torsion
[ 8008 7997 7996 7995 ] final -112.27 input   59.86 | X-H torsion
[ 10167 10162 10161 10158 ] final   91.68 input  -65.29 | X-H torsion
[ 10718 10713 10712 10709 ] final -166.39 input   66.30 | X-H torsion
[ 10763 10752 10751 10750 ] final  -54.01 input  -60.55 | X-H torsion
[ 11005 11000 10999 10996 ] final -128.46 input  -57.11 | X-H torsion

> <Gold.Protein.ActiveResidues>
 VAL166  LYS551  ARG553  GLY616  TRP617  ASP618  TYR619  PRO620  LYS621  CYS622 
 ASP623  PHE694  ASN695  SER759  ASP760  ASP761  ALA762  ILE779  LEU786  VAL792 
 PHE793  MET794  SER795  GLU796  ALA797  LYS798  CYS799  TRP800  GLU811  SER814 

> <Gold.Protein.RotatedAtoms>
  150.8600  134.7949  159.7075 H   0  0  0  0  0  0  0  0  0  0  0  0  # atno 6907 bound_to 6896
  152.4640  134.5115  159.9765 H   0  0  0  0  0  0  0  0  0  0  0  0  # atno 6908 bound_to 6896
  151.5221  133.3426  159.2939 H   0  0  0  0  0  0  0  0  0  0  0  0  # atno 6909 bound_to 6896
  146.2338  139.9250  142.8504 H   0  0  0  0  0  0  0  0  0  0  0  0  # atno 7974 bound_to 7965
  155.0027  140.0394  157.2366 H   0  0  0  0  0  0  0  0  0  0  0  0  # atno 8008 bound_to 7997
  154.7530  140.2770  155.6254 H   0  0  0  0  0  0  0  0  0  0  0  0  # atno 8009 bound_to 7997
  156.2889  140.2643  156.2288 H   0  0  0  0  0  0  0  0  0  0  0  0  # atno 8010 bound_to 7997
  139.8350  144.6669  150.9353 H   0  0  0  0  0  0  0  0  0  0  0  0  # atno 10167 bound_to 10162
  156.6671  130.9069  151.3038 H   0  0  0  0  0  0  0  0  0  0  0  0  # atno 10718 bound_to 10713
  154.1680  135.6464  153.5002 H   0  0  0  0  0  0  0  0  0  0  0  0  # atno 10763 bound_to 10752
  153.0092  135.5376  154.6642 H   0  0  0  0  0  0  0  0  0  0  0  0  # atno 10764 bound_to 10752
  154.5974  135.2940  155.0544 H   0  0  0  0  0  0  0  0  0  0  0  0  # atno 10765 bound_to 10752
  140.9514  134.1060  157.4058 H   0  0  0  0  0  0  0  0  0  0  0  0  # atno 11005 bound_to 11000
  145.2100  140.9891  143.4106 LP  0  0  0  0  0  0  0  0  0  0  0  0  # atno 17320 bound_to 7965
  144.9700  139.3890  143.6314 LP  0  0  0  0  0  0  0  0  0  0  0  0  # atno 17321 bound_to 7965
  140.7803  143.3965  151.1221 LP  0  0  0  0  0  0  0  0  0  0  0  0  # atno 17342 bound_to 10162
  139.7616  143.8627  152.3101 LP  0  0  0  0  0  0  0  0  0  0  0  0  # atno 17343 bound_to 10162
  157.7090  130.9418  150.1025 LP  0  0  0  0  0  0  0  0  0  0  0  0  # atno 17370 bound_to 10713
  156.1967  130.3658  149.8841 LP  0  0  0  0  0  0  0  0  0  0  0  0  # atno 17371 bound_to 10713
  139.8848  135.0067  156.6397 LP  0  0  0  0  0  0  0  0  0  0  0  0  # atno 17394 bound_to 11000
  140.7597  133.8828  155.8409 LP  0  0  0  0  0  0  0  0  0  0  0  0  # atno 17395 bound_to 11000

$$$$
