AV-unprocessed.smi:2714|AV-procd|sdf|10480|dock5
  -GOLD-   2272014523D 1   1.00000     0.00000
 Structure written by MMmdl.
 46 47  0  0  0  0  0  0  0  0  1 V2000
  146.0122  131.9929  151.8627 C   0  0  0  0  0  0  0  0  0  0  0  0
  146.9756  132.2195  153.0327 C   0  0  0  0  0  0  0  0  0  0  0  0
  148.1949  133.0710  152.6343 C   0  0  0  0  0  0  0  0  0  0  0  0
  149.3252  133.0922  153.6867 C   0  0  2  0  0  0  0  0  0  0  0  0
  149.5538  131.6896  154.2762 C   0  0  0  0  0  0  0  0  0  0  0  0
  149.0425  134.0982  154.8124 C   0  0  0  0  0  0  0  0  0  0  0  0
  148.9294  133.7139  155.9769 O   0  0  0  0  0  0  0  0  0  0  0  0
  148.9420  135.3855  154.4499 N   0  0  0  0  0  0  0  0  0  0  0  0
  148.7601  136.5052  155.3671 C   0  0  0  0  0  0  0  0  0  0  0  0
  148.2349  137.7673  154.6902 C   0  0  0  0  0  0  0  0  0  0  0  0
  146.9830  137.7367  154.0397 C   0  0  0  0  0  0  0  0  0  0  0  0
  146.5022  138.9046  153.4202 C   0  0  0  0  0  0  0  0  0  0  0  0
  147.2965  140.0646  153.4746 C   0  0  0  0  0  0  0  0  0  0  0  0
  148.4967  140.1104  154.0892 N   0  0  0  0  0  0  0  0  0  0  0  0
  148.9617  138.9867  154.6872 C   0  0  0  0  0  0  0  0  0  0  0  0
  150.2128  139.0652  155.3185 N   0  0  0  0  0  0  0  0  0  0  0  0
  151.2486  138.2481  154.7024 C   0  0  0  0  0  0  0  0  0  0  0  0
  152.5157  138.2728  155.5750 C   0  0  0  0  0  0  0  0  0  0  0  0
  152.9297  139.6211  155.7834 O   0  0  0  0  0  0  0  0  0  0  0  0
  151.9329  140.3945  156.4467 C   0  0  0  0  0  0  0  0  0  0  0  0
  150.6548  140.4262  155.5922 C   0  0  0  0  0  0  0  0  0  0  0  0
  145.1614  131.3860  152.1721 H   0  0  0  0  0  0  0  0  0  0  0  0
  146.5075  131.4775  151.0395 H   0  0  0  0  0  0  0  0  0  0  0  0
  145.6248  132.9384  151.4820 H   0  0  0  0  0  0  0  0  0  0  0  0
  146.4396  132.7067  153.8479 H   0  0  0  0  0  0  0  0  0  0  0  0
  147.3007  131.2505  153.4125 H   0  0  0  0  0  0  0  0  0  0  0  0
  148.5854  132.7222  151.6770 H   0  0  0  0  0  0  0  0  0  0  0  0
  147.8596  134.0946  152.4623 H   0  0  0  0  0  0  0  0  0  0  0  0
  150.2496  133.3872  153.1865 H   0  0  0  0  0  0  0  0  0  0  0  0
  150.3387  131.6975  155.0333 H   0  0  0  0  0  0  0  0  0  0  0  0
  149.8583  130.9861  153.5010 H   0  0  0  0  0  0  0  0  0  0  0  0
  148.6480  131.2966  154.7403 H   0  0  0  0  0  0  0  0  0  0  0  0
  149.0413  135.6116  153.4709 H   0  0  0  0  0  0  0  0  0  0  0  0
  148.0489  136.2049  156.1370 H   0  0  0  0  0  0  0  0  0  0  0  0
  149.6987  136.7121  155.8840 H   0  0  0  0  0  0  0  0  0  0  0  0
  146.3941  136.8315  154.0173 H   0  0  0  0  0  0  0  0  0  0  0  0
  145.5467  138.9112  152.9171 H   0  0  0  0  0  0  0  0  0  0  0  0
  146.9596  140.9804  153.0121 H   0  0  0  0  0  0  0  0  0  0  0  0
  150.8918  137.2240  154.5854 H   0  0  0  0  0  0  0  0  0  0  0  0
  151.4751  138.6300  153.7061 H   0  0  0  0  0  0  0  0  0  0  0  0
  152.3348  137.7863  156.5349 H   0  0  0  0  0  0  0  0  0  0  0  0
  153.3207  137.7244  155.0857 H   0  0  0  0  0  0  0  0  0  0  0  0
  151.7297  139.9772  157.4344 H   0  0  0  0  0  0  0  0  0  0  0  0
  152.3092  141.4059  156.5992 H   0  0  0  0  0  0  0  0  0  0  0  0
  150.8475  140.9482  154.6539 H   0  0  0  0  0  0  0  0  0  0  0  0
  149.8682  140.9739  156.1117 H   0  0  0  0  0  0  0  0  0  0  0  0
  1  2  1  0  0  0  0
  1 22  1  0  0  0  0
  1 23  1  0  0  0  0
  1 24  1  0  0  0  0
  2  3  1  0  0  0  0
  2 25  1  0  0  0  0
  2 26  1  0  0  0  0
  3  4  1  0  0  0  0
  3 27  1  0  0  0  0
  3 28  1  0  0  0  0
  4  5  1  0  0  0  0
  4  6  1  0  0  0  0
  4 29  1  0  0  0  0
  5 30  1  0  0  0  0
  5 31  1  0  0  0  0
  5 32  1  0  0  0  0
  6  7  2  0  0  0  0
  6  8  1  0  0  0  0
  8  9  1  0  0  0  0
  8 33  1  0  0  0  0
  9 10  1  0  0  0  0
  9 34  1  0  0  0  0
  9 35  1  0  0  0  0
 10 15  1  0  0  0  0
 10 11  2  0  0  0  0
 11 12  1  0  0  0  0
 11 36  1  0  0  0  0
 12 13  2  0  0  0  0
 12 37  1  0  0  0  0
 13 14  1  0  0  0  0
 13 38  1  0  0  0  0
 14 15  2  0  0  0  0
 15 16  1  0  0  0  0
 16 21  1  0  0  0  0
 16 17  1  0  0  0  0
 17 18  1  0  0  0  0
 17 39  1  0  0  0  0
 17 40  1  0  0  0  0
 18 19  1  0  0  0  0
 18 41  1  0  0  0  0
 18 42  1  0  0  0  0
 19 20  1  0  0  0  0
 20 21  1  0  0  0  0
 20 43  1  0  0  0  0
 20 44  1  0  0  0  0
 21 45  1  0  0  0  0
 21 46  1  0  0  0  0
M  END
> <s_m_source_file>
AV-unprocessed.smi

> <i_m_source_file_index>
2714

> <i_lp_mmshare_version>
43012

> <i_f3d_flags>
0

> <s_epik_input>
W0NIM11bQ0gyXVtDSDJdW0NASF0oW0NIM10pQyg9TylbTkhdW0NIMl1jMVtjSF1bY0hdW2NIXW5jMU4yW0NIMl1bQ0gyXU9bQ0gyXVtDSDJdMg==

> <s_epik_cmdline>
J2VwaWtfcHl0aG9uJywgJy1waCcsICc3LjAnLCAnLXRuJywgJzgnLCAnLW1hJywgJzIwMCcsICctbWV0YWxfYmluZGluZycsICctaW1hZScsICc8aW5maWxlLm1hZT4nLCAnLW9tYWUnLCAnPG91dGZpbGUubWFlPic=

> <r_lp_tautomer_probability>
1

> <r_epik_Ionization_Penalty>
0.00517355

> <r_epik_Ionization_Penalty_Charging>
0

> <r_epik_Ionization_Penalty_Neutral>
0.00517355

> <r_epik_State_Penalty>
0.00376978

> <r_epik_Charging_Adjusted_Penalty>
0.00376978

> <i_epik_Tot_Q>
0

> <i_epik_Tot_abs_Q>
0

> <r_epik_Metal_State_Penalty>
-0

> <b_epik_Metal_Only>
0

> <s_lp_Force_Field>
OPLS_2005

> <r_lp_Energy>
18.1949

> <b_lp_Chiralities_Consistent>
1

> <s_lp_Variant>
AV-unprocessed.smi:2714-1

> <Gold.Version>
5.8.1

> <Gold.Id.Protein>
6NUR|6NUR_protein|mol2

> <Gold.PLP.Fitness>
37.8363

> <Gold.PLP.PLP>
-32.9099

> <Gold.PLP.part.hbond>
-2.0000

> <Gold.PLP.part.metal>
0.0000

> <Gold.PLP.part.buried>
-4.5962

> <Gold.PLP.part.nonpolar>
-27.5987

> <Gold.PLP.part.repulsive>
0.1899

> <Gold.PLP.ligand.clash>
0.0000

> <Gold.PLP.ligand.torsion>
0.6424

> <Gold.PLP.Chemscore.Hbond>
2.0000

> <Gold.PLP.Chemscore.CHOScore>
0.0000

> <Gold.PLP.Chemscore.Metal>
0.0000

> <Gold.Chemscore.Hbonds>
donor molecule, donor type, donor heavy atom, donor atom, acceptor molecule, acceptor atom, score
      L1  H     8    33       P1  7948  1.00
      P1  H  7997  8010       L1    19  1.00

> <Gold.PLP.Chemscore.Internal.Correction>
0.2112

> <Gold.Rescore>
     Score         DG    S(hbond)    S(metal)    S(lipo)     H(rot)  DE(clash)    DE(int)     intcor
     16.04     -16.52       1.95        0.00      76.32       1.72       0.05       0.43       ----

> <Gold.Chemscore.Fitness>
16.0362

> <Gold.Chemscore.DG>
-16.5196

> <Gold.Chemscore.ZeroCoef>
-5.4800

> <Gold.Chemscore.Hbond>
1.9495

> <Gold.Chemscore.Metal>
0.0000

> <Gold.Chemscore.Lipo>
76.3187

> <Gold.Chemscore.Internal_Hbond>
0.0000

> <Gold.Chemscore.DEClash>
0.0504

> <Gold.Chemscore.DEInternal>
0.4329

> <Gold.Chemscore.Rot>
1.7192

> <Gold.Chemscore.Internal.Correction>
   9.000000E+99

> <Gold.Chemscore.Hbonds>
donor molecule, donor type, donor heavy atom, donor atom, acceptor molecule, acceptor atom, score
      L1  H     8    33       P1  7948  0.74
      P1  H  7997  8010       L1    19  0.54

> <Gold.Chemscore.Hbond.Weighted>
-6.5114

> <Gold.Chemscore.Metal.Weighted>
-0.0000

> <Gold.Chemscore.Lipo.Weighted>
-8.9293

> <Gold.Chemscore.Internal_Hbond.Weighted>
0.0000

> <Gold.Chemscore.DEClash.Weighted>
0.0504

> <Gold.Chemscore.DEInternal.Weighted>
0.4329

> <Gold.Chemscore.Rot.Weighted>
4.4011

> <Gold.Chemscore.Internal.Correction.Weighted>
   9.000000E+99

> <Gold.Protein.RotatedTorsions>
[ 6907 6896 6895 6894 ] final  -96.37 input  -60.11 | X-H torsion
[ 7974 7965 7964 7962 ] final   38.59 input  175.53 | X-H torsion
[ 8008 7997 7996 7995 ] final   73.03 input   59.86 | X-H torsion
[ 10167 10162 10161 10158 ] final  -26.82 input  -65.29 | X-H torsion
[ 10718 10713 10712 10709 ] final  -78.75 input   66.30 | X-H torsion
[ 10763 10752 10751 10750 ] final   22.18 input  -60.55 | X-H torsion
[ 11005 11000 10999 10996 ] final  153.49 input  -57.11 | X-H torsion

> <Gold.Protein.ActiveResidues>
 VAL166  LYS551  ARG553  GLY616  TRP617  ASP618  TYR619  PRO620  LYS621  CYS622 
 ASP623  PHE694  ASN695  SER759  ASP760  ASP761  ALA762  ILE779  LEU786  VAL792 
 PHE793  MET794  SER795  GLU796  ALA797  LYS798  CYS799  TRP800  GLU811  SER814 

> <Gold.Protein.RotatedAtoms>
  150.6987  134.1513  159.4141 H   0  0  0  0  0  0  0  0  0  0  0  0  # atno 6907 bound_to 6896
  151.9495  135.0173  160.0550 H   0  0  0  0  0  0  0  0  0  0  0  0  # atno 6908 bound_to 6896
  152.2023  133.4815  159.5102 H   0  0  0  0  0  0  0  0  0  0  0  0  # atno 6909 bound_to 6896
  146.1050  139.5754  142.9389 H   0  0  0  0  0  0  0  0  0  0  0  0  # atno 7974 bound_to 7965
  155.7776  140.3483  155.5280 H   0  0  0  0  0  0  0  0  0  0  0  0  # atno 8008 bound_to 7997
  155.8760  140.0994  157.1538 H   0  0  0  0  0  0  0  0  0  0  0  0  # atno 8009 bound_to 7997
  154.4021  140.1331  156.4124 H   0  0  0  0  0  0  0  0  0  0  0  0  # atno 8010 bound_to 7997
  140.7281  143.4145  151.1050 H   0  0  0  0  0  0  0  0  0  0  0  0  # atno 10167 bound_to 10162
  156.0109  130.4526  150.3543 H   0  0  0  0  0  0  0  0  0  0  0  0  # atno 10718 bound_to 10713
  153.0936  135.6653  153.9807 H   0  0  0  0  0  0  0  0  0  0  0  0  # atno 10763 bound_to 10752
  153.9397  135.2995  155.3444 H   0  0  0  0  0  0  0  0  0  0  0  0  # atno 10764 bound_to 10752
  154.7352  135.5104  153.9104 H   0  0  0  0  0  0  0  0  0  0  0  0  # atno 10765 bound_to 10752
  140.1402  134.8744  157.2321 H   0  0  0  0  0  0  0  0  0  0  0  0  # atno 11005 bound_to 11000
  145.5778  141.0386  143.2138 LP  0  0  0  0  0  0  0  0  0  0  0  0  # atno 17320 bound_to 7965
  144.7463  139.7310  143.7291 LP  0  0  0  0  0  0  0  0  0  0  0  0  # atno 17321 bound_to 7965
  139.7783  143.8392  152.3133 LP  0  0  0  0  0  0  0  0  0  0  0  0  # atno 17342 bound_to 10162
  139.8335  144.7243  150.9421 LP  0  0  0  0  0  0  0  0  0  0  0  0  # atno 17343 bound_to 10162
  157.1635  131.0351  151.2830 LP  0  0  0  0  0  0  0  0  0  0  0  0  # atno 17370 bound_to 10713
  157.4291  130.7480  149.6975 LP  0  0  0  0  0  0  0  0  0  0  0  0  # atno 17371 bound_to 10713
  140.2731  134.3437  155.7367 LP  0  0  0  0  0  0  0  0  0  0  0  0  # atno 17394 bound_to 11000
  141.2185  133.7435  156.9252 LP  0  0  0  0  0  0  0  0  0  0  0  0  # atno 17395 bound_to 11000

$$$$
