AV-unprocessed.smi:317|AV-procd|sdf|2329|dock3
  -GOLD-   2262022233D 1   1.00000     0.00000
 Structure written by MMmdl.
 40 41  0  0  0  0  0  0  0  0  2 V2000
  140.7107  140.5968  155.1142 C   0  0  0  0  0  0  0  0  0  0  0  0
  140.9606  139.0781  155.0832 C   0  0  1  0  0  0  0  0  0  0  0  0
  139.7352  138.2638  154.6275 C   0  0  0  0  0  0  0  0  0  0  0  0
  139.2741  138.6823  153.3585 O   0  0  0  0  0  0  0  0  0  0  0  0
  142.1164  138.7425  154.2549 N   0  0  0  0  0  0  0  0  0  0  0  0
  142.4624  137.5089  153.8612 C   0  0  0  0  0  0  0  0  0  0  0  0
  141.8309  136.4951  154.1584 O   0  0  0  0  0  0  0  0  0  0  0  0
  143.5872  137.5333  153.1267 N   0  0  0  0  0  0  0  0  0  0  0  0
  144.3003  136.4358  152.5648 C   0  0  0  0  0  0  0  0  0  0  0  0
  143.6562  135.2071  152.2664 C   0  0  0  0  0  0  0  0  0  0  0  0
  144.3969  134.1362  151.7316 C   0  0  0  0  0  0  0  0  0  0  0  0
  145.7716  134.3097  151.4978 C   0  0  0  0  0  0  0  0  0  0  0  0
  146.3516  135.4959  151.7730 N   0  3  0  0  0  0  0  0  0  0  0  0
  145.6897  136.5686  152.2752 C   0  0  0  0  0  0  0  0  0  0  0  0
  146.4266  137.7536  152.4998 N   0  0  0  0  0  0  0  0  0  0  0  0
  146.2962  138.8868  151.5913 C   0  0  0  0  0  0  0  0  0  0  0  0
  146.9366  140.0590  152.3289 C   0  0  0  0  0  0  0  0  0  0  0  0
  146.5653  139.7742  153.7813 C   0  0  0  0  0  0  0  0  0  0  0  0
  146.5716  138.2437  153.8670 C   0  0  0  0  0  0  0  0  0  0  0  0
  139.8446  140.8368  155.7314 H   0  0  0  0  0  0  0  0  0  0  0  0
  140.5295  140.9960  154.1159 H   0  0  0  0  0  0  0  0  0  0  0  0
  141.5660  141.1293  155.5313 H   0  0  0  0  0  0  0  0  0  0  0  0
  141.1806  138.7588  156.1036 H   0  0  0  0  0  0  0  0  0  0  0  0
  139.9657  137.1983  154.5958 H   0  0  0  0  0  0  0  0  0  0  0  0
  138.9203  138.3893  155.3411 H   0  0  0  0  0  0  0  0  0  0  0  0
  139.9870  139.1052  152.9042 H   0  0  0  0  0  0  0  0  0  0  0  0
  142.6991  139.5159  153.9694 H   0  0  0  0  0  0  0  0  0  0  0  0
  144.0406  138.4316  153.0478 H   0  0  0  0  0  0  0  0  0  0  0  0
  142.5990  135.0680  152.4335 H   0  0  0  0  0  0  0  0  0  0  0  0
  143.9161  133.1955  151.5057 H   0  0  0  0  0  0  0  0  0  0  0  0
  146.4192  133.5452  151.0937 H   0  0  0  0  0  0  0  0  0  0  0  0
  146.7868  138.6921  150.6372 H   0  0  0  0  0  0  0  0  0  0  0  0
  145.2447  139.1053  151.4004 H   0  0  0  0  0  0  0  0  0  0  0  0
  148.0205  140.0298  152.2086 H   0  0  0  0  0  0  0  0  0  0  0  0
  146.5812  141.0283  151.9779 H   0  0  0  0  0  0  0  0  0  0  0  0
  147.2457  140.2410  154.4942 H   0  0  0  0  0  0  0  0  0  0  0  0
  145.5606  140.1496  153.9810 H   0  0  0  0  0  0  0  0  0  0  0  0
  145.7764  137.8805  154.5199 H   0  0  0  0  0  0  0  0  0  0  0  0
  147.5255  137.8980  154.2667 H   0  0  0  0  0  0  0  0  0  0  0  0
  147.3490  135.5941  151.5826 H   0  0  0  0  0  0  0  0  0  0  0  0
  1  2  1  0  0  0  0
  1 20  1  0  0  0  0
  1 21  1  0  0  0  0
  1 22  1  0  0  0  0
  2  3  1  0  0  0  0
  2  5  1  0  0  0  0
  2 23  1  0  0  0  0
  3  4  1  0  0  0  0
  3 24  1  0  0  0  0
  3 25  1  0  0  0  0
  4 26  1  0  0  0  0
  5  6  1  0  0  0  0
  5 27  1  0  0  0  0
  6  7  2  0  0  0  0
  6  8  1  0  0  0  0
  8  9  1  0  0  0  0
  8 28  1  0  0  0  0
  9 14  1  0  0  0  0
  9 10  2  0  0  0  0
 10 11  1  0  0  0  0
 10 29  1  0  0  0  0
 11 12  2  0  0  0  0
 11 30  1  0  0  0  0
 12 13  1  0  0  0  0
 12 31  1  0  0  0  0
 13 14  2  0  0  0  0
 13 40  1  0  0  0  0
 14 15  1  0  0  0  0
 15 19  1  0  0  0  0
 15 16  1  0  0  0  0
 16 17  1  0  0  0  0
 16 32  1  0  0  0  0
 16 33  1  0  0  0  0
 17 18  1  0  0  0  0
 17 34  1  0  0  0  0
 17 35  1  0  0  0  0
 18 19  1  0  0  0  0
 18 36  1  0  0  0  0
 18 37  1  0  0  0  0
 19 38  1  0  0  0  0
 19 39  1  0  0  0  0
M  CHG  1  13   1
M  END
> <s_m_source_file>
AV-unprocessed.smi

> <i_m_source_file_index>
317

> <i_lp_mmshare_version>
43012

> <i_f3d_flags>
0

> <s_epik_input>
W09IXVtDSDJdW0NAQEhdKFtDSDNdKVtOSF1DKD1PKVtOSF1jMVtjSF1bY0hdW2NIXW5jMU4yW0NIMl1bQ0gyXVtDSDJdW0NIMl0y

> <s_epik_cmdline>
J2VwaWtfcHl0aG9uJywgJy1waCcsICc3LjAnLCAnLXRuJywgJzgnLCAnLW1hJywgJzIwMCcsICctbWV0YWxfYmluZGluZycsICctaW1hZScsICc8aW5maWxlLm1hZT4nLCAnLW9tYWUnLCAnPG91dGZpbGUubWFlPic=

> <r_lp_tautomer_probability>
0.999994

> <r_epik_Ionization_Penalty>
1.11558

> <r_epik_Ionization_Penalty_Charging>
1.11556

> <r_epik_Ionization_Penalty_Neutral>
2.02999e-05

> <r_epik_State_Penalty>
1.17393

> <r_epik_Charging_Adjusted_Penalty>
2.28949

> <i_epik_Tot_Q>
1

> <i_epik_Tot_abs_Q>
1

> <r_epik_Metal_State_Penalty>
1.25924

> <b_epik_Metal_Only>
0

> <s_lp_Force_Field>
OPLS_2005

> <r_lp_Energy>
42.0309

> <b_lp_Chiralities_Consistent>
1

> <s_lp_Variant>
AV-unprocessed.smi:317-4

> <Gold.Version>
5.8.1

> <Gold.Id.Protein>
6NUR|6NUR_protein|mol2

> <Gold.PLP.Fitness>
42.0140

> <Gold.PLP.PLP>
-29.2627

> <Gold.PLP.part.hbond>
-4.2517

> <Gold.PLP.part.metal>
0.0000

> <Gold.PLP.part.buried>
-2.6261

> <Gold.PLP.part.nonpolar>
-24.6320

> <Gold.PLP.part.repulsive>
1.4124

> <Gold.PLP.ligand.clash>
0.0000

> <Gold.PLP.ligand.torsion>
0.5548

> <Gold.PLP.Chemscore.Hbond>
4.4880

> <Gold.PLP.Chemscore.CHOScore>
0.0000

> <Gold.PLP.Chemscore.Metal>
0.0000

> <Gold.Chemscore.Hbonds>
donor molecule, donor type, donor heavy atom, donor atom, acceptor molecule, acceptor atom, score
      L1  H     5    27       P1 10175  0.94
      L1  H     8    28       P1 10175  0.62
      L1  H    13    40       P1  7948  2.00

> <Gold.PLP.Chemscore.Internal.Correction>
0.3969

> <Gold.Rescore>
     Score         DG    S(hbond)    S(metal)    S(lipo)     H(rot)  DE(clash)    DE(int)     intcor
     16.56     -19.62       3.81        0.00      58.24       2.11       0.24       2.82       ----

> <Gold.Chemscore.Fitness>
16.5613

> <Gold.Chemscore.DG>
-19.6186

> <Gold.Chemscore.ZeroCoef>
-5.4800

> <Gold.Chemscore.Hbond>
3.8101

> <Gold.Chemscore.Metal>
0.0000

> <Gold.Chemscore.Lipo>
58.2415

> <Gold.Chemscore.Internal_Hbond>
0.0000

> <Gold.Chemscore.DEClash>
0.2360

> <Gold.Chemscore.DEInternal>
2.8213

> <Gold.Chemscore.Rot>
2.1099

> <Gold.Chemscore.Internal.Correction>
   9.000000E+99

> <Gold.Chemscore.Hbonds>
donor molecule, donor type, donor heavy atom, donor atom, acceptor molecule, acceptor atom, score
      L1  H     4    26       P1 10160  0.01
      L1  H     5    27       P1 10175  0.91
      L1  H     8    28       P1 10175  0.61
      L1  H    13    40       P1  7948  0.98

> <Gold.Chemscore.Hbond.Weighted>
-12.7258

> <Gold.Chemscore.Metal.Weighted>
-0.0000

> <Gold.Chemscore.Lipo.Weighted>
-6.8143

> <Gold.Chemscore.Internal_Hbond.Weighted>
0.0000

> <Gold.Chemscore.DEClash.Weighted>
0.2360

> <Gold.Chemscore.DEInternal.Weighted>
2.8213

> <Gold.Chemscore.Rot.Weighted>
5.4015

> <Gold.Chemscore.Internal.Correction.Weighted>
   9.000000E+99

> <Gold.Protein.RotatedTorsions>
[ 6907 6896 6895 6894 ] final  -88.96 input  -60.11 | X-H torsion
[ 7974 7965 7964 7962 ] final   -2.88 input  175.53 | X-H torsion
[ 8008 7997 7996 7995 ] final  149.36 input   59.86 | X-H torsion
[ 10167 10162 10161 10158 ] final  176.67 input  -65.29 | X-H torsion
[ 10718 10713 10712 10709 ] final -145.19 input   66.30 | X-H torsion
[ 10763 10752 10751 10750 ] final  -15.51 input  -60.55 | X-H torsion
[ 11005 11000 10999 10996 ] final -116.68 input  -57.11 | X-H torsion

> <Gold.Protein.ActiveResidues>
 VAL166  LYS551  ARG553  GLY616  TRP617  ASP618  TYR619  PRO620  LYS621  CYS622 
 ASP623  PHE694  ASN695  SER759  ASP760  ASP761  ALA762  ILE779  LEU786  VAL792 
 PHE793  MET794  SER795  GLU796  ALA797  LYS798  CYS799  TRP800  GLU811  SER814 

> <Gold.Protein.RotatedAtoms>
  150.6871  134.2661  159.4568 H   0  0  0  0  0  0  0  0  0  0  0  0  # atno 6907 bound_to 6896
  152.0587  134.9605  160.0584 H   0  0  0  0  0  0  0  0  0  0  0  0  # atno 6908 bound_to 6896
  152.1041  133.4230  159.4637 H   0  0  0  0  0  0  0  0  0  0  0  0  # atno 6909 bound_to 6896
  146.2398  140.1637  142.8332 H   0  0  0  0  0  0  0  0  0  0  0  0  # atno 7974 bound_to 7965
  156.2757  140.2104  156.5846 H   0  0  0  0  0  0  0  0  0  0  0  0  # atno 8008 bound_to 7997
  154.7031  140.0519  157.0501 H   0  0  0  0  0  0  0  0  0  0  0  0  # atno 8009 bound_to 7997
  155.0708  140.3176  155.4634 H   0  0  0  0  0  0  0  0  0  0  0  0  # atno 8010 bound_to 7997
  139.5223  144.2888  152.0482 H   0  0  0  0  0  0  0  0  0  0  0  0  # atno 10167 bound_to 10162
  156.3793  130.7829  151.2019 H   0  0  0  0  0  0  0  0  0  0  0  0  # atno 10718 bound_to 10713
  153.5444  135.7012  153.5621 H   0  0  0  0  0  0  0  0  0  0  0  0  # atno 10763 bound_to 10752
  153.3573  135.3979  155.1691 H   0  0  0  0  0  0  0  0  0  0  0  0  # atno 10764 bound_to 10752
  154.8669  135.3780  154.4951 H   0  0  0  0  0  0  0  0  0  0  0  0  # atno 10765 bound_to 10752
  141.0406  133.9842  157.3001 H   0  0  0  0  0  0  0  0  0  0  0  0  # atno 11005 bound_to 11000
  145.0068  140.8680  143.5248 LP  0  0  0  0  0  0  0  0  0  0  0  0  # atno 17320 bound_to 7965
  145.1664  139.2429  143.5364 LP  0  0  0  0  0  0  0  0  0  0  0  0  # atno 17321 bound_to 7965
  140.2340  144.4339  150.6288 LP  0  0  0  0  0  0  0  0  0  0  0  0  # atno 17342 bound_to 10162
  140.6336  143.2191  151.6443 LP  0  0  0  0  0  0  0  0  0  0  0  0  # atno 17343 bound_to 10162
  157.7491  131.0349  150.4337 LP  0  0  0  0  0  0  0  0  0  0  0  0  # atno 17370 bound_to 10713
  156.4578  130.4025  149.6595 LP  0  0  0  0  0  0  0  0  0  0  0  0  # atno 17371 bound_to 10713
  139.9273  135.0201  156.8278 LP  0  0  0  0  0  0  0  0  0  0  0  0  # atno 17394 bound_to 11000
  140.6241  133.9966  155.7632 LP  0  0  0  0  0  0  0  0  0  0  0  0  # atno 17395 bound_to 11000

$$$$
