AV-unprocessed.smi:2700|AV-procd|sdf|10426|dock5
  -GOLD-   2272014463D 1   1.00000     0.00000
 Structure written by MMmdl.
 20 21  0  0  0  0  0  0  0  0  2 V2000
  153.0384  139.3299  156.3963 O   0  0  0  0  0  0  0  0  0  0  0  0
  151.9338  139.9119  156.3262 C   0  0  0  0  0  0  0  0  0  0  0  0
  151.2872  140.1256  155.2772 O   0  5  0  0  0  0  0  0  0  0  0  0
  151.3313  140.4277  157.6355 C   0  0  0  0  0  0  0  0  0  0  0  0
  151.7332  141.8150  158.0379 C   0  0  0  0  0  0  0  0  0  0  0  0
  152.7381  142.0326  159.0038 C   0  0  0  0  0  0  0  0  0  0  0  0
  153.0753  143.3530  159.3580 C   0  0  0  0  0  0  0  0  0  0  0  0
  152.3873  144.4098  158.7304 C   0  0  0  0  0  0  0  0  0  0  0  0
  151.4207  144.2195  157.8076 N   0  0  0  0  0  0  0  0  0  0  0  0
  151.1042  142.9482  157.4781 C   0  0  0  0  0  0  0  0  0  0  0  0
  149.9287  139.9388  157.9475 C   0  0  0  0  0  0  0  0  0  0  0  0
  151.1021  139.3772  158.7068 C   0  0  0  0  0  0  0  0  0  0  0  0
  153.2423  141.1980  159.4684 H   0  0  0  0  0  0  0  0  0  0  0  0
  153.8402  143.5502  160.0943 H   0  0  0  0  0  0  0  0  0  0  0  0
  152.6183  145.4352  158.9782 H   0  0  0  0  0  0  0  0  0  0  0  0
  150.3232  142.8304  156.7412 H   0  0  0  0  0  0  0  0  0  0  0  0
  149.2631  140.6085  158.4882 H   0  0  0  0  0  0  0  0  0  0  0  0
  149.4391  139.2681  157.2436 H   0  0  0  0  0  0  0  0  0  0  0  0
  151.3698  138.3439  158.4929 H   0  0  0  0  0  0  0  0  0  0  0  0
  151.2110  139.6777  159.7468 H   0  0  0  0  0  0  0  0  0  0  0  0
  1  2  2  0  0  0  0
  2  3  1  0  0  0  0
  2  4  1  0  0  0  0
  4 12  1  0  0  0  0
  4  5  1  0  0  0  0
  4 11  1  0  0  0  0
  5 10  1  0  0  0  0
  5  6  2  0  0  0  0
  6  7  1  0  0  0  0
  6 13  1  0  0  0  0
  7  8  2  0  0  0  0
  7 14  1  0  0  0  0
  8  9  1  0  0  0  0
  8 15  1  0  0  0  0
  9 10  2  0  0  0  0
 10 16  1  0  0  0  0
 11 12  1  0  0  0  0
 11 17  1  0  0  0  0
 11 18  1  0  0  0  0
 12 19  1  0  0  0  0
 12 20  1  0  0  0  0
M  CHG  1   3  -1
M  END
> <s_m_source_file>
AV-unprocessed.smi

> <i_m_source_file_index>
2700

> <i_lp_mmshare_version>
43012

> <i_f3d_flags>
0

> <s_epik_input>
Tz1DKFtPSF0pQzEoW0NIMl1bQ0gyXTEpYzJbY0hdW2NIXVtjSF1uW2NIXTI=

> <s_epik_cmdline>
J2VwaWtfcHl0aG9uJywgJy1waCcsICc3LjAnLCAnLXRuJywgJzgnLCAnLW1hJywgJzIwMCcsICctbWV0YWxfYmluZGluZycsICctaW1hZScsICc8aW5maWxlLm1hZT4nLCAnLW9tYWUnLCAnPG91dGZpbGUubWFlPic=

> <r_epik_Ionization_Penalty>
0.0484924

> <r_epik_Ionization_Penalty_Charging>
0.000756486

> <r_epik_Ionization_Penalty_Neutral>
0.0477359

> <r_epik_State_Penalty>
0.04067

> <r_epik_Charging_Adjusted_Penalty>
0.0414265

> <i_epik_Tot_Q>
-1

> <i_epik_Tot_abs_Q>
1

> <r_epik_Metal_State_Penalty>
4.20968e-05

> <b_epik_Metal_Only>
0

> <s_lp_Force_Field>
OPLS_2005

> <r_lp_Energy>
7.44883

> <b_lp_Chiralities_Consistent>
1

> <s_lp_Variant>
AV-unprocessed.smi:2700-1

> <Gold.Version>
5.8.1

> <Gold.Id.Protein>
6NUR|6NUR_protein|mol2

> <Gold.PLP.Fitness>
38.1100

> <Gold.PLP.PLP>
-26.2824

> <Gold.PLP.part.hbond>
-2.0000

> <Gold.PLP.part.metal>
0.0000

> <Gold.PLP.part.buried>
-4.8075

> <Gold.PLP.part.nonpolar>
-20.3829

> <Gold.PLP.part.repulsive>
0.1691

> <Gold.PLP.ligand.clash>
0.0000

> <Gold.PLP.ligand.torsion>
0.8834

> <Gold.PLP.Chemscore.Hbond>
3.0000

> <Gold.PLP.Chemscore.CHOScore>
0.9860

> <Gold.PLP.Chemscore.Metal>
0.0000

> <Gold.Chemscore.Hbonds>
donor molecule, donor type, donor heavy atom, donor atom, acceptor molecule, acceptor atom, score
      P1  H  7989  7998       L1     3  1.00
      P1  H  7997  8009       L1     1  2.00
      L1  C    10    16       P1  8028  0.76

> <Gold.PLP.Chemscore.Internal.Correction>
1.6363

> <Gold.Rescore>
     Score         DG    S(hbond)    S(metal)    S(lipo)     H(rot)  DE(clash)    DE(int)     intcor
     15.61     -16.54       1.99        0.00      67.64       1.36       0.01       0.91       ----

> <Gold.Chemscore.Fitness>
15.6137

> <Gold.Chemscore.DG>
-16.5364

> <Gold.Chemscore.ZeroCoef>
-5.4800

> <Gold.Chemscore.Hbond>
1.9870

> <Gold.Chemscore.Metal>
0.0000

> <Gold.Chemscore.Lipo>
67.6368

> <Gold.Chemscore.Internal_Hbond>
0.0000

> <Gold.Chemscore.DEClash>
0.0133

> <Gold.Chemscore.DEInternal>
0.9094

> <Gold.Chemscore.Rot>
1.3647

> <Gold.Chemscore.Internal.Correction>
   9.000000E+99

> <Gold.Chemscore.Hbonds>
donor molecule, donor type, donor heavy atom, donor atom, acceptor molecule, acceptor atom, score
      P1  H  7989  7998       L1     3  0.96
      P1  H  7997  8009       L1     1  0.93

> <Gold.Chemscore.Hbond.Weighted>
-6.6366

> <Gold.Chemscore.Metal.Weighted>
-0.0000

> <Gold.Chemscore.Lipo.Weighted>
-7.9135

> <Gold.Chemscore.Internal_Hbond.Weighted>
0.0000

> <Gold.Chemscore.DEClash.Weighted>
0.0133

> <Gold.Chemscore.DEInternal.Weighted>
0.9094

> <Gold.Chemscore.Rot.Weighted>
3.4936

> <Gold.Chemscore.Internal.Correction.Weighted>
   9.000000E+99

> <Gold.Protein.RotatedTorsions>
[ 6907 6896 6895 6894 ] final   34.43 input  -60.11 | X-H torsion
[ 7974 7965 7964 7962 ] final -101.90 input  175.53 | X-H torsion
[ 8008 7997 7996 7995 ] final -154.16 input   59.86 | X-H torsion
[ 10167 10162 10161 10158 ] final  105.97 input  -65.29 | X-H torsion
[ 10718 10713 10712 10709 ] final   18.56 input   66.30 | X-H torsion
[ 10763 10752 10751 10750 ] final -115.07 input  -60.55 | X-H torsion
[ 11005 11000 10999 10996 ] final  -75.12 input  -57.11 | X-H torsion

> <Gold.Protein.ActiveResidues>
 VAL166  LYS551  ARG553  GLY616  TRP617  ASP618  TYR619  PRO620  LYS621  CYS622 
 ASP623  PHE694  ASN695  SER759  ASP760  ASP761  ALA762  ILE779  LEU786  VAL792 
 PHE793  MET794  SER795  GLU796  ALA797  LYS798  CYS799  TRP800  GLU811  SER814 

> <Gold.Protein.RotatedAtoms>
  152.1022  134.9333  160.0569 H   0  0  0  0  0  0  0  0  0  0  0  0  # atno 6907 bound_to 6896
  152.0543  133.4028  159.4399 H   0  0  0  0  0  0  0  0  0  0  0  0  # atno 6908 bound_to 6896
  150.6840  134.3193  159.4823 H   0  0  0  0  0  0  0  0  0  0  0  0  # atno 6909 bound_to 6896
  145.2757  140.9312  143.2961 H   0  0  0  0  0  0  0  0  0  0  0  0  # atno 7974 bound_to 7965
  155.6821  140.0745  157.2481 H   0  0  0  0  0  0  0  0  0  0  0  0  # atno 8008 bound_to 7997
  154.4104  140.1680  156.2045 H   0  0  0  0  0  0  0  0  0  0  0  0  # atno 8009 bound_to 7997
  155.9526  140.3376  155.6424 H   0  0  0  0  0  0  0  0  0  0  0  0  # atno 8010 bound_to 7997
  139.7048  144.7088  151.1124 H   0  0  0  0  0  0  0  0  0  0  0  0  # atno 10167 bound_to 10162
  157.0981  130.6456  149.5865 H   0  0  0  0  0  0  0  0  0  0  0  0  # atno 10718 bound_to 10713
  154.8466  135.4395  154.1605 H   0  0  0  0  0  0  0  0  0  0  0  0  # atno 10763 bound_to 10752
  153.2743  135.6948  153.7455 H   0  0  0  0  0  0  0  0  0  0  0  0  # atno 10764 bound_to 10752
  153.6684  135.3423  155.3121 H   0  0  0  0  0  0  0  0  0  0  0  0  # atno 10765 bound_to 10752
  141.1642  133.6935  156.7468 H   0  0  0  0  0  0  0  0  0  0  0  0  # atno 11005 bound_to 11000
  144.9297  139.4313  143.6501 LP  0  0  0  0  0  0  0  0  0  0  0  0  # atno 17320 bound_to 7965
  146.3232  139.8201  142.8928 LP  0  0  0  0  0  0  0  0  0  0  0  0  # atno 17321 bound_to 7965
  140.7719  143.5373  150.9353 LP  0  0  0  0  0  0  0  0  0  0  0  0  # atno 17342 bound_to 10162
  139.9056  143.6782  152.3124 LP  0  0  0  0  0  0  0  0  0  0  0  0  # atno 17343 bound_to 10162
  155.9881  130.4922  150.7153 LP  0  0  0  0  0  0  0  0  0  0  0  0  # atno 17370 bound_to 10713
  157.4664  131.0888  151.0690 LP  0  0  0  0  0  0  0  0  0  0  0  0  # atno 17371 bound_to 10713
  140.2633  134.8449  157.3779 LP  0  0  0  0  0  0  0  0  0  0  0  0  # atno 17394 bound_to 11000
  140.1590  134.4753  155.7908 LP  0  0  0  0  0  0  0  0  0  0  0  0  # atno 17395 bound_to 11000

$$$$
