AV-unprocessed.smi:1410|AV-procd|sdf|5736|dock2
  -GOLD-   22720 5373D 1   1.00000     0.00000
 Structure written by MMmdl.
 39 40  0  0  0  0  0  0  0  0  3 V2000
  152.5009  139.5238  156.5131 N   0  5  0  0  0  0  0  0  0  0  0  0
  151.5912  139.5115  155.5200 C   0  0  0  0  0  0  0  0  0  0  0  0
  150.9805  140.4648  155.0419 O   0  0  0  0  0  0  0  0  0  0  0  0
  151.3234  138.0992  154.9900 C   0  0  0  0  0  0  0  0  0  0  0  0
  149.9556  137.6574  155.3622 N   0  3  2  0  0  0  0  0  0  0  0  0
  149.7985  136.1773  155.3655 C   0  0  0  0  0  0  0  0  0  0  0  0
  148.4050  135.7663  155.8716 C   0  0  0  0  0  0  0  0  0  0  0  0
  147.2781  136.4257  155.0532 C   0  0  2  0  0  0  0  0  0  0  0  0
  147.2071  135.8854  153.6957 N   0  0  0  0  0  0  0  0  0  0  0  0
  146.2928  135.0084  153.2563 C   0  0  0  0  0  0  0  0  0  0  0  0
  145.3887  134.5630  153.9624 O   0  0  0  0  0  0  0  0  0  0  0  0
  146.5168  134.6784  151.9724 N   0  0  0  0  0  0  0  0  0  0  0  0
  145.8022  133.7654  151.1501 C   0  0  0  0  0  0  0  0  0  0  0  0
  144.4007  133.7107  151.2976 C   0  0  0  0  0  0  0  0  0  0  0  0
  143.6689  132.8050  150.5039 C   0  0  0  0  0  0  0  0  0  0  0  0
  144.2413  131.9733  149.6085 N   0  0  0  0  0  0  0  0  0  0  0  0
  145.5842  132.0167  149.4788 C   0  0  0  0  0  0  0  0  0  0  0  0
  146.4089  132.8844  150.2227 C   0  0  0  0  0  0  0  0  0  0  0  0
  147.4955  137.9478  155.0159 C   0  0  0  0  0  0  0  0  0  0  0  0
  148.9119  138.3185  154.5376 C   0  0  0  0  0  0  0  0  0  0  0  0
  152.1857  139.7392  157.4666 H   0  0  0  0  0  0  0  0  0  0  0  0
  151.4152  138.1489  153.9042 H   0  0  0  0  0  0  0  0  0  0  0  0
  152.0660  137.3732  155.3288 H   0  0  0  0  0  0  0  0  0  0  0  0
  149.9665  135.7887  154.3600 H   0  0  0  0  0  0  0  0  0  0  0  0
  150.5519  135.7188  156.0062 H   0  0  0  0  0  0  0  0  0  0  0  0
  148.3077  134.6802  155.8570 H   0  0  0  0  0  0  0  0  0  0  0  0
  148.3066  136.0609  156.9172 H   0  0  0  0  0  0  0  0  0  0  0  0
  146.3231  136.2310  155.5448 H   0  0  0  0  0  0  0  0  0  0  0  0
  147.9131  136.1973  153.0451 H   0  0  0  0  0  0  0  0  0  0  0  0
  147.3419  135.0789  151.5511 H   0  0  0  0  0  0  0  0  0  0  0  0
  143.8898  134.3531  151.9999 H   0  0  0  0  0  0  0  0  0  0  0  0
  142.5940  132.7466  150.5923 H   0  0  0  0  0  0  0  0  0  0  0  0
  146.0175  131.3341  148.7628 H   0  0  0  0  0  0  0  0  0  0  0  0
  147.4767  132.8468  150.0743 H   0  0  0  0  0  0  0  0  0  0  0  0
  146.7480  138.4217  154.3783 H   0  0  0  0  0  0  0  0  0  0  0  0
  147.3412  138.3549  156.0161 H   0  0  0  0  0  0  0  0  0  0  0  0
  149.0326  139.4010  154.5934 H   0  0  0  0  0  0  0  0  0  0  0  0
  149.0457  138.0401  153.4912 H   0  0  0  0  0  0  0  0  0  0  0  0
  149.8128  137.9706  156.3118 H   0  0  0  0  0  0  0  0  0  0  0  0
  1  2  1  0  0  0  0
  1 21  1  0  0  0  0
  2  3  2  0  0  0  0
  2  4  1  0  0  0  0
  4  5  1  0  0  0  0
  4 22  1  0  0  0  0
  4 23  1  0  0  0  0
  5 20  1  0  0  0  0
  5  6  1  0  0  0  0
  5 39  1  0  0  0  0
  6  7  1  0  0  0  0
  6 24  1  0  0  0  0
  6 25  1  0  0  0  0
  7  8  1  0  0  0  0
  7 26  1  0  0  0  0
  7 27  1  0  0  0  0
  8  9  1  0  0  0  0
  8 19  1  0  0  0  0
  8 28  1  0  0  0  0
  9 10  1  0  0  0  0
  9 29  1  0  0  0  0
 10 11  2  0  0  0  0
 10 12  1  0  0  0  0
 12 13  1  0  0  0  0
 12 30  1  0  0  0  0
 13 18  1  0  0  0  0
 13 14  2  0  0  0  0
 14 15  1  0  0  0  0
 14 31  1  0  0  0  0
 15 16  2  0  0  0  0
 15 32  1  0  0  0  0
 16 17  1  0  0  0  0
 17 18  2  0  0  0  0
 17 33  1  0  0  0  0
 18 34  1  0  0  0  0
 19 20  1  0  0  0  0
 19 35  1  0  0  0  0
 19 36  1  0  0  0  0
 20 37  1  0  0  0  0
 20 38  1  0  0  0  0
M  CHG  1   1  -1
M  CHG  1   5   1
M  END
> <s_m_source_file>
AV-unprocessed.smi

> <i_m_source_file_index>
1410

> <i_lp_mmshare_version>
43012

> <i_f3d_flags>
0

> <s_epik_input>
W05IMl1DKD1PKVtDSDJdTjFbQ0gyXVtDSDJdW0NIXShbQ0gyXVtDSDJdMSlbTkhdQyg9TylbTkhdYzJbY0hdW2NIXW5bY0hdW2NIXTI=

> <s_epik_cmdline>
J2VwaWtfcHl0aG9uJywgJy1waCcsICc3LjAnLCAnLXRuJywgJzgnLCAnLW1hJywgJzIwMCcsICctbWV0YWxfYmluZGluZycsICctaW1hZScsICc8aW5maWxlLm1hZT4nLCAnLW9tYWUnLCAnPG91dGZpbGUubWFlPic=

> <r_epik_Ionization_Penalty>
5.8279

> <r_epik_Ionization_Penalty_Charging>
5.7288

> <r_epik_Ionization_Penalty_Neutral>
0.0990993

> <r_epik_State_Penalty>
6.63321

> <r_epik_Charging_Adjusted_Penalty>
12.362

> <i_epik_Tot_Q>
0

> <i_epik_Tot_abs_Q>
2

> <r_epik_Metal_State_Penalty>
2.69435

> <b_epik_Metal_Only>
1

> <s_lp_Force_Field>
OPLS_2005

> <r_lp_Energy>
12.1382

> <b_lp_Chiralities_Consistent>
1

> <s_lp_Variant>
AV-unprocessed.smi:1410-8

> <Gold.Version>
5.8.1

> <Gold.Id.Protein>
6NUR|6NUR_protein|mol2

> <Gold.PLP.Fitness>
46.6924

> <Gold.PLP.PLP>
-29.7882

> <Gold.PLP.part.hbond>
-4.9473

> <Gold.PLP.part.metal>
0.0000

> <Gold.PLP.part.buried>
-3.5468

> <Gold.PLP.part.nonpolar>
-21.9643

> <Gold.PLP.part.repulsive>
0.3615

> <Gold.PLP.ligand.clash>
0.0000

> <Gold.PLP.ligand.torsion>
0.7267

> <Gold.PLP.Chemscore.Hbond>
5.2287

> <Gold.PLP.Chemscore.CHOScore>
0.8812

> <Gold.PLP.Chemscore.Metal>
0.0000

> <Gold.Chemscore.Hbonds>
donor molecule, donor type, donor heavy atom, donor atom, acceptor molecule, acceptor atom, score
      L1  H     9    29       P1  7948  1.00
      L1  H    12    30       P1  7948  0.94
      P1  H  7989  7998       L1     3  1.00
      P1  H  7997  8010       L1     1  2.00
      P1  H 10785 10796       L1    16  0.26
      L1  C    15    32       P1 10186  0.89

> <Gold.PLP.Chemscore.Internal.Correction>
0.0281

> <Gold.Rescore>
     Score         DG    S(hbond)    S(metal)    S(lipo)     H(rot)  DE(clash)    DE(int)     intcor
     17.00     -19.72       3.64        0.00      60.32       1.94       0.06       2.67       ----

> <Gold.Chemscore.Fitness>
16.9965

> <Gold.Chemscore.DG>
-19.7223

> <Gold.Chemscore.ZeroCoef>
-5.4800

> <Gold.Chemscore.Hbond>
3.6350

> <Gold.Chemscore.Metal>
0.0000

> <Gold.Chemscore.Lipo>
60.3220

> <Gold.Chemscore.Internal_Hbond>
0.0000

> <Gold.Chemscore.DEClash>
0.0558

> <Gold.Chemscore.DEInternal>
2.6700

> <Gold.Chemscore.Rot>
1.9361

> <Gold.Chemscore.Internal.Correction>
   9.000000E+99

> <Gold.Chemscore.Hbonds>
donor molecule, donor type, donor heavy atom, donor atom, acceptor molecule, acceptor atom, score
      L1  H     9    29       P1  7948  0.97
      L1  H    12    30       P1  7948  0.71
      P1  H  7989  7998       L1     3  0.72
      P1  H  7997  8010       L1     1  0.45
      P1  H 10785 10796       L1    16  0.24

> <Gold.Chemscore.Hbond.Weighted>
-12.1410

> <Gold.Chemscore.Metal.Weighted>
-0.0000

> <Gold.Chemscore.Lipo.Weighted>
-7.0577

> <Gold.Chemscore.Internal_Hbond.Weighted>
0.0000

> <Gold.Chemscore.DEClash.Weighted>
0.0558

> <Gold.Chemscore.DEInternal.Weighted>
2.6700

> <Gold.Chemscore.Rot.Weighted>
4.9563

> <Gold.Chemscore.Internal.Correction.Weighted>
   9.000000E+99

> <Gold.Protein.RotatedTorsions>
[ 6907 6896 6895 6894 ] final  -27.71 input  -60.11 | X-H torsion
[ 7974 7965 7964 7962 ] final  -98.10 input  175.53 | X-H torsion
[ 8008 7997 7996 7995 ] final   67.53 input   59.86 | X-H torsion
[ 10167 10162 10161 10158 ] final  111.55 input  -65.29 | X-H torsion
[ 10718 10713 10712 10709 ] final -143.66 input   66.30 | X-H torsion
[ 10763 10752 10751 10750 ] final   -6.26 input  -60.55 | X-H torsion
[ 11005 11000 10999 10996 ] final   93.23 input  -57.11 | X-H torsion

> <Gold.Protein.ActiveResidues>
 VAL166  LYS551  ARG553  GLY616  TRP617  ASP618  TYR619  PRO620  LYS621  CYS622 
 ASP623  PHE694  ASN695  SER759  ASP760  ASP761  ALA762  ILE779  LEU786  VAL792 
 PHE793  MET794  SER795  GLU796  ALA797  LYS798  CYS799  TRP800  GLU811  SER814 

> <Gold.Protein.RotatedAtoms>
  151.1431  135.0189  159.8634 H   0  0  0  0  0  0  0  0  0  0  0  0  # atno 6907 bound_to 6896
  152.5452  134.1476  159.8515 H   0  0  0  0  0  0  0  0  0  0  0  0  # atno 6908 bound_to 6896
  151.1553  133.4835  159.2627 H   0  0  0  0  0  0  0  0  0  0  0  0  # atno 6909 bound_to 6896
  145.3250  140.9430  143.2694 H   0  0  0  0  0  0  0  0  0  0  0  0  # atno 7974 bound_to 7965
  155.6944  140.3496  155.4906 H   0  0  0  0  0  0  0  0  0  0  0  0  # atno 8008 bound_to 7997
  155.9496  140.1117  157.1010 H   0  0  0  0  0  0  0  0  0  0  0  0  # atno 8009 bound_to 7997
  154.4119  140.1197  156.5021 H   0  0  0  0  0  0  0  0  0  0  0  0  # atno 8010 bound_to 7997
  139.6603  144.7129  151.1878 H   0  0  0  0  0  0  0  0  0  0  0  0  # atno 10167 bound_to 10162
  156.3607  130.7736  151.1904 H   0  0  0  0  0  0  0  0  0  0  0  0  # atno 10718 bound_to 10713
  153.4099  135.7007  153.6367 H   0  0  0  0  0  0  0  0  0  0  0  0  # atno 10763 bound_to 10752
  153.4865  135.3682  155.2470 H   0  0  0  0  0  0  0  0  0  0  0  0  # atno 10764 bound_to 10752
  154.8716  135.4078  154.3449 H   0  0  0  0  0  0  0  0  0  0  0  0  # atno 10765 bound_to 10752
  139.8812  134.8778  156.3688 H   0  0  0  0  0  0  0  0  0  0  0  0  # atno 11005 bound_to 11000
  144.8909  139.4776  143.6678 LP  0  0  0  0  0  0  0  0  0  0  0  0  # atno 17320 bound_to 7965
  146.3068  139.7606  142.9050 LP  0  0  0  0  0  0  0  0  0  0  0  0  # atno 17321 bound_to 7965
  140.7577  143.6005  150.8704 LP  0  0  0  0  0  0  0  0  0  0  0  0  # atno 17342 bound_to 10162
  139.9662  143.6108  152.2987 LP  0  0  0  0  0  0  0  0  0  0  0  0  # atno 17343 bound_to 10162
  157.7473  131.0401  150.4581 LP  0  0  0  0  0  0  0  0  0  0  0  0  # atno 17370 bound_to 10713
  156.4791  130.4070  149.6472 LP  0  0  0  0  0  0  0  0  0  0  0  0  # atno 17371 bound_to 10713
  140.9478  133.7471  156.0232 LP  0  0  0  0  0  0  0  0  0  0  0  0  # atno 17394 bound_to 11000
  140.8142  134.3364  157.5402 LP  0  0  0  0  0  0  0  0  0  0  0  0  # atno 17395 bound_to 11000

$$$$
