AV-unprocessed.smi:53|AV-procd|sdf|514|dock1
  -GOLD-   2262016383D 1   1.00000     0.00000
 Structure written by MMmdl.
 30 31  0  0  0  0  0  0  0  0  1 V2000
  146.2282  139.3870  152.9249 N   0  0  0  0  0  0  0  0  0  0  0  0
  147.3000  139.8381  153.5914 C   0  0  0  0  0  0  0  0  0  0  0  0
  147.2508  141.1062  154.2815 C   0  0  0  0  0  0  0  0  0  0  0  0
  148.3693  141.4901  154.9356 C   0  0  0  0  0  0  0  0  0  0  0  0
  149.5154  140.7027  154.9754 N   0  0  0  0  0  0  0  0  0  0  0  0
  150.7871  141.1440  155.6842 C   0  0  1  0  0  0  0  0  0  0  0  0
  150.4998  142.1661  156.5895 O   0  0  0  0  0  0  0  0  0  0  0  0
  150.2401  141.6051  157.8701 C   0  0  2  0  0  0  0  0  0  0  0  0
  150.3767  142.6858  158.9528 C   0  0  0  0  0  0  0  0  0  0  0  0
  149.5328  143.7771  158.6530 O   0  0  0  0  0  0  0  0  0  0  0  0
  151.3032  140.5087  157.9553 C   0  0  1  0  0  0  0  0  0  0  0  0
  150.8781  139.4794  158.8262 O   0  0  0  0  0  0  0  0  0  0  0  0
  151.4042  139.9961  156.5191 C   0  0  2  0  0  0  0  0  0  0  0  0
  152.7581  139.7697  156.1800 O   0  0  0  0  0  0  0  0  0  0  0  0
  149.5415  139.4841  154.2527 C   0  0  0  0  0  0  0  0  0  0  0  0
  150.5514  138.7832  154.2028 O   0  0  0  0  0  0  0  0  0  0  0  0
  148.3985  139.1094  153.5994 N   0  0  0  0  0  0  0  0  0  0  0  0
  151.4287  141.5256  154.8870 H   0  0  0  0  0  0  0  0  0  0  0  0
  149.2453  141.1553  157.8896 H   0  0  0  0  0  0  0  0  0  0  0  0
  152.2528  140.9278  158.2929 H   0  0  0  0  0  0  0  0  0  0  0  0
  150.8305  139.0779  156.3841 H   0  0  0  0  0  0  0  0  0  0  0  0
  146.2674  138.5028  152.4387 H   0  0  0  0  0  0  0  0  0  0  0  0
  145.3818  139.9374  152.9075 H   0  0  0  0  0  0  0  0  0  0  0  0
  146.3776  141.7427  154.2933 H   0  0  0  0  0  0  0  0  0  0  0  0
  148.3340  142.4465  155.4344 H   0  0  0  0  0  0  0  0  0  0  0  0
  150.0669  142.2885  159.9199 H   0  0  0  0  0  0  0  0  0  0  0  0
  151.4098  143.0195  159.0541 H   0  0  0  0  0  0  0  0  0  0  0  0
  149.3731  143.7867  157.7216 H   0  0  0  0  0  0  0  0  0  0  0  0
  150.8388  139.8282  159.7040 H   0  0  0  0  0  0  0  0  0  0  0  0
  152.8132  139.6167  155.2492 H   0  0  0  0  0  0  0  0  0  0  0  0
  1  2  1  0  0  0  0
  1 22  1  0  0  0  0
  1 23  1  0  0  0  0
  2 17  2  0  0  0  0
  2  3  1  0  0  0  0
  3  4  2  0  0  0  0
  3 24  1  0  0  0  0
  4  5  1  0  0  0  0
  4 25  1  0  0  0  0
  5  6  1  0  0  0  0
  5 15  1  0  0  0  0
  6 18  1  0  0  0  0
  6 13  1  0  0  0  0
  6  7  1  0  0  0  0
  7  8  1  0  0  0  0
  8 19  1  0  0  0  0
  8  9  1  0  0  0  0
  8 11  1  0  0  0  0
  9 10  1  0  0  0  0
  9 26  1  0  0  0  0
  9 27  1  0  0  0  0
 10 28  1  0  0  0  0
 11 20  1  0  0  0  0
 11 12  1  0  0  0  0
 11 13  1  0  0  0  0
 12 29  1  0  0  0  0
 13 21  1  0  0  0  0
 13 14  1  0  0  0  0
 14 30  1  0  0  0  0
 15 16  2  0  0  0  0
 15 17  1  0  0  0  0
M  END
> <s_m_source_file>
AV-unprocessed.smi

> <i_m_source_file_index>
53

> <i_lp_mmshare_version>
43012

> <i_f3d_flags>
0

> <s_epik_input>
W05IMl1jMVtjSF1bY0hdbihjKD1PKW4xKVtDQEBIXTJPW0NASF0oW0NIMl1bT0hdKVtDQEBIXShbT0hdKVtDQEBIXTJbT0hd

> <s_epik_cmdline>
J2VwaWtfcHl0aG9uJywgJy1waCcsICc3LjAnLCAnLXRuJywgJzgnLCAnLW1hJywgJzIwMCcsICctbWV0YWxfYmluZGluZycsICctaW1hZScsICc8aW5maWxlLm1hZT4nLCAnLW9tYWUnLCAnPG91dGZpbGUubWFlPic=

> <r_lp_tautomer_probability>
0.99996

> <r_epik_Ionization_Penalty>
0.00069087

> <r_epik_Ionization_Penalty_Charging>
2.61959e-08

> <r_epik_Ionization_Penalty_Neutral>
0.000690844

> <r_epik_State_Penalty>
1.15523e-05

> <r_epik_Charging_Adjusted_Penalty>
1.15785e-05

> <i_epik_Tot_Q>
0

> <i_epik_Tot_abs_Q>
0

> <r_epik_Metal_State_Penalty>
-0

> <b_epik_Metal_Only>
0

> <s_epik_Chemistry_Notes>
This compound contains an acetal/aminal-like group ( X-CH(R)-Y where X, Y are N, S, or O) that may be acid/base labile, releasing an aldehyde.

> <s_lp_Force_Field>
OPLS_2005

> <r_lp_Energy>
26.6068

> <b_lp_Chiralities_Consistent>
1

> <s_lp_Variant>
AV-unprocessed.smi:53-2

> <Gold.Version>
5.8.1

> <Gold.Id.Protein>
6NUR|6NUR_protein|mol2

> <Gold.PLP.Fitness>
37.7908

> <Gold.PLP.PLP>
-26.6204

> <Gold.PLP.part.hbond>
-4.0000

> <Gold.PLP.part.metal>
0.0000

> <Gold.PLP.part.buried>
-3.6343

> <Gold.PLP.part.nonpolar>
-19.7585

> <Gold.PLP.part.repulsive>
1.1746

> <Gold.PLP.ligand.clash>
0.0000

> <Gold.PLP.ligand.torsion>
0.4228

> <Gold.PLP.Chemscore.Hbond>
2.9920

> <Gold.PLP.Chemscore.CHOScore>
1.0000

> <Gold.PLP.Chemscore.Metal>
0.0000

> <Gold.Chemscore.Hbonds>
donor molecule, donor type, donor heavy atom, donor atom, acceptor molecule, acceptor atom, score
      L1  H     1    23       P1 10175  1.00
      L1  H    10    28       P1  8028  0.32
      P1  H  7997  8009       L1    14  0.90
      L1  C     4    25       P1  8028  1.00

> <Gold.PLP.Chemscore.Internal.Correction>
0.0399

> <Gold.Rescore>
     Score         DG    S(hbond)    S(metal)    S(lipo)     H(rot)  DE(clash)    DE(int)     intcor
      6.08      -9.10       2.56        0.00      39.09       3.71       1.20       1.82       ----

> <Gold.Chemscore.Fitness>
6.0817

> <Gold.Chemscore.DG>
-9.0977

> <Gold.Chemscore.ZeroCoef>
-5.4800

> <Gold.Chemscore.Hbond>
2.5571

> <Gold.Chemscore.Metal>
0.0000

> <Gold.Chemscore.Lipo>
39.0890

> <Gold.Chemscore.Internal_Hbond>
0.0000

> <Gold.Chemscore.DEClash>
1.1984

> <Gold.Chemscore.DEInternal>
1.8176

> <Gold.Chemscore.Rot>
3.7095

> <Gold.Chemscore.Internal.Correction>
   9.000000E+99

> <Gold.Chemscore.Hbonds>
donor molecule, donor type, donor heavy atom, donor atom, acceptor molecule, acceptor atom, score
      L1  H     1    23       P1 10175  0.99
      L1  H    10    28       P1  8028  0.07
      P1  H  7997  8009       L1    14  0.18

> <Gold.Chemscore.Hbond.Weighted>
-8.5407

> <Gold.Chemscore.Metal.Weighted>
-0.0000

> <Gold.Chemscore.Lipo.Weighted>
-4.5734

> <Gold.Chemscore.Internal_Hbond.Weighted>
0.0000

> <Gold.Chemscore.DEClash.Weighted>
1.1984

> <Gold.Chemscore.DEInternal.Weighted>
1.8176

> <Gold.Chemscore.Rot.Weighted>
9.4964

> <Gold.Chemscore.Internal.Correction.Weighted>
   9.000000E+99

> <Gold.Protein.RotatedTorsions>
[ 6907 6896 6895 6894 ] final -133.65 input  -60.11 | X-H torsion
[ 7974 7965 7964 7962 ] final  -32.64 input  175.53 | X-H torsion
[ 8008 7997 7996 7995 ] final -169.15 input   59.86 | X-H torsion
[ 10167 10162 10161 10158 ] final  -63.21 input  -65.29 | X-H torsion
[ 10718 10713 10712 10709 ] final  148.24 input   66.30 | X-H torsion
[ 10763 10752 10751 10750 ] final  -97.75 input  -60.55 | X-H torsion
[ 11005 11000 10999 10996 ] final  122.99 input  -57.11 | X-H torsion

> <Gold.Protein.ActiveResidues>
 VAL166  LYS551  ARG553  GLY616  TRP617  ASP618  TYR619  PRO620  LYS621  CYS622 
 ASP623  PHE694  ASN695  SER759  ASP760  ASP761  ALA762  ILE779  LEU786  VAL792 
 PHE793  MET794  SER795  GLU796  ALA797  LYS798  CYS799  TRP800  GLU811  SER814 

> <Gold.Protein.RotatedAtoms>
  150.9766  133.6289  159.2729 H   0  0  0  0  0  0  0  0  0  0  0  0  # atno 6907 bound_to 6896
  151.3559  135.0893  159.9428 H   0  0  0  0  0  0  0  0  0  0  0  0  # atno 6908 bound_to 6896
  152.5201  133.9349  159.7653 H   0  0  0  0  0  0  0  0  0  0  0  0  # atno 6909 bound_to 6896
  146.0974  140.5818  142.8837 H   0  0  0  0  0  0  0  0  0  0  0  0  # atno 7974 bound_to 7965
  155.9010  140.1041  157.1350 H   0  0  0  0  0  0  0  0  0  0  0  0  # atno 8008 bound_to 7997
  154.4026  140.1292  156.4500 H   0  0  0  0  0  0  0  0  0  0  0  0  # atno 8009 bound_to 7997
  155.7422  140.3466  155.5112 H   0  0  0  0  0  0  0  0  0  0  0  0  # atno 8010 bound_to 7997
  140.5887  143.2338  151.6187 H   0  0  0  0  0  0  0  0  0  0  0  0  # atno 10167 bound_to 10162
  157.3111  131.0888  151.1316 H   0  0  0  0  0  0  0  0  0  0  0  0  # atno 10718 bound_to 10713
  154.7355  135.5035  153.9034 H   0  0  0  0  0  0  0  0  0  0  0  0  # atno 10763 bound_to 10752
  153.0991  135.6680  153.9715 H   0  0  0  0  0  0  0  0  0  0  0  0  # atno 10764 bound_to 10752
  153.9506  135.3058  155.3418 H   0  0  0  0  0  0  0  0  0  0  0  0  # atno 10765 bound_to 10752
  139.9292  134.9641  156.8191 H   0  0  0  0  0  0  0  0  0  0  0  0  # atno 11005 bound_to 11000
  144.7406  140.4930  143.6872 LP  0  0  0  0  0  0  0  0  0  0  0  0  # atno 17320 bound_to 7965
  145.5922  139.1496  143.3176 LP  0  0  0  0  0  0  0  0  0  0  0  0  # atno 17321 bound_to 7965
  139.5213  144.3196  152.0922 LP  0  0  0  0  0  0  0  0  0  0  0  0  # atno 17342 bound_to 10162
  140.2357  144.4322  150.6281 LP  0  0  0  0  0  0  0  0  0  0  0  0  # atno 17343 bound_to 10162
  157.2637  130.6671  149.5987 LP  0  0  0  0  0  0  0  0  0  0  0  0  # atno 17370 bound_to 10713
  155.9678  130.4500  150.5682 LP  0  0  0  0  0  0  0  0  0  0  0  0  # atno 17371 bound_to 10713
  140.6249  133.9960  155.7635 LP  0  0  0  0  0  0  0  0  0  0  0  0  # atno 17394 bound_to 11000
  141.0870  133.9974  157.3297 LP  0  0  0  0  0  0  0  0  0  0  0  0  # atno 17395 bound_to 11000

$$$$
