AV-unprocessed.smi:2044|AV-procd|sdf|8307|dock1
  -GOLD-   2272010573D 1   1.00000     0.00000
 Structure written by MMmdl.
 39 40  0  0  0  0  0  0  0  0  3 V2000
  148.9914  141.6405  154.3253 C   0  0  0  0  0  0  0  0  0  0  0  0
  149.3446  140.1929  154.3660 C   0  0  0  0  0  0  0  0  0  0  0  0
  148.5899  139.0545  154.4070 C   0  0  0  0  0  0  0  0  0  0  0  0
  149.5656  138.0228  154.4344 C   0  0  0  0  0  0  0  0  0  0  0  0
  149.1760  136.6581  154.4736 N   0  0  0  0  0  0  0  0  0  0  0  0
  148.8188  135.9166  155.5374 C   0  0  0  0  0  0  0  0  0  0  0  0
  148.7440  136.4296  156.6605 O   0  0  0  0  0  0  0  0  0  0  0  0
  148.5916  134.6143  155.2092 N   0  5  0  0  0  0  0  0  0  0  0  0
  147.7455  134.1599  154.0999 C   0  0  0  0  0  0  0  0  0  0  0  0
  148.4956  133.1698  153.1657 C   0  0  1  0  0  0  0  0  0  0  0  0
  149.4230  132.1741  153.9065 C   0  0  0  0  0  0  0  0  0  0  0  0
  147.5558  132.5345  152.1873 N   0  3  0  0  0  0  0  0  0  0  0  0
  146.6825  131.4882  152.7717 C   0  0  0  0  0  0  0  0  0  0  0  0
  145.9294  130.7468  151.6535 C   0  0  0  0  0  0  0  0  0  0  0  0
  145.1869  131.6742  150.8705 O   0  0  0  0  0  0  0  0  0  0  0  0
  146.0266  132.6381  150.2458 C   0  0  0  0  0  0  0  0  0  0  0  0
  146.7596  133.4487  151.3250 C   0  0  0  0  0  0  0  0  0  0  0  0
  150.8051  138.4903  154.4048 N   0  0  0  0  0  0  0  0  0  0  0  0
  150.6698  139.8830  154.3644 O   0  0  0  0  0  0  0  0  0  0  0  0
  148.1408  141.8126  153.6656 H   0  0  0  0  0  0  0  0  0  0  0  0
  149.8269  142.2384  153.9602 H   0  0  0  0  0  0  0  0  0  0  0  0
  148.7267  142.0003  155.3196 H   0  0  0  0  0  0  0  0  0  0  0  0
  147.5129  138.9747  154.4175 H   0  0  0  0  0  0  0  0  0  0  0  0
  149.1882  136.1756  153.5872 H   0  0  0  0  0  0  0  0  0  0  0  0
  146.8329  133.6788  154.4548 H   0  0  0  0  0  0  0  0  0  0  0  0
  147.4017  135.0058  153.5046 H   0  0  0  0  0  0  0  0  0  0  0  0
  149.1726  133.8025  152.5898 H   0  0  0  0  0  0  0  0  0  0  0  0
  150.1694  132.6923  154.5115 H   0  0  0  0  0  0  0  0  0  0  0  0
  149.9755  131.5586  153.1962 H   0  0  0  0  0  0  0  0  0  0  0  0
  148.8795  131.5021  154.5727 H   0  0  0  0  0  0  0  0  0  0  0  0
  147.2814  130.7727  153.3365 H   0  0  0  0  0  0  0  0  0  0  0  0
  145.9788  131.9453  153.4688 H   0  0  0  0  0  0  0  0  0  0  0  0
  146.6246  130.1949  151.0184 H   0  0  0  0  0  0  0  0  0  0  0  0
  145.2429  130.0171  152.0830 H   0  0  0  0  0  0  0  0  0  0  0  0
  146.7361  132.1478  149.5767 H   0  0  0  0  0  0  0  0  0  0  0  0
  145.4127  133.2974  149.6320 H   0  0  0  0  0  0  0  0  0  0  0  0
  146.0330  133.9984  151.9244 H   0  0  0  0  0  0  0  0  0  0  0  0
  147.4072  134.1825  150.8451 H   0  0  0  0  0  0  0  0  0  0  0  0
  148.1700  132.0421  151.5528 H   0  0  0  0  0  0  0  0  0  0  0  0
  1  2  1  0  0  0  0
  1 20  1  0  0  0  0
  1 21  1  0  0  0  0
  1 22  1  0  0  0  0
  2 19  1  0  0  0  0
  2  3  2  0  0  0  0
  3  4  1  0  0  0  0
  3 23  1  0  0  0  0
  4  5  1  0  0  0  0
  4 18  2  0  0  0  0
  5  6  1  0  0  0  0
  5 24  1  0  0  0  0
  6  7  2  0  0  0  0
  6  8  1  0  0  0  0
  8  9  1  0  0  0  0
  9 10  1  0  0  0  0
  9 25  1  0  0  0  0
  9 26  1  0  0  0  0
 10 11  1  0  0  0  0
 10 12  1  0  0  0  0
 10 27  1  0  0  0  0
 11 28  1  0  0  0  0
 11 29  1  0  0  0  0
 11 30  1  0  0  0  0
 12 17  1  0  0  0  0
 12 13  1  0  0  0  0
 12 39  1  0  0  0  0
 13 14  1  0  0  0  0
 13 31  1  0  0  0  0
 13 32  1  0  0  0  0
 14 15  1  0  0  0  0
 14 33  1  0  0  0  0
 14 34  1  0  0  0  0
 15 16  1  0  0  0  0
 16 17  1  0  0  0  0
 16 35  1  0  0  0  0
 16 36  1  0  0  0  0
 17 37  1  0  0  0  0
 17 38  1  0  0  0  0
 18 19  1  0  0  0  0
M  CHG  1   8  -1
M  CHG  1  12   1
M  END
> <s_m_source_file>
AV-unprocessed.smi

> <i_m_source_file_index>
2044

> <i_lp_mmshare_version>
43012

> <i_f3d_flags>
0

> <s_epik_input>
W0NIM11jMVtjSF1jKG5vMSlbTkhdQyg9TylbTkhdW0NIMl1bQ0BIXShbQ0gzXSlOMltDSDJdW0NIMl1PW0NIMl1bQ0gyXTI=

> <s_epik_cmdline>
J2VwaWtfcHl0aG9uJywgJy1waCcsICc3LjAnLCAnLXRuJywgJzgnLCAnLW1hJywgJzIwMCcsICctbWV0YWxfYmluZGluZycsICctaW1hZScsICc8aW5maWxlLm1hZT4nLCAnLW9tYWUnLCAnPG91dGZpbGUubWFlPic=

> <r_epik_Ionization_Penalty>
6.79272

> <r_epik_Ionization_Penalty_Charging>
6.79272

> <r_epik_Ionization_Penalty_Neutral>
5.6208e-06

> <r_epik_State_Penalty>
7.45901

> <r_epik_Charging_Adjusted_Penalty>
14.2517

> <i_epik_Tot_Q>
0

> <i_epik_Tot_abs_Q>
2

> <r_epik_Metal_State_Penalty>
3.38639

> <b_epik_Metal_Only>
1

> <s_lp_Force_Field>
OPLS_2005

> <r_lp_Energy>
15.3215

> <b_lp_Chiralities_Consistent>
1

> <s_lp_Variant>
AV-unprocessed.smi:2044-10

> <Gold.Version>
5.8.1

> <Gold.Id.Protein>
6NUR|6NUR_protein|mol2

> <Gold.PLP.Fitness>
36.6912

> <Gold.PLP.PLP>
-30.2844

> <Gold.PLP.part.hbond>
-3.0000

> <Gold.PLP.part.metal>
0.0000

> <Gold.PLP.part.buried>
-2.7337

> <Gold.PLP.part.nonpolar>
-24.0514

> <Gold.PLP.part.repulsive>
0.4886

> <Gold.PLP.ligand.clash>
0.0000

> <Gold.PLP.ligand.torsion>
1.3956

> <Gold.PLP.Chemscore.Hbond>
2.9760

> <Gold.PLP.Chemscore.CHOScore>
0.0000

> <Gold.PLP.Chemscore.Metal>
0.0000

> <Gold.Chemscore.Hbonds>
donor molecule, donor type, donor heavy atom, donor atom, acceptor molecule, acceptor atom, score
      L1  H     5    24       P1  7948  0.99
      L1  H    12    39       P1 10747  1.00
      P1  H  7989  7998       L1    19  1.00

> <Gold.PLP.Chemscore.Internal.Correction>
0.2699

> <Gold.Rescore>
     Score         DG    S(hbond)    S(metal)    S(lipo)     H(rot)  DE(clash)    DE(int)     intcor
     17.78     -19.15       2.88        0.00      69.44       1.59       0.06       1.31       ----

> <Gold.Chemscore.Fitness>
17.7765

> <Gold.Chemscore.DG>
-19.1510

> <Gold.Chemscore.ZeroCoef>
-5.4800

> <Gold.Chemscore.Hbond>
2.8816

> <Gold.Chemscore.Metal>
0.0000

> <Gold.Chemscore.Lipo>
69.4407

> <Gold.Chemscore.Internal_Hbond>
0.0000

> <Gold.Chemscore.DEClash>
0.0627

> <Gold.Chemscore.DEInternal>
1.3118

> <Gold.Chemscore.Rot>
1.5930

> <Gold.Chemscore.Internal.Correction>
   9.000000E+99

> <Gold.Chemscore.Hbonds>
donor molecule, donor type, donor heavy atom, donor atom, acceptor molecule, acceptor atom, score
      L1  H     5    24       P1  7948  0.85
      L1  H    12    39       P1 10747  1.00
      P1  H  7989  7998       L1    19  0.92

> <Gold.Chemscore.Hbond.Weighted>
-9.6245

> <Gold.Chemscore.Metal.Weighted>
-0.0000

> <Gold.Chemscore.Lipo.Weighted>
-8.1246

> <Gold.Chemscore.Internal_Hbond.Weighted>
0.0000

> <Gold.Chemscore.DEClash.Weighted>
0.0627

> <Gold.Chemscore.DEInternal.Weighted>
1.3118

> <Gold.Chemscore.Rot.Weighted>
4.0781

> <Gold.Chemscore.Internal.Correction.Weighted>
   9.000000E+99

> <Gold.Protein.RotatedTorsions>
[ 6907 6896 6895 6894 ] final  170.68 input  -60.11 | X-H torsion
[ 7974 7965 7964 7962 ] final    5.85 input  175.53 | X-H torsion
[ 8008 7997 7996 7995 ] final  140.02 input   59.86 | X-H torsion
[ 10167 10162 10161 10158 ] final   73.75 input  -65.29 | X-H torsion
[ 10718 10713 10712 10709 ] final  101.02 input   66.30 | X-H torsion
[ 10763 10752 10751 10750 ] final -154.22 input  -60.55 | X-H torsion
[ 11005 11000 10999 10996 ] final -105.38 input  -57.11 | X-H torsion

> <Gold.Protein.ActiveResidues>
 VAL166  LYS551  ARG553  GLY616  TRP617  ASP618  TYR619  PRO620  LYS621  CYS622 
 ASP623  PHE694  ASN695  SER759  ASP760  ASP761  ALA762  ILE779  LEU786  VAL792 
 PHE793  MET794  SER795  GLU796  ALA797  LYS798  CYS799  TRP800  GLU811  SER814 

> <Gold.Protein.RotatedAtoms>
  151.8123  133.3383  159.3558 H   0  0  0  0  0  0  0  0  0  0  0  0  # atno 6907 bound_to 6896
  150.7322  134.5652  159.5872 H   0  0  0  0  0  0  0  0  0  0  0  0  # atno 6908 bound_to 6896
  152.3066  134.7549  160.0397 H   0  0  0  0  0  0  0  0  0  0  0  0  # atno 6909 bound_to 6896
  146.2438  140.0322  142.8389 H   0  0  0  0  0  0  0  0  0  0  0  0  # atno 7974 bound_to 7965
  156.2984  140.2352  156.4333 H   0  0  0  0  0  0  0  0  0  0  0  0  # atno 8008 bound_to 7997
  154.8251  140.0436  157.1458 H   0  0  0  0  0  0  0  0  0  0  0  0  # atno 8009 bound_to 7997
  154.9271  140.3011  155.5190 H   0  0  0  0  0  0  0  0  0  0  0  0  # atno 8010 bound_to 7997
  140.0211  144.5539  150.7581 H   0  0  0  0  0  0  0  0  0  0  0  0  # atno 10167 bound_to 10162
  157.6840  131.0714  150.5188 H   0  0  0  0  0  0  0  0  0  0  0  0  # atno 10718 bound_to 10713
  154.7874  135.3195  154.7855 H   0  0  0  0  0  0  0  0  0  0  0  0  # atno 10763 bound_to 10752
  153.8552  135.6858  153.4792 H   0  0  0  0  0  0  0  0  0  0  0  0  # atno 10764 bound_to 10752
  153.1531  135.4691  154.9604 H   0  0  0  0  0  0  0  0  0  0  0  0  # atno 10765 bound_to 10752
  141.1056  133.8803  157.1727 H   0  0  0  0  0  0  0  0  0  0  0  0  # atno 11005 bound_to 11000
  145.1144  140.9425  143.4637 LP  0  0  0  0  0  0  0  0  0  0  0  0  # atno 17320 bound_to 7965
  145.0543  139.3156  143.5912 LP  0  0  0  0  0  0  0  0  0  0  0  0  # atno 17321 bound_to 7965
  140.7342  143.2726  151.3842 LP  0  0  0  0  0  0  0  0  0  0  0  0  # atno 17342 bound_to 10162
  139.6139  144.1043  152.2326 LP  0  0  0  0  0  0  0  0  0  0  0  0  # atno 17343 bound_to 10162
  156.5502  130.4230  149.6111 LP  0  0  0  0  0  0  0  0  0  0  0  0  # atno 17370 bound_to 10713
  156.2909  130.7123  151.1972 LP  0  0  0  0  0  0  0  0  0  0  0  0  # atno 17371 bound_to 10713
  139.9925  135.0059  157.0007 LP  0  0  0  0  0  0  0  0  0  0  0  0  # atno 17394 bound_to 11000
  140.4911  134.1192  155.7233 LP  0  0  0  0  0  0  0  0  0  0  0  0  # atno 17395 bound_to 11000

$$$$
