#       Name:                AV-unprocessed.smi:47
#       Creating user name   scv26
#       Creation time:       Thu Mar 26 16:30:23 2020


#       File generated by GOLD software.
#

@<TRIPOS>MOLECULE
AV-unprocessed.smi:47
    36    38     1
SMALL
NO_CHARGES


@<TRIPOS>ATOM
      1 ****        -4.3423  -1.2210  -1.1747 O.3            1 S1                 0.0000
      2 ****        -3.2166  -0.6484  -0.5433 C.3            1 S1                 0.0000
      3 ****        -3.5087   0.7451   0.0097 C.3            1 S1                 0.0000
      4 ****        -2.5320   0.9435   1.0957 N.4            1 S1                 1.0000
      5 ****        -2.0492  -0.3794   1.5468 C.3            1 S1                 0.0000
      6 ****        -0.5469  -0.4745   1.3679 C.2            1 S1                 0.0000
      7 ****         0.2568  -1.2493   2.1209 N.2            1 S1                 0.0000
      8 ****         1.4747  -1.0879   1.6402 N.pl3          1 S1                -1.0000
      9 ****         1.3988  -0.2361   0.6064 C.2            1 S1                 0.0000
     10 ****         2.5861   0.1668  -0.1749 C.ar           1 S1                 0.0000
     11 ****         2.4586   1.0683  -1.2574 C.ar           1 S1                 0.0000
     12 ****         3.5809   1.4608  -2.0124 C.ar           1 S1                 0.0000
     13 ****         4.8547   0.9560  -1.6944 C.ar           1 S1                 0.0000
     14 ****         5.0008   0.0590  -0.6208 C.ar           1 S1                 0.0000
     15 ****         3.8752  -0.3311   0.1308 C.ar           1 S1                 0.0000
     16 ****         0.1491   0.1600   0.4099 N.2            1 S1                 0.0000
     17 ****        -2.8010  -1.4213   0.7052 C.3            1 S1                 0.0000
     18 ****        -2.3837  -0.6034  -1.2467 H              1 S1                 0.0000
     19 ****        -2.2805  -0.5078   2.6049 H              1 S1                 0.0000
     20 ****        -4.1067  -2.0812  -1.4888 H              1 S1                 0.0000
     21 ****        -3.4361   1.5260  -0.7477 H              1 S1                 0.0000
     22 ****        -4.5093   0.7829   0.4431 H              1 S1                 0.0000
     23 ****        -1.7323   1.4414   0.7288 H              1 S1                 0.0000
     24 ****         1.4894   1.4677  -1.5175 H              1 S1                 0.0000
     25 ****         3.4633   2.1496  -2.8360 H              1 S1                 0.0000
     26 ****         5.7169   1.2555  -2.2718 H              1 S1                 0.0000
     27 ****         5.9767  -0.3314  -0.3724 H              1 S1                 0.0000
     28 ****         4.0121  -1.0219   0.9498 H              1 S1                 0.0000
     29 ****        -3.6938  -1.7361   1.2484 H              1 S1                 0.0000
     30 ****        -2.2156  -2.3165   0.4904 H              1 S1                 0.0000
     31 ****        -2.9383   1.4643   1.8589 H              1 S1                 0.0000
     32 ****        -4.6255  -0.6475  -1.9434 LP             1 S1                 0.0000
     33 ****        -5.0943  -1.2957  -0.5197 LP             1 S1                 0.0000
     34 ****        -0.0146  -1.8295   2.8889 LP             1 S1                 0.0000
     35 ****         2.3064  -1.5230   1.9850 LP             1 S1                 0.0000
     36 ****        -0.1957   0.7861  -0.2894 LP             1 S1                 0.0000
@<TRIPOS>BOND
    1    1    2 1     
    2    1   20 1     
    3    2   18 1     
    4    2   17 1     
    5    2    3 1     
    6    3    4 1     
    7    3   21 1     
    8    3   22 1     
    9    4    5 1     
   10    4   23 1     
   11    4   31 1     
   12    5   19 1     
   13    5    6 1     
   14    5   17 1     
   15    6   16 1     
   16    6    7 2     
   17    7    8 1     
   18    8    9 1     
   19    9   10 1     
   20    9   16 2     
   21   10   15 ar    
   22   10   11 ar    
   23   11   12 ar    
   24   11   24 1     
   25   12   13 ar    
   26   12   25 1     
   27   13   14 ar    
   28   13   26 1     
   29   14   15 ar    
   30   14   27 1     
   31   15   28 1     
   32   17   29 1     
   33   17   30 1     
   34    1   32 1     
   35    1   33 1     
   36    7   34 1     
   37    8   35 1     
   38   16   36 1     
@<TRIPOS>SUBSTRUCTURE
      1 S1             1
@<TRIPOS>SET
LONE_PAIRS      STATIC     ATOMS    <user>   **** ""
5 32 33 34 35 36
DONOR_HYDROGENS      STATIC     ATOMS    <user>   **** ""
3 20 23 31
ATOM$BLUE        STATIC     ATOMS    COLORGROUP SYSTEM
5 32 33 34 35 36
ATOM$RED        STATIC     ATOMS    COLORGROUP SYSTEM
3 20 23 31
