AV-unprocessed.smi:1247|AV-procd|sdf|5244|dock5
  -GOLD-   22720 4353D 1   1.00000     0.00000
 Structure written by MMmdl.
 46 47  0  0  0  0  0  0  0  0  1 V2000
  145.5378  133.2781  150.8605 C   0  0  0  0  0  0  0  0  0  0  0  0
  145.2078  134.6714  151.3085 C   0  0  0  0  0  0  0  0  0  0  0  0
  143.9396  135.1898  151.7017 C   0  0  0  0  0  0  0  0  0  0  0  0
  144.2277  136.4927  152.0039 C   0  0  0  0  0  0  0  0  0  0  0  0
  143.3950  137.4721  152.4465 N   0  0  0  0  0  0  0  0  0  0  0  0
  142.2150  137.3490  153.0789 C   0  0  0  0  0  0  0  0  0  0  0  0
  141.6583  136.2851  153.3517 O   0  0  0  0  0  0  0  0  0  0  0  0
  141.6998  138.5496  153.3792 N   0  0  0  0  0  0  0  0  0  0  0  0
  140.4309  138.7678  154.0629 C   0  0  0  0  0  0  0  0  0  0  0  0
  139.2656  138.1089  153.3014 C   0  0  0  0  0  0  0  0  0  0  0  0
  137.9704  138.7655  153.4687 N   0  0  0  0  0  0  0  0  0  0  0  0
  137.3416  138.4521  154.7502 C   0  0  0  0  0  0  0  0  0  0  0  0
  135.9911  139.1711  154.9442 C   0  0  2  0  0  0  0  0  0  0  0  0
  134.8544  138.5704  154.0994 C   0  0  0  0  0  0  0  0  0  0  0  0
  136.1368  140.5736  154.7155 O   0  0  0  0  0  0  0  0  0  0  0  0
  136.7431  140.9267  153.4736 C   0  0  1  0  0  0  0  0  0  0  0  0
  136.8893  142.4514  153.4316 C   0  0  0  0  0  0  0  0  0  0  0  0
  138.1004  140.2120  153.3465 C   0  0  0  0  0  0  0  0  0  0  0  0
  145.5726  136.7095  151.8024 N   0  0  0  0  0  0  0  0  0  0  0  0
  146.3482  137.9205  151.9882 C   0  0  0  0  0  0  0  0  0  0  0  0
  146.1743  135.5808  151.3692 N   0  0  0  0  0  0  0  0  0  0  0  0
  144.6661  132.6266  150.9251 H   0  0  0  0  0  0  0  0  0  0  0  0
  146.3231  132.8419  151.4783 H   0  0  0  0  0  0  0  0  0  0  0  0
  145.8821  133.2700  149.8261 H   0  0  0  0  0  0  0  0  0  0  0  0
  142.9925  134.6742  151.7490 H   0  0  0  0  0  0  0  0  0  0  0  0
  143.7101  138.4152  152.2728 H   0  0  0  0  0  0  0  0  0  0  0  0
  142.2225  139.3726  153.1176 H   0  0  0  0  0  0  0  0  0  0  0  0
  140.4826  138.3895  155.0854 H   0  0  0  0  0  0  0  0  0  0  0  0
  140.2860  139.8451  154.1361 H   0  0  0  0  0  0  0  0  0  0  0  0
  139.5120  138.0447  152.2405 H   0  0  0  0  0  0  0  0  0  0  0  0
  139.1789  137.0791  153.6506 H   0  0  0  0  0  0  0  0  0  0  0  0
  137.1838  137.3785  154.8475 H   0  0  0  0  0  0  0  0  0  0  0  0
  138.0124  138.7394  155.5612 H   0  0  0  0  0  0  0  0  0  0  0  0
  135.7012  139.0609  155.9895 H   0  0  0  0  0  0  0  0  0  0  0  0
  134.6818  137.5282  154.3680 H   0  0  0  0  0  0  0  0  0  0  0  0
  135.0768  138.5980  153.0329 H   0  0  0  0  0  0  0  0  0  0  0  0
  133.9221  139.1118  154.2606 H   0  0  0  0  0  0  0  0  0  0  0  0
  136.0928  140.6222  152.6530 H   0  0  0  0  0  0  0  0  0  0  0  0
  137.3398  142.7762  152.4933 H   0  0  0  0  0  0  0  0  0  0  0  0
  137.5172  142.8103  154.2475 H   0  0  0  0  0  0  0  0  0  0  0  0
  135.9179  142.9385  153.5196 H   0  0  0  0  0  0  0  0  0  0  0  0
  138.7831  140.5864  154.1111 H   0  0  0  0  0  0  0  0  0  0  0  0
  138.5467  140.4612  152.3830 H   0  0  0  0  0  0  0  0  0  0  0  0
  146.2481  138.2651  153.0176 H   0  0  0  0  0  0  0  0  0  0  0  0
  145.9823  138.6959  151.3145 H   0  0  0  0  0  0  0  0  0  0  0  0
  147.4029  137.7379  151.7782 H   0  0  0  0  0  0  0  0  0  0  0  0
  1  2  1  0  0  0  0
  1 22  1  0  0  0  0
  1 23  1  0  0  0  0
  1 24  1  0  0  0  0
  2 21  2  0  0  0  0
  2  3  1  0  0  0  0
  3  4  2  0  0  0  0
  3 25  1  0  0  0  0
  4  5  1  0  0  0  0
  4 19  1  0  0  0  0
  5  6  1  0  0  0  0
  5 26  1  0  0  0  0
  6  7  2  0  0  0  0
  6  8  1  0  0  0  0
  8  9  1  0  0  0  0
  8 27  1  0  0  0  0
  9 10  1  0  0  0  0
  9 28  1  0  0  0  0
  9 29  1  0  0  0  0
 10 11  1  0  0  0  0
 10 30  1  0  0  0  0
 10 31  1  0  0  0  0
 11 18  1  0  0  0  0
 11 12  1  0  0  0  0
 12 13  1  0  0  0  0
 12 32  1  0  0  0  0
 12 33  1  0  0  0  0
 13 14  1  0  0  0  0
 13 15  1  0  0  0  0
 13 34  1  0  0  0  0
 14 35  1  0  0  0  0
 14 36  1  0  0  0  0
 14 37  1  0  0  0  0
 15 16  1  0  0  0  0
 16 17  1  0  0  0  0
 16 18  1  0  0  0  0
 16 38  1  0  0  0  0
 17 39  1  0  0  0  0
 17 40  1  0  0  0  0
 17 41  1  0  0  0  0
 18 42  1  0  0  0  0
 18 43  1  0  0  0  0
 19 20  1  0  0  0  0
 19 21  1  0  0  0  0
 20 44  1  0  0  0  0
 20 45  1  0  0  0  0
 20 46  1  0  0  0  0
M  END
> <s_m_source_file>
AV-unprocessed.smi

> <i_m_source_file_index>
1247

> <i_lp_mmshare_version>
43012

> <i_f3d_flags>
0

> <s_epik_input>
W0NIM11jMVtjSF1jKG4objEpW0NIM10pW05IXUMoPU8pW05IXVtDSDJdW0NIMl1OMltDSDJdW0NAQEhdKFtDSDNdKU9bQ0BASF0oW0NIM10pW0NIMl0y

> <s_epik_cmdline>
J2VwaWtfcHl0aG9uJywgJy1waCcsICc3LjAnLCAnLXRuJywgJzgnLCAnLW1hJywgJzIwMCcsICctbWV0YWxfYmluZGluZycsICctaW1hZScsICc8aW5maWxlLm1hZT4nLCAnLW9tYWUnLCAnPG91dGZpbGUubWFlPic=

> <r_lp_tautomer_probability>
1

> <r_epik_Ionization_Penalty>
0.233972

> <r_epik_Ionization_Penalty_Charging>
0

> <r_epik_Ionization_Penalty_Neutral>
0.233972

> <r_epik_State_Penalty>
0.224627

> <r_epik_Charging_Adjusted_Penalty>
0.224627

> <i_epik_Tot_Q>
0

> <i_epik_Tot_abs_Q>
0

> <r_epik_Metal_State_Penalty>
0.224624

> <b_epik_Metal_Only>
0

> <s_lp_Force_Field>
OPLS_2005

> <r_lp_Energy>
23.1298

> <b_lp_Chiralities_Consistent>
1

> <s_lp_Variant>
AV-unprocessed.smi:1247-2

> <Gold.Version>
5.8.1

> <Gold.Id.Protein>
6NUR|6NUR_protein|mol2

> <Gold.PLP.Fitness>
36.7728

> <Gold.PLP.PLP>
-31.5594

> <Gold.PLP.part.hbond>
-3.0000

> <Gold.PLP.part.metal>
0.0000

> <Gold.PLP.part.buried>
-2.8483

> <Gold.PLP.part.nonpolar>
-28.7403

> <Gold.PLP.part.repulsive>
2.3927

> <Gold.PLP.ligand.clash>
0.0000

> <Gold.PLP.ligand.torsion>
0.4255

> <Gold.PLP.Chemscore.Hbond>
2.0000

> <Gold.PLP.Chemscore.CHOScore>
0.0000

> <Gold.PLP.Chemscore.Metal>
0.0000

> <Gold.Chemscore.Hbonds>
donor molecule, donor type, donor heavy atom, donor atom, acceptor molecule, acceptor atom, score
      L1  H     5    26       P1 10175  1.00
      L1  H     8    27       P1 10175  1.00

> <Gold.PLP.Chemscore.Internal.Correction>
0.0644

> <Gold.Rescore>
     Score         DG    S(hbond)    S(metal)    S(lipo)     H(rot)  DE(clash)    DE(int)     intcor
     13.26     -16.99       1.95        0.00      75.13       1.48       1.42       2.30       ----

> <Gold.Chemscore.Fitness>
13.2634

> <Gold.Chemscore.DG>
-16.9890

> <Gold.Chemscore.ZeroCoef>
-5.4800

> <Gold.Chemscore.Hbond>
1.9513

> <Gold.Chemscore.Metal>
0.0000

> <Gold.Chemscore.Lipo>
75.1307

> <Gold.Chemscore.Internal_Hbond>
0.0000

> <Gold.Chemscore.DEClash>
1.4244

> <Gold.Chemscore.DEInternal>
2.3011

> <Gold.Chemscore.Rot>
1.4838

> <Gold.Chemscore.Internal.Correction>
   9.000000E+99

> <Gold.Chemscore.Hbonds>
donor molecule, donor type, donor heavy atom, donor atom, acceptor molecule, acceptor atom, score
      L1  H     5    26       P1 10175  0.92
      L1  H     8    27       P1 10175  0.97

> <Gold.Chemscore.Hbond.Weighted>
-6.5172

> <Gold.Chemscore.Metal.Weighted>
-0.0000

> <Gold.Chemscore.Lipo.Weighted>
-8.7903

> <Gold.Chemscore.Internal_Hbond.Weighted>
0.0000

> <Gold.Chemscore.DEClash.Weighted>
1.4244

> <Gold.Chemscore.DEInternal.Weighted>
2.3011

> <Gold.Chemscore.Rot.Weighted>
3.7985

> <Gold.Chemscore.Internal.Correction.Weighted>
   9.000000E+99

> <Gold.Protein.RotatedTorsions>
[ 6907 6896 6895 6894 ] final   54.91 input  -60.11 | X-H torsion
[ 7974 7965 7964 7962 ] final   70.28 input  175.53 | X-H torsion
[ 8008 7997 7996 7995 ] final  -73.35 input   59.86 | X-H torsion
[ 10167 10162 10161 10158 ] final   75.20 input  -65.29 | X-H torsion
[ 10718 10713 10712 10709 ] final  -25.88 input   66.30 | X-H torsion
[ 10763 10752 10751 10750 ] final -168.59 input  -60.55 | X-H torsion
[ 11005 11000 10999 10996 ] final   78.42 input  -57.11 | X-H torsion

> <Gold.Protein.ActiveResidues>
 VAL166  LYS551  ARG553  GLY616  TRP617  ASP618  TYR619  PRO620  LYS621  CYS622 
 ASP623  PHE694  ASN695  SER759  ASP760  ASP761  ALA762  ILE779  LEU786  VAL792 
 PHE793  MET794  SER795  GLU796  ALA797  LYS798  CYS799  TRP800  GLU811  SER814 

> <Gold.Protein.RotatedAtoms>
  152.3486  134.7036  160.0242 H   0  0  0  0  0  0  0  0  0  0  0  0  # atno 6907 bound_to 6896
  151.7398  133.3316  159.3370 H   0  0  0  0  0  0  0  0  0  0  0  0  # atno 6908 bound_to 6896
  150.7525  134.6222  159.6186 H   0  0  0  0  0  0  0  0  0  0  0  0  # atno 6909 bound_to 6896
  145.7801  139.2883  143.1271 H   0  0  0  0  0  0  0  0  0  0  0  0  # atno 7974 bound_to 7965
  154.5240  140.0780  156.8225 H   0  0  0  0  0  0  0  0  0  0  0  0  # atno 8008 bound_to 7997
  155.3515  140.3413  155.4221 H   0  0  0  0  0  0  0  0  0  0  0  0  # atno 8009 bound_to 7997
  156.1712  140.1620  156.8431 H   0  0  0  0  0  0  0  0  0  0  0  0  # atno 8010 bound_to 7997
  140.0055  144.5654  150.7701 H   0  0  0  0  0  0  0  0  0  0  0  0  # atno 10167 bound_to 10162
  156.4585  130.4499  149.6944 H   0  0  0  0  0  0  0  0  0  0  0  0  # atno 10718 bound_to 10713
  154.6613  135.2925  154.9863 H   0  0  0  0  0  0  0  0  0  0  0  0  # atno 10763 bound_to 10752
  154.0922  135.6589  153.4858 H   0  0  0  0  0  0  0  0  0  0  0  0  # atno 10764 bound_to 10752
  153.0431  135.5222  154.7565 H   0  0  0  0  0  0  0  0  0  0  0  0  # atno 10765 bound_to 10752
  139.9213  134.7762  156.1647 H   0  0  0  0  0  0  0  0  0  0  0  0  # atno 11005 bound_to 11000
  146.0083  140.8458  142.9984 LP  0  0  0  0  0  0  0  0  0  0  0  0  # atno 17320 bound_to 7965
  144.6798  140.2452  143.7338 LP  0  0  0  0  0  0  0  0  0  0  0  0  # atno 17321 bound_to 7965
  140.7402  143.2801  151.3623 LP  0  0  0  0  0  0  0  0  0  0  0  0  # atno 17342 bound_to 10162
  139.6241  144.0848  152.2418 LP  0  0  0  0  0  0  0  0  0  0  0  0  # atno 17343 bound_to 10162
  156.3741  130.7545  151.2532 LP  0  0  0  0  0  0  0  0  0  0  0  0  # atno 17370 bound_to 10713
  157.7499  131.0314  150.4182 LP  0  0  0  0  0  0  0  0  0  0  0  0  # atno 17371 bound_to 10713
  141.0737  133.6785  156.2192 LP  0  0  0  0  0  0  0  0  0  0  0  0  # atno 17394 bound_to 11000
  140.6465  134.5112  157.5574 LP  0  0  0  0  0  0  0  0  0  0  0  0  # atno 17395 bound_to 11000

$$$$
