AV-unprocessed.smi:2384|AV-procd|sdf|9462|dock7
  -GOLD-   2272013 93D 1   1.00000     0.00000
 Structure written by MMmdl.
 43 44  0  0  0  0  0  0  0  0  1 V2000
  145.6327  131.8575  149.6802 C   0  0  0  0  0  0  0  0  0  0  0  0
  145.0990  132.9631  150.5669 C   0  0  0  0  0  0  0  0  0  0  0  0
  143.7989  132.8946  151.1035 C   0  0  0  0  0  0  0  0  0  0  0  0
  143.3592  133.9567  151.9178 C   0  0  0  0  0  0  0  0  0  0  0  0
  141.9747  133.9481  152.5307 C   0  0  0  0  0  0  0  0  0  0  0  0
  144.1240  135.0320  152.2028 N   0  0  0  0  0  0  0  0  0  0  0  0
  145.3777  135.1090  151.6917 C   0  0  0  0  0  0  0  0  0  0  0  0
  146.2610  136.1939  151.9366 N   0  0  0  0  0  0  0  0  0  0  0  0
  145.9729  137.3942  152.4706 C   0  0  0  0  0  0  0  0  0  0  0  0
  144.8526  137.7709  152.8164 O   0  0  0  0  0  0  0  0  0  0  0  0
  147.0718  138.1552  152.5736 N   0  0  0  0  0  0  0  0  0  0  0  0
  147.1000  139.5218  153.0848 C   0  0  0  0  0  0  0  0  0  0  0  0
  148.2249  139.7409  154.1125 C   0  0  0  0  0  0  0  0  0  0  0  0
  149.5372  139.0211  153.7487 C   0  0  0  0  0  0  0  0  0  0  0  0
  150.5626  139.2198  154.7695 N   0  0  0  0  0  0  0  0  0  0  0  0
  150.5077  140.3635  155.6647 C   0  0  0  0  0  0  0  0  0  0  0  0
  151.8315  140.3307  156.4432 C   0  0  0  0  0  0  0  0  0  0  0  0
  152.4763  138.9773  156.1245 C   0  0  0  0  0  0  0  0  0  0  0  0
  151.6255  138.4371  154.9882 C   0  0  0  0  0  0  0  0  0  0  0  0
  151.9098  137.4111  154.3719 O   0  0  0  0  0  0  0  0  0  0  0  0
  145.8979  134.0846  150.8687 C   0  0  0  0  0  0  0  0  0  0  0  0
  144.9121  131.0447  149.5821 H   0  0  0  0  0  0  0  0  0  0  0  0
  146.5531  131.4479  150.0969 H   0  0  0  0  0  0  0  0  0  0  0  0
  145.8477  132.2441  148.6838 H   0  0  0  0  0  0  0  0  0  0  0  0
  143.1563  132.0512  150.8971 H   0  0  0  0  0  0  0  0  0  0  0  0
  141.4308  133.0402  152.2692 H   0  0  0  0  0  0  0  0  0  0  0  0
  141.3989  134.8037  152.1770 H   0  0  0  0  0  0  0  0  0  0  0  0
  142.0411  134.0031  153.6177 H   0  0  0  0  0  0  0  0  0  0  0  0
  147.2230  136.0383  151.6747 H   0  0  0  0  0  0  0  0  0  0  0  0
  147.9517  137.7661  152.2682 H   0  0  0  0  0  0  0  0  0  0  0  0
  147.2050  140.2259  152.2578 H   0  0  0  0  0  0  0  0  0  0  0  0
  146.1340  139.7326  153.5440 H   0  0  0  0  0  0  0  0  0  0  0  0
  148.4140  140.8091  154.2269 H   0  0  0  0  0  0  0  0  0  0  0  0
  147.8753  139.3923  155.0850 H   0  0  0  0  0  0  0  0  0  0  0  0
  149.3569  137.9525  153.6222 H   0  0  0  0  0  0  0  0  0  0  0  0
  149.9141  139.3836  152.7918 H   0  0  0  0  0  0  0  0  0  0  0  0
  150.3924  141.2958  155.1105 H   0  0  0  0  0  0  0  0  0  0  0  0
  149.6540  140.2566  156.3354 H   0  0  0  0  0  0  0  0  0  0  0  0
  152.4833  141.1406  156.1128 H   0  0  0  0  0  0  0  0  0  0  0  0
  151.6689  140.4580  157.5139 H   0  0  0  0  0  0  0  0  0  0  0  0
  153.5192  139.0794  155.8228 H   0  0  0  0  0  0  0  0  0  0  0  0
  152.4217  138.2982  156.9759 H   0  0  0  0  0  0  0  0  0  0  0  0
  146.8990  134.1570  150.4682 H   0  0  0  0  0  0  0  0  0  0  0  0
  1  2  1  0  0  0  0
  1 22  1  0  0  0  0
  1 23  1  0  0  0  0
  1 24  1  0  0  0  0
  2 21  1  0  0  0  0
  2  3  2  0  0  0  0
  3  4  1  0  0  0  0
  3 25  1  0  0  0  0
  4  5  1  0  0  0  0
  4  6  2  0  0  0  0
  5 26  1  0  0  0  0
  5 27  1  0  0  0  0
  5 28  1  0  0  0  0
  6  7  1  0  0  0  0
  7  8  1  0  0  0  0
  7 21  2  0  0  0  0
  8  9  1  0  0  0  0
  8 29  1  0  0  0  0
  9 10  2  0  0  0  0
  9 11  1  0  0  0  0
 11 12  1  0  0  0  0
 11 30  1  0  0  0  0
 12 13  1  0  0  0  0
 12 31  1  0  0  0  0
 12 32  1  0  0  0  0
 13 14  1  0  0  0  0
 13 33  1  0  0  0  0
 13 34  1  0  0  0  0
 14 15  1  0  0  0  0
 14 35  1  0  0  0  0
 14 36  1  0  0  0  0
 15 19  1  0  0  0  0
 15 16  1  0  0  0  0
 16 17  1  0  0  0  0
 16 37  1  0  0  0  0
 16 38  1  0  0  0  0
 17 18  1  0  0  0  0
 17 39  1  0  0  0  0
 17 40  1  0  0  0  0
 18 19  1  0  0  0  0
 18 41  1  0  0  0  0
 18 42  1  0  0  0  0
 19 20  2  0  0  0  0
 21 43  1  0  0  0  0
M  END
> <s_m_source_file>
AV-unprocessed.smi

> <i_m_source_file_index>
2384

> <i_lp_mmshare_version>
43012

> <i_f3d_flags>
0

> <s_epik_input>
W0NIM11jMVtjSF1jKFtDSDNdKW5jKFtjSF0xKVtOSF1DKD1PKVtOSF1bQ0gyXVtDSDJdW0NIMl1OMltDSDJdW0NIMl1bQ0gyXUMyPU8=

> <s_epik_cmdline>
J2VwaWtfcHl0aG9uJywgJy1waCcsICc3LjAnLCAnLXRuJywgJzgnLCAnLW1hJywgJzIwMCcsICctbWV0YWxfYmluZGluZycsICctaW1hZScsICc8aW5maWxlLm1hZT4nLCAnLW9tYWUnLCAnPG91dGZpbGUubWFlPic=

> <r_lp_tautomer_probability>
1

> <r_epik_Ionization_Penalty>
0.000241796

> <r_epik_Ionization_Penalty_Charging>
0

> <r_epik_Ionization_Penalty_Neutral>
0.000241796

> <r_epik_State_Penalty>
-0

> <r_epik_Charging_Adjusted_Penalty>
0

> <i_epik_Tot_Q>
0

> <i_epik_Tot_abs_Q>
0

> <r_epik_Metal_State_Penalty>
-0

> <b_epik_Metal_Only>
0

> <s_lp_Force_Field>
OPLS_2005

> <r_lp_Energy>
18.86

> <b_lp_Chiralities_Consistent>
1

> <s_lp_Variant>
AV-unprocessed.smi:2384-1

> <Gold.Version>
5.8.1

> <Gold.Id.Protein>
6NUR|6NUR_protein|mol2

> <Gold.PLP.Fitness>
47.5219

> <Gold.PLP.PLP>
-39.8012

> <Gold.PLP.part.hbond>
-3.0000

> <Gold.PLP.part.metal>
0.0000

> <Gold.PLP.part.buried>
-0.7227

> <Gold.PLP.part.nonpolar>
-37.4521

> <Gold.PLP.part.repulsive>
1.6029

> <Gold.PLP.ligand.clash>
0.0000

> <Gold.PLP.ligand.torsion>
0.5311

> <Gold.PLP.Chemscore.Hbond>
2.9200

> <Gold.PLP.Chemscore.CHOScore>
0.0000

> <Gold.PLP.Chemscore.Metal>
0.0000

> <Gold.Chemscore.Hbonds>
donor molecule, donor type, donor heavy atom, donor atom, acceptor molecule, acceptor atom, score
      L1  H     8    29       P1  7948  1.00
      L1  H    11    30       P1  7948  0.98
      P1  H 10752 10765       L1    20  0.92

> <Gold.PLP.Chemscore.Internal.Correction>
0.0230

> <Gold.Rescore>
     Score         DG    S(hbond)    S(metal)    S(lipo)     H(rot)  DE(clash)    DE(int)     intcor
     18.45     -20.55       2.91        0.00      83.91       1.75       0.30       1.80       ----

> <Gold.Chemscore.Fitness>
18.4513

> <Gold.Chemscore.DG>
-20.5494

> <Gold.Chemscore.ZeroCoef>
-5.4800

> <Gold.Chemscore.Hbond>
2.9101

> <Gold.Chemscore.Metal>
0.0000

> <Gold.Chemscore.Lipo>
83.9077

> <Gold.Chemscore.Internal_Hbond>
0.0000

> <Gold.Chemscore.DEClash>
0.3025

> <Gold.Chemscore.DEInternal>
1.7957

> <Gold.Chemscore.Rot>
1.7451

> <Gold.Chemscore.Internal.Correction>
   9.000000E+99

> <Gold.Chemscore.Hbonds>
donor molecule, donor type, donor heavy atom, donor atom, acceptor molecule, acceptor atom, score
      L1  H     8    29       P1  7948  0.99
      L1  H    11    30       P1  7948  0.93
      P1  H 10752 10765       L1    20  0.85

> <Gold.Chemscore.Hbond.Weighted>
-9.7197

> <Gold.Chemscore.Metal.Weighted>
-0.0000

> <Gold.Chemscore.Lipo.Weighted>
-9.8172

> <Gold.Chemscore.Internal_Hbond.Weighted>
0.0000

> <Gold.Chemscore.DEClash.Weighted>
0.3025

> <Gold.Chemscore.DEInternal.Weighted>
1.7957

> <Gold.Chemscore.Rot.Weighted>
4.4675

> <Gold.Chemscore.Internal.Correction.Weighted>
   9.000000E+99

> <Gold.Protein.RotatedTorsions>
[ 6907 6896 6895 6894 ] final -105.86 input  -60.11 | X-H torsion
[ 7974 7965 7964 7962 ] final  122.09 input  175.53 | X-H torsion
[ 8008 7997 7996 7995 ] final  -40.73 input   59.86 | X-H torsion
[ 10167 10162 10161 10158 ] final   65.14 input  -65.29 | X-H torsion
[ 10718 10713 10712 10709 ] final   13.89 input   66.30 | X-H torsion
[ 10763 10752 10751 10750 ] final  153.14 input  -60.55 | X-H torsion
[ 11005 11000 10999 10996 ] final  176.06 input  -57.11 | X-H torsion

> <Gold.Protein.ActiveResidues>
 VAL166  LYS551  ARG553  GLY616  TRP617  ASP618  TYR619  PRO620  LYS621  CYS622 
 ASP623  PHE694  ASN695  SER759  ASP760  ASP761  ALA762  ILE779  LEU786  VAL792 
 PHE793  MET794  SER795  GLU796  ALA797  LYS798  CYS799  TRP800  GLU811  SER814 

> <Gold.Protein.RotatedAtoms>
  150.7359  134.0062  159.3654 H   0  0  0  0  0  0  0  0  0  0  0  0  # atno 6907 bound_to 6896
  151.8019  135.0704  160.0411 H   0  0  0  0  0  0  0  0  0  0  0  0  # atno 6908 bound_to 6896
  152.3134  133.5740  159.5732 H   0  0  0  0  0  0  0  0  0  0  0  0  # atno 6909 bound_to 6896
  145.1116  139.3449  143.4760 H   0  0  0  0  0  0  0  0  0  0  0  0  # atno 7974 bound_to 7965
  154.4009  140.1518  156.3074 H   0  0  0  0  0  0  0  0  0  0  0  0  # atno 8008 bound_to 7997
  155.8646  140.3452  155.5758 H   0  0  0  0  0  0  0  0  0  0  0  0  # atno 8009 bound_to 7997
  155.7842  140.0847  157.2033 H   0  0  0  0  0  0  0  0  0  0  0  0  # atno 8010 bound_to 7997
  140.1146  144.4787  150.6957 H   0  0  0  0  0  0  0  0  0  0  0  0  # atno 10167 bound_to 10162
  157.0312  130.6193  149.5735 H   0  0  0  0  0  0  0  0  0  0  0  0  # atno 10718 bound_to 10713
  154.1314  135.2826  155.3184 H   0  0  0  0  0  0  0  0  0  0  0  0  # atno 10763 bound_to 10752
  154.6353  135.5421  153.7730 H   0  0  0  0  0  0  0  0  0  0  0  0  # atno 10764 bound_to 10752
  153.0280  135.6472  154.1464 H   0  0  0  0  0  0  0  0  0  0  0  0  # atno 10765 bound_to 10752
  140.3690  134.7046  157.4380 H   0  0  0  0  0  0  0  0  0  0  0  0  # atno 11005 bound_to 11000
  146.3526  140.1037  142.8607 LP  0  0  0  0  0  0  0  0  0  0  0  0  # atno 17320 bound_to 7965
  145.0841  140.9240  143.4808 LP  0  0  0  0  0  0  0  0  0  0  0  0  # atno 17321 bound_to 7965
  140.6907  143.2374  151.5140 LP  0  0  0  0  0  0  0  0  0  0  0  0  # atno 17342 bound_to 10162
  139.5601  144.2178  152.1677 LP  0  0  0  0  0  0  0  0  0  0  0  0  # atno 17343 bound_to 10162
  156.0069  130.5156  150.7859 LP  0  0  0  0  0  0  0  0  0  0  0  0  # atno 17370 bound_to 10713
  157.5176  131.0929  151.0119 LP  0  0  0  0  0  0  0  0  0  0  0  0  # atno 17371 bound_to 10713
  140.0566  134.6054  155.8797 LP  0  0  0  0  0  0  0  0  0  0  0  0  # atno 17394 bound_to 11000
  141.1960  133.6590  156.5672 LP  0  0  0  0  0  0  0  0  0  0  0  0  # atno 17395 bound_to 11000

$$$$
