AV-unprocessed.smi:1639|AV-procd|sdf|6550|dock5
  -GOLD-   22720 7233D 1   1.00000     0.00000
 Structure written by MMmdl.
 38 39  0  0  0  0  0  0  0  0  2 V2000
  152.6362  142.7603  161.8527 C   0  0  0  0  0  0  0  0  0  0  0  0
  153.4195  141.8226  160.9316 C   0  0  0  0  0  0  0  0  0  0  0  0
  152.5168  141.2060  160.0281 O   0  0  0  0  0  0  0  0  0  0  0  0
  152.4693  141.8246  158.7503 C   0  0  2  0  0  0  0  0  0  0  0  0
  152.1293  143.3134  158.9306 C   0  0  0  0  0  0  0  0  0  0  0  0
  151.9144  143.9776  157.5606 C   0  0  0  0  0  0  0  0  0  0  0  0
  150.8579  143.2176  156.7390 C   0  0  0  0  0  0  0  0  0  0  0  0
  151.2012  141.8014  156.6328 N   0  0  0  0  0  0  0  0  0  0  0  0
  150.3695  141.0983  155.7525 C   0  0  0  0  0  0  0  0  0  0  0  0
  149.0856  141.5791  155.4338 C   0  0  0  0  0  0  0  0  0  0  0  0
  148.3253  140.8115  154.5347 C   0  0  0  0  0  0  0  0  0  0  0  0
  146.9336  141.2322  154.1121 C   0  0  0  0  0  0  0  0  0  0  0  0
  148.8027  139.6663  154.0057 N   0  0  0  0  0  0  0  0  0  0  0  0
  150.0300  139.2604  154.3503 C   0  0  0  0  0  0  0  0  0  0  0  0
  150.5079  138.0922  153.8063 N   0  0  0  0  0  0  0  0  0  0  0  0
  150.8152  139.9393  155.1995 N   0  3  0  0  0  0  0  0  0  0  0  0
  151.3872  141.1229  157.9128 C   0  0  0  0  0  0  0  0  0  0  0  0
  153.3001  143.2538  162.5626 H   0  0  0  0  0  0  0  0  0  0  0  0
  151.8861  142.2116  162.4229 H   0  0  0  0  0  0  0  0  0  0  0  0
  152.1234  143.5337  161.2804 H   0  0  0  0  0  0  0  0  0  0  0  0
  154.1757  142.3840  160.3807 H   0  0  0  0  0  0  0  0  0  0  0  0
  153.9327  141.0642  161.5248 H   0  0  0  0  0  0  0  0  0  0  0  0
  153.4247  141.7423  158.2270 H   0  0  0  0  0  0  0  0  0  0  0  0
  151.2244  143.4151  159.5312 H   0  0  0  0  0  0  0  0  0  0  0  0
  152.9260  143.8198  159.4762 H   0  0  0  0  0  0  0  0  0  0  0  0
  151.6103  145.0165  157.6916 H   0  0  0  0  0  0  0  0  0  0  0  0
  152.8577  143.9967  157.0130 H   0  0  0  0  0  0  0  0  0  0  0  0
  149.8792  143.3206  157.2099 H   0  0  0  0  0  0  0  0  0  0  0  0
  150.7803  143.6539  155.7421 H   0  0  0  0  0  0  0  0  0  0  0  0
  148.7074  142.4978  155.8586 H   0  0  0  0  0  0  0  0  0  0  0  0
  146.6438  142.1686  154.5900 H   0  0  0  0  0  0  0  0  0  0  0  0
  146.2052  140.4695  154.3885 H   0  0  0  0  0  0  0  0  0  0  0  0
  146.8907  141.3748  153.0319 H   0  0  0  0  0  0  0  0  0  0  0  0
  149.9410  137.5586  153.1631 H   0  0  0  0  0  0  0  0  0  0  0  0
  151.4276  137.7513  154.0463 H   0  0  0  0  0  0  0  0  0  0  0  0
  151.6675  140.0826  157.7411 H   0  0  0  0  0  0  0  0  0  0  0  0
  150.4438  141.1146  158.4611 H   0  0  0  0  0  0  0  0  0  0  0  0
  151.7469  139.5989  155.4366 H   0  0  0  0  0  0  0  0  0  0  0  0
  1  2  1  0  0  0  0
  1 18  1  0  0  0  0
  1 19  1  0  0  0  0
  1 20  1  0  0  0  0
  2  3  1  0  0  0  0
  2 21  1  0  0  0  0
  2 22  1  0  0  0  0
  3  4  1  0  0  0  0
  4 17  1  0  0  0  0
  4  5  1  0  0  0  0
  4 23  1  0  0  0  0
  5  6  1  0  0  0  0
  5 24  1  0  0  0  0
  5 25  1  0  0  0  0
  6  7  1  0  0  0  0
  6 26  1  0  0  0  0
  6 27  1  0  0  0  0
  7  8  1  0  0  0  0
  7 28  1  0  0  0  0
  7 29  1  0  0  0  0
  8  9  1  0  0  0  0
  8 17  1  0  0  0  0
  9 16  1  0  0  0  0
  9 10  2  0  0  0  0
 10 11  1  0  0  0  0
 10 30  1  0  0  0  0
 11 12  1  0  0  0  0
 11 13  2  0  0  0  0
 12 31  1  0  0  0  0
 12 32  1  0  0  0  0
 12 33  1  0  0  0  0
 13 14  1  0  0  0  0
 14 15  1  0  0  0  0
 14 16  2  0  0  0  0
 15 34  1  0  0  0  0
 15 35  1  0  0  0  0
 16 38  1  0  0  0  0
 17 36  1  0  0  0  0
 17 37  1  0  0  0  0
M  CHG  1  16   1
M  END
> <s_m_source_file>
AV-unprocessed.smi

> <i_m_source_file_index>
1639

> <i_lp_mmshare_version>
43012

> <i_f3d_flags>
0

> <s_epik_input>
W0NIM11bQ0gyXU9bQ0BASF0xW0NIMl1bQ0gyXVtDSDJdTihbQ0gyXTEpYzJbY0hdYyhbQ0gzXSluYyhuMilbTkgyXQ==

> <s_epik_cmdline>
J2VwaWtfcHl0aG9uJywgJy1waCcsICc3LjAnLCAnLXRuJywgJzgnLCAnLW1hJywgJzIwMCcsICctbWV0YWxfYmluZGluZycsICctaW1hZScsICc8aW5maWxlLm1hZT4nLCAnLW9tYWUnLCAnPG91dGZpbGUubWFlPic=

> <r_lp_tautomer_probability>
0.424989

> <r_epik_Ionization_Penalty>
0.443088

> <r_epik_Ionization_Penalty_Charging>
0.443085

> <r_epik_Ionization_Penalty_Neutral>
3.21819e-06

> <r_epik_State_Penalty>
1.26241

> <r_epik_Charging_Adjusted_Penalty>
1.70549

> <i_epik_Tot_Q>
1

> <i_epik_Tot_abs_Q>
1

> <r_epik_Metal_State_Penalty>
1.59997

> <b_epik_Metal_Only>
0

> <s_lp_Force_Field>
OPLS_2005

> <r_lp_Energy>
14.3037

> <b_lp_Chiralities_Consistent>
1

> <s_lp_Variant>
AV-unprocessed.smi:1639-3

> <Gold.Version>
5.8.1

> <Gold.Id.Protein>
6NUR|6NUR_protein|mol2

> <Gold.PLP.Fitness>
38.4136

> <Gold.PLP.PLP>
-33.8574

> <Gold.PLP.part.hbond>
-1.4261

> <Gold.PLP.part.metal>
0.0000

> <Gold.PLP.part.buried>
-2.2090

> <Gold.PLP.part.nonpolar>
-31.8632

> <Gold.PLP.part.repulsive>
1.3956

> <Gold.PLP.ligand.clash>
0.2214

> <Gold.PLP.ligand.torsion>
0.6892

> <Gold.PLP.Chemscore.Hbond>
2.0000

> <Gold.PLP.Chemscore.CHOScore>
0.0000

> <Gold.PLP.Chemscore.Metal>
0.0000

> <Gold.Chemscore.Hbonds>
donor molecule, donor type, donor heavy atom, donor atom, acceptor molecule, acceptor atom, score
      L1  H    15    34       P1  7948  1.85

> <Gold.PLP.Chemscore.Internal.Correction>
0.1560

> <Gold.Rescore>
     Score         DG    S(hbond)    S(metal)    S(lipo)     H(rot)  DE(clash)    DE(int)     intcor
     11.50     -13.15       0.00        0.00      97.39       1.46       0.18       1.47       ----

> <Gold.Chemscore.Fitness>
11.4975

> <Gold.Chemscore.DG>
-13.1477

> <Gold.Chemscore.ZeroCoef>
-5.4800

> <Gold.Chemscore.Hbond>
0.0000

> <Gold.Chemscore.Metal>
0.0000

> <Gold.Chemscore.Lipo>
97.3926

> <Gold.Chemscore.Internal_Hbond>
0.0000

> <Gold.Chemscore.DEClash>
0.1779

> <Gold.Chemscore.DEInternal>
1.4723

> <Gold.Chemscore.Rot>
1.4560

> <Gold.Chemscore.Internal.Correction>
   9.000000E+99

> <Gold.Chemscore.Hbonds>
donor molecule, donor type, donor heavy atom, donor atom, acceptor molecule, acceptor atom, score
      L1  H    15    34       P1  7948  0.31

> <Gold.Chemscore.Hbond.Weighted>
-0.0000

> <Gold.Chemscore.Metal.Weighted>
-0.0000

> <Gold.Chemscore.Lipo.Weighted>
-11.3949

> <Gold.Chemscore.Internal_Hbond.Weighted>
0.0000

> <Gold.Chemscore.DEClash.Weighted>
0.1779

> <Gold.Chemscore.DEInternal.Weighted>
1.4723

> <Gold.Chemscore.Rot.Weighted>
3.7272

> <Gold.Chemscore.Internal.Correction.Weighted>
   9.000000E+99

> <Gold.Protein.RotatedTorsions>
[ 6907 6896 6895 6894 ] final  136.55 input  -60.11 | X-H torsion
[ 7974 7965 7964 7962 ] final  116.92 input  175.53 | X-H torsion
[ 8008 7997 7996 7995 ] final  128.64 input   59.86 | X-H torsion
[ 10167 10162 10161 10158 ] final -120.86 input  -65.29 | X-H torsion
[ 10718 10713 10712 10709 ] final   96.65 input   66.30 | X-H torsion
[ 10763 10752 10751 10750 ] final  142.25 input  -60.55 | X-H torsion
[ 11005 11000 10999 10996 ] final  153.15 input  -57.11 | X-H torsion

> <Gold.Protein.ActiveResidues>
 VAL166  LYS551  ARG553  GLY616  TRP617  ASP618  TYR619  PRO620  LYS621  CYS622 
 ASP623  PHE694  ASN695  SER759  ASP760  ASP761  ALA762  ILE779  LEU786  VAL792 
 PHE793  MET794  SER795  GLU796  ALA797  LYS798  CYS799  TRP800  GLU811  SER814 

> <Gold.Protein.RotatedAtoms>
  152.2881  133.5534  159.5539 H   0  0  0  0  0  0  0  0  0  0  0  0  # atno 6907 bound_to 6896
  150.7223  134.0468  159.3793 H   0  0  0  0  0  0  0  0  0  0  0  0  # atno 6908 bound_to 6896
  151.8376  135.0601  160.0495 H   0  0  0  0  0  0  0  0  0  0  0  0  # atno 6909 bound_to 6896
  145.1738  139.3087  143.4454 H   0  0  0  0  0  0  0  0  0  0  0  0  # atno 7974 bound_to 7965
  156.2919  140.2640  156.2468 H   0  0  0  0  0  0  0  0  0  0  0  0  # atno 8008 bound_to 7997
  154.9922  140.0388  157.2342 H   0  0  0  0  0  0  0  0  0  0  0  0  # atno 8009 bound_to 7997
  154.7676  140.2772  155.6168 H   0  0  0  0  0  0  0  0  0  0  0  0  # atno 8010 bound_to 7997
  140.0313  143.5245  152.2175 H   0  0  0  0  0  0  0  0  0  0  0  0  # atno 10167 bound_to 10162
  157.6924  131.0585  150.4524 H   0  0  0  0  0  0  0  0  0  0  0  0  # atno 10718 bound_to 10713
  153.9528  135.2968  155.3438 H   0  0  0  0  0  0  0  0  0  0  0  0  # atno 10763 bound_to 10752
  154.7417  135.5021  153.9137 H   0  0  0  0  0  0  0  0  0  0  0  0  # atno 10764 bound_to 10752
  153.0985  135.6728  153.9825 H   0  0  0  0  0  0  0  0  0  0  0  0  # atno 10765 bound_to 10752
  140.1372  134.8763  157.2283 H   0  0  0  0  0  0  0  0  0  0  0  0  # atno 11005 bound_to 11000
  146.3464  140.1892  142.8589 LP  0  0  0  0  0  0  0  0  0  0  0  0  # atno 17320 bound_to 7965
  145.0206  140.8790  143.5169 LP  0  0  0  0  0  0  0  0  0  0  0  0  # atno 17321 bound_to 7965
  139.6074  144.7600  151.3030 LP  0  0  0  0  0  0  0  0  0  0  0  0  # atno 17342 bound_to 10162
  140.7301  143.6890  150.7938 LP  0  0  0  0  0  0  0  0  0  0  0  0  # atno 17343 bound_to 10162
  156.4874  130.4087  149.6426 LP  0  0  0  0  0  0  0  0  0  0  0  0  # atno 17370 bound_to 10713
  156.3449  130.7402  151.2353 LP  0  0  0  0  0  0  0  0  0  0  0  0  # atno 17371 bound_to 10713
  140.2768  134.3396  155.7356 LP  0  0  0  0  0  0  0  0  0  0  0  0  # atno 17394 bound_to 11000
  141.2180  133.7455  156.9304 LP  0  0  0  0  0  0  0  0  0  0  0  0  # atno 17395 bound_to 11000

$$$$
