#       Name:                AV-unprocessed.smi:2675
#       Creating user name   scv26
#       Creation time:       Fri Mar 27 14:39:05 2020


#       File generated by GOLD software.
#

@<TRIPOS>MOLECULE
AV-unprocessed.smi:2675
    40    41     1
SMALL
NO_CHARGES


@<TRIPOS>ATOM
      1 ****        -2.8200   4.0034  -1.7185 C.3            1 S1                 0.0000
      2 ****        -2.4680   2.7373  -0.9992 C.2            1 S1                 0.0000
      3 ****        -2.4779   2.6892   0.3928 N.2            1 S1                 0.0000
      4 ****        -2.1239   1.4430   0.6702 C.2            1 S1                 0.0000
      5 ****        -1.8854   0.6795  -0.4051 N.pl3          1 S1                 0.0000
      6 ****        -1.4741  -0.7145  -0.3991 C.3            1 S1                 0.0000
      7 ****         0.0498  -0.8359  -0.3900 C.2            1 S1                 0.0000
      8 ****         0.6527  -1.0376  -1.4429 O.2            1 S1                 0.0000
      9 ****         0.6471  -0.7103   0.8080 N.am           1 S1                 0.0000
     10 ****         2.0813  -0.7393   1.1226 C.3            1 S1                 0.0000
     11 ****         2.2412   0.0445   2.4362 C.3            1 S1                 0.0000
     12 ****         2.8808  -0.0501   0.0905 C.1            1 S1                 0.0000
     13 ****         3.5097   0.4913  -0.7165 N.1            1 S1                 0.0000
     14 ****         2.6799  -2.1348   1.3148 C.3            1 S1                 0.0000
     15 ****         2.3581  -3.3253   0.4381 C.3            1 S1                 0.0000
     16 ****         1.8790  -3.2901   1.8724 C.3            1 S1                 0.0000
     17 ****        -2.1035   1.5062  -1.5066 C.2            1 S1                 0.0000
     18 ****        -1.9427   1.0423  -2.9199 C.3            1 S1                 0.0000
     19 ****        -2.7662   3.8884  -2.8004 H              1 S1                 0.0000
     20 ****        -2.1428   4.8115  -1.4415 H              1 S1                 0.0000
     21 ****        -3.8332   4.3234  -1.4743 H              1 S1                 0.0000
     22 ****        -2.0313   1.0769   1.6822 H              1 S1                 0.0000
     23 ****        -1.8952  -1.2064   0.4791 H              1 S1                 0.0000
     24 ****        -1.8876  -1.2189  -1.2730 H              1 S1                 0.0000
     25 ****         0.0375  -0.5534   1.5973 H              1 S1                 0.0000
     26 ****         3.2883   0.1087   2.7350 H              1 S1                 0.0000
     27 ****         1.6954  -0.4303   3.2527 H              1 S1                 0.0000
     28 ****         1.8683   1.0651   2.3378 H              1 S1                 0.0000
     29 ****         3.7171  -2.0949   1.6434 H              1 S1                 0.0000
     30 ****         1.6036  -3.2280  -0.3372 H              1 S1                 0.0000
     31 ****         3.1751  -4.0031   0.1999 H              1 S1                 0.0000
     32 ****         2.3757  -3.9461   2.5843 H              1 S1                 0.0000
     33 ****         0.8131  -3.1490   2.0381 H              1 S1                 0.0000
     34 ****        -2.1178   1.8492  -3.6303 H              1 S1                 0.0000
     35 ****        -2.6478   0.2429  -3.1470 H              1 S1                 0.0000
     36 ****        -0.9351   0.6638  -3.0923 H              1 S1                 0.0000
     37 ****        -2.7004   3.4241   1.0335 LP             1 S1                 0.0000
     38 ****         0.1461  -1.1216  -2.3010 LP             1 S1                 0.0000
     39 ****         1.6495  -1.1175  -1.4409 LP             1 S1                 0.0000
     40 ****         4.0530   0.9591  -1.4137 LP             1 S1                 0.0000
@<TRIPOS>BOND
    1    1    2 1     
    2    1   19 1     
    3    1   20 1     
    4    1   21 1     
    5    2   17 2     
    6    2    3 1     
    7    3    4 2     
    8    4    5 1     
    9    4   22 1     
   10    5    6 1     
   11    5   17 1     
   12    6    7 1     
   13    6   23 1     
   14    6   24 1     
   15    7    8 2     
   16    7    9 am    
   17    9   10 1     
   18    9   25 1     
   19   10   11 1     
   20   10   12 1     
   21   10   14 1     
   22   11   26 1     
   23   11   27 1     
   24   11   28 1     
   25   12   13 3     
   26   14   16 1     
   27   14   15 1     
   28   14   29 1     
   29   15   16 1     
   30   15   30 1     
   31   15   31 1     
   32   16   32 1     
   33   16   33 1     
   34   17   18 1     
   35   18   34 1     
   36   18   35 1     
   37   18   36 1     
   38    3   37 1     
   39    8   38 1     
   40    8   39 1     
   41   13   40 1     
@<TRIPOS>SUBSTRUCTURE
      1 S1             1
@<TRIPOS>SET
LONE_PAIRS      STATIC     ATOMS    <user>   **** ""
4 37 38 39 40
DONOR_HYDROGENS      STATIC     ATOMS    <user>   **** ""
1 25
ATOM$BLUE        STATIC     ATOMS    COLORGROUP SYSTEM
4 37 38 39 40
ATOM$RED        STATIC     ATOMS    COLORGROUP SYSTEM
1 25
