AV-unprocessed.smi:1419|AV-procd|sdf|5776|dock2
  -GOLD-   22720 5423D 1   1.00000     0.00000
 Structure written by MMmdl.
 42 43  0  0  0  0  0  0  0  0  2 V2000
  149.1915  140.2697  156.7751 C   0  0  0  0  0  0  0  0  0  0  0  0
  150.0769  141.2046  155.9406 C   0  0  2  0  0  0  0  0  0  0  0  0
  151.3461  140.4795  155.4447 C   0  0  0  0  0  0  0  0  0  0  0  0
  151.0771  139.1174  154.9701 N   0  0  0  0  0  0  0  0  0  0  0  0
  151.6191  137.9508  155.4453 C   0  0  0  0  0  0  0  0  0  0  0  0
  151.0659  136.9346  154.7096 C   0  0  0  0  0  0  0  0  0  0  0  0
  150.2169  137.5237  153.8115 N   0  3  0  0  0  0  0  0  0  0  0  0
  150.2280  138.8516  153.9684 C   0  0  0  0  0  0  0  0  0  0  0  0
  150.4256  142.3717  156.7492 N   0  0  0  0  0  0  0  0  0  0  0  0
  151.4165  142.4391  157.6556 C   0  0  0  0  0  0  0  0  0  0  0  0
  152.1738  141.4924  157.8733 O   0  0  0  0  0  0  0  0  0  0  0  0
  151.5126  143.6277  158.3007 N   0  0  0  0  0  0  0  0  0  0  0  0
  150.4112  144.5417  158.6296 C   0  0  0  0  0  0  0  0  0  0  0  0
  150.1457  144.4433  160.1442 C   0  0  2  0  0  0  0  0  0  0  0  0
  149.0471  145.4088  160.6014 C   0  0  0  0  0  0  0  0  0  0  0  0
  151.3416  144.7657  160.8593 O   0  0  0  0  0  0  0  0  0  0  0  0
  152.5004  143.9986  160.5159 C   0  0  1  0  0  0  0  0  0  0  0  0
  152.4145  142.5716  161.0867 C   0  0  0  0  0  0  0  0  0  0  0  0
  152.7326  144.0542  158.9902 C   0  0  0  0  0  0  0  0  0  0  0  0
  148.8864  139.3977  156.1960 H   0  0  0  0  0  0  0  0  0  0  0  0
  148.2844  140.7779  157.1041 H   0  0  0  0  0  0  0  0  0  0  0  0
  149.7142  139.9126  157.6634 H   0  0  0  0  0  0  0  0  0  0  0  0
  149.4882  141.5156  155.0756 H   0  0  0  0  0  0  0  0  0  0  0  0
  151.8278  141.0420  154.6428 H   0  0  0  0  0  0  0  0  0  0  0  0
  152.0740  140.3972  156.2530 H   0  0  0  0  0  0  0  0  0  0  0  0
  152.3326  137.9307  156.2566 H   0  0  0  0  0  0  0  0  0  0  0  0
  151.2093  135.8648  154.7570 H   0  0  0  0  0  0  0  0  0  0  0  0
  149.6548  139.5659  153.4045 H   0  0  0  0  0  0  0  0  0  0  0  0
  149.8604  143.1978  156.6160 H   0  0  0  0  0  0  0  0  0  0  0  0
  150.6980  145.5602  158.3632 H   0  0  0  0  0  0  0  0  0  0  0  0
  149.4932  144.3443  158.0761 H   0  0  0  0  0  0  0  0  0  0  0  0
  149.8325  143.4293  160.3954 H   0  0  0  0  0  0  0  0  0  0  0  0
  148.1038  145.1989  160.0966 H   0  0  0  0  0  0  0  0  0  0  0  0
  149.3178  146.4435  160.3890 H   0  0  0  0  0  0  0  0  0  0  0  0
  148.8758  145.3225  161.6746 H   0  0  0  0  0  0  0  0  0  0  0  0
  153.3465  144.4864  161.0007 H   0  0  0  0  0  0  0  0  0  0  0  0
  153.3340  142.0204  160.8894 H   0  0  0  0  0  0  0  0  0  0  0  0
  151.5946  142.0010  160.6542 H   0  0  0  0  0  0  0  0  0  0  0  0
  152.2685  142.5947  162.1666 H   0  0  0  0  0  0  0  0  0  0  0  0
  153.6056  143.4589  158.7177 H   0  0  0  0  0  0  0  0  0  0  0  0
  152.9697  145.0759  158.6899 H   0  0  0  0  0  0  0  0  0  0  0  0
  149.6592  137.0281  153.1270 H   0  0  0  0  0  0  0  0  0  0  0  0
  1  2  1  0  0  0  0
  1 20  1  0  0  0  0
  1 21  1  0  0  0  0
  1 22  1  0  0  0  0
  2  3  1  0  0  0  0
  2  9  1  0  0  0  0
  2 23  1  0  0  0  0
  3  4  1  0  0  0  0
  3 24  1  0  0  0  0
  3 25  1  0  0  0  0
  4  8  1  0  0  0  0
  4  5  1  0  0  0  0
  5  6  2  0  0  0  0
  5 26  1  0  0  0  0
  6  7  1  0  0  0  0
  6 27  1  0  0  0  0
  7  8  2  0  0  0  0
  7 42  1  0  0  0  0
  8 28  1  0  0  0  0
  9 10  1  0  0  0  0
  9 29  1  0  0  0  0
 10 11  2  0  0  0  0
 10 12  1  0  0  0  0
 12 19  1  0  0  0  0
 12 13  1  0  0  0  0
 13 14  1  0  0  0  0
 13 30  1  0  0  0  0
 13 31  1  0  0  0  0
 14 15  1  0  0  0  0
 14 16  1  0  0  0  0
 14 32  1  0  0  0  0
 15 33  1  0  0  0  0
 15 34  1  0  0  0  0
 15 35  1  0  0  0  0
 16 17  1  0  0  0  0
 17 18  1  0  0  0  0
 17 19  1  0  0  0  0
 17 36  1  0  0  0  0
 18 37  1  0  0  0  0
 18 38  1  0  0  0  0
 18 39  1  0  0  0  0
 19 40  1  0  0  0  0
 19 41  1  0  0  0  0
M  CHG  1   7   1
M  END
> <s_m_source_file>
AV-unprocessed.smi

> <i_m_source_file_index>
1419

> <i_lp_mmshare_version>
43012

> <i_f3d_flags>
0

> <s_epik_input>
W2NIXTFuW2NIXVtjSF1uMVtDSDJdW0NAQEhdKFtDSDNdKVtOSF1DKD1PKU4yW0NIMl1bQ0BASF0oW0NIM10pT1tDQEBIXShbQ0gzXSlbQ0gyXTI=

> <s_epik_cmdline>
J2VwaWtfcHl0aG9uJywgJy1waCcsICc3LjAnLCAnLXRuJywgJzgnLCAnLW1hJywgJzIwMCcsICctbWV0YWxfYmluZGluZycsICctaW1hZScsICc8aW5maWxlLm1hZT4nLCAnLW9tYWUnLCAnPG91dGZpbGUubWFlPic=

> <r_lp_tautomer_probability>
1

> <r_epik_Ionization_Penalty>
0.253607

> <r_epik_Ionization_Penalty_Charging>
0

> <r_epik_Ionization_Penalty_Neutral>
0.253607

> <r_epik_State_Penalty>
0.245018

> <r_epik_Charging_Adjusted_Penalty>
0.245018

> <i_epik_Tot_Q>
1

> <i_epik_Tot_abs_Q>
1

> <r_epik_Metal_State_Penalty>
0.535379

> <b_epik_Metal_Only>
0

> <s_lp_Force_Field>
OPLS_2005

> <r_lp_Energy>
31.3779

> <b_lp_Chiralities_Consistent>
1

> <s_lp_Variant>
AV-unprocessed.smi:1419-3

> <Gold.Version>
5.8.1

> <Gold.Id.Protein>
6NUR|6NUR_protein|mol2

> <Gold.PLP.Fitness>
46.5261

> <Gold.PLP.PLP>
-35.9627

> <Gold.PLP.part.hbond>
-3.0000

> <Gold.PLP.part.metal>
0.0000

> <Gold.PLP.part.buried>
0.7424

> <Gold.PLP.part.nonpolar>
-34.0792

> <Gold.PLP.part.repulsive>
0.5308

> <Gold.PLP.ligand.clash>
0.0000

> <Gold.PLP.ligand.torsion>
0.7278

> <Gold.PLP.Chemscore.Hbond>
2.9750

> <Gold.PLP.Chemscore.CHOScore>
1.0000

> <Gold.PLP.Chemscore.Metal>
0.0000

> <Gold.Chemscore.Hbonds>
donor molecule, donor type, donor heavy atom, donor atom, acceptor molecule, acceptor atom, score
      L1  H     7    42       P1  7948  2.00
      L1  H     9    29       P1  8028  0.98
      L1  C     8    28       P1  7957  1.00

> <Gold.PLP.Chemscore.Internal.Correction>
0.0940

> <Gold.Rescore>
     Score         DG    S(hbond)    S(metal)    S(lipo)     H(rot)  DE(clash)    DE(int)     intcor
     14.94     -17.73       1.79        0.00      89.33       1.63       0.56       2.23       ----

> <Gold.Chemscore.Fitness>
14.9398

> <Gold.Chemscore.DG>
-17.7316

> <Gold.Chemscore.ZeroCoef>
-5.4800

> <Gold.Chemscore.Hbond>
1.7861

> <Gold.Chemscore.Metal>
0.0000

> <Gold.Chemscore.Lipo>
89.3321

> <Gold.Chemscore.Internal_Hbond>
0.0000

> <Gold.Chemscore.DEClash>
0.5617

> <Gold.Chemscore.DEInternal>
2.2300

> <Gold.Chemscore.Rot>
1.6273

> <Gold.Chemscore.Internal.Correction>
   9.000000E+99

> <Gold.Chemscore.Hbonds>
donor molecule, donor type, donor heavy atom, donor atom, acceptor molecule, acceptor atom, score
      L1  H     7    42       P1  7948  0.55
      L1  H     9    29       P1  8028  0.91

> <Gold.Chemscore.Hbond.Weighted>
-5.9655

> <Gold.Chemscore.Metal.Weighted>
-0.0000

> <Gold.Chemscore.Lipo.Weighted>
-10.4519

> <Gold.Chemscore.Internal_Hbond.Weighted>
0.0000

> <Gold.Chemscore.DEClash.Weighted>
0.5617

> <Gold.Chemscore.DEInternal.Weighted>
2.2300

> <Gold.Chemscore.Rot.Weighted>
4.1658

> <Gold.Chemscore.Internal.Correction.Weighted>
   9.000000E+99

> <Gold.Protein.RotatedTorsions>
[ 6907 6896 6895 6894 ] final  133.93 input  -60.11 | X-H torsion
[ 7974 7965 7964 7962 ] final -167.63 input  175.53 | X-H torsion
[ 8008 7997 7996 7995 ] final   40.89 input   59.86 | X-H torsion
[ 10167 10162 10161 10158 ] final  171.94 input  -65.29 | X-H torsion
[ 10718 10713 10712 10709 ] final  -17.46 input   66.30 | X-H torsion
[ 10763 10752 10751 10750 ] final  -94.20 input  -60.55 | X-H torsion
[ 11005 11000 10999 10996 ] final -113.49 input  -57.11 | X-H torsion

> <Gold.Protein.ActiveResidues>
 VAL166  LYS551  ARG553  GLY616  TRP617  ASP618  TYR619  PRO620  LYS621  CYS622 
 ASP623  PHE694  ASN695  SER759  ASP760  ASP761  ALA762  ILE779  LEU786  VAL792 
 PHE793  MET794  SER795  GLU796  ALA797  LYS798  CYS799  TRP800  GLU811  SER814 

> <Gold.Protein.RotatedAtoms>
  152.3167  133.5810  159.5716 H   0  0  0  0  0  0  0  0  0  0  0  0  # atno 6907 bound_to 6896
  150.7350  134.0071  159.3666 H   0  0  0  0  0  0  0  0  0  0  0  0  # atno 6908 bound_to 6896
  151.7959  135.0723  160.0444 H   0  0  0  0  0  0  0  0  0  0  0  0  # atno 6909 bound_to 6896
  144.7219  140.2490  143.6281 H   0  0  0  0  0  0  0  0  0  0  0  0  # atno 7974 bound_to 7965
  155.2606  140.3359  155.4273 H   0  0  0  0  0  0  0  0  0  0  0  0  # atno 8008 bound_to 7997
  156.2176  140.1795  156.7595 H   0  0  0  0  0  0  0  0  0  0  0  0  # atno 8009 bound_to 7997
  154.5777  140.0659  156.9043 H   0  0  0  0  0  0  0  0  0  0  0  0  # atno 8010 bound_to 7997
  139.5061  144.3429  152.0000 H   0  0  0  0  0  0  0  0  0  0  0  0  # atno 10167 bound_to 10162
  156.5732  130.4755  149.6353 H   0  0  0  0  0  0  0  0  0  0  0  0  # atno 10718 bound_to 10713
  154.7032  135.5166  153.8557 H   0  0  0  0  0  0  0  0  0  0  0  0  # atno 10763 bound_to 10752
  153.0720  135.6604  154.0235 H   0  0  0  0  0  0  0  0  0  0  0  0  # atno 10764 bound_to 10752
  154.0090  135.3004  155.3374 H   0  0  0  0  0  0  0  0  0  0  0  0  # atno 10765 bound_to 10752
  141.0611  133.9534  157.2665 H   0  0  0  0  0  0  0  0  0  0  0  0  # atno 11005 bound_to 11000
  145.8246  139.2059  143.1918 LP  0  0  0  0  0  0  0  0  0  0  0  0  # atno 17320 bound_to 7965
  146.0484  140.8094  142.9794 LP  0  0  0  0  0  0  0  0  0  0  0  0  # atno 17321 bound_to 7965
  140.2867  144.3799  150.6101 LP  0  0  0  0  0  0  0  0  0  0  0  0  # atno 17342 bound_to 10162
  140.5977  143.2167  151.7132 LP  0  0  0  0  0  0  0  0  0  0  0  0  # atno 17343 bound_to 10162
  156.2696  130.7009  151.1803 LP  0  0  0  0  0  0  0  0  0  0  0  0  # atno 17370 bound_to 10713
  157.7343  131.0583  150.5529 LP  0  0  0  0  0  0  0  0  0  0  0  0  # atno 17371 bound_to 10713
  139.9433  135.0188  156.8776 LP  0  0  0  0  0  0  0  0  0  0  0  0  # atno 17394 bound_to 11000
  140.5867  134.0300  155.7484 LP  0  0  0  0  0  0  0  0  0  0  0  0  # atno 17395 bound_to 11000

$$$$
