AV-unprocessed.smi:921|AV-procd|sdf|4169|dock4
  -GOLD-   22720 2 73D 1   1.00000     0.00000
 Structure written by MMmdl.
 39 41  0  0  0  0  0  0  0  0  1 V2000
  151.7162  137.2045  157.5285 N   0  0  0  0  0  0  0  0  0  0  0  0
  150.8323  137.4901  158.4887 C   0  0  0  0  0  0  0  0  0  0  0  0
  150.2867  136.6143  159.1566 O   0  0  0  0  0  0  0  0  0  0  0  0
  150.5100  138.9703  158.7275 C   0  0  0  0  0  0  0  0  0  0  0  0
  149.7577  139.5216  157.5406 C   0  0  0  0  0  0  0  0  0  0  0  0
  148.6110  138.9773  157.1202 N   0  0  0  0  0  0  0  0  0  0  0  0
  148.2677  139.7654  156.0410 C   0  0  0  0  0  0  0  0  0  0  0  0
  147.1627  139.6912  155.1632 C   0  0  0  0  0  0  0  0  0  0  0  0
  147.0199  140.6245  154.1154 C   0  0  0  0  0  0  0  0  0  0  0  0
  147.9771  141.6433  153.9325 C   0  0  0  0  0  0  0  0  0  0  0  0
  149.0840  141.7356  154.7979 C   0  0  0  0  0  0  0  0  0  0  0  0
  149.2223  140.8004  155.8413 C   0  0  0  0  0  0  0  0  0  0  0  0
  150.1674  140.6187  156.8465 N   0  0  0  0  0  0  0  0  0  0  0  0
  151.3299  141.4729  157.0613 C   0  0  0  0  0  0  0  0  0  0  0  0
  150.9626  142.8498  157.6486 C   0  0  2  0  0  0  0  0  0  0  0  0
  151.3203  143.8745  156.7428 O   0  0  0  0  0  0  0  0  0  0  0  0
  151.5932  143.0459  159.0203 C   0  0  0  0  0  0  0  0  0  0  0  0
  152.3836  142.0242  159.5930 C   0  0  0  0  0  0  0  0  0  0  0  0
  152.9601  142.1981  160.8659 C   0  0  0  0  0  0  0  0  0  0  0  0
  153.7174  141.2144  161.4064 F   0  0  0  0  0  0  0  0  0  0  0  0
  152.7477  143.3938  161.5774 C   0  0  0  0  0  0  0  0  0  0  0  0
  151.9556  144.4133  161.0163 C   0  0  0  0  0  0  0  0  0  0  0  0
  151.3771  144.2412  159.7434 C   0  0  0  0  0  0  0  0  0  0  0  0
  150.6099  145.2298  159.2238 F   0  0  0  0  0  0  0  0  0  0  0  0
  151.9658  136.2430  157.3488 H   0  0  0  0  0  0  0  0  0  0  0  0
  152.1415  137.9489  156.9953 H   0  0  0  0  0  0  0  0  0  0  0  0
  149.9018  139.0920  159.6246 H   0  0  0  0  0  0  0  0  0  0  0  0
  151.4454  139.4974  158.9004 H   0  0  0  0  0  0  0  0  0  0  0  0
  146.4240  138.9146  155.2956 H   0  0  0  0  0  0  0  0  0  0  0  0
  146.1720  140.5585  153.4495 H   0  0  0  0  0  0  0  0  0  0  0  0
  147.8605  142.3546  153.1280 H   0  0  0  0  0  0  0  0  0  0  0  0
  149.8186  142.5151  154.6606 H   0  0  0  0  0  0  0  0  0  0  0  0
  151.9952  140.9544  157.7528 H   0  0  0  0  0  0  0  0  0  0  0  0
  151.9000  141.5717  156.1388 H   0  0  0  0  0  0  0  0  0  0  0  0
  149.8786  142.9063  157.7531 H   0  0  0  0  0  0  0  0  0  0  0  0
  150.5347  144.2013  156.3317 H   0  0  0  0  0  0  0  0  0  0  0  0
  152.5478  141.1000  159.0584 H   0  0  0  0  0  0  0  0  0  0  0  0
  153.1890  143.5278  162.5540 H   0  0  0  0  0  0  0  0  0  0  0  0
  151.7897  145.3288  161.5644 H   0  0  0  0  0  0  0  0  0  0  0  0
  1  2  1  0  0  0  0
  1 25  1  0  0  0  0
  1 26  1  0  0  0  0
  2  3  2  0  0  0  0
  2  4  1  0  0  0  0
  4  5  1  0  0  0  0
  4 27  1  0  0  0  0
  4 28  1  0  0  0  0
  5 13  1  0  0  0  0
  5  6  2  0  0  0  0
  6  7  1  0  0  0  0
  7 12  2  0  0  0  0
  7  8  1  0  0  0  0
  8  9  2  0  0  0  0
  8 29  1  0  0  0  0
  9 10  1  0  0  0  0
  9 30  1  0  0  0  0
 10 11  2  0  0  0  0
 10 31  1  0  0  0  0
 11 12  1  0  0  0  0
 11 32  1  0  0  0  0
 12 13  1  0  0  0  0
 13 14  1  0  0  0  0
 14 15  1  0  0  0  0
 14 33  1  0  0  0  0
 14 34  1  0  0  0  0
 15 16  1  0  0  0  0
 15 17  1  0  0  0  0
 15 35  1  0  0  0  0
 16 36  1  0  0  0  0
 17 23  1  0  0  0  0
 17 18  2  0  0  0  0
 18 19  1  0  0  0  0
 18 37  1  0  0  0  0
 19 20  1  0  0  0  0
 19 21  2  0  0  0  0
 21 22  1  0  0  0  0
 21 38  1  0  0  0  0
 22 23  2  0  0  0  0
 22 39  1  0  0  0  0
 23 24  1  0  0  0  0
M  END
> <s_m_source_file>
AV-unprocessed.smi

> <i_m_source_file_index>
921

> <i_lp_mmshare_version>
43012

> <i_f3d_flags>
0

> <s_epik_input>
W2NIXTFbY0hdW2NIXVtjSF1jKGMxMiluKGMobjIpW0NIMl1DKD1PKVtOSDJdKVtDSDJdW0NASF0oW09IXSljM1tjSF1jKEYpW2NIXVtjSF1jM0Y=

> <s_epik_cmdline>
J2VwaWtfcHl0aG9uJywgJy1waCcsICc3LjAnLCAnLXRuJywgJzgnLCAnLW1hJywgJzIwMCcsICctbWV0YWxfYmluZGluZycsICctaW1hZScsICc8aW5maWxlLm1hZT4nLCAnLW9tYWUnLCAnPG91dGZpbGUubWFlPic=

> <r_epik_Ionization_Penalty>
0.0366909

> <r_epik_Ionization_Penalty_Charging>
0

> <r_epik_Ionization_Penalty_Neutral>
0.0366909

> <r_epik_State_Penalty>
0.0306642

> <r_epik_Charging_Adjusted_Penalty>
0.0306642

> <i_epik_Tot_Q>
0

> <i_epik_Tot_abs_Q>
0

> <r_epik_Metal_State_Penalty>
0.028853

> <b_epik_Metal_Only>
0

> <s_lp_Force_Field>
OPLS_2005

> <r_lp_Energy>
14.0365

> <b_lp_Chiralities_Consistent>
1

> <s_lp_Variant>
AV-unprocessed.smi:921-1

> <Gold.Version>
5.8.1

> <Gold.Id.Protein>
6NUR|6NUR_protein|mol2

> <Gold.PLP.Fitness>
50.7703

> <Gold.PLP.PLP>
-46.7189

> <Gold.PLP.part.hbond>
-2.0000

> <Gold.PLP.part.metal>
0.0000

> <Gold.PLP.part.buried>
-5.2208

> <Gold.PLP.part.nonpolar>
-38.3221

> <Gold.PLP.part.repulsive>
0.1070

> <Gold.PLP.ligand.clash>
0.0000

> <Gold.PLP.ligand.torsion>
0.9943

> <Gold.PLP.Chemscore.Hbond>
2.0000

> <Gold.PLP.Chemscore.CHOScore>
0.0000

> <Gold.PLP.Chemscore.Metal>
0.0000

> <Gold.Chemscore.Hbonds>
donor molecule, donor type, donor heavy atom, donor atom, acceptor molecule, acceptor atom, score
      L1  H    16    36       P1  8028  1.00
      P1  H  6896  6908       L1     3  1.00

> <Gold.PLP.Chemscore.Internal.Correction>
0.0399

> <Gold.Rescore>
     Score         DG    S(hbond)    S(metal)    S(lipo)     H(rot)  DE(clash)    DE(int)     intcor
     16.57     -17.78       2.00        0.00     116.30       3.11       0.04       1.18       ----

> <Gold.Chemscore.Fitness>
16.5656

> <Gold.Chemscore.DG>
-17.7850

> <Gold.Chemscore.ZeroCoef>
-5.4800

> <Gold.Chemscore.Hbond>
1.9955

> <Gold.Chemscore.Metal>
0.0000

> <Gold.Chemscore.Lipo>
116.3003

> <Gold.Chemscore.Internal_Hbond>
0.0000

> <Gold.Chemscore.DEClash>
0.0405

> <Gold.Chemscore.DEInternal>
1.1788

> <Gold.Chemscore.Rot>
3.1121

> <Gold.Chemscore.Internal.Correction>
   9.000000E+99

> <Gold.Chemscore.Hbonds>
donor molecule, donor type, donor heavy atom, donor atom, acceptor molecule, acceptor atom, score
      L1  H    16    36       P1  8028  1.00
      P1  H  6896  6908       L1     3  1.00

> <Gold.Chemscore.Hbond.Weighted>
-6.6649

> <Gold.Chemscore.Metal.Weighted>
-0.0000

> <Gold.Chemscore.Lipo.Weighted>
-13.6071

> <Gold.Chemscore.Internal_Hbond.Weighted>
0.0000

> <Gold.Chemscore.DEClash.Weighted>
0.0405

> <Gold.Chemscore.DEInternal.Weighted>
1.1788

> <Gold.Chemscore.Rot.Weighted>
7.9670

> <Gold.Chemscore.Internal.Correction.Weighted>
   9.000000E+99

> <Gold.Protein.RotatedTorsions>
[ 6907 6896 6895 6894 ] final -159.44 input  -60.11 | X-H torsion
[ 7974 7965 7964 7962 ] final -157.63 input  175.53 | X-H torsion
[ 8008 7997 7996 7995 ] final -105.65 input   59.86 | X-H torsion
[ 10167 10162 10161 10158 ] final  -14.06 input  -65.29 | X-H torsion
[ 10718 10713 10712 10709 ] final  -44.48 input   66.30 | X-H torsion
[ 10763 10752 10751 10750 ] final -105.12 input  -60.55 | X-H torsion
[ 11005 11000 10999 10996 ] final   63.57 input  -57.11 | X-H torsion

> <Gold.Protein.ActiveResidues>
 VAL166  LYS551  ARG553  GLY616  TRP617  ASP618  TYR619  PRO620  LYS621  CYS622 
 ASP623  PHE694  ASN695  SER759  ASP760  ASP761  ALA762  ILE779  LEU786  VAL792 
 PHE793  MET794  SER795  GLU796  ALA797  LYS798  CYS799  TRP800  GLU811  SER814 

> <Gold.Protein.RotatedAtoms>
  151.3337  133.3990  159.2664 H   0  0  0  0  0  0  0  0  0  0  0  0  # atno 6907 bound_to 6896
  150.9935  134.9265  159.7923 H   0  0  0  0  0  0  0  0  0  0  0  0  # atno 6908 bound_to 6896
  152.5254  134.3302  159.9232 H   0  0  0  0  0  0  0  0  0  0  0  0  # atno 6909 bound_to 6896
  144.7540  140.3941  143.6026 H   0  0  0  0  0  0  0  0  0  0  0  0  # atno 7974 bound_to 7965
  154.9029  140.0412  157.1903 H   0  0  0  0  0  0  0  0  0  0  0  0  # atno 8008 bound_to 7997
  154.8425  140.2916  155.5629 H   0  0  0  0  0  0  0  0  0  0  0  0  # atno 8009 bound_to 7997
  156.2993  140.2480  156.3370 H   0  0  0  0  0  0  0  0  0  0  0  0  # atno 8010 bound_to 7997
  140.7194  143.5361  150.9463 H   0  0  0  0  0  0  0  0  0  0  0  0  # atno 10167 bound_to 10162
  156.2382  130.4178  149.8792 H   0  0  0  0  0  0  0  0  0  0  0  0  # atno 10718 bound_to 10713
  154.7925  135.4761  154.0085 H   0  0  0  0  0  0  0  0  0  0  0  0  # atno 10763 bound_to 10752
  153.1653  135.6816  153.8692 H   0  0  0  0  0  0  0  0  0  0  0  0  # atno 10764 bound_to 10752
  153.8292  135.3194  155.3395 H   0  0  0  0  0  0  0  0  0  0  0  0  # atno 10765 bound_to 10752
  140.0016  134.6433  155.9921 H   0  0  0  0  0  0  0  0  0  0  0  0  # atno 11005 bound_to 11000
  145.6845  139.1625  143.2682 LP  0  0  0  0  0  0  0  0  0  0  0  0  # atno 17320 bound_to 7965
  146.1526  140.6903  142.9315 LP  0  0  0  0  0  0  0  0  0  0  0  0  # atno 17321 bound_to 7965
  139.9082  143.6752  152.3120 LP  0  0  0  0  0  0  0  0  0  0  0  0  # atno 17342 bound_to 10162
  139.7126  144.7617  151.1087 LP  0  0  0  0  0  0  0  0  0  0  0  0  # atno 17343 bound_to 10162
  156.6383  130.8694  151.3509 LP  0  0  0  0  0  0  0  0  0  0  0  0  # atno 17370 bound_to 10713
  157.7164  130.9502  150.1270 LP  0  0  0  0  0  0  0  0  0  0  0  0  # atno 17371 bound_to 10713
  141.1646  133.6537  156.4435 LP  0  0  0  0  0  0  0  0  0  0  0  0  # atno 17394 bound_to 11000
  140.4717  134.6747  157.5132 LP  0  0  0  0  0  0  0  0  0  0  0  0  # atno 17395 bound_to 11000

$$$$
