#       Name:                AV-unprocessed.smi:265
#       Creating user name   scv26
#       Creation time:       Thu Mar 26 21:22:27 2020


#       File generated by GOLD software.
#

@<TRIPOS>MOLECULE
AV-unprocessed.smi:265
    64    68     1
SMALL
NO_CHARGES


@<TRIPOS>ATOM
      1 ****        -3.0669  -2.8731  -5.2674 C.3            1 S1                 0.0000
      2 ****        -2.5497  -3.4278  -3.9297 C.3            1 S1                 0.0000
      3 ****        -3.6422  -4.0683  -3.2730 O.3            1 S1                 0.0000
      4 ****        -3.5460  -3.8477  -1.8768 C.3            1 S1                 0.0000
      5 ****        -3.0299  -2.4204  -1.8042 C.3            1 S1                 0.0000
      6 ****        -1.9875  -2.3878  -2.9209 C.3            1 S1                 0.0000
      7 ****        -1.9429  -1.0757  -3.4547 O.3            1 S1                 0.0000
      8 ****        -0.5580  -2.7797  -2.4588 C.3            1 S1                 0.0000
      9 ****        -0.0217  -1.9531  -1.3872 N.pl3          1 S1                 0.0000
     10 ****        -0.0378  -2.2427  -0.0411 C.2            1 S1                 0.0000
     11 ****         0.5141  -1.3455   0.7288 N.2            1 S1                 0.0000
     12 ****         0.9544  -0.3656  -0.1532 C.ar           1 S1                 0.0000
     13 ****         1.6404   0.8720   0.0032 C.ar           1 S1                 0.0000
     14 ****         2.0003   1.3612   1.2171 N.3            1 S1                 0.0000
     15 ****         3.0968   2.3279   1.2647 C.3            1 S1                 0.0000
     16 ****         3.6428   2.4595   2.6946 C.3            1 S1                 0.0000
     17 ****         2.5290   2.7762   3.7061 C.3            1 S1                 0.0000
     18 ****         2.0202   4.0855   3.4859 O.3            1 S1                 0.0000
     19 ****         1.1106   4.5271   4.4955 C.3            1 S1                 0.0000
     20 ****         0.0195   3.4834   4.7986 C.2            1 S1                 0.0000
     21 ****        -0.9900   3.8136   5.4165 O.2            1 S1                 0.0000
     22 ****         0.2299   2.2163   4.4070 N.am           1 S1                 0.0000
     23 ****         1.3486   1.7894   3.5731 C.3            1 S1                 0.0000
     24 ****         0.8816   1.6595   2.1089 C.3            1 S1                 0.0000
     25 ****         1.9340   1.5705  -1.1263 N.ar           1 S1                 0.0000
     26 ****         1.5773   1.0985  -2.3244 C.ar           1 S1                 0.0000
     27 ****         0.9315  -0.0318  -2.6170 N.ar           1 S1                 0.0000
     28 ****         0.6365  -0.7395  -1.4897 C.ar           1 S1                 0.0000
     29 ****         2.9503   2.7281   4.7122 H              1 S1                 0.0000
     30 ****         1.6713   0.8080   3.9230 H              1 S1                 0.0000
     31 ****        -2.2691  -2.3872  -5.8298 H              1 S1                 0.0000
     32 ****        -3.8652  -2.1462  -5.1136 H              1 S1                 0.0000
     33 ****        -3.4657  -3.6744  -5.8896 H              1 S1                 0.0000
     34 ****        -1.7974  -4.1897  -4.1395 H              1 S1                 0.0000
     35 ****        -4.5091  -3.9748  -1.3824 H              1 S1                 0.0000
     36 ****        -2.8345  -4.5484  -1.4375 H              1 S1                 0.0000
     37 ****        -3.8541  -1.7422  -2.0325 H              1 S1                 0.0000
     38 ****        -2.6552  -2.1513  -0.8180 H              1 S1                 0.0000
     39 ****        -1.5798  -0.4974  -2.8015 H              1 S1                 0.0000
     40 ****        -0.5456  -3.8152  -2.1161 H              1 S1                 0.0000
     41 ****         0.1334  -2.7349  -3.3016 H              1 S1                 0.0000
     42 ****        -0.4805  -3.1452   0.3551 H              1 S1                 0.0000
     43 ****         3.9031   2.0172   0.5986 H              1 S1                 0.0000
     44 ****         2.7402   3.2960   0.9102 H              1 S1                 0.0000
     45 ****         4.1250   1.5230   2.9776 H              1 S1                 0.0000
     46 ****         4.4157   3.2275   2.7329 H              1 S1                 0.0000
     47 ****         1.6614   4.7382   5.4128 H              1 S1                 0.0000
     48 ****         0.6489   5.4606   4.1731 H              1 S1                 0.0000
     49 ****        -0.4672   1.5228   4.6371 H              1 S1                 0.0000
     50 ****         0.4234   2.5932   1.7786 H              1 S1                 0.0000
     51 ****         0.1055   0.8975   2.0440 H              1 S1                 0.0000
     52 ****         1.8481   1.7145  -3.1693 H              1 S1                 0.0000
     53 ****        -3.6135  -5.0506  -3.4584 LP             1 S1                 0.0000
     54 ****        -4.5035  -3.6901  -3.6121 LP             1 S1                 0.0000
     55 ****        -2.8670  -0.7772  -3.6929 LP             1 S1                 0.0000
     56 ****        -1.3676  -1.0639  -4.2725 LP             1 S1                 0.0000
     57 ****         0.6006  -1.3596   1.7250 LP             1 S1                 0.0000
     58 ****         2.4463   0.5601   1.6164 LP             1 S1                 0.0000
     59 ****         1.5444   4.0952   2.6065 LP             1 S1                 0.0000
     60 ****         2.7907   4.7222   3.4551 LP             1 S1                 0.0000
     61 ****        -1.1023   4.7591   5.7220 LP             1 S1                 0.0000
     62 ****        -1.6991   3.1367   5.6139 LP             1 S1                 0.0000
     63 ****         2.4196   2.4422  -1.0597 LP             1 S1                 0.0000
     64 ****         0.6944  -0.3225  -3.5440 LP             1 S1                 0.0000
@<TRIPOS>BOND
    1    1    2 1     
    2    1   31 1     
    3    1   32 1     
    4    1   33 1     
    5    2    6 1     
    6    2    3 1     
    7    2   34 1     
    8    3    4 1     
    9    4    5 1     
   10    4   35 1     
   11    4   36 1     
   12    5    6 1     
   13    5   37 1     
   14    5   38 1     
   15    6    7 1     
   16    6    8 1     
   17    7   39 1     
   18    8    9 1     
   19    8   40 1     
   20    8   41 1     
   21    9   28 1     
   22    9   10 1     
   23   10   11 2     
   24   10   42 1     
   25   11   12 1     
   26   12   28 ar    
   27   12   13 ar    
   28   13   14 1     
   29   13   25 ar    
   30   14   24 1     
   31   14   15 1     
   32   15   16 1     
   33   15   43 1     
   34   15   44 1     
   35   16   17 1     
   36   16   45 1     
   37   16   46 1     
   38   17   29 1     
   39   17   23 1     
   40   17   18 1     
   41   18   19 1     
   42   19   20 1     
   43   19   47 1     
   44   19   48 1     
   45   20   21 2     
   46   20   22 am    
   47   22   23 1     
   48   22   49 1     
   49   23   30 1     
   50   23   24 1     
   51   24   50 1     
   52   24   51 1     
   53   25   26 ar    
   54   26   27 ar    
   55   26   52 1     
   56   27   28 ar    
   57    3   53 1     
   58    3   54 1     
   59    7   55 1     
   60    7   56 1     
   61   11   57 1     
   62   14   58 1     
   63   18   59 1     
   64   18   60 1     
   65   21   61 1     
   66   21   62 1     
   67   25   63 1     
   68   27   64 1     
@<TRIPOS>SUBSTRUCTURE
      1 S1             1
@<TRIPOS>SET
LONE_PAIRS      STATIC     ATOMS    <user>   **** ""
12 53 54 55 56 57 58 59 60 61 62 63 64
DONOR_HYDROGENS      STATIC     ATOMS    <user>   **** ""
2 39 49
ATOM$BLUE        STATIC     ATOMS    COLORGROUP SYSTEM
12 53 54 55 56 57 58 59 60 61 62 63 64
ATOM$RED        STATIC     ATOMS    COLORGROUP SYSTEM
2 39 49
