AV-unprocessed.smi:48|AV-procd|sdf|447|dock6
  -GOLD-   2262016313D 1   1.00000     0.00000
 Structure written by MMmdl.
 30 32  0  0  0  0  0  0  0  0  1 V2000
  150.1443  143.1292  157.3121 O   0  0  0  0  0  0  0  0  0  0  0  0
  150.8055  141.9873  156.8106 C   0  0  0  0  0  0  0  0  0  0  0  0
  150.1379  141.5205  155.5082 C   0  0  1  0  0  0  0  0  0  0  0  0
  150.8078  140.3689  155.0101 O   0  0  0  0  0  0  0  0  0  0  0  0
  149.9511  139.6600  154.1698 C   0  0  1  0  0  0  0  0  0  0  0  0
  150.1598  138.2034  154.4273 N   0  0  0  0  0  0  0  0  0  0  0  0
  151.3111  137.5089  154.3211 C   0  0  0  0  0  0  0  0  0  0  0  0
  151.2723  136.2082  154.6071 N   0  0  0  0  0  0  0  0  0  0  0  0
  149.9403  136.0400  154.9480 C   0  0  0  0  0  0  0  0  0  0  0  0
  149.1908  134.9123  155.3624 C   0  0  0  0  0  0  0  0  0  0  0  0
  149.9325  133.3626  155.5223 Cl  0  0  0  0  0  0  0  0  0  0  0  0
  147.8735  135.0767  155.6312 N   0  0  0  0  0  0  0  0  0  0  0  0
  147.3237  136.2899  155.4987 C   0  0  0  0  0  0  0  0  0  0  0  0
  147.8991  137.4362  155.1180 N   0  0  0  0  0  0  0  0  0  0  0  0
  149.2272  137.2685  154.8471 C   0  0  0  0  0  0  0  0  0  0  0  0
  148.5090  140.0826  154.5002 C   0  0  2  0  0  0  0  0  0  0  0  0
  147.9183  140.7540  153.4022 O   0  0  0  0  0  0  0  0  0  0  0  0
  148.7115  141.0040  155.7030 C   0  0  2  0  0  0  0  0  0  0  0  0
  147.7551  142.0443  155.7875 O   0  0  0  0  0  0  0  0  0  0  0  0
  150.1475  142.3052  154.7488 H   0  0  0  0  0  0  0  0  0  0  0  0
  150.2250  139.8065  153.1236 H   0  0  0  0  0  0  0  0  0  0  0  0
  147.8910  139.2208  154.7567 H   0  0  0  0  0  0  0  0  0  0  0  0
  148.6589  140.4143  156.6184 H   0  0  0  0  0  0  0  0  0  0  0  0
  149.6891  143.5501  156.5988 H   0  0  0  0  0  0  0  0  0  0  0  0
  151.8654  142.1952  156.6610 H   0  0  0  0  0  0  0  0  0  0  0  0
  150.7322  141.2081  157.5698 H   0  0  0  0  0  0  0  0  0  0  0  0
  152.2311  137.9842  154.0136 H   0  0  0  0  0  0  0  0  0  0  0  0
  146.2703  136.3521  155.7290 H   0  0  0  0  0  0  0  0  0  0  0  0
  148.2627  140.3864  152.6029 H   0  0  0  0  0  0  0  0  0  0  0  0
  148.1915  142.8661  155.6234 H   0  0  0  0  0  0  0  0  0  0  0  0
  1  2  1  0  0  0  0
  1 24  1  0  0  0  0
  2  3  1  0  0  0  0
  2 25  1  0  0  0  0
  2 26  1  0  0  0  0
  3 20  1  0  0  0  0
  3 18  1  0  0  0  0
  3  4  1  0  0  0  0
  4  5  1  0  0  0  0
  5 21  1  0  0  0  0
  5  6  1  0  0  0  0
  5 16  1  0  0  0  0
  6 15  1  0  0  0  0
  6  7  1  0  0  0  0
  7  8  2  0  0  0  0
  7 27  1  0  0  0  0
  8  9  1  0  0  0  0
  9 15  2  0  0  0  0
  9 10  1  0  0  0  0
 10 11  1  0  0  0  0
 10 12  2  0  0  0  0
 12 13  1  0  0  0  0
 13 14  2  0  0  0  0
 13 28  1  0  0  0  0
 14 15  1  0  0  0  0
 16 22  1  0  0  0  0
 16 17  1  0  0  0  0
 16 18  1  0  0  0  0
 17 29  1  0  0  0  0
 18 23  1  0  0  0  0
 18 19  1  0  0  0  0
 19 30  1  0  0  0  0
M  END
> <s_m_source_file>
AV-unprocessed.smi

> <i_m_source_file_index>
48

> <i_lp_mmshare_version>
43012

> <i_f3d_flags>
0

> <s_epik_input>
W09IXVtDSDJdW0NASF0xT1tDQEhdKFtDQEhdKFtPSF0pW0NAQEhdMVtPSF0pbihbY0hdbjIpYyhjMjMpbltjSF1uYzNDbA==

> <s_epik_cmdline>
J2VwaWtfcHl0aG9uJywgJy1waCcsICc3LjAnLCAnLXRuJywgJzgnLCAnLW1hJywgJzIwMCcsICctbWV0YWxfYmluZGluZycsICctaW1hZScsICc8aW5maWxlLm1hZT4nLCAnLW9tYWUnLCAnPG91dGZpbGUubWFlPic=

> <r_lp_tautomer_probability>
1

> <r_epik_Ionization_Penalty>
3.45505e-06

> <r_epik_Ionization_Penalty_Charging>
0

> <r_epik_Ionization_Penalty_Neutral>
3.45505e-06

> <r_epik_State_Penalty>
-0

> <r_epik_Charging_Adjusted_Penalty>
0

> <i_epik_Tot_Q>
0

> <i_epik_Tot_abs_Q>
0

> <r_epik_Metal_State_Penalty>
-0

> <b_epik_Metal_Only>
0

> <s_epik_Chemistry_Notes>
This compound contains an acetal/aminal-like group ( X-CH(R)-Y where X, Y are N, S, or O) that may be acid/base labile, releasing an aldehyde.

> <s_lp_Force_Field>
OPLS_2005

> <r_lp_Energy>
36.5243

> <b_lp_Chiralities_Consistent>
1

> <s_lp_Variant>
AV-unprocessed.smi:48-1

> <Gold.Version>
5.8.1

> <Gold.Id.Protein>
6NUR|6NUR_protein|mol2

> <Gold.PLP.Fitness>
39.8698

> <Gold.PLP.PLP>
-26.7024

> <Gold.PLP.part.hbond>
-4.8891

> <Gold.PLP.part.metal>
0.0000

> <Gold.PLP.part.buried>
-2.9728

> <Gold.PLP.part.nonpolar>
-19.7582

> <Gold.PLP.part.repulsive>
0.3234

> <Gold.PLP.ligand.clash>
0.0000

> <Gold.PLP.ligand.torsion>
0.0241

> <Gold.PLP.Chemscore.Hbond>
4.4000

> <Gold.PLP.Chemscore.CHOScore>
0.0000

> <Gold.PLP.Chemscore.Metal>
0.0000

> <Gold.Chemscore.Hbonds>
donor molecule, donor type, donor heavy atom, donor atom, acceptor molecule, acceptor atom, score
      L1  H     1    24       P1  8028  1.00
      L1  H    17    29       P1  7957  1.00
      L1  H    19    30       P1  8028  1.00
      P1  H  7989  7998       L1     4  0.30
      P1  H 10752 10763       L1     8  1.00

> <Gold.PLP.Chemscore.Internal.Correction>
0.0157

> <Gold.Rescore>
     Score         DG    S(hbond)    S(metal)    S(lipo)     H(rot)  DE(clash)    DE(int)     intcor
     11.31     -12.79       3.74        0.00      38.88       3.80       0.00       1.47       ----

> <Gold.Chemscore.Fitness>
11.3121

> <Gold.Chemscore.DG>
-12.7855

> <Gold.Chemscore.ZeroCoef>
-5.4800

> <Gold.Chemscore.Hbond>
3.7392

> <Gold.Chemscore.Metal>
0.0000

> <Gold.Chemscore.Lipo>
38.8800

> <Gold.Chemscore.Internal_Hbond>
0.0000

> <Gold.Chemscore.DEClash>
0.0038

> <Gold.Chemscore.DEInternal>
1.4696

> <Gold.Chemscore.Rot>
3.8017

> <Gold.Chemscore.Internal.Correction>
   9.000000E+99

> <Gold.Chemscore.Hbonds>
donor molecule, donor type, donor heavy atom, donor atom, acceptor molecule, acceptor atom, score
      L1  H     1    24       P1  8028  1.00
      L1  H    17    29       P1  7957  0.96
      L1  H    19    30       P1  8028  0.93
      P1  H 10752 10763       L1     8  0.70

> <Gold.Chemscore.Hbond.Weighted>
-12.4889

> <Gold.Chemscore.Metal.Weighted>
-0.0000

> <Gold.Chemscore.Lipo.Weighted>
-4.5490

> <Gold.Chemscore.Internal_Hbond.Weighted>
0.0000

> <Gold.Chemscore.DEClash.Weighted>
0.0038

> <Gold.Chemscore.DEInternal.Weighted>
1.4696

> <Gold.Chemscore.Rot.Weighted>
9.7324

> <Gold.Chemscore.Internal.Correction.Weighted>
   9.000000E+99

> <Gold.Protein.RotatedTorsions>
[ 6907 6896 6895 6894 ] final  -35.03 input  -60.11 | X-H torsion
[ 7974 7965 7964 7962 ] final -108.50 input  175.53 | X-H torsion
[ 8008 7997 7996 7995 ] final  106.31 input   59.86 | X-H torsion
[ 10167 10162 10161 10158 ] final  124.42 input  -65.29 | X-H torsion
[ 10718 10713 10712 10709 ] final   20.83 input   66.30 | X-H torsion
[ 10763 10752 10751 10750 ] final   60.44 input  -60.55 | X-H torsion
[ 11005 11000 10999 10996 ] final   89.58 input  -57.11 | X-H torsion

> <Gold.Protein.ActiveResidues>
 VAL166  LYS551  ARG553  GLY616  TRP617  ASP618  TYR619  PRO620  LYS621  CYS622 
 ASP623  PHE694  ASN695  SER759  ASP760  ASP761  ALA762  ILE779  LEU786  VAL792 
 PHE793  MET794  SER795  GLU796  ALA797  LYS798  CYS799  TRP800  GLU811  SER814 

> <Gold.Protein.RotatedAtoms>
  151.0451  134.9634  159.8181 H   0  0  0  0  0  0  0  0  0  0  0  0  # atno 6907 bound_to 6896
  152.5371  134.2609  159.8945 H   0  0  0  0  0  0  0  0  0  0  0  0  # atno 6908 bound_to 6896
  151.2622  133.4253  159.2650 H   0  0  0  0  0  0  0  0  0  0  0  0  # atno 6909 bound_to 6896
  145.1921  140.9019  143.3419 H   0  0  0  0  0  0  0  0  0  0  0  0  # atno 7974 bound_to 7965
  156.1732  140.3115  155.9012 H   0  0  0  0  0  0  0  0  0  0  0  0  # atno 8008 bound_to 7997
  155.3542  140.0473  157.3063 H   0  0  0  0  0  0  0  0  0  0  0  0  # atno 8009 bound_to 7997
  154.5263  140.2215  155.8895 H   0  0  0  0  0  0  0  0  0  0  0  0  # atno 8010 bound_to 7997
  139.5742  144.6955  151.3696 H   0  0  0  0  0  0  0  0  0  0  0  0  # atno 10167 bound_to 10162
  157.1300  130.6587  149.5949 H   0  0  0  0  0  0  0  0  0  0  0  0  # atno 10718 bound_to 10713
  152.9921  135.5536  154.5874 H   0  0  0  0  0  0  0  0  0  0  0  0  # atno 10763 bound_to 10752
  154.5243  135.2809  155.1237 H   0  0  0  0  0  0  0  0  0  0  0  0  # atno 10764 bound_to 10752
  154.2578  135.6387  153.5316 H   0  0  0  0  0  0  0  0  0  0  0  0  # atno 10765 bound_to 10752
  139.8872  134.8560  156.3162 H   0  0  0  0  0  0  0  0  0  0  0  0  # atno 11005 bound_to 11000
  145.0031  139.3579  143.6157 LP  0  0  0  0  0  0  0  0  0  0  0  0  # atno 17320 bound_to 7965
  146.3434  139.9263  142.8759 LP  0  0  0  0  0  0  0  0  0  0  0  0  # atno 17321 bound_to 7965
  140.7026  143.7594  150.7428 LP  0  0  0  0  0  0  0  0  0  0  0  0  # atno 17342 bound_to 10162
  140.1109  143.4700  152.2370 LP  0  0  0  0  0  0  0  0  0  0  0  0  # atno 17343 bound_to 10162
  155.9810  130.4814  150.6803 LP  0  0  0  0  0  0  0  0  0  0  0  0  # atno 17370 bound_to 10713
  157.4401  131.0860  151.0952 LP  0  0  0  0  0  0  0  0  0  0  0  0  # atno 17371 bound_to 10713
  140.9817  133.7263  156.0682 LP  0  0  0  0  0  0  0  0  0  0  0  0  # atno 17394 bound_to 11000
  140.7741  134.3800  157.5501 LP  0  0  0  0  0  0  0  0  0  0  0  0  # atno 17395 bound_to 11000

$$$$
