AV-unprocessed.smi:1762|AV-procd|sdf|7107|dock7
  -GOLD-   22720 8333D 1   1.00000     0.00000
 Structure written by MMmdl.
 53 54  0  0  0  0  0  0  0  0  2 V2000
  150.7488  141.2167  157.2480 C   0  0  0  0  0  0  0  0  0  0  0  0
  151.3155  141.1708  155.8182 C   0  0  2  0  0  0  0  0  0  0  0  0
  150.3014  141.6123  154.7445 C   0  0  0  0  0  0  0  0  0  0  0  0
  149.2572  140.6147  154.4755 N   0  0  0  0  0  0  0  0  0  0  0  0
  148.2646  141.0824  153.4666 C   0  0  1  0  0  0  0  0  0  0  0  0
  147.2113  140.0121  153.0870 C   0  0  0  0  0  0  0  0  0  0  0  0
  146.2511  139.7875  153.8234 O   0  0  0  0  0  0  0  0  0  0  0  0
  147.4265  139.3338  151.9478 N   0  0  0  0  0  0  0  0  0  0  0  0
  146.5961  138.2388  151.4550 C   0  0  0  0  0  0  0  0  0  0  0  0
  146.0366  137.3430  152.5774 C   0  0  0  0  0  0  0  0  0  0  0  0
  145.4840  136.0180  152.0820 C   0  0  0  0  0  0  0  0  0  0  0  0
  144.1623  135.8916  151.6019 C   0  0  0  0  0  0  0  0  0  0  0  0
  143.7043  134.6302  151.1671 C   0  0  0  0  0  0  0  0  0  0  0  0
  144.5761  133.5229  151.2214 C   0  0  0  0  0  0  0  0  0  0  0  0
  145.8858  133.7056  151.7097 C   0  0  0  0  0  0  0  0  0  0  0  0
  146.2862  134.9297  152.1178 N   0  3  0  0  0  0  0  0  0  0  0  0
  147.5922  142.4554  153.8107 C   0  0  0  0  0  0  0  0  0  0  0  0
  146.6205  142.3965  155.0070 C   0  0  0  0  0  0  0  0  0  0  0  0
  146.9191  143.1374  152.6041 C   0  0  0  0  0  0  0  0  0  0  0  0
  149.9075  139.3316  154.1636 C   0  0  0  0  0  0  0  0  0  0  0  0
  150.8826  138.8758  155.2648 C   0  0  1  0  0  0  0  0  0  0  0  0
  151.6247  137.5902  154.8823 C   0  0  0  0  0  0  0  0  0  0  0  0
  151.8534  139.8904  155.4963 O   0  0  0  0  0  0  0  0  0  0  0  0
  150.4599  142.2329  157.5173 H   0  0  0  0  0  0  0  0  0  0  0  0
  151.4926  140.8827  157.9715 H   0  0  0  0  0  0  0  0  0  0  0  0
  149.8652  140.5889  157.3607 H   0  0  0  0  0  0  0  0  0  0  0  0
  152.1544  141.8668  155.7902 H   0  0  0  0  0  0  0  0  0  0  0  0
  149.8717  142.5550  155.0768 H   0  0  0  0  0  0  0  0  0  0  0  0
  150.8411  141.8299  153.8212 H   0  0  0  0  0  0  0  0  0  0  0  0
  148.8218  141.2615  152.5446 H   0  0  0  0  0  0  0  0  0  0  0  0
  148.2472  139.5658  151.4066 H   0  0  0  0  0  0  0  0  0  0  0  0
  145.7703  138.6759  150.8931 H   0  0  0  0  0  0  0  0  0  0  0  0
  147.1628  137.6364  150.7430 H   0  0  0  0  0  0  0  0  0  0  0  0
  146.8220  137.1435  153.3072 H   0  0  0  0  0  0  0  0  0  0  0  0
  145.2528  137.8737  153.1204 H   0  0  0  0  0  0  0  0  0  0  0  0
  143.5056  136.7488  151.5689 H   0  0  0  0  0  0  0  0  0  0  0  0
  142.6959  134.5134  150.7973 H   0  0  0  0  0  0  0  0  0  0  0  0
  144.2447  132.5484  150.8935 H   0  0  0  0  0  0  0  0  0  0  0  0
  146.6193  132.9164  151.7870 H   0  0  0  0  0  0  0  0  0  0  0  0
  148.3856  143.1472  154.0883 H   0  0  0  0  0  0  0  0  0  0  0  0
  145.7395  141.7929  154.7919 H   0  0  0  0  0  0  0  0  0  0  0  0
  146.2705  143.3948  155.2705 H   0  0  0  0  0  0  0  0  0  0  0  0
  147.0993  141.9813  155.8939 H   0  0  0  0  0  0  0  0  0  0  0  0
  146.0185  142.6116  152.2867 H   0  0  0  0  0  0  0  0  0  0  0  0
  147.6001  143.1918  151.7548 H   0  0  0  0  0  0  0  0  0  0  0  0
  146.6251  144.1582  152.8503 H   0  0  0  0  0  0  0  0  0  0  0  0
  149.1752  138.5323  154.0529 H   0  0  0  0  0  0  0  0  0  0  0  0
  150.4362  139.4086  153.2119 H   0  0  0  0  0  0  0  0  0  0  0  0
  150.3290  138.6872  156.1850 H   0  0  0  0  0  0  0  0  0  0  0  0
  150.9271  136.7696  154.7132 H   0  0  0  0  0  0  0  0  0  0  0  0
  152.3096  137.2856  155.6738 H   0  0  0  0  0  0  0  0  0  0  0  0
  152.2081  137.7270  153.9712 H   0  0  0  0  0  0  0  0  0  0  0  0
  147.2376  135.0388  152.4705 H   0  0  0  0  0  0  0  0  0  0  0  0
  1  2  1  0  0  0  0
  1 24  1  0  0  0  0
  1 25  1  0  0  0  0
  1 26  1  0  0  0  0
  2 23  1  0  0  0  0
  2  3  1  0  0  0  0
  2 27  1  0  0  0  0
  3  4  1  0  0  0  0
  3 28  1  0  0  0  0
  3 29  1  0  0  0  0
  4  5  1  0  0  0  0
  4 20  1  0  0  0  0
  5  6  1  0  0  0  0
  5 17  1  0  0  0  0
  5 30  1  0  0  0  0
  6  7  2  0  0  0  0
  6  8  1  0  0  0  0
  8  9  1  0  0  0  0
  8 31  1  0  0  0  0
  9 10  1  0  0  0  0
  9 32  1  0  0  0  0
  9 33  1  0  0  0  0
 10 11  1  0  0  0  0
 10 34  1  0  0  0  0
 10 35  1  0  0  0  0
 11 16  1  0  0  0  0
 11 12  2  0  0  0  0
 12 13  1  0  0  0  0
 12 36  1  0  0  0  0
 13 14  2  0  0  0  0
 13 37  1  0  0  0  0
 14 15  1  0  0  0  0
 14 38  1  0  0  0  0
 15 16  2  0  0  0  0
 15 39  1  0  0  0  0
 16 53  1  0  0  0  0
 17 18  1  0  0  0  0
 17 19  1  0  0  0  0
 17 40  1  0  0  0  0
 18 41  1  0  0  0  0
 18 42  1  0  0  0  0
 18 43  1  0  0  0  0
 19 44  1  0  0  0  0
 19 45  1  0  0  0  0
 19 46  1  0  0  0  0
 20 21  1  0  0  0  0
 20 47  1  0  0  0  0
 20 48  1  0  0  0  0
 21 22  1  0  0  0  0
 21 23  1  0  0  0  0
 21 49  1  0  0  0  0
 22 50  1  0  0  0  0
 22 51  1  0  0  0  0
 22 52  1  0  0  0  0
M  CHG  1  16   1
M  END
> <s_m_source_file>
AV-unprocessed.smi

> <i_m_source_file_index>
1762

> <i_lp_mmshare_version>
43012

> <i_f3d_flags>
0

> <s_epik_input>
W0NIM11bQ0BASF0xW0NIMl1OKFtDSDJdW0NASF0oTzEpW0NIM10pW0NAQEhdKFtDSF0oW0NIM10pW0NIM10pQyg9TylbTkhdW0NIMl1bQ0gyXWMyW2NIXVtjSF1bY0hdW2NIXW4y

> <s_epik_cmdline>
J2VwaWtfcHl0aG9uJywgJy1waCcsICc3LjAnLCAnLXRuJywgJzgnLCAnLW1hJywgJzIwMCcsICctbWV0YWxfYmluZGluZycsICctaW1hZScsICc8aW5maWxlLm1hZT4nLCAnLW9tYWUnLCAnPG91dGZpbGUubWFlPic=

> <r_epik_Ionization_Penalty>
1.86475

> <r_epik_Ionization_Penalty_Charging>
1.85347

> <r_epik_Ionization_Penalty_Neutral>
0.0112771

> <r_epik_State_Penalty>
1.99714

> <r_epik_Charging_Adjusted_Penalty>
3.85061

> <i_epik_Tot_Q>
1

> <i_epik_Tot_abs_Q>
1

> <r_epik_Metal_State_Penalty>
2.02271

> <b_epik_Metal_Only>
0

> <s_lp_Force_Field>
OPLS_2005

> <r_lp_Energy>
36.6316

> <b_lp_Chiralities_Consistent>
1

> <s_lp_Variant>
AV-unprocessed.smi:1762-9

> <Gold.Version>
5.8.1

> <Gold.Id.Protein>
6NUR|6NUR_protein|mol2

> <Gold.PLP.Fitness>
53.3983

> <Gold.PLP.PLP>
-44.9587

> <Gold.PLP.part.hbond>
-3.0000

> <Gold.PLP.part.metal>
0.0000

> <Gold.PLP.part.buried>
-3.9161

> <Gold.PLP.part.nonpolar>
-39.7505

> <Gold.PLP.part.repulsive>
0.3473

> <Gold.PLP.ligand.clash>
0.0000

> <Gold.PLP.ligand.torsion>
1.0777

> <Gold.PLP.Chemscore.Hbond>
3.4032

> <Gold.PLP.Chemscore.CHOScore>
0.0000

> <Gold.PLP.Chemscore.Metal>
0.0000

> <Gold.Chemscore.Hbonds>
donor molecule, donor type, donor heavy atom, donor atom, acceptor molecule, acceptor atom, score
      L1  H     8    31       P1  7957  0.71
      L1  H    16    53       P1  7948  0.96

> <Gold.PLP.Chemscore.Internal.Correction>
0.3854

> <Gold.Rescore>
     Score         DG    S(hbond)    S(metal)    S(lipo)     H(rot)  DE(clash)    DE(int)     intcor
     15.53     -18.98       1.84        0.00     100.38       1.72       0.00       3.45       ----

> <Gold.Chemscore.Fitness>
15.5336

> <Gold.Chemscore.DG>
-18.9838

> <Gold.Chemscore.ZeroCoef>
-5.4800

> <Gold.Chemscore.Hbond>
1.8430

> <Gold.Chemscore.Metal>
0.0000

> <Gold.Chemscore.Lipo>
100.3810

> <Gold.Chemscore.Internal_Hbond>
0.0000

> <Gold.Chemscore.DEClash>
0.0033

> <Gold.Chemscore.DEInternal>
3.4468

> <Gold.Chemscore.Rot>
1.7174

> <Gold.Chemscore.Internal.Correction>
   9.000000E+99

> <Gold.Chemscore.Hbonds>
donor molecule, donor type, donor heavy atom, donor atom, acceptor molecule, acceptor atom, score
      L1  H     8    31       P1  7957  0.71
      L1  H    16    53       P1  7948  0.48

> <Gold.Chemscore.Hbond.Weighted>
-6.1558

> <Gold.Chemscore.Metal.Weighted>
-0.0000

> <Gold.Chemscore.Lipo.Weighted>
-11.7446

> <Gold.Chemscore.Internal_Hbond.Weighted>
0.0000

> <Gold.Chemscore.DEClash.Weighted>
0.0033

> <Gold.Chemscore.DEInternal.Weighted>
3.4468

> <Gold.Chemscore.Rot.Weighted>
4.3966

> <Gold.Chemscore.Internal.Correction.Weighted>
   9.000000E+99

> <Gold.Protein.RotatedTorsions>
[ 6907 6896 6895 6894 ] final   63.25 input  -60.11 | X-H torsion
[ 7974 7965 7964 7962 ] final  -98.89 input  175.53 | X-H torsion
[ 8008 7997 7996 7995 ] final   52.95 input   59.86 | X-H torsion
[ 10167 10162 10161 10158 ] final  -98.80 input  -65.29 | X-H torsion
[ 10718 10713 10712 10709 ] final   66.68 input   66.30 | X-H torsion
[ 10763 10752 10751 10750 ] final   10.84 input  -60.55 | X-H torsion
[ 11005 11000 10999 10996 ] final  -17.50 input  -57.11 | X-H torsion

> <Gold.Protein.ActiveResidues>
 VAL166  LYS551  ARG553  GLY616  TRP617  ASP618  TYR619  PRO620  LYS621  CYS622 
 ASP623  PHE694  ASN695  SER759  ASP760  ASP761  ALA762  ILE779  LEU786  VAL792 
 PHE793  MET794  SER795  GLU796  ALA797  LYS798  CYS799  TRP800  GLU811  SER814 

> <Gold.Protein.RotatedAtoms>
  152.4238  134.5907  159.9973 H   0  0  0  0  0  0  0  0  0  0  0  0  # atno 6907 bound_to 6896
  151.6049  133.3347  159.3063 H   0  0  0  0  0  0  0  0  0  0  0  0  # atno 6908 bound_to 6896
  150.8126  134.7328  159.6767 H   0  0  0  0  0  0  0  0  0  0  0  0  # atno 6909 bound_to 6896
  145.3147  140.9408  143.2749 H   0  0  0  0  0  0  0  0  0  0  0  0  # atno 7974 bound_to 7965
  155.4603  140.3461  155.4312 H   0  0  0  0  0  0  0  0  0  0  0  0  # atno 8008 bound_to 7997
  156.1165  140.1475  156.9295 H   0  0  0  0  0  0  0  0  0  0  0  0  # atno 8009 bound_to 7997
  154.4793  140.0875  156.7317 H   0  0  0  0  0  0  0  0  0  0  0  0  # atno 8010 bound_to 7997
  140.2692  143.3355  152.0551 H   0  0  0  0  0  0  0  0  0  0  0  0  # atno 10167 bound_to 10162
  157.6184  130.9281  150.0142 H   0  0  0  0  0  0  0  0  0  0  0  0  # atno 10718 bound_to 10713
  153.1989  135.6853  153.8256 H   0  0  0  0  0  0  0  0  0  0  0  0  # atno 10763 bound_to 10752
  153.7529  135.3221  155.3325 H   0  0  0  0  0  0  0  0  0  0  0  0  # atno 10764 bound_to 10752
  154.8160  135.4685  154.0746 H   0  0  0  0  0  0  0  0  0  0  0  0  # atno 10765 bound_to 10752
  140.8175  133.8094  155.9625 H   0  0  0  0  0  0  0  0  0  0  0  0  # atno 11005 bound_to 11000
  144.8987  139.4678  143.6643 LP  0  0  0  0  0  0  0  0  0  0  0  0  # atno 17320 bound_to 7965
  146.3105  139.7728  142.9023 LP  0  0  0  0  0  0  0  0  0  0  0  0  # atno 17321 bound_to 7965
  139.4994  144.6668  151.6338 LP  0  0  0  0  0  0  0  0  0  0  0  0  # atno 17342 bound_to 10162
  140.5903  143.9790  150.6321 LP  0  0  0  0  0  0  0  0  0  0  0  0  # atno 17343 bound_to 10162
  156.1317  130.3643  149.9721 LP  0  0  0  0  0  0  0  0  0  0  0  0  # atno 17370 bound_to 10713
  156.7780  130.9211  151.3645 LP  0  0  0  0  0  0  0  0  0  0  0  0  # atno 17371 bound_to 10713
  140.9134  134.2232  157.4972 LP  0  0  0  0  0  0  0  0  0  0  0  0  # atno 17394 bound_to 11000
  139.8710  134.9760  156.4905 LP  0  0  0  0  0  0  0  0  0  0  0  0  # atno 17395 bound_to 11000

$$$$
