AV-unprocessed.smi:1427|AV-procd|sdf|5810|dock5
  -GOLD-   22720 5463D 1   1.00000     0.00000
 Structure written by MMmdl.
 33 34  0  0  0  0  0  0  0  0  1 V2000
  147.0145  142.2964  154.3118 C   0  0  0  0  0  0  0  0  0  0  0  0
  147.8700  141.2612  155.0545 C   0  0  1  0  0  0  0  0  0  0  0  0
  148.2874  140.1027  154.1240 C   0  0  0  0  0  0  0  0  0  0  0  0
  149.3678  139.3037  154.6764 N   0  0  0  0  0  0  0  0  0  0  0  0
  149.2896  138.0902  155.3262 C   0  0  0  0  0  0  0  0  0  0  0  0
  150.5599  137.7368  155.6810 C   0  0  0  0  0  0  0  0  0  0  0  0
  151.3575  138.8107  155.1960 C   0  0  0  0  0  0  0  0  0  0  0  0
  150.6420  139.7451  154.5915 N   0  0  0  0  0  0  0  0  0  0  0  0
  149.0465  141.9259  155.6138 N   0  0  0  0  0  0  0  0  0  0  0  0
  149.8242  141.4449  156.5968 C   0  0  0  0  0  0  0  0  0  0  0  0
  149.6101  140.3740  157.1675 O   0  0  0  0  0  0  0  0  0  0  0  0
  151.0493  142.2956  156.9588 C   0  0  2  0  0  0  0  0  0  0  0  0
  151.7529  141.7512  158.2218 C   0  0  0  0  0  0  0  0  0  0  0  0
  152.0963  142.9795  159.0741 C   0  0  0  0  0  0  0  0  0  0  0  0
  151.2263  144.0669  158.4698 C   0  0  0  0  0  0  0  0  0  0  0  0
  151.0705  145.1734  158.9807 O   0  0  0  0  0  0  0  0  0  0  0  0
  150.6697  143.6480  157.3345 N   0  0  0  0  0  0  0  0  0  0  0  0
  146.1077  141.8409  153.9128 H   0  0  0  0  0  0  0  0  0  0  0  0
  147.5595  142.7388  153.4770 H   0  0  0  0  0  0  0  0  0  0  0  0
  146.7096  143.1046  154.9775 H   0  0  0  0  0  0  0  0  0  0  0  0
  147.2540  140.8543  155.8585 H   0  0  0  0  0  0  0  0  0  0  0  0
  147.4391  139.4395  153.9511 H   0  0  0  0  0  0  0  0  0  0  0  0
  148.5864  140.4843  153.1461 H   0  0  0  0  0  0  0  0  0  0  0  0
  148.3464  137.5888  155.4865 H   0  0  0  0  0  0  0  0  0  0  0  0
  150.8718  136.8482  156.2089 H   0  0  0  0  0  0  0  0  0  0  0  0
  152.4277  138.9384  155.2646 H   0  0  0  0  0  0  0  0  0  0  0  0
  149.3082  142.8078  155.1973 H   0  0  0  0  0  0  0  0  0  0  0  0
  151.7434  142.3518  156.1184 H   0  0  0  0  0  0  0  0  0  0  0  0
  151.1025  141.0886  158.7966 H   0  0  0  0  0  0  0  0  0  0  0  0
  152.6448  141.1787  157.9646 H   0  0  0  0  0  0  0  0  0  0  0  0
  151.8726  142.8260  160.1303 H   0  0  0  0  0  0  0  0  0  0  0  0
  153.1459  143.2567  158.9721 H   0  0  0  0  0  0  0  0  0  0  0  0
  150.0408  144.2064  156.7756 H   0  0  0  0  0  0  0  0  0  0  0  0
  1  2  1  0  0  0  0
  1 18  1  0  0  0  0
  1 19  1  0  0  0  0
  1 20  1  0  0  0  0
  2  3  1  0  0  0  0
  2  9  1  0  0  0  0
  2 21  1  0  0  0  0
  3  4  1  0  0  0  0
  3 22  1  0  0  0  0
  3 23  1  0  0  0  0
  4  8  1  0  0  0  0
  4  5  1  0  0  0  0
  5  6  2  0  0  0  0
  5 24  1  0  0  0  0
  6  7  1  0  0  0  0
  6 25  1  0  0  0  0
  7  8  2  0  0  0  0
  7 26  1  0  0  0  0
  9 10  1  0  0  0  0
  9 27  1  0  0  0  0
 10 11  2  0  0  0  0
 10 12  1  0  0  0  0
 12 17  1  0  0  0  0
 12 13  1  0  0  0  0
 12 28  1  0  0  0  0
 13 14  1  0  0  0  0
 13 29  1  0  0  0  0
 13 30  1  0  0  0  0
 14 15  1  0  0  0  0
 14 31  1  0  0  0  0
 14 32  1  0  0  0  0
 15 16  2  0  0  0  0
 15 17  1  0  0  0  0
 17 33  1  0  0  0  0
M  END
> <s_m_source_file>
AV-unprocessed.smi

> <i_m_source_file_index>
1427

> <i_lp_mmshare_version>
43012

> <i_f3d_flags>
0

> <s_epik_input>
bjFbY0hdW2NIXVtjSF1uMVtDSDJdW0NAQEhdKFtDSDNdKVtOSF1DKD1PKVtDQEBIXTJbQ0gyXVtDSDJdQyg9TylbTkhdMg==

> <s_epik_cmdline>
J2VwaWtfcHl0aG9uJywgJy1waCcsICc3LjAnLCAnLXRuJywgJzgnLCAnLW1hJywgJzIwMCcsICctbWV0YWxfYmluZGluZycsICctaW1hZScsICc8aW5maWxlLm1hZT4nLCAnLW9tYWUnLCAnPG91dGZpbGUubWFlPic=

> <r_lp_tautomer_probability>
1

> <r_epik_Ionization_Penalty>
0.000310707

> <r_epik_Ionization_Penalty_Charging>
0

> <r_epik_Ionization_Penalty_Neutral>
0.000310707

> <r_epik_State_Penalty>
-0

> <r_epik_Charging_Adjusted_Penalty>
0

> <i_epik_Tot_Q>
0

> <i_epik_Tot_abs_Q>
0

> <r_epik_Metal_State_Penalty>
-0

> <b_epik_Metal_Only>
0

> <s_lp_Force_Field>
OPLS_2005

> <r_lp_Energy>
14.2046

> <b_lp_Chiralities_Consistent>
1

> <s_lp_Variant>
AV-unprocessed.smi:1427-2

> <Gold.Version>
5.8.1

> <Gold.Id.Protein>
6NUR|6NUR_protein|mol2

> <Gold.PLP.Fitness>
39.4928

> <Gold.PLP.PLP>
-32.2880

> <Gold.PLP.part.hbond>
-2.9582

> <Gold.PLP.part.metal>
0.0000

> <Gold.PLP.part.buried>
-5.1418

> <Gold.PLP.part.nonpolar>
-25.7226

> <Gold.PLP.part.repulsive>
0.3876

> <Gold.PLP.ligand.clash>
0.0000

> <Gold.PLP.ligand.torsion>
0.7219

> <Gold.PLP.Chemscore.Hbond>
2.8713

> <Gold.PLP.Chemscore.CHOScore>
0.0000

> <Gold.PLP.Chemscore.Metal>
0.0000

> <Gold.Chemscore.Hbonds>
donor molecule, donor type, donor heavy atom, donor atom, acceptor molecule, acceptor atom, score
      L1  H     9    27       P1  8028  0.67
      L1  H    17    33       P1  8028  1.00
      P1  H  7989  7998       L1     8  1.00

> <Gold.PLP.Chemscore.Internal.Correction>
0.0349

> <Gold.Rescore>
     Score         DG    S(hbond)    S(metal)    S(lipo)     H(rot)  DE(clash)    DE(int)     intcor
     14.87     -17.08       2.73        0.00      62.27       1.88       0.19       2.01       ----

> <Gold.Chemscore.Fitness>
14.8746

> <Gold.Chemscore.DG>
-17.0758

> <Gold.Chemscore.ZeroCoef>
-5.4800

> <Gold.Chemscore.Hbond>
2.7331

> <Gold.Chemscore.Metal>
0.0000

> <Gold.Chemscore.Lipo>
62.2671

> <Gold.Chemscore.Internal_Hbond>
0.0000

> <Gold.Chemscore.DEClash>
0.1937

> <Gold.Chemscore.DEInternal>
2.0074

> <Gold.Chemscore.Rot>
1.8821

> <Gold.Chemscore.Internal.Correction>
   9.000000E+99

> <Gold.Chemscore.Hbonds>
donor molecule, donor type, donor heavy atom, donor atom, acceptor molecule, acceptor atom, score
      L1  H     9    27       P1  8028  0.63
      L1  H    17    33       P1  8028  0.96
      P1  H  7989  7998       L1     8  0.88

> <Gold.Chemscore.Hbond.Weighted>
-9.1286

> <Gold.Chemscore.Metal.Weighted>
-0.0000

> <Gold.Chemscore.Lipo.Weighted>
-7.2853

> <Gold.Chemscore.Internal_Hbond.Weighted>
0.0000

> <Gold.Chemscore.DEClash.Weighted>
0.1937

> <Gold.Chemscore.DEInternal.Weighted>
2.0074

> <Gold.Chemscore.Rot.Weighted>
4.8181

> <Gold.Chemscore.Internal.Correction.Weighted>
   9.000000E+99

> <Gold.Protein.RotatedTorsions>
[ 6907 6896 6895 6894 ] final    2.13 input  -60.11 | X-H torsion
[ 7974 7965 7964 7962 ] final   92.05 input  175.53 | X-H torsion
[ 8008 7997 7996 7995 ] final -113.63 input   59.86 | X-H torsion
[ 10167 10162 10161 10158 ] final -161.83 input  -65.29 | X-H torsion
[ 10718 10713 10712 10709 ] final   44.32 input   66.30 | X-H torsion
[ 10763 10752 10751 10750 ] final -158.99 input  -60.55 | X-H torsion
[ 11005 11000 10999 10996 ] final  150.26 input  -57.11 | X-H torsion

> <Gold.Protein.ActiveResidues>
 VAL166  LYS551  ARG553  GLY616  TRP617  ASP618  TYR619  PRO620  LYS621  CYS622 
 ASP623  PHE694  ASN695  SER759  ASP760  ASP761  ALA762  ILE779  LEU786  VAL792 
 PHE793  MET794  SER795  GLU796  ALA797  LYS798  CYS799  TRP800  GLU811  SER814 

> <Gold.Protein.RotatedAtoms>
  151.6038  135.1045  160.0065 H   0  0  0  0  0  0  0  0  0  0  0  0  # atno 6907 bound_to 6896
  152.4244  133.7166  159.6520 H   0  0  0  0  0  0  0  0  0  0  0  0  # atno 6908 bound_to 6896
  150.8132  133.8311  159.3194 H   0  0  0  0  0  0  0  0  0  0  0  0  # atno 6909 bound_to 6896
  145.4974  139.2276  143.2796 H   0  0  0  0  0  0  0  0  0  0  0  0  # atno 7974 bound_to 7965
  155.0237  140.0393  157.2447 H   0  0  0  0  0  0  0  0  0  0  0  0  # atno 8008 bound_to 7997
  154.7356  140.2739  155.6394 H   0  0  0  0  0  0  0  0  0  0  0  0  # atno 8009 bound_to 7997
  156.2852  140.2675  156.2068 H   0  0  0  0  0  0  0  0  0  0  0  0  # atno 8010 bound_to 7997
  139.6436  144.0213  152.2111 H   0  0  0  0  0  0  0  0  0  0  0  0  # atno 10167 bound_to 10162
  157.4256  130.7994  149.7555 H   0  0  0  0  0  0  0  0  0  0  0  0  # atno 10718 bound_to 10713
  154.7512  135.3093  154.8554 H   0  0  0  0  0  0  0  0  0  0  0  0  # atno 10763 bound_to 10752
  153.9341  135.6782  153.4749 H   0  0  0  0  0  0  0  0  0  0  0  0  # atno 10764 bound_to 10752
  153.1108  135.4867  154.8959 H   0  0  0  0  0  0  0  0  0  0  0  0  # atno 10765 bound_to 10752
  140.1116  134.8921  157.1944 H   0  0  0  0  0  0  0  0  0  0  0  0  # atno 11005 bound_to 11000
  146.2247  140.5773  142.9002 LP  0  0  0  0  0  0  0  0  0  0  0  0  # atno 17320 bound_to 7965
  144.7799  140.5818  143.6612 LP  0  0  0  0  0  0  0  0  0  0  0  0  # atno 17321 bound_to 7965
  139.9909  144.6362  150.7815 LP  0  0  0  0  0  0  0  0  0  0  0  0  # atno 17342 bound_to 10162
  140.7503  143.2954  151.3219 LP  0  0  0  0  0  0  0  0  0  0  0  0  # atno 17343 bound_to 10162
  155.9895  130.3951  150.3069 LP  0  0  0  0  0  0  0  0  0  0  0  0  # atno 17370 bound_to 10713
  157.1221  131.0249  151.3005 LP  0  0  0  0  0  0  0  0  0  0  0  0  # atno 17371 bound_to 10713
  140.3084  134.3052  155.7272 LP  0  0  0  0  0  0  0  0  0  0  0  0  # atno 17394 bound_to 11000
  141.2131  133.7635  156.9741 LP  0  0  0  0  0  0  0  0  0  0  0  0  # atno 17395 bound_to 11000

$$$$
