#       Name:                AV-unprocessed.smi:1437
#       Creating user name   scv26
#       Creation time:       Fri Mar 27 05:54:01 2020


#       File generated by GOLD software.
#

@<TRIPOS>MOLECULE
AV-unprocessed.smi:1437
    41    42     1
SMALL
NO_CHARGES


@<TRIPOS>ATOM
      1 ****        -6.3342  -1.7522  -0.3288 C.3            1 S1                 0.0000
      2 ****        -4.9754  -1.4523  -0.8631 C.2            1 S1                 0.0000
      3 ****        -3.7449  -1.3697  -0.2754 C.2            1 S1                 0.0000
      4 ****        -2.8875  -1.0438  -1.3618 C.2            1 S1                 0.0000
      5 ****        -1.5593  -0.8656  -1.2930 N.pl3          1 S1                -1.0000
      6 ****        -1.0512   0.3357  -0.9358 C.2            1 S1                 0.0000
      7 ****        -1.6938   1.3442  -0.6357 O.2            1 S1                 0.0000
      8 ****         0.2888   0.3655  -0.9190 N.am           1 S1                 0.0000
      9 ****         1.1259   1.5087  -0.5569 C.3            1 S1                 0.0000
     10 ****         2.5522   1.3148  -1.1014 C.3            1 S1                 0.0000
     11 ****         3.3036   0.1961  -0.3558 C.3            1 S1                 0.0000
     12 ****         3.3218   0.4447   1.1074 N.4            1 S1                 1.0000
     13 ****         4.1317  -0.5546   1.8364 C.3            1 S1                 0.0000
     14 ****         1.9551   0.5808   1.6697 C.3            1 S1                 0.0000
     15 ****         1.1807   1.7119   0.9707 C.3            1 S1                 0.0000
     16 ****        -3.5377  -0.9537  -2.5098 N.2            1 S1                 0.0000
     17 ****        -4.8784  -1.2087  -2.1978 O.3            1 S1                 0.0000
     18 ****        -6.4303  -2.8123  -0.0945 H              1 S1                 0.0000
     19 ****        -7.1072  -1.4944  -1.0531 H              1 S1                 0.0000
     20 ****        -6.5239  -1.1852   0.5826 H              1 S1                 0.0000
     21 ****        -3.4970  -1.5157   0.7653 H              1 S1                 0.0000
     22 ****         0.7660  -0.4837  -1.1837 H              1 S1                 0.0000
     23 ****         0.7016   2.4008  -1.0209 H              1 S1                 0.0000
     24 ****         2.5227   1.0991  -2.1703 H              1 S1                 0.0000
     25 ****         3.1063   2.2485  -0.9967 H              1 S1                 0.0000
     26 ****         2.8404  -0.7714  -0.5565 H              1 S1                 0.0000
     27 ****         4.3272   0.1377  -0.7277 H              1 S1                 0.0000
     28 ****         3.7007  -1.5520   1.7400 H              1 S1                 0.0000
     29 ****         4.1865  -0.3063   2.8968 H              1 S1                 0.0000
     30 ****         5.1506  -0.5823   1.4486 H              1 S1                 0.0000
     31 ****         1.4194  -0.3647   1.5688 H              1 S1                 0.0000
     32 ****         2.0197   0.7933   2.7373 H              1 S1                 0.0000
     33 ****         1.6674   2.6638   1.1870 H              1 S1                 0.0000
     34 ****         0.1755   1.7881   1.3866 H              1 S1                 0.0000
     35 ****         3.7767   1.3364   1.2411 H              1 S1                 0.0000
     36 ****        -0.9431  -1.6237  -1.5066 LP             1 S1                 0.0000
     37 ****        -2.6935   1.3205  -0.6426 LP             1 S1                 0.0000
     38 ****        -1.2153   2.1858  -0.3855 LP             1 S1                 0.0000
     39 ****        -3.1533  -0.7473  -3.4096 LP             1 S1                 0.0000
     40 ****        -5.4367  -0.4142  -2.4366 LP             1 S1                 0.0000
     41 ****        -5.1975  -2.0063  -2.7098 LP             1 S1                 0.0000
@<TRIPOS>BOND
    1    1    2 1     
    2    1   18 1     
    3    1   19 1     
    4    1   20 1     
    5    2   17 1     
    6    2    3 2     
    7    3    4 1     
    8    3   21 1     
    9    4    5 1     
   10    4   16 2     
   11    5    6 1     
   12    6    7 2     
   13    6    8 am    
   14    8    9 1     
   15    8   22 1     
   16    9   15 1     
   17    9   10 1     
   18    9   23 1     
   19   10   11 1     
   20   10   24 1     
   21   10   25 1     
   22   11   12 1     
   23   11   26 1     
   24   11   27 1     
   25   12   13 1     
   26   12   14 1     
   27   12   35 1     
   28   13   28 1     
   29   13   29 1     
   30   13   30 1     
   31   14   15 1     
   32   14   31 1     
   33   14   32 1     
   34   15   33 1     
   35   15   34 1     
   36   16   17 1     
   37    5   36 1     
   38    7   37 1     
   39    7   38 1     
   40   16   39 1     
   41   17   40 1     
   42   17   41 1     
@<TRIPOS>SUBSTRUCTURE
      1 S1             1
@<TRIPOS>SET
LONE_PAIRS      STATIC     ATOMS    <user>   **** ""
6 36 37 38 39 40 41
DONOR_HYDROGENS      STATIC     ATOMS    <user>   **** ""
2 22 35
ATOM$BLUE        STATIC     ATOMS    COLORGROUP SYSTEM
6 36 37 38 39 40 41
ATOM$RED        STATIC     ATOMS    COLORGROUP SYSTEM
2 22 35
