AV-unprocessed.smi:1475|AV-procd|sdf|5976|dock6
  -GOLD-   22720 6 63D 1   1.00000     0.00000
 Structure written by MMmdl.
 50 51  0  0  0  0  0  0  0  0  2 V2000
  151.7661  144.7071  157.8354 C   0  0  0  0  0  0  0  0  0  0  0  0
  152.2517  143.4929  158.5702 C   0  0  0  0  0  0  0  0  0  0  0  0
  153.0238  143.4369  159.7639 C   0  0  0  0  0  0  0  0  0  0  0  0
  153.1873  142.1009  159.9983 C   0  0  0  0  0  0  0  0  0  0  0  0
  153.9071  141.3997  161.1028 C   0  0  0  0  0  0  0  0  0  0  0  0
  152.5337  141.4316  158.9785 N   0  0  0  0  0  0  0  0  0  0  0  0
  152.3925  140.0005  158.7623 C   0  0  0  0  0  0  0  0  0  0  0  0
  151.9552  139.7038  157.3273 C   0  0  0  0  0  0  0  0  0  0  0  0
  152.6995  139.9778  156.3862 O   0  0  0  0  0  0  0  0  0  0  0  0
  150.7474  139.1387  157.1730 N   0  0  0  0  0  0  0  0  0  0  0  0
  150.1673  138.7360  155.8975 C   0  0  0  0  0  0  0  0  0  0  0  0
  150.4651  139.7598  154.7835 C   0  0  0  0  0  0  0  0  0  0  0  0
  149.2618  140.1055  153.9845 N   0  3  1  0  0  0  0  0  0  0  0  0
  148.4297  138.9101  153.6889 C   0  0  0  0  0  0  0  0  0  0  0  0
  147.2638  139.2526  152.7412 C   0  0  1  0  0  0  0  0  0  0  0  0
  146.4099  138.0149  152.4307 C   0  0  0  0  0  0  0  0  0  0  0  0
  146.4119  140.3870  153.3343 C   0  0  0  0  0  0  0  0  0  0  0  0
  147.2871  141.6079  153.6619 C   0  0  1  0  0  0  0  0  0  0  0  0
  146.4569  142.7448  154.2745 C   0  0  0  0  0  0  0  0  0  0  0  0
  148.4498  141.1975  154.5859 C   0  0  0  0  0  0  0  0  0  0  0  0
  151.9606  142.2890  158.1051 N   0  0  0  0  0  0  0  0  0  0  0  0
  152.1154  145.6220  158.3141 H   0  0  0  0  0  0  0  0  0  0  0  0
  150.6767  144.7414  157.8104 H   0  0  0  0  0  0  0  0  0  0  0  0
  152.1256  144.7138  156.8060 H   0  0  0  0  0  0  0  0  0  0  0  0
  153.4013  144.2551  160.3593 H   0  0  0  0  0  0  0  0  0  0  0  0
  154.3226  142.1159  161.8118 H   0  0  0  0  0  0  0  0  0  0  0  0
  154.7292  140.8002  160.7119 H   0  0  0  0  0  0  0  0  0  0  0  0
  153.2342  140.7399  161.6503 H   0  0  0  0  0  0  0  0  0  0  0  0
  153.3405  139.5058  158.9802 H   0  0  0  0  0  0  0  0  0  0  0  0
  151.6604  139.6009  159.4648 H   0  0  0  0  0  0  0  0  0  0  0  0
  150.2088  138.9424  158.0052 H   0  0  0  0  0  0  0  0  0  0  0  0
  150.5417  137.7440  155.6442 H   0  0  0  0  0  0  0  0  0  0  0  0
  149.0899  138.6369  156.0328 H   0  0  0  0  0  0  0  0  0  0  0  0
  150.8548  140.6631  155.2550 H   0  0  0  0  0  0  0  0  0  0  0  0
  151.2489  139.4002  154.1154 H   0  0  0  0  0  0  0  0  0  0  0  0
  149.0505  138.1412  153.2268 H   0  0  0  0  0  0  0  0  0  0  0  0
  148.0509  138.4915  154.6229 H   0  0  0  0  0  0  0  0  0  0  0  0
  147.6868  139.6039  151.7986 H   0  0  0  0  0  0  0  0  0  0  0  0
  145.9481  137.6140  153.3336 H   0  0  0  0  0  0  0  0  0  0  0  0
  147.0124  137.2229  151.9853 H   0  0  0  0  0  0  0  0  0  0  0  0
  145.6116  138.2549  151.7278 H   0  0  0  0  0  0  0  0  0  0  0  0
  145.6272  140.6696  152.6313 H   0  0  0  0  0  0  0  0  0  0  0  0
  145.9090  140.0390  154.2379 H   0  0  0  0  0  0  0  0  0  0  0  0
  147.7132  141.9798  152.7287 H   0  0  0  0  0  0  0  0  0  0  0  0
  145.9975  142.4396  155.2151 H   0  0  0  0  0  0  0  0  0  0  0  0
  145.6586  143.0552  153.5999 H   0  0  0  0  0  0  0  0  0  0  0  0
  147.0760  143.6198  154.4751 H   0  0  0  0  0  0  0  0  0  0  0  0
  148.0676  140.8740  155.5557 H   0  0  0  0  0  0  0  0  0  0  0  0
  149.0723  142.0718  154.7706 H   0  0  0  0  0  0  0  0  0  0  0  0
  149.5968  140.4427  153.0933 H   0  0  0  0  0  0  0  0  0  0  0  0
  1  2  1  0  0  0  0
  1 22  1  0  0  0  0
  1 23  1  0  0  0  0
  1 24  1  0  0  0  0
  2 21  2  0  0  0  0
  2  3  1  0  0  0  0
  3  4  2  0  0  0  0
  3 25  1  0  0  0  0
  4  5  1  0  0  0  0
  4  6  1  0  0  0  0
  5 26  1  0  0  0  0
  5 27  1  0  0  0  0
  5 28  1  0  0  0  0
  6  7  1  0  0  0  0
  6 21  1  0  0  0  0
  7  8  1  0  0  0  0
  7 29  1  0  0  0  0
  7 30  1  0  0  0  0
  8  9  2  0  0  0  0
  8 10  1  0  0  0  0
 10 11  1  0  0  0  0
 10 31  1  0  0  0  0
 11 12  1  0  0  0  0
 11 32  1  0  0  0  0
 11 33  1  0  0  0  0
 12 13  1  0  0  0  0
 12 34  1  0  0  0  0
 12 35  1  0  0  0  0
 13 20  1  0  0  0  0
 13 14  1  0  0  0  0
 13 50  1  0  0  0  0
 14 15  1  0  0  0  0
 14 36  1  0  0  0  0
 14 37  1  0  0  0  0
 15 16  1  0  0  0  0
 15 17  1  0  0  0  0
 15 38  1  0  0  0  0
 16 39  1  0  0  0  0
 16 40  1  0  0  0  0
 16 41  1  0  0  0  0
 17 18  1  0  0  0  0
 17 42  1  0  0  0  0
 17 43  1  0  0  0  0
 18 19  1  0  0  0  0
 18 20  1  0  0  0  0
 18 44  1  0  0  0  0
 19 45  1  0  0  0  0
 19 46  1  0  0  0  0
 19 47  1  0  0  0  0
 20 48  1  0  0  0  0
 20 49  1  0  0  0  0
M  CHG  1  13   1
M  END
> <s_m_source_file>
AV-unprocessed.smi

> <i_m_source_file_index>
1475

> <i_lp_mmshare_version>
43012

> <i_f3d_flags>
0

> <s_epik_input>
W0NIM11jMVtjSF1jKFtDSDNdKW4objEpW0NIMl1DKD1PKVtOSF1bQ0gyXVtDSDJdTjJbQ0gyXVtDQEBIXShbQ0gzXSlbQ0gyXVtDQEBIXShbQ0gzXSlbQ0gyXTI=

> <s_epik_cmdline>
J2VwaWtfcHl0aG9uJywgJy1waCcsICc3LjAnLCAnLXRuJywgJzgnLCAnLW1hJywgJzIwMCcsICctbWV0YWxfYmluZGluZycsICctaW1hZScsICc8aW5maWxlLm1hZT4nLCAnLW9tYWUnLCAnPG91dGZpbGUubWFlPic=

> <r_lp_tautomer_probability>
1

> <r_epik_Ionization_Penalty>
0.00206431

> <r_epik_Ionization_Penalty_Charging>
0.00187095

> <r_epik_Ionization_Penalty_Neutral>
0.000193364

> <r_epik_State_Penalty>
-0

> <r_epik_Charging_Adjusted_Penalty>
0.00187095

> <i_epik_Tot_Q>
1

> <i_epik_Tot_abs_Q>
1

> <r_epik_Metal_State_Penalty>
-0

> <b_epik_Metal_Only>
0

> <s_lp_Force_Field>
OPLS_2005

> <r_lp_Energy>
13.7816

> <b_lp_Chiralities_Consistent>
1

> <s_lp_Variant>
AV-unprocessed.smi:1475-1

> <Gold.Version>
5.8.1

> <Gold.Id.Protein>
6NUR|6NUR_protein|mol2

> <Gold.PLP.Fitness>
47.9198

> <Gold.PLP.PLP>
-43.9016

> <Gold.PLP.part.hbond>
-2.0000

> <Gold.PLP.part.metal>
0.0000

> <Gold.PLP.part.buried>
0.0724

> <Gold.PLP.part.nonpolar>
-41.4309

> <Gold.PLP.part.repulsive>
0.1769

> <Gold.PLP.ligand.clash>
0.0000

> <Gold.PLP.ligand.torsion>
0.9503

> <Gold.PLP.Chemscore.Hbond>
1.9600

> <Gold.PLP.Chemscore.CHOScore>
0.0000

> <Gold.PLP.Chemscore.Metal>
0.0000

> <Gold.Chemscore.Hbonds>
donor molecule, donor type, donor heavy atom, donor atom, acceptor molecule, acceptor atom, score
      L1  H    13    50       P1  7957  0.86
      P1  H  7997  8010       L1     9  1.00

> <Gold.PLP.Chemscore.Internal.Correction>
0.0388

> <Gold.Rescore>
     Score         DG    S(hbond)    S(metal)    S(lipo)     H(rot)  DE(clash)    DE(int)     intcor
     18.59     -21.80       1.75        0.00     125.42       1.64       0.88       2.33       ----

> <Gold.Chemscore.Fitness>
18.5883

> <Gold.Chemscore.DG>
-21.7994

> <Gold.Chemscore.ZeroCoef>
-5.4800

> <Gold.Chemscore.Hbond>
1.7496

> <Gold.Chemscore.Metal>
0.0000

> <Gold.Chemscore.Lipo>
125.4181

> <Gold.Chemscore.Internal_Hbond>
0.0000

> <Gold.Chemscore.DEClash>
0.8808

> <Gold.Chemscore.DEInternal>
2.3303

> <Gold.Chemscore.Rot>
1.6399

> <Gold.Chemscore.Internal.Correction>
   9.000000E+99

> <Gold.Chemscore.Hbonds>
donor molecule, donor type, donor heavy atom, donor atom, acceptor molecule, acceptor atom, score
      L1  H    13    50       P1  7957  0.83
      P1  H  7997  8010       L1     9  0.98

> <Gold.Chemscore.Hbond.Weighted>
-5.8437

> <Gold.Chemscore.Metal.Weighted>
-0.0000

> <Gold.Chemscore.Lipo.Weighted>
-14.6739

> <Gold.Chemscore.Internal_Hbond.Weighted>
0.0000

> <Gold.Chemscore.DEClash.Weighted>
0.8808

> <Gold.Chemscore.DEInternal.Weighted>
2.3303

> <Gold.Chemscore.Rot.Weighted>
4.1982

> <Gold.Chemscore.Internal.Correction.Weighted>
   9.000000E+99

> <Gold.Protein.RotatedTorsions>
[ 6907 6896 6895 6894 ] final   37.21 input  -60.11 | X-H torsion
[ 7974 7965 7964 7962 ] final  111.79 input  175.53 | X-H torsion
[ 8008 7997 7996 7995 ] final   65.32 input   59.86 | X-H torsion
[ 10167 10162 10161 10158 ] final   10.29 input  -65.29 | X-H torsion
[ 10718 10713 10712 10709 ] final  -47.29 input   66.30 | X-H torsion
[ 10763 10752 10751 10750 ] final    4.94 input  -60.55 | X-H torsion
[ 11005 11000 10999 10996 ] final  137.11 input  -57.11 | X-H torsion

> <Gold.Protein.ActiveResidues>
 VAL166  LYS551  ARG553  GLY616  TRP617  ASP618  TYR619  PRO620  LYS621  CYS622 
 ASP623  PHE694  ASN695  SER759  ASP760  ASP761  ALA762  ILE779  LEU786  VAL792 
 PHE793  MET794  SER795  GLU796  ALA797  LYS798  CYS799  TRP800  GLU811  SER814 

> <Gold.Protein.RotatedAtoms>
  152.1401  134.9069  160.0553 H   0  0  0  0  0  0  0  0  0  0  0  0  # atno 6907 bound_to 6896
  152.0140  133.3867  159.4239 H   0  0  0  0  0  0  0  0  0  0  0  0  # atno 6908 bound_to 6896
  150.6864  134.3621  159.4998 H   0  0  0  0  0  0  0  0  0  0  0  0  # atno 6909 bound_to 6896
  145.2377  139.2792  143.4134 H   0  0  0  0  0  0  0  0  0  0  0  0  # atno 7974 bound_to 7965
  155.6600  140.3497  155.4779 H   0  0  0  0  0  0  0  0  0  0  0  0  # atno 8008 bound_to 7997
  155.9777  140.1168  157.0778 H   0  0  0  0  0  0  0  0  0  0  0  0  # atno 8009 bound_to 7997
  154.4183  140.1144  156.5378 H   0  0  0  0  0  0  0  0  0  0  0  0  # atno 8010 bound_to 7997
  140.6203  143.8219  150.7167 H   0  0  0  0  0  0  0  0  0  0  0  0  # atno 10167 bound_to 10162
  156.2099  130.4160  149.9129 H   0  0  0  0  0  0  0  0  0  0  0  0  # atno 10718 bound_to 10713
  153.2652  135.6927  153.7537 H   0  0  0  0  0  0  0  0  0  0  0  0  # atno 10763 bound_to 10752
  153.6581  135.3365  155.3120 H   0  0  0  0  0  0  0  0  0  0  0  0  # atno 10764 bound_to 10752
  154.8445  135.4470  154.1656 H   0  0  0  0  0  0  0  0  0  0  0  0  # atno 10765 bound_to 10752
  140.0092  134.9446  157.0240 H   0  0  0  0  0  0  0  0  0  0  0  0  # atno 11005 bound_to 11000
  146.3336  140.2732  142.8607 LP  0  0  0  0  0  0  0  0  0  0  0  0  # atno 17320 bound_to 7965
  144.9617  140.8282  143.5509 LP  0  0  0  0  0  0  0  0  0  0  0  0  # atno 17321 bound_to 7965
  140.1807  143.4117  152.1934 LP  0  0  0  0  0  0  0  0  0  0  0  0  # atno 17342 bound_to 10162
  139.5433  144.7276  151.4664 LP  0  0  0  0  0  0  0  0  0  0  0  0  # atno 17343 bound_to 10162
  156.6811  130.8858  151.3576 LP  0  0  0  0  0  0  0  0  0  0  0  0  # atno 17370 bound_to 10713
  157.7032  130.9356  150.0850 LP  0  0  0  0  0  0  0  0  0  0  0  0  # atno 17371 bound_to 10713
  140.4586  134.1508  155.7189 LP  0  0  0  0  0  0  0  0  0  0  0  0  # atno 17394 bound_to 11000
  141.1698  133.8630  157.1604 LP  0  0  0  0  0  0  0  0  0  0  0  0  # atno 17395 bound_to 11000

$$$$
