#       Name:                AV-unprocessed.smi:21
#       Creating user name   scv26
#       Creation time:       Thu Mar 26 15:34:03 2020


#       File generated by GOLD software.
#

@<TRIPOS>MOLECULE
AV-unprocessed.smi:21
    71    74     1
SMALL
NO_CHARGES


@<TRIPOS>ATOM
      1 ****        -2.6312  -3.2128  -2.9339 C.3            1 S1                 0.0000
      2 ****        -2.6378  -2.1333  -2.0130 O.3            1 S1                 0.0000
      3 ****        -2.4160  -2.5291  -0.6655 C.3            1 S1                 0.0000
      4 ****        -2.0032  -1.2998   0.1338 C.3            1 S1                 0.0000
      5 ****        -3.3363  -0.6409   0.5008 C.3            1 S1                 0.0000
      6 ****        -3.2616   0.2812   1.7360 C.3            1 S1                 0.0000
      7 ****        -2.4632   1.4847   1.4949 N.pl3          1 S1                 0.0000
      8 ****        -3.0530   2.5496   0.6937 C.3            1 S1                 0.0000
      9 ****        -1.1113   1.4274   1.6502 C.ar           1 S1                 0.0000
     10 ****        -0.6206   0.6841   2.6770 N.ar           1 S1                 0.0000
     11 ****         0.6951   0.5794   2.8767 C.ar           1 S1                 0.0000
     12 ****         1.6884   1.1197   2.1720 N.ar           1 S1                 0.0000
     13 ****         1.2136   1.8601   1.1313 C.ar           1 S1                 0.0000
     14 ****        -0.1580   2.0749   0.8055 C.ar           1 S1                 0.0000
     15 ****        -0.2421   2.8854  -0.3218 N.2            1 S1                 0.0000
     16 ****         0.9978   3.1382  -0.6362 C.2            1 S1                 0.0000
     17 ****         1.9403   2.5424   0.1695 N.pl3          1 S1                 0.0000
     18 ****         3.3866   2.6424   0.0286 C.3            1 S1                 0.0000
     19 ****         4.0191   1.5531  -0.8825 C.3            1 S1                 0.0000
     20 ****         3.3929   1.5279  -2.2976 C.3            1 S1                 0.0000
     21 ****         3.5445   2.7756  -2.9425 O.3            1 S1                 0.0000
     22 ****         3.9834   0.1478  -0.2266 C.3            1 S1                 0.0000
     23 ****         4.7945   0.0272   1.0533 C.3            1 S1                 0.0000
     24 ****         4.9394  -1.4827   1.2029 C.3            1 S1                 0.0000
     25 ****         4.9783  -1.9964  -0.1236 O.3            1 S1                 0.0000
     26 ****         4.6259  -0.9741  -1.0500 C.3            1 S1                 0.0000
     27 ****        -4.2649  -1.7735   0.7209 N.4            1 S1                 1.0000
     28 ****        -5.6781  -1.4696   0.4046 C.3            1 S1                 0.0000
     29 ****        -3.7345  -2.9559  -0.0006 C.3            1 S1                 0.0000
     30 ****        -1.6487  -3.3034  -0.6108 H              1 S1                 0.0000
     31 ****        -3.6858  -0.0756  -0.3653 H              1 S1                 0.0000
     32 ****        -2.8257  -2.8354  -3.9377 H              1 S1                 0.0000
     33 ****        -3.3984  -3.9514  -2.7004 H              1 S1                 0.0000
     34 ****        -1.6607  -3.7104  -2.9468 H              1 S1                 0.0000
     35 ****        -1.4804  -1.6163   1.0377 H              1 S1                 0.0000
     36 ****        -1.3367  -0.6380  -0.4206 H              1 S1                 0.0000
     37 ****        -4.2670   0.6068   2.0038 H              1 S1                 0.0000
     38 ****        -2.9039  -0.2749   2.6028 H              1 S1                 0.0000
     39 ****        -2.6116   3.5155   0.9420 H              1 S1                 0.0000
     40 ****        -4.1248   2.6211   0.8802 H              1 S1                 0.0000
     41 ****        -2.9096   2.3585  -0.3701 H              1 S1                 0.0000
     42 ****         0.9953  -0.0263   3.7192 H              1 S1                 0.0000
     43 ****         1.2607   3.7591  -1.4806 H              1 S1                 0.0000
     44 ****         3.6126   3.6312  -0.3717 H              1 S1                 0.0000
     45 ****         3.8339   2.6268   1.0221 H              1 S1                 0.0000
     46 ****         5.0703   1.8182  -1.0065 H              1 S1                 0.0000
     47 ****         3.8832   0.7856  -2.9266 H              1 S1                 0.0000
     48 ****         2.3372   1.2590  -2.2623 H              1 S1                 0.0000
     49 ****         3.1843   2.7093  -3.8139 H              1 S1                 0.0000
     50 ****         2.9509  -0.1377  -0.0212 H              1 S1                 0.0000
     51 ****         5.7772   0.4838   0.9256 H              1 S1                 0.0000
     52 ****         4.3222   0.4848   1.9213 H              1 S1                 0.0000
     53 ****         5.8294  -1.7623   1.7669 H              1 S1                 0.0000
     54 ****         4.0692  -1.8989   1.7120 H              1 S1                 0.0000
     55 ****         3.9591  -1.3630  -1.8199 H              1 S1                 0.0000
     56 ****         5.5375  -0.6241  -1.5366 H              1 S1                 0.0000
     57 ****        -5.8017  -1.2329  -0.6532 H              1 S1                 0.0000
     58 ****        -6.0325  -0.6205   0.9894 H              1 S1                 0.0000
     59 ****        -6.3123  -2.3248   0.6397 H              1 S1                 0.0000
     60 ****        -4.4479  -3.3632  -0.7183 H              1 S1                 0.0000
     61 ****        -3.5446  -3.7346   0.7388 H              1 S1                 0.0000
     62 ****        -4.2167  -1.9994   1.7044 H              1 S1                 0.0000
     63 ****        -3.5269  -1.6787  -2.0661 LP             1 S1                 0.0000
     64 ****        -1.9184  -1.4902  -2.2755 LP             1 S1                 0.0000
     65 ****        -1.2527   0.2101   3.2900 LP             1 S1                 0.0000
     66 ****         2.6588   0.9974   2.3803 LP             1 S1                 0.0000
     67 ****        -1.0684   3.2031  -0.7869 LP             1 S1                 0.0000
     68 ****         4.5147   3.0119  -2.9958 LP             1 S1                 0.0000
     69 ****         3.0571   3.4819  -2.4291 LP             1 S1                 0.0000
     70 ****         4.3313  -2.7546  -0.2046 LP             1 S1                 0.0000
     71 ****         5.9016  -2.3230  -0.3257 LP             1 S1                 0.0000
@<TRIPOS>BOND
    1    1    2 1     
    2    1   32 1     
    3    1   33 1     
    4    1   34 1     
    5    2    3 1     
    6    3   30 1     
    7    3   29 1     
    8    3    4 1     
    9    4    5 1     
   10    4   35 1     
   11    4   36 1     
   12    5   31 1     
   13    5    6 1     
   14    5   27 1     
   15    6    7 1     
   16    6   37 1     
   17    6   38 1     
   18    7    8 1     
   19    7    9 1     
   20    8   39 1     
   21    8   40 1     
   22    8   41 1     
   23    9   14 ar    
   24    9   10 ar    
   25   10   11 ar    
   26   11   12 ar    
   27   11   42 1     
   28   12   13 ar    
   29   13   17 1     
   30   13   14 ar    
   31   14   15 1     
   32   15   16 2     
   33   16   17 1     
   34   16   43 1     
   35   17   18 1     
   36   18   19 1     
   37   18   44 1     
   38   18   45 1     
   39   19   20 1     
   40   19   22 1     
   41   19   46 1     
   42   20   21 1     
   43   20   47 1     
   44   20   48 1     
   45   21   49 1     
   46   22   26 1     
   47   22   23 1     
   48   22   50 1     
   49   23   24 1     
   50   23   51 1     
   51   23   52 1     
   52   24   25 1     
   53   24   53 1     
   54   24   54 1     
   55   25   26 1     
   56   26   55 1     
   57   26   56 1     
   58   27   28 1     
   59   27   29 1     
   60   27   62 1     
   61   28   57 1     
   62   28   58 1     
   63   28   59 1     
   64   29   60 1     
   65   29   61 1     
   66    2   63 1     
   67    2   64 1     
   68   10   65 1     
   69   12   66 1     
   70   15   67 1     
   71   21   68 1     
   72   21   69 1     
   73   25   70 1     
   74   25   71 1     
@<TRIPOS>SUBSTRUCTURE
      1 S1             1
@<TRIPOS>SET
LONE_PAIRS      STATIC     ATOMS    <user>   **** ""
9 63 64 65 66 67 68 69 70 71
DONOR_HYDROGENS      STATIC     ATOMS    <user>   **** ""
2 49 62
ATOM$BLUE        STATIC     ATOMS    COLORGROUP SYSTEM
9 63 64 65 66 67 68 69 70 71
ATOM$RED        STATIC     ATOMS    COLORGROUP SYSTEM
2 49 62
