AV-unprocessed.smi:21|AV-procd|sdf|139|dock5
  -GOLD-   2262015343D 1   1.00000     0.00000
 Structure written by MMmdl.
 62 65  0  0  0  0  0  0  0  0  2 V2000
  148.0108  126.8008  150.8135 C   0  0  0  0  0  0  0  0  0  0  0  0
  148.2226  127.9358  151.6384 O   0  0  0  0  0  0  0  0  0  0  0  0
  147.3132  128.0296  152.7274 C   0  0  1  0  0  0  0  0  0  0  0  0
  147.8890  128.9998  153.7509 C   0  0  0  0  0  0  0  0  0  0  0  0
  147.4683  130.3752  153.2242 C   0  0  2  0  0  0  0  0  0  0  0  0
  147.4290  131.4760  154.3050 C   0  0  0  0  0  0  0  0  0  0  0  0
  148.7620  131.9669  154.6599 N   0  0  0  0  0  0  0  0  0  0  0  0
  149.9178  131.2185  154.1826 C   0  0  0  0  0  0  0  0  0  0  0  0
  148.8979  132.8165  155.7158 C   0  0  0  0  0  0  0  0  0  0  0  0
  148.4107  132.4164  156.9200 N   0  0  0  0  0  0  0  0  0  0  0  0
  148.5217  133.1989  157.9958 C   0  0  0  0  0  0  0  0  0  0  0  0
  149.0862  134.4017  158.0942 N   0  0  0  0  0  0  0  0  0  0  0  0
  149.5898  134.8135  156.8968 C   0  0  0  0  0  0  0  0  0  0  0  0
  149.5312  134.0963  155.6656 C   0  0  0  0  0  0  0  0  0  0  0  0
  150.1516  134.8417  154.6685 N   0  0  0  0  0  0  0  0  0  0  0  0
  150.5441  135.9300  155.2699 C   0  0  0  0  0  0  0  0  0  0  0  0
  150.2693  135.9875  156.6166 N   0  0  0  0  0  0  0  0  0  0  0  0
  150.6140  137.0734  157.5242 C   0  0  0  0  0  0  0  0  0  0  0  0
  152.0457  137.6456  157.3252 C   0  0  2  0  0  0  0  0  0  0  0  0
  152.7938  137.8488  158.6647 C   0  0  0  0  0  0  0  0  0  0  0  0
  152.9435  136.6246  159.3537 O   0  0  0  0  0  0  0  0  0  0  0  0
  152.0444  138.9457  156.4790 C   0  0  2  0  0  0  0  0  0  0  0  0
  151.3180  140.1166  157.1209 C   0  0  0  0  0  0  0  0  0  0  0  0
  151.0958  141.0482  155.9351 C   0  0  0  0  0  0  0  0  0  0  0  0
  150.9354  140.1978  154.8055 O   0  0  0  0  0  0  0  0  0  0  0  0
  151.2821  138.8609  155.1519 C   0  0  0  0  0  0  0  0  0  0  0  0
  146.1330  130.1527  152.6232 N   0  3  1  0  0  0  0  0  0  0  0  0
  145.8185  131.0547  151.4932 C   0  0  0  0  0  0  0  0  0  0  0  0
  146.0084  128.7132  152.2882 C   0  0  0  0  0  0  0  0  0  0  0  0
  147.1429  127.0489  153.1751 H   0  0  0  0  0  0  0  0  0  0  0  0
  148.1586  130.6598  152.4277 H   0  0  0  0  0  0  0  0  0  0  0  0
  148.7296  126.8077  149.9943 H   0  0  0  0  0  0  0  0  0  0  0  0
  147.0105  126.7941  150.3799 H   0  0  0  0  0  0  0  0  0  0  0  0
  148.1536  125.8767  151.3749 H   0  0  0  0  0  0  0  0  0  0  0  0
  147.4287  128.8140  154.7226 H   0  0  0  0  0  0  0  0  0  0  0  0
  148.9684  128.8988  153.8702 H   0  0  0  0  0  0  0  0  0  0  0  0
  146.8583  132.3268  153.9320 H   0  0  0  0  0  0  0  0  0  0  0  0
  146.8794  131.1284  155.1800 H   0  0  0  0  0  0  0  0  0  0  0  0
  150.7938  131.8629  154.1005 H   0  0  0  0  0  0  0  0  0  0  0  0
  149.7233  130.8019  153.1940 H   0  0  0  0  0  0  0  0  0  0  0  0
  150.1487  130.3921  154.8553 H   0  0  0  0  0  0  0  0  0  0  0  0
  148.1014  132.8037  158.9091 H   0  0  0  0  0  0  0  0  0  0  0  0
  151.0625  136.7202  154.7461 H   0  0  0  0  0  0  0  0  0  0  0  0
  149.8796  137.8672  157.3847 H   0  0  0  0  0  0  0  0  0  0  0  0
  150.4715  136.7284  158.5480 H   0  0  0  0  0  0  0  0  0  0  0  0
  152.6067  136.9000  156.7596 H   0  0  0  0  0  0  0  0  0  0  0  0
  153.7962  138.2402  158.4948 H   0  0  0  0  0  0  0  0  0  0  0  0
  152.2815  138.5687  159.3030 H   0  0  0  0  0  0  0  0  0  0  0  0
  153.7609  136.6446  159.8279 H   0  0  0  0  0  0  0  0  0  0  0  0
  153.0702  139.2426  156.2567 H   0  0  0  0  0  0  0  0  0  0  0  0
  150.3572  139.7934  157.5245 H   0  0  0  0  0  0  0  0  0  0  0  0
  151.8751  140.5963  157.9242 H   0  0  0  0  0  0  0  0  0  0  0  0
  150.2321  141.6990  156.0723 H   0  0  0  0  0  0  0  0  0  0  0  0
  151.9733  141.6762  155.7762 H   0  0  0  0  0  0  0  0  0  0  0  0
  151.8702  138.3963  154.3601 H   0  0  0  0  0  0  0  0  0  0  0  0
  150.3610  138.2881  155.2703 H   0  0  0  0  0  0  0  0  0  0  0  0
  146.5078  130.8982  150.6621 H   0  0  0  0  0  0  0  0  0  0  0  0
  145.8837  132.0987  151.8004 H   0  0  0  0  0  0  0  0  0  0  0  0
  144.8046  130.8750  151.1346 H   0  0  0  0  0  0  0  0  0  0  0  0
  145.7878  128.5465  151.2330 H   0  0  0  0  0  0  0  0  0  0  0  0
  145.1683  128.3144  152.8576 H   0  0  0  0  0  0  0  0  0  0  0  0
  145.4555  130.3317  153.3509 H   0  0  0  0  0  0  0  0  0  0  0  0
  1  2  1  0  0  0  0
  1 32  1  0  0  0  0
  1 33  1  0  0  0  0
  1 34  1  0  0  0  0
  2  3  1  0  0  0  0
  3 30  1  0  0  0  0
  3 29  1  0  0  0  0
  3  4  1  0  0  0  0
  4  5  1  0  0  0  0
  4 35  1  0  0  0  0
  4 36  1  0  0  0  0
  5 31  1  0  0  0  0
  5  6  1  0  0  0  0
  5 27  1  0  0  0  0
  6  7  1  0  0  0  0
  6 37  1  0  0  0  0
  6 38  1  0  0  0  0
  7  8  1  0  0  0  0
  7  9  1  0  0  0  0
  8 39  1  0  0  0  0
  8 40  1  0  0  0  0
  8 41  1  0  0  0  0
  9 14  1  0  0  0  0
  9 10  2  0  0  0  0
 10 11  1  0  0  0  0
 11 12  2  0  0  0  0
 11 42  1  0  0  0  0
 12 13  1  0  0  0  0
 13 17  1  0  0  0  0
 13 14  2  0  0  0  0
 14 15  1  0  0  0  0
 15 16  2  0  0  0  0
 16 17  1  0  0  0  0
 16 43  1  0  0  0  0
 17 18  1  0  0  0  0
 18 19  1  0  0  0  0
 18 44  1  0  0  0  0
 18 45  1  0  0  0  0
 19 20  1  0  0  0  0
 19 22  1  0  0  0  0
 19 46  1  0  0  0  0
 20 21  1  0  0  0  0
 20 47  1  0  0  0  0
 20 48  1  0  0  0  0
 21 49  1  0  0  0  0
 22 26  1  0  0  0  0
 22 23  1  0  0  0  0
 22 50  1  0  0  0  0
 23 24  1  0  0  0  0
 23 51  1  0  0  0  0
 23 52  1  0  0  0  0
 24 25  1  0  0  0  0
 24 53  1  0  0  0  0
 24 54  1  0  0  0  0
 25 26  1  0  0  0  0
 26 55  1  0  0  0  0
 26 56  1  0  0  0  0
 27 28  1  0  0  0  0
 27 29  1  0  0  0  0
 27 62  1  0  0  0  0
 28 57  1  0  0  0  0
 28 58  1  0  0  0  0
 28 59  1  0  0  0  0
 29 60  1  0  0  0  0
 29 61  1  0  0  0  0
M  CHG  1  27   1
M  END
> <s_m_source_file>
AV-unprocessed.smi

> <i_m_source_file_index>
21

> <i_lp_mmshare_version>
43012

> <i_f3d_flags>
0

> <s_epik_input>
W0NIM11PW0NASF0xW0NIMl1bQ0BIXShOKFtDSDNdKVtDSDJdMSlbQ0gyXU4oW0NIM10pYyhuW2NIXW4yKWMoYzIzKW5bY0hdbjNbQ0gyXVtDQEhdKFtDSDJdW09IXSlbQ0BASF00W0NIMl1bQ0gyXU9bQ0gyXTQ=

> <s_epik_cmdline>
J2VwaWtfcHl0aG9uJywgJy1waCcsICc3LjAnLCAnLXRuJywgJzgnLCAnLW1hJywgJzIwMCcsICctbWV0YWxfYmluZGluZycsICctaW1hZScsICc8aW5maWxlLm1hZT4nLCAnLW9tYWUnLCAnPG91dGZpbGUubWFlPic=

> <r_lp_tautomer_probability>
1

> <r_epik_Ionization_Penalty>
0.0157465

> <r_epik_Ionization_Penalty_Charging>
0.015354

> <r_epik_Ionization_Penalty_Neutral>
0.000392529

> <r_epik_State_Penalty>
0.0120612

> <r_epik_Charging_Adjusted_Penalty>
0.0274152

> <i_epik_Tot_Q>
1

> <i_epik_Tot_abs_Q>
1

> <r_epik_Metal_State_Penalty>
0.0121253

> <b_epik_Metal_Only>
0

> <s_lp_Force_Field>
OPLS_2005

> <r_lp_Energy>
57.752

> <b_lp_Chiralities_Consistent>
1

> <s_lp_Variant>
AV-unprocessed.smi:21-19

> <Gold.Version>
5.8.1

> <Gold.Id.Protein>
6NUR|6NUR_protein|mol2

> <Gold.PLP.Fitness>
44.5061

> <Gold.PLP.PLP>
-39.9743

> <Gold.PLP.part.hbond>
-3.0000

> <Gold.PLP.part.metal>
0.0000

> <Gold.PLP.part.buried>
-8.8622

> <Gold.PLP.part.nonpolar>
-28.5184

> <Gold.PLP.part.repulsive>
0.4130

> <Gold.PLP.ligand.clash>
0.0000

> <Gold.PLP.ligand.torsion>
2.5055

> <Gold.PLP.Chemscore.Hbond>
3.0000

> <Gold.PLP.Chemscore.CHOScore>
0.0000

> <Gold.PLP.Chemscore.Metal>
0.0000

> <Gold.Chemscore.Hbonds>
donor molecule, donor type, donor heavy atom, donor atom, acceptor molecule, acceptor atom, score
      P1  H  6896  6907       L1    21  1.00
      P1  H  6896  6909       L1    12  0.99
      P1  H  7989  7998       L1    25  1.00

> <Gold.PLP.Chemscore.Internal.Correction>
0.5427

> <Gold.Rescore>
     Score         DG    S(hbond)    S(metal)    S(lipo)     H(rot)  DE(clash)    DE(int)     intcor
     13.62     -16.24       2.25        0.00      94.93       3.08       0.05       2.57       ----

> <Gold.Chemscore.Fitness>
13.6195

> <Gold.Chemscore.DG>
-16.2394

> <Gold.Chemscore.ZeroCoef>
-5.4800

> <Gold.Chemscore.Hbond>
2.2534

> <Gold.Chemscore.Metal>
0.0000

> <Gold.Chemscore.Lipo>
94.9346

> <Gold.Chemscore.Internal_Hbond>
0.0000

> <Gold.Chemscore.DEClash>
0.0456

> <Gold.Chemscore.DEInternal>
2.5744

> <Gold.Chemscore.Rot>
3.0758

> <Gold.Chemscore.Internal.Correction>
   9.000000E+99

> <Gold.Chemscore.Hbonds>
donor molecule, donor type, donor heavy atom, donor atom, acceptor molecule, acceptor atom, score
      P1  H  6896  6907       L1    21  0.57
      P1  H  6896  6909       L1    12  0.27
      P1  H  7989  7998       L1    25  0.72

> <Gold.Chemscore.Hbond.Weighted>
-7.5263

> <Gold.Chemscore.Metal.Weighted>
-0.0000

> <Gold.Chemscore.Lipo.Weighted>
-11.1073

> <Gold.Chemscore.Internal_Hbond.Weighted>
0.0000

> <Gold.Chemscore.DEClash.Weighted>
0.0456

> <Gold.Chemscore.DEInternal.Weighted>
2.5744

> <Gold.Chemscore.Rot.Weighted>
7.8741

> <Gold.Chemscore.Internal.Correction.Weighted>
   9.000000E+99

> <Gold.Protein.RotatedTorsions>
[ 6907 6896 6895 6894 ] final   19.71 input  -60.11 | X-H torsion
[ 7974 7965 7964 7962 ] final   34.65 input  175.53 | X-H torsion
[ 8008 7997 7996 7995 ] final  -37.61 input   59.86 | X-H torsion
[ 10167 10162 10161 10158 ] final   13.29 input  -65.29 | X-H torsion
[ 10718 10713 10712 10709 ] final  178.43 input   66.30 | X-H torsion
[ 10763 10752 10751 10750 ] final   32.88 input  -60.55 | X-H torsion
[ 11005 11000 10999 10996 ] final   99.28 input  -57.11 | X-H torsion

> <Gold.Protein.ActiveResidues>
 VAL166  LYS551  ARG553  GLY616  TRP617  ASP618  TYR619  PRO620  LYS621  CYS622 
 ASP623  PHE694  ASN695  SER759  ASP760  ASP761  ALA762  ILE779  LEU786  VAL792 
 PHE793  MET794  SER795  GLU796  ALA797  LYS798  CYS799  TRP800  GLU811  SER814 

> <Gold.Protein.RotatedAtoms>
  151.8851  135.0438  160.0492 H   0  0  0  0  0  0  0  0  0  0  0  0  # atno 6907 bound_to 6896
  152.2481  133.5187  159.5318 H   0  0  0  0  0  0  0  0  0  0  0  0  # atno 6908 bound_to 6896
  150.7075  134.0913  159.3975 H   0  0  0  0  0  0  0  0  0  0  0  0  # atno 6909 bound_to 6896
  146.1338  139.6242  142.9209 H   0  0  0  0  0  0  0  0  0  0  0  0  # atno 7974 bound_to 7965
  154.4050  140.1599  156.2565 H   0  0  0  0  0  0  0  0  0  0  0  0  # atno 8008 bound_to 7997
  155.9074  140.3429  155.6050 H   0  0  0  0  0  0  0  0  0  0  0  0  # atno 8009 bound_to 7997
  155.7377  140.0788  157.2251 H   0  0  0  0  0  0  0  0  0  0  0  0  # atno 8010 bound_to 7997
  140.6012  143.8600  150.6967 H   0  0  0  0  0  0  0  0  0  0  0  0  # atno 10167 bound_to 10162
  156.8907  130.9846  151.3050 H   0  0  0  0  0  0  0  0  0  0  0  0  # atno 10718 bound_to 10713
  153.0240  135.6402  154.1424 H   0  0  0  0  0  0  0  0  0  0  0  0  # atno 10763 bound_to 10752
  154.1155  135.2850  155.3222 H   0  0  0  0  0  0  0  0  0  0  0  0  # atno 10764 bound_to 10752
  154.6301  135.5495  153.7733 H   0  0  0  0  0  0  0  0  0  0  0  0  # atno 10765 bound_to 10752
  139.8771  134.9088  156.4582 H   0  0  0  0  0  0  0  0  0  0  0  0  # atno 11005 bound_to 11000
  145.5202  141.0432  143.2440 LP  0  0  0  0  0  0  0  0  0  0  0  0  # atno 17320 bound_to 7965
  144.7718  139.6718  143.7191 LP  0  0  0  0  0  0  0  0  0  0  0  0  # atno 17321 bound_to 7965
  140.2146  143.3856  152.1691 LP  0  0  0  0  0  0  0  0  0  0  0  0  # atno 17342 bound_to 10162
  139.5293  144.7140  151.5115 LP  0  0  0  0  0  0  0  0  0  0  0  0  # atno 17343 bound_to 10162
  157.6085  130.8565  149.8914 LP  0  0  0  0  0  0  0  0  0  0  0  0  # atno 17370 bound_to 10713
  156.0630  130.3696  150.0939 LP  0  0  0  0  0  0  0  0  0  0  0  0  # atno 17371 bound_to 10713
  140.8883  133.7867  155.9543 LP  0  0  0  0  0  0  0  0  0  0  0  0  # atno 17394 bound_to 11000
  140.8781  134.2645  157.5158 LP  0  0  0  0  0  0  0  0  0  0  0  0  # atno 17395 bound_to 11000

$$$$
