AV-unprocessed.smi:245|AV-procd|sdf|1879|dock1
  -GOLD-   2262020523D 1   1.00000     0.00000
 Structure written by MMmdl.
 54 58  0  0  0  0  0  0  0  0  1 V2000
  146.1966  142.8343  154.9981 O   0  0  0  0  0  0  0  0  0  0  0  0
  147.0144  141.9238  154.8885 C   0  0  0  0  0  0  0  0  0  0  0  0
  146.5580  140.4693  155.0935 C   0  0  0  0  0  0  0  0  0  0  0  0
  147.6133  139.4568  154.9421 N   0  0  0  0  0  0  0  0  0  0  0  0
  147.0890  138.2123  154.8618 C   0  0  0  0  0  0  0  0  0  0  0  0
  147.1498  137.3769  155.9320 N   0  0  0  0  0  0  0  0  0  0  0  0
  146.6396  136.1446  155.8445 C   0  0  0  0  0  0  0  0  0  0  0  0
  146.0388  135.5612  154.8047 N   0  0  0  0  0  0  0  0  0  0  0  0
  145.9843  136.3984  153.7288 C   0  0  0  0  0  0  0  0  0  0  0  0
  146.4913  137.7258  153.6704 C   0  0  0  0  0  0  0  0  0  0  0  0
  146.2740  138.2672  152.4103 N   0  0  0  0  0  0  0  0  0  0  0  0
  145.6737  137.3097  151.7568 C   0  0  0  0  0  0  0  0  0  0  0  0
  145.4315  136.1641  152.4823 N   0  0  0  0  0  0  0  0  0  0  0  0
  144.8203  134.9580  152.0074 C   0  0  0  0  0  0  0  0  0  0  0  0
  145.5222  133.6057  152.1453 C   0  0  0  0  0  0  0  0  0  0  0  0
  144.8695  133.1402  150.8233 C   0  0  0  0  0  0  0  0  0  0  0  0
  145.7755  132.3610  149.8544 C   0  0  0  0  0  0  0  0  0  0  0  0
  147.1364  132.7080  150.0087 O   0  0  0  0  0  0  0  0  0  0  0  0
  143.5117  132.4172  150.9416 C   0  0  0  0  0  0  0  0  0  0  0  0
  142.9352  132.1650  149.6770 O   0  0  0  0  0  0  0  0  0  0  0  0
  144.7499  134.6483  150.5104 C   0  0  0  0  0  0  0  0  0  0  0  0
  148.7624  139.7752  154.0840 C   0  0  2  0  0  0  0  0  0  0  0  0
  149.8840  138.7034  154.0969 C   0  0  0  0  0  0  0  0  0  0  0  0
  150.6178  138.6390  155.4452 C   0  0  0  0  0  0  0  0  0  0  0  0
  151.2034  140.0087  155.8119 C   0  0  0  0  0  0  0  0  0  0  0  0
  150.1107  141.0866  155.8282 C   0  0  0  0  0  0  0  0  0  0  0  0
  149.3438  141.1526  154.4886 C   0  0  2  0  0  0  0  0  0  0  0  0
  148.2976  142.1666  154.5764 N   0  0  0  0  0  0  0  0  0  0  0  0
  146.1326  140.3868  156.0948 H   0  0  0  0  0  0  0  0  0  0  0  0
  145.7473  140.2741  154.3887 H   0  0  0  0  0  0  0  0  0  0  0  0
  146.7236  135.5398  156.7353 H   0  0  0  0  0  0  0  0  0  0  0  0
  145.3807  137.4192  150.7226 H   0  0  0  0  0  0  0  0  0  0  0  0
  143.8266  134.9250  152.4577 H   0  0  0  0  0  0  0  0  0  0  0  0
  146.6084  133.6882  152.0721 H   0  0  0  0  0  0  0  0  0  0  0  0
  145.2348  133.0388  153.0312 H   0  0  0  0  0  0  0  0  0  0  0  0
  145.6670  131.2844  149.9891 H   0  0  0  0  0  0  0  0  0  0  0  0
  145.5027  132.5686  148.8193 H   0  0  0  0  0  0  0  0  0  0  0  0
  147.6525  131.9166  149.9842 H   0  0  0  0  0  0  0  0  0  0  0  0
  143.6165  131.4589  151.4506 H   0  0  0  0  0  0  0  0  0  0  0  0
  142.8074  132.9991  151.5369 H   0  0  0  0  0  0  0  0  0  0  0  0
  142.2131  132.7633  149.5555 H   0  0  0  0  0  0  0  0  0  0  0  0
  143.8165  134.9472  150.0321 H   0  0  0  0  0  0  0  0  0  0  0  0
  145.6088  135.0455  149.9658 H   0  0  0  0  0  0  0  0  0  0  0  0
  148.3858  139.8540  153.0624 H   0  0  0  0  0  0  0  0  0  0  0  0
  149.5049  137.7165  153.8335 H   0  0  0  0  0  0  0  0  0  0  0  0
  150.6083  138.9479  153.3189 H   0  0  0  0  0  0  0  0  0  0  0  0
  149.9315  138.3083  156.2261 H   0  0  0  0  0  0  0  0  0  0  0  0
  151.4141  137.8954  155.3993 H   0  0  0  0  0  0  0  0  0  0  0  0
  151.6894  139.9565  156.7866 H   0  0  0  0  0  0  0  0  0  0  0  0
  151.9774  140.2814  155.0934 H   0  0  0  0  0  0  0  0  0  0  0  0
  149.4174  140.8784  156.6446 H   0  0  0  0  0  0  0  0  0  0  0  0
  150.5593  142.0559  156.0486 H   0  0  0  0  0  0  0  0  0  0  0  0
  150.0388  141.4746  153.7122 H   0  0  0  0  0  0  0  0  0  0  0  0
  148.5752  143.1260  154.4281 H   0  0  0  0  0  0  0  0  0  0  0  0
  1  2  2  0  0  0  0
  2 28  1  0  0  0  0
  2  3  1  0  0  0  0
  3  4  1  0  0  0  0
  3 29  1  0  0  0  0
  3 30  1  0  0  0  0
  4  5  1  0  0  0  0
  4 22  1  0  0  0  0
  5 10  1  0  0  0  0
  5  6  2  0  0  0  0
  6  7  1  0  0  0  0
  7  8  2  0  0  0  0
  7 31  1  0  0  0  0
  8  9  1  0  0  0  0
  9 13  1  0  0  0  0
  9 10  2  0  0  0  0
 10 11  1  0  0  0  0
 11 12  2  0  0  0  0
 12 13  1  0  0  0  0
 12 32  1  0  0  0  0
 13 14  1  0  0  0  0
 14 21  1  0  0  0  0
 14 15  1  0  0  0  0
 14 33  1  0  0  0  0
 15 16  1  0  0  0  0
 15 34  1  0  0  0  0
 15 35  1  0  0  0  0
 16 17  1  0  0  0  0
 16 19  1  0  0  0  0
 16 21  1  0  0  0  0
 17 18  1  0  0  0  0
 17 36  1  0  0  0  0
 17 37  1  0  0  0  0
 18 38  1  0  0  0  0
 19 20  1  0  0  0  0
 19 39  1  0  0  0  0
 19 40  1  0  0  0  0
 20 41  1  0  0  0  0
 21 42  1  0  0  0  0
 21 43  1  0  0  0  0
 22 27  1  0  0  0  0
 22 23  1  0  0  0  0
 22 44  1  0  0  0  0
 23 24  1  0  0  0  0
 23 45  1  0  0  0  0
 23 46  1  0  0  0  0
 24 25  1  0  0  0  0
 24 47  1  0  0  0  0
 24 48  1  0  0  0  0
 25 26  1  0  0  0  0
 25 49  1  0  0  0  0
 25 50  1  0  0  0  0
 26 27  1  0  0  0  0
 26 51  1  0  0  0  0
 26 52  1  0  0  0  0
 27 28  1  0  0  0  0
 27 53  1  0  0  0  0
 28 54  1  0  0  0  0
M  END
> <s_m_source_file>
AV-unprocessed.smi

> <i_m_source_file_index>
245

> <i_lp_mmshare_version>
43012

> <i_f3d_flags>
0

> <s_epik_input>
W0NIMl0xW0NIMl1bQ0gyXVtDSDJdW0NASF0oW0NASF0xMilbTkhdQyg9TylbQ0gyXU4yYyhuW2NIXW4zKWMoYzM0KW5bY0hdbjRbQ0hdKFtDSDJdNSlbQ0gyXUM1KFtDSDJdW09IXSlbQ0gyXVtPSF0=

> <s_epik_cmdline>
J2VwaWtfcHl0aG9uJywgJy1waCcsICc3LjAnLCAnLXRuJywgJzgnLCAnLW1hJywgJzIwMCcsICctbWV0YWxfYmluZGluZycsICctaW1hZScsICc8aW5maWxlLm1hZT4nLCAnLW9tYWUnLCAnPG91dGZpbGUubWFlPic=

> <r_lp_tautomer_probability>
1

> <r_epik_Ionization_Penalty>
0.000702616

> <r_epik_Ionization_Penalty_Charging>
0

> <r_epik_Ionization_Penalty_Neutral>
0.000702616

> <r_epik_State_Penalty>
0.000343985

> <r_epik_Charging_Adjusted_Penalty>
0.000343985

> <i_epik_Tot_Q>
0

> <i_epik_Tot_abs_Q>
0

> <r_epik_Metal_State_Penalty>
-0

> <b_epik_Metal_Only>
0

> <s_lp_Force_Field>
OPLS_2005

> <r_lp_Energy>
48.2331

> <b_lp_Chiralities_Consistent>
1

> <s_lp_Variant>
AV-unprocessed.smi:245-4

> <Gold.Version>
5.8.1

> <Gold.Id.Protein>
6NUR|6NUR_protein|mol2

> <Gold.PLP.Fitness>
53.2706

> <Gold.PLP.PLP>
-41.7118

> <Gold.PLP.part.hbond>
-5.5923

> <Gold.PLP.part.metal>
0.0000

> <Gold.PLP.part.buried>
-2.1544

> <Gold.PLP.part.nonpolar>
-35.0072

> <Gold.PLP.part.repulsive>
0.8262

> <Gold.PLP.ligand.clash>
0.0000

> <Gold.PLP.ligand.torsion>
1.0127

> <Gold.PLP.Chemscore.Hbond>
3.2150

> <Gold.PLP.Chemscore.CHOScore>
1.0000

> <Gold.PLP.Chemscore.Metal>
0.0000

> <Gold.Chemscore.Hbonds>
donor molecule, donor type, donor heavy atom, donor atom, acceptor molecule, acceptor atom, score
      L1  H    18    38       P1 10747  1.00
      L1  H    20    41       P1 10186  0.98
      L1  H    28    54       P1  8028  0.70
      P1  H 10785 10796       L1    20  0.47
      L1  C    12    32       P1 10171  1.00

> <Gold.PLP.Chemscore.Internal.Correction>
0.9392

> <Gold.Rescore>
     Score         DG    S(hbond)    S(metal)    S(lipo)     H(rot)  DE(clash)    DE(int)     intcor
     16.55     -17.75       3.19        0.00      85.53       3.28       0.21       1.00       ----

> <Gold.Chemscore.Fitness>
16.5454

> <Gold.Chemscore.DG>
-17.7513

> <Gold.Chemscore.ZeroCoef>
-5.4800

> <Gold.Chemscore.Hbond>
3.1886

> <Gold.Chemscore.Metal>
0.0000

> <Gold.Chemscore.Lipo>
85.5332

> <Gold.Chemscore.Internal_Hbond>
0.0000

> <Gold.Chemscore.DEClash>
0.2088

> <Gold.Chemscore.DEInternal>
0.9971

> <Gold.Chemscore.Rot>
3.2758

> <Gold.Chemscore.Internal.Correction>
   9.000000E+99

> <Gold.Chemscore.Hbonds>
donor molecule, donor type, donor heavy atom, donor atom, acceptor molecule, acceptor atom, score
      L1  H    18    38       P1 10747  0.99
      L1  H    20    41       P1 10186  0.91
      L1  H    28    54       P1  8028  0.67
      P1  H 10785 10796       L1    20  0.44

> <Gold.Chemscore.Hbond.Weighted>
-10.6499

> <Gold.Chemscore.Metal.Weighted>
-0.0000

> <Gold.Chemscore.Lipo.Weighted>
-10.0074

> <Gold.Chemscore.Internal_Hbond.Weighted>
0.0000

> <Gold.Chemscore.DEClash.Weighted>
0.2088

> <Gold.Chemscore.DEInternal.Weighted>
0.9971

> <Gold.Chemscore.Rot.Weighted>
8.3859

> <Gold.Chemscore.Internal.Correction.Weighted>
   9.000000E+99

> <Gold.Protein.RotatedTorsions>
[ 6907 6896 6895 6894 ] final   -2.65 input  -60.11 | X-H torsion
[ 7974 7965 7964 7962 ] final -133.59 input  175.53 | X-H torsion
[ 8008 7997 7996 7995 ] final   67.26 input   59.86 | X-H torsion
[ 10167 10162 10161 10158 ] final   -5.63 input  -65.29 | X-H torsion
[ 10718 10713 10712 10709 ] final -137.45 input   66.30 | X-H torsion
[ 10763 10752 10751 10750 ] final   59.31 input  -60.55 | X-H torsion
[ 11005 11000 10999 10996 ] final   21.07 input  -57.11 | X-H torsion

> <Gold.Protein.ActiveResidues>
 VAL166  LYS551  ARG553  GLY616  TRP617  ASP618  TYR619  PRO620  LYS621  CYS622 
 ASP623  PHE694  ASN695  SER759  ASP760  ASP761  ALA762  ILE779  LEU786  VAL792 
 PHE793  MET794  SER795  GLU796  ALA797  LYS798  CYS799  TRP800  GLU811  SER814 

> <Gold.Protein.RotatedAtoms>
  151.5265  135.1068  159.9891 H   0  0  0  0  0  0  0  0  0  0  0  0  # atno 6907 bound_to 6896
  152.4597  133.7793  159.6852 H   0  0  0  0  0  0  0  0  0  0  0  0  # atno 6908 bound_to 6896
  150.8555  133.7657  159.3035 H   0  0  0  0  0  0  0  0  0  0  0  0  # atno 6909 bound_to 6896
  144.9179  140.6978  143.4983 H   0  0  0  0  0  0  0  0  0  0  0  0  # atno 7974 bound_to 7965
  155.6901  140.3496  155.4890 H   0  0  0  0  0  0  0  0  0  0  0  0  # atno 8008 bound_to 7997
  155.9531  140.1123  157.0982 H   0  0  0  0  0  0  0  0  0  0  0  0  # atno 8009 bound_to 7997
  154.4126  140.1190  156.5066 H   0  0  0  0  0  0  0  0  0  0  0  0  # atno 8010 bound_to 7997
  140.6970  143.6286  150.8544 H   0  0  0  0  0  0  0  0  0  0  0  0  # atno 10167 bound_to 10162
  156.2883  130.7360  151.1378 H   0  0  0  0  0  0  0  0  0  0  0  0  # atno 10718 bound_to 10713
  152.9891  135.5576  154.5692 H   0  0  0  0  0  0  0  0  0  0  0  0  # atno 10763 bound_to 10752
  154.5096  135.2801  155.1356 H   0  0  0  0  0  0  0  0  0  0  0  0  # atno 10764 bound_to 10752
  154.2753  135.6355  153.5379 H   0  0  0  0  0  0  0  0  0  0  0  0  # atno 10765 bound_to 10752
  140.3957  134.1772  155.7663 H   0  0  0  0  0  0  0  0  0  0  0  0  # atno 11005 bound_to 11000
  145.3344  139.1750  143.4519 LP  0  0  0  0  0  0  0  0  0  0  0  0  # atno 17320 bound_to 7965
  146.3191  140.3378  142.8645 LP  0  0  0  0  0  0  0  0  0  0  0  0  # atno 17321 bound_to 7965
  140.0005  143.5749  152.2877 LP  0  0  0  0  0  0  0  0  0  0  0  0  # atno 17342 bound_to 10162
  139.6437  144.7656  151.2287 LP  0  0  0  0  0  0  0  0  0  0  0  0  # atno 17343 bound_to 10162
  157.7335  131.0590  150.5574 LP  0  0  0  0  0  0  0  0  0  0  0  0  # atno 17370 bound_to 10713
  156.5688  130.4274  149.6029 LP  0  0  0  0  0  0  0  0  0  0  0  0  # atno 17371 bound_to 10713
  141.1875  133.8280  157.1030 LP  0  0  0  0  0  0  0  0  0  0  0  0  # atno 17394 bound_to 11000
  140.0374  134.9871  157.0896 LP  0  0  0  0  0  0  0  0  0  0  0  0  # atno 17395 bound_to 11000

$$$$
