AV-unprocessed.smi:3079|AV-procd|sdf|11737|dock1
  -GOLD-   2272017133D 1   1.00000     0.00000
 Structure written by MMmdl.
 24 25  0  0  0  0  0  0  0  0  2 V2000
  148.7373  138.6115  153.2464 N   0  3  0  0  0  0  0  0  0  0  0  0
  149.4043  138.9903  154.5030 C   0  0  0  0  0  0  0  0  0  0  0  0
  149.6352  140.5052  154.5797 C   0  0  0  0  0  0  0  0  0  0  0  0
  150.3946  140.9027  155.8006 C   0  0  0  0  0  0  0  0  0  0  0  0
  150.4099  142.1477  156.2830 N   0  0  0  0  0  0  0  0  0  0  0  0
  151.1644  142.2622  157.4541 C   0  0  0  0  0  0  0  0  0  0  0  0
  151.3018  143.5972  158.1188 C   0  0  0  0  0  0  0  0  0  0  0  0
  152.6046  144.3622  158.0724 C   0  0  0  0  0  0  0  0  0  0  0  0
  152.1329  143.7535  159.3706 C   0  0  0  0  0  0  0  0  0  0  0  0
  151.7180  141.0733  157.8597 C   0  0  0  0  0  0  0  0  0  0  0  0
  151.3012  139.7637  156.7892 S   0  0  0  0  0  0  0  0  0  0  0  0
  147.7401  138.7411  153.3428 H   0  0  0  0  0  0  0  0  0  0  0  0
  148.9313  137.6421  153.0394 H   0  0  0  0  0  0  0  0  0  0  0  0
  148.7886  138.6577  155.3393 H   0  0  0  0  0  0  0  0  0  0  0  0
  150.3539  138.4583  154.5695 H   0  0  0  0  0  0  0  0  0  0  0  0
  150.1865  140.8483  153.7035 H   0  0  0  0  0  0  0  0  0  0  0  0
  148.6808  141.0336  154.5750 H   0  0  0  0  0  0  0  0  0  0  0  0
  150.3824  144.1756  158.0545 H   0  0  0  0  0  0  0  0  0  0  0  0
  153.4561  143.8937  157.5824 H   0  0  0  0  0  0  0  0  0  0  0  0
  152.5474  145.4442  157.9740 H   0  0  0  0  0  0  0  0  0  0  0  0
  151.7612  144.4294  160.1379 H   0  0  0  0  0  0  0  0  0  0  0  0
  152.6672  142.8792  159.7375 H   0  0  0  0  0  0  0  0  0  0  0  0
  152.3404  140.8886  158.7229 H   0  0  0  0  0  0  0  0  0  0  0  0
  149.0796  139.1922  152.4942 H   0  0  0  0  0  0  0  0  0  0  0  0
  1  2  1  0  0  0  0
  1 12  1  0  0  0  0
  1 13  1  0  0  0  0
  1 24  1  0  0  0  0
  2  3  1  0  0  0  0
  2 14  1  0  0  0  0
  2 15  1  0  0  0  0
  3  4  1  0  0  0  0
  3 16  1  0  0  0  0
  3 17  1  0  0  0  0
  4 11  1  0  0  0  0
  4  5  2  0  0  0  0
  5  6  1  0  0  0  0
  6  7  1  0  0  0  0
  6 10  2  0  0  0  0
  7  9  1  0  0  0  0
  7  8  1  0  0  0  0
  7 18  1  0  0  0  0
  8  9  1  0  0  0  0
  8 19  1  0  0  0  0
  8 20  1  0  0  0  0
  9 21  1  0  0  0  0
  9 22  1  0  0  0  0
 10 11  1  0  0  0  0
 10 23  1  0  0  0  0
M  CHG  1   1   1
M  END
> <s_m_source_file>
AV-unprocessed.smi

> <i_m_source_file_index>
3079

> <i_lp_mmshare_version>
43012

> <i_f3d_flags>
0

> <s_epik_input>
W05IMl1bQ0gyXVtDSDJdYzFuYyhbY0hdczEpW0NIXTJbQ0gyXVtDSDJdMg==

> <s_epik_cmdline>
J2VwaWtfcHl0aG9uJywgJy1waCcsICc3LjAnLCAnLXRuJywgJzgnLCAnLW1hJywgJzIwMCcsICctbWV0YWxfYmluZGluZycsICctaW1hZScsICc8aW5maWxlLm1hZT4nLCAnLW9tYWUnLCAnPG91dGZpbGUubWFlPic=

> <r_lp_tautomer_probability>
1

> <r_epik_Ionization_Penalty>
0.00466735

> <r_epik_Ionization_Penalty_Charging>
0.00465044

> <r_epik_Ionization_Penalty_Neutral>
1.6915e-05

> <r_epik_State_Penalty>
-0

> <r_epik_Charging_Adjusted_Penalty>
0.00465044

> <i_epik_Tot_Q>
1

> <i_epik_Tot_abs_Q>
1

> <r_epik_Metal_State_Penalty>
-0

> <b_epik_Metal_Only>
0

> <s_lp_Force_Field>
OPLS_2005

> <r_lp_Energy>
-1.43879

> <b_lp_Chiralities_Consistent>
1

> <s_lp_Variant>
AV-unprocessed.smi:3079-1

> <Gold.Version>
5.8.1

> <Gold.Id.Protein>
6NUR|6NUR_protein|mol2

> <Gold.PLP.Fitness>
36.1883

> <Gold.PLP.PLP>
-27.7986

> <Gold.PLP.part.hbond>
-2.0000

> <Gold.PLP.part.metal>
0.0000

> <Gold.PLP.part.buried>
-3.2171

> <Gold.PLP.part.nonpolar>
-23.8146

> <Gold.PLP.part.repulsive>
0.9251

> <Gold.PLP.ligand.clash>
0.0000

> <Gold.PLP.ligand.torsion>
0.3715

> <Gold.PLP.Chemscore.Hbond>
3.0000

> <Gold.PLP.Chemscore.CHOScore>
0.0000

> <Gold.PLP.Chemscore.Metal>
0.0000

> <Gold.Chemscore.Hbonds>
donor molecule, donor type, donor heavy atom, donor atom, acceptor molecule, acceptor atom, score
      L1  H     1    13       P1  7948  2.00
      L1  H     1    24       P1  7957  1.00

> <Gold.PLP.Chemscore.Internal.Correction>
0.1326

> <Gold.Rescore>
     Score         DG    S(hbond)    S(metal)    S(lipo)     H(rot)  DE(clash)    DE(int)     intcor
     17.37     -17.70       1.98        0.00      80.01       1.47       0.01       0.32       ----

> <Gold.Chemscore.Fitness>
17.3656

> <Gold.Chemscore.DG>
-17.7031

> <Gold.Chemscore.ZeroCoef>
-5.4800

> <Gold.Chemscore.Hbond>
1.9846

> <Gold.Chemscore.Metal>
0.0000

> <Gold.Chemscore.Lipo>
80.0116

> <Gold.Chemscore.Internal_Hbond>
0.0000

> <Gold.Chemscore.DEClash>
0.0146

> <Gold.Chemscore.DEInternal>
0.3229

> <Gold.Chemscore.Rot>
1.4714

> <Gold.Chemscore.Internal.Correction>
   9.000000E+99

> <Gold.Chemscore.Hbonds>
donor molecule, donor type, donor heavy atom, donor atom, acceptor molecule, acceptor atom, score
      L1  H     1    13       P1  7948  0.94
      L1  H     1    24       P1  7957  1.00

> <Gold.Chemscore.Hbond.Weighted>
-6.6285

> <Gold.Chemscore.Metal.Weighted>
-0.0000

> <Gold.Chemscore.Lipo.Weighted>
-9.3614

> <Gold.Chemscore.Internal_Hbond.Weighted>
0.0000

> <Gold.Chemscore.DEClash.Weighted>
0.0146

> <Gold.Chemscore.DEInternal.Weighted>
0.3229

> <Gold.Chemscore.Rot.Weighted>
3.7668

> <Gold.Chemscore.Internal.Correction.Weighted>
   9.000000E+99

> <Gold.Protein.RotatedTorsions>
[ 6907 6896 6895 6894 ] final   14.46 input  -60.11 | X-H torsion
[ 7974 7965 7964 7962 ] final  -68.71 input  175.53 | X-H torsion
[ 8008 7997 7996 7995 ] final   41.42 input   59.86 | X-H torsion
[ 10167 10162 10161 10158 ] final  118.94 input  -65.29 | X-H torsion
[ 10718 10713 10712 10709 ] final -102.61 input   66.30 | X-H torsion
[ 10763 10752 10751 10750 ] final -105.62 input  -60.55 | X-H torsion
[ 11005 11000 10999 10996 ] final -149.34 input  -57.11 | X-H torsion

> <Gold.Protein.ActiveResidues>
 VAL166  LYS551  ARG553  GLY616  TRP617  ASP618  TYR619  PRO620  LYS621  CYS622 
 ASP623  PHE694  ASN695  SER759  ASP760  ASP761  ALA762  ILE779  LEU786  VAL792 
 PHE793  MET794  SER795  GLU796  ALA797  LYS798  CYS799  TRP800  GLU811  SER814 

> <Gold.Protein.RotatedAtoms>
  151.8026  135.0704  160.0402 H   0  0  0  0  0  0  0  0  0  0  0  0  # atno 6907 bound_to 6896
  152.3078  133.5717  159.5669 H   0  0  0  0  0  0  0  0  0  0  0  0  # atno 6908 bound_to 6896
  150.7305  134.0113  159.3712 H   0  0  0  0  0  0  0  0  0  0  0  0  # atno 6909 bound_to 6896
  145.7131  140.9070  143.0670 H   0  0  0  0  0  0  0  0  0  0  0  0  # atno 7974 bound_to 7965
  155.2694  140.3365  155.4266 H   0  0  0  0  0  0  0  0  0  0  0  0  # atno 8008 bound_to 7997
  156.2139  140.1781  156.7674 H   0  0  0  0  0  0  0  0  0  0  0  0  # atno 8009 bound_to 7997
  154.5726  140.0667  156.8971 H   0  0  0  0  0  0  0  0  0  0  0  0  # atno 8010 bound_to 7997
  139.6078  144.7074  151.2913 H   0  0  0  0  0  0  0  0  0  0  0  0  # atno 10167 bound_to 10162
  156.0235  130.5428  150.7133 H   0  0  0  0  0  0  0  0  0  0  0  0  # atno 10718 bound_to 10713
  154.7959  135.4742  154.0159 H   0  0  0  0  0  0  0  0  0  0  0  0  # atno 10763 bound_to 10752
  153.1702  135.6824  153.8625 H   0  0  0  0  0  0  0  0  0  0  0  0  # atno 10764 bound_to 10752
  153.8210  135.3204  155.3388 H   0  0  0  0  0  0  0  0  0  0  0  0  # atno 10765 bound_to 10752
  140.7518  134.3398  157.5124 H   0  0  0  0  0  0  0  0  0  0  0  0  # atno 11005 bound_to 11000
  144.6936  139.9101  143.7463 LP  0  0  0  0  0  0  0  0  0  0  0  0  # atno 17320 bound_to 7965
  146.0694  139.3684  143.0532 LP  0  0  0  0  0  0  0  0  0  0  0  0  # atno 17321 bound_to 7965
  140.7297  143.6899  150.7931 LP  0  0  0  0  0  0  0  0  0  0  0  0  # atno 17342 bound_to 10162
  140.0488  143.5271  152.2683 LP  0  0  0  0  0  0  0  0  0  0  0  0  # atno 17343 bound_to 10162
  157.4766  131.0898  151.0583 LP  0  0  0  0  0  0  0  0  0  0  0  0  # atno 17370 bound_to 10713
  157.1028  130.5989  149.5464 LP  0  0  0  0  0  0  0  0  0  0  0  0  # atno 17371 bound_to 10713
  139.8786  134.9147  156.3113 LP  0  0  0  0  0  0  0  0  0  0  0  0  # atno 17394 bound_to 11000
  140.9744  133.7307  156.0580 LP  0  0  0  0  0  0  0  0  0  0  0  0  # atno 17395 bound_to 11000

$$$$
