AV-unprocessed.smi:2061|AV-procd|sdf|8377|dock8
  -GOLD-   2272011 53D 1   1.00000     0.00000
 Structure written by MMmdl.
 44 45  0  0  0  0  0  0  0  0  2 V2000
  146.0276  144.0050  153.1349 C   0  0  0  0  0  0  0  0  0  0  0  0
  146.7462  142.8586  153.7601 C   0  0  0  0  0  0  0  0  0  0  0  0
  147.3471  141.7467  153.2420 C   0  0  0  0  0  0  0  0  0  0  0  0
  147.8373  141.0750  154.3953 C   0  0  0  0  0  0  0  0  0  0  0  0
  148.4945  139.9052  154.4085 N   0  5  0  0  0  0  0  0  0  0  0  0
  149.8193  139.8685  154.6808 C   0  0  0  0  0  0  0  0  0  0  0  0
  150.7086  139.4633  153.9288 O   0  0  0  0  0  0  0  0  0  0  0  0
  150.1265  140.3202  155.9058 N   0  0  0  0  0  0  0  0  0  0  0  0
  151.4599  140.3960  156.5004 C   0  0  0  0  0  0  0  0  0  0  0  0
  151.4275  140.4414  158.0547 C   0  0  1  0  0  0  0  0  0  0  0  0
  152.1407  139.1821  158.6110 C   0  0  0  0  0  0  0  0  0  0  0  0
  151.9699  141.7022  158.6170 N   0  0  0  0  0  0  0  0  0  0  0  0
  152.1159  141.6506  160.0747 C   0  0  0  0  0  0  0  0  0  0  0  0
  152.6934  142.9486  160.6676 C   0  0  2  0  0  0  0  0  0  0  0  0
  152.7546  142.9034  162.1981 C   0  0  0  0  0  0  0  0  0  0  0  0
  151.8739  144.0504  160.2932 O   0  0  0  0  0  0  0  0  0  0  0  0
  151.6698  144.1900  158.8894 C   0  0  1  0  0  0  0  0  0  0  0  0
  152.9225  144.7287  158.1771 C   0  0  0  0  0  0  0  0  0  0  0  0
  151.1453  142.8708  158.2878 C   0  0  0  0  0  0  0  0  0  0  0  0
  147.5469  141.7155  155.5151 N   0  0  0  0  0  0  0  0  0  0  0  0
  146.8513  142.8632  155.1161 O   0  0  0  0  0  0  0  0  0  0  0  0
  145.0578  143.6877  152.7517 H   0  0  0  0  0  0  0  0  0  0  0  0
  146.6024  144.4143  152.3042 H   0  0  0  0  0  0  0  0  0  0  0  0
  145.8615  144.8054  153.8563 H   0  0  0  0  0  0  0  0  0  0  0  0
  147.4262  141.4594  152.2044 H   0  0  0  0  0  0  0  0  0  0  0  0
  149.3595  140.6390  156.4794 H   0  0  0  0  0  0  0  0  0  0  0  0
  152.1028  139.5818  156.1619 H   0  0  0  0  0  0  0  0  0  0  0  0
  151.8821  141.3092  156.0866 H   0  0  0  0  0  0  0  0  0  0  0  0
  150.3798  140.3672  158.3506 H   0  0  0  0  0  0  0  0  0  0  0  0
  151.7591  138.2611  158.1729 H   0  0  0  0  0  0  0  0  0  0  0  0
  151.9957  139.0586  159.6827 H   0  0  0  0  0  0  0  0  0  0  0  0
  153.2126  139.2177  158.4145 H   0  0  0  0  0  0  0  0  0  0  0  0
  151.1498  141.4346  160.5338 H   0  0  0  0  0  0  0  0  0  0  0  0
  152.7904  140.8475  160.3645 H   0  0  0  0  0  0  0  0  0  0  0  0
  153.7050  143.1024  160.2907 H   0  0  0  0  0  0  0  0  0  0  0  0
  153.3879  142.0850  162.5417 H   0  0  0  0  0  0  0  0  0  0  0  0
  151.7629  142.7630  162.6289 H   0  0  0  0  0  0  0  0  0  0  0  0
  153.1639  143.8309  162.5994 H   0  0  0  0  0  0  0  0  0  0  0  0
  150.8904  144.9430  158.7695 H   0  0  0  0  0  0  0  0  0  0  0  0
  152.7093  144.9435  157.1297 H   0  0  0  0  0  0  0  0  0  0  0  0
  153.7465  144.0160  158.1999 H   0  0  0  0  0  0  0  0  0  0  0  0
  153.2661  145.6538  158.6405 H   0  0  0  0  0  0  0  0  0  0  0  0
  151.0853  143.0155  157.2112 H   0  0  0  0  0  0  0  0  0  0  0  0
  150.1259  142.7030  158.6386 H   0  0  0  0  0  0  0  0  0  0  0  0
  1  2  1  0  0  0  0
  1 22  1  0  0  0  0
  1 23  1  0  0  0  0
  1 24  1  0  0  0  0
  2 21  1  0  0  0  0
  2  3  2  0  0  0  0
  3  4  1  0  0  0  0
  3 25  1  0  0  0  0
  4  5  1  0  0  0  0
  4 20  2  0  0  0  0
  5  6  1  0  0  0  0
  6  7  2  0  0  0  0
  6  8  1  0  0  0  0
  8  9  1  0  0  0  0
  8 26  1  0  0  0  0
  9 10  1  0  0  0  0
  9 27  1  0  0  0  0
  9 28  1  0  0  0  0
 10 11  1  0  0  0  0
 10 12  1  0  0  0  0
 10 29  1  0  0  0  0
 11 30  1  0  0  0  0
 11 31  1  0  0  0  0
 11 32  1  0  0  0  0
 12 19  1  0  0  0  0
 12 13  1  0  0  0  0
 13 14  1  0  0  0  0
 13 33  1  0  0  0  0
 13 34  1  0  0  0  0
 14 15  1  0  0  0  0
 14 16  1  0  0  0  0
 14 35  1  0  0  0  0
 15 36  1  0  0  0  0
 15 37  1  0  0  0  0
 15 38  1  0  0  0  0
 16 17  1  0  0  0  0
 17 18  1  0  0  0  0
 17 19  1  0  0  0  0
 17 39  1  0  0  0  0
 18 40  1  0  0  0  0
 18 41  1  0  0  0  0
 18 42  1  0  0  0  0
 19 43  1  0  0  0  0
 19 44  1  0  0  0  0
 20 21  1  0  0  0  0
M  CHG  1   5  -1
M  END
> <s_m_source_file>
AV-unprocessed.smi

> <i_m_source_file_index>
2061

> <i_lp_mmshare_version>
43012

> <i_f3d_flags>
0

> <s_epik_input>
W0NIM11jMVtjSF1jKG5vMSlbTkhdQyg9TylbTkhdW0NIMl1bQ0BIXShbQ0gzXSlOMltDSDJdW0NAQEhdKFtDSDNdKU9bQ0BASF0oW0NIM10pW0NIMl0y

> <s_epik_cmdline>
J2VwaWtfcHl0aG9uJywgJy1waCcsICc3LjAnLCAnLXRuJywgJzgnLCAnLW1hJywgJzIwMCcsICctbWV0YWxfYmluZGluZycsICctaW1hZScsICc8aW5maWxlLm1hZT4nLCAnLW9tYWUnLCAnPG91dGZpbGUubWFlPic=

> <r_epik_Ionization_Penalty>
6.88367

> <r_epik_Ionization_Penalty_Charging>
6.57198

> <r_epik_Ionization_Penalty_Neutral>
0.311681

> <r_epik_State_Penalty>
6.77619

> <r_epik_Charging_Adjusted_Penalty>
13.3482

> <i_epik_Tot_Q>
-1

> <i_epik_Tot_abs_Q>
1

> <r_epik_Metal_State_Penalty>
2.70524

> <b_epik_Metal_Only>
1

> <s_lp_Force_Field>
OPLS_2005

> <r_lp_Energy>
24.2039

> <b_lp_Chiralities_Consistent>
1

> <s_lp_Variant>
AV-unprocessed.smi:2061-18

> <Gold.Version>
5.8.1

> <Gold.Id.Protein>
6NUR|6NUR_protein|mol2

> <Gold.PLP.Fitness>
41.9796

> <Gold.PLP.PLP>
-43.4351

> <Gold.PLP.part.hbond>
-1.0000

> <Gold.PLP.part.metal>
0.0000

> <Gold.PLP.part.buried>
-7.5365

> <Gold.PLP.part.nonpolar>
-36.1279

> <Gold.PLP.part.repulsive>
0.9659

> <Gold.PLP.ligand.clash>
0.0000

> <Gold.PLP.ligand.torsion>
2.2611

> <Gold.PLP.Chemscore.Hbond>
1.0000

> <Gold.PLP.Chemscore.CHOScore>
0.0000

> <Gold.PLP.Chemscore.Metal>
0.0000

> <Gold.Chemscore.Hbonds>
donor molecule, donor type, donor heavy atom, donor atom, acceptor molecule, acceptor atom, score
      P1  H  7989  7998       L1     7  1.00

> <Gold.PLP.Chemscore.Internal.Correction>
0.0668

> <Gold.Rescore>
     Score         DG    S(hbond)    S(metal)    S(lipo)     H(rot)  DE(clash)    DE(int)     intcor
     15.42     -17.68       0.99        0.00     109.26       1.52       0.01       2.25       ----

> <Gold.Chemscore.Fitness>
15.4158

> <Gold.Chemscore.DG>
-17.6803

> <Gold.Chemscore.ZeroCoef>
-5.4800

> <Gold.Chemscore.Hbond>
0.9896

> <Gold.Chemscore.Metal>
0.0000

> <Gold.Chemscore.Lipo>
109.2610

> <Gold.Chemscore.Internal_Hbond>
0.0000

> <Gold.Chemscore.DEClash>
0.0124

> <Gold.Chemscore.DEInternal>
2.2521

> <Gold.Chemscore.Rot>
1.5190

> <Gold.Chemscore.Internal.Correction>
   9.000000E+99

> <Gold.Chemscore.Hbonds>
donor molecule, donor type, donor heavy atom, donor atom, acceptor molecule, acceptor atom, score
      P1  H  7989  7998       L1     7  0.54

> <Gold.Chemscore.Hbond.Weighted>
-3.3054

> <Gold.Chemscore.Metal.Weighted>
-0.0000

> <Gold.Chemscore.Lipo.Weighted>
-12.7835

> <Gold.Chemscore.Internal_Hbond.Weighted>
0.0000

> <Gold.Chemscore.DEClash.Weighted>
0.0124

> <Gold.Chemscore.DEInternal.Weighted>
2.2521

> <Gold.Chemscore.Rot.Weighted>
3.8886

> <Gold.Chemscore.Internal.Correction.Weighted>
   9.000000E+99

> <Gold.Protein.RotatedTorsions>
[ 6907 6896 6895 6894 ] final   48.93 input  -60.11 | X-H torsion
[ 7974 7965 7964 7962 ] final   88.86 input  175.53 | X-H torsion
[ 8008 7997 7996 7995 ] final  159.23 input   59.86 | X-H torsion
[ 10167 10162 10161 10158 ] final   46.96 input  -65.29 | X-H torsion
[ 10718 10713 10712 10709 ] final -133.45 input   66.30 | X-H torsion
[ 10763 10752 10751 10750 ] final  179.58 input  -60.55 | X-H torsion
[ 11005 11000 10999 10996 ] final  -25.47 input  -57.11 | X-H torsion

> <Gold.Protein.ActiveResidues>
 VAL166  LYS551  ARG553  GLY616  TRP617  ASP618  TYR619  PRO620  LYS621  CYS622 
 ASP623  PHE694  ASN695  SER759  ASP760  ASP761  ALA762  ILE779  LEU786  VAL792 
 PHE793  MET794  SER795  GLU796  ALA797  LYS798  CYS799  TRP800  GLU811  SER814 

> <Gold.Protein.RotatedAtoms>
  152.2850  134.7786  160.0388 H   0  0  0  0  0  0  0  0  0  0  0  0  # atno 6907 bound_to 6896
  151.8351  133.3409  159.3634 H   0  0  0  0  0  0  0  0  0  0  0  0  # atno 6908 bound_to 6896
  150.7206  134.5373  159.5774 H   0  0  0  0  0  0  0  0  0  0  0  0  # atno 6909 bound_to 6896
  145.5401  139.2288  143.2570 H   0  0  0  0  0  0  0  0  0  0  0  0  # atno 7974 bound_to 7965
  156.2252  140.1837  156.7379 H   0  0  0  0  0  0  0  0  0  0  0  0  # atno 8008 bound_to 7997
  154.5930  140.0648  156.9293 H   0  0  0  0  0  0  0  0  0  0  0  0  # atno 8009 bound_to 7997
  155.2303  140.3314  155.4306 H   0  0  0  0  0  0  0  0  0  0  0  0  # atno 8010 bound_to 7997
  140.3086  144.2848  150.6204 H   0  0  0  0  0  0  0  0  0  0  0  0  # atno 10167 bound_to 10162
  156.2451  130.7119  151.0996 H   0  0  0  0  0  0  0  0  0  0  0  0  # atno 10718 bound_to 10713
  154.5225  135.2795  155.1250 H   0  0  0  0  0  0  0  0  0  0  0  0  # atno 10763 bound_to 10752
  154.2802  135.6287  153.5348 H   0  0  0  0  0  0  0  0  0  0  0  0  # atno 10764 bound_to 10752
  152.9939  135.5649  154.5717 H   0  0  0  0  0  0  0  0  0  0  0  0  # atno 10765 bound_to 10752
  140.8941  133.7568  156.0459 H   0  0  0  0  0  0  0  0  0  0  0  0  # atno 11005 bound_to 11000
  146.1987  140.6221  142.9112 LP  0  0  0  0  0  0  0  0  0  0  0  0  # atno 17320 bound_to 7965
  144.7581  140.5357  143.6754 LP  0  0  0  0  0  0  0  0  0  0  0  0  # atno 17321 bound_to 7965
  140.5588  143.2195  151.7800 LP  0  0  0  0  0  0  0  0  0  0  0  0  # atno 17342 bound_to 10162
  139.4899  144.4377  151.9801 LP  0  0  0  0  0  0  0  0  0  0  0  0  # atno 17343 bound_to 10162
  157.7191  131.0692  150.6207 LP  0  0  0  0  0  0  0  0  0  0  0  0  # atno 17370 bound_to 10713
  156.6283  130.4425  149.5796 LP  0  0  0  0  0  0  0  0  0  0  0  0  # atno 17371 bound_to 10713
  140.8311  134.3177  157.5348 LP  0  0  0  0  0  0  0  0  0  0  0  0  # atno 17394 bound_to 11000
  139.8733  134.9363  156.3658 LP  0  0  0  0  0  0  0  0  0  0  0  0  # atno 17395 bound_to 11000

$$$$
