AV-unprocessed.smi:246|AV-procd|sdf|1886|dock5
  -GOLD-   2262020543D 1   1.00000     0.00000
 Structure written by MMmdl.
 57 60  0  0  0  0  0  0  0  0  1 V2000
  144.6055  132.1738  150.2950 C   0  0  0  0  0  0  0  0  0  0  0  0
  145.5121  131.7169  151.4458 C   0  0  0  0  0  0  0  0  0  0  0  0
  146.6524  132.5538  151.5738 O   0  0  0  0  0  0  0  0  0  0  0  0
  147.2567  132.5227  152.8584 C   0  0  0  0  0  0  0  0  0  0  0  0
  148.5684  133.3099  152.8015 C   0  0  0  0  0  0  0  0  0  0  0  0
  149.1289  133.3501  154.1047 O   0  0  0  0  0  0  0  0  0  0  0  0
  148.2398  133.8362  155.1008 C   0  0  1  0  0  0  0  0  0  0  0  0
  148.8598  133.6970  156.4958 C   0  0  0  0  0  0  0  0  0  0  0  0
  149.7174  134.9524  156.6232 C   0  0  0  0  0  0  0  0  0  0  0  0
  148.9838  135.9754  155.8922 N   0  0  0  0  0  0  0  0  0  0  0  0
  149.5289  137.1977  155.6561 C   0  0  0  0  0  0  0  0  0  0  0  0
  149.5211  137.6843  154.3862 N   0  0  0  0  0  0  0  0  0  0  0  0
  150.0432  138.8833  154.1142 C   0  0  0  0  0  0  0  0  0  0  0  0
  150.6200  139.7501  154.9474 N   0  0  0  0  0  0  0  0  0  0  0  0
  150.6431  139.2678  156.2225 C   0  0  0  0  0  0  0  0  0  0  0  0
  150.1336  138.0110  156.6604 C   0  0  0  0  0  0  0  0  0  0  0  0
  150.3669  137.8638  158.0240 N   0  0  0  0  0  0  0  0  0  0  0  0
  150.9650  138.9696  158.3711 C   0  0  0  0  0  0  0  0  0  0  0  0
  151.1569  139.8766  157.3544 N   0  0  0  0  0  0  0  0  0  0  0  0
  151.7890  141.1822  157.4606 C   0  0  0  0  0  0  0  0  0  0  0  0
  152.3286  141.5217  158.8697 C   0  0  1  0  0  0  0  0  0  0  0  0
  153.4474  140.7208  159.1979 O   0  0  0  0  0  0  0  0  0  0  0  0
  152.6440  143.0154  159.1148 C   0  0  1  0  0  0  0  0  0  0  0  0
  151.7937  144.0153  158.3252 C   0  0  0  0  0  0  0  0  0  0  0  0
  151.9129  145.2557  159.1821 C   0  0  0  0  0  0  0  0  0  0  0  0
  151.8813  144.6616  160.5869 C   0  0  0  0  0  0  0  0  0  0  0  0
  152.5247  143.3955  160.4840 O   0  0  0  0  0  0  0  0  0  0  0  0
  148.1100  135.3533  154.9052 C   0  0  0  0  0  0  0  0  0  0  0  0
  147.2665  133.3483  155.0227 H   0  0  0  0  0  0  0  0  0  0  0  0
  143.7812  131.4747  150.1541 H   0  0  0  0  0  0  0  0  0  0  0  0
  145.1617  132.2257  149.3587 H   0  0  0  0  0  0  0  0  0  0  0  0
  144.1728  133.1560  150.4828 H   0  0  0  0  0  0  0  0  0  0  0  0
  144.9593  131.6577  152.3847 H   0  0  0  0  0  0  0  0  0  0  0  0
  145.8681  130.7087  151.2325 H   0  0  0  0  0  0  0  0  0  0  0  0
  146.6026  132.9367  153.6262 H   0  0  0  0  0  0  0  0  0  0  0  0
  147.4651  131.4867  153.1291 H   0  0  0  0  0  0  0  0  0  0  0  0
  149.2690  132.8085  152.1325 H   0  0  0  0  0  0  0  0  0  0  0  0
  148.3933  134.3093  152.4016 H   0  0  0  0  0  0  0  0  0  0  0  0
  148.0699  133.7199  157.2477 H   0  0  0  0  0  0  0  0  0  0  0  0
  149.4299  132.7796  156.6402 H   0  0  0  0  0  0  0  0  0  0  0  0
  149.8702  135.2322  157.6661 H   0  0  0  0  0  0  0  0  0  0  0  0
  150.6923  134.7944  156.1594 H   0  0  0  0  0  0  0  0  0  0  0  0
  149.9893  139.1926  153.0809 H   0  0  0  0  0  0  0  0  0  0  0  0
  151.2728  139.1615  159.3887 H   0  0  0  0  0  0  0  0  0  0  0  0
  152.6002  141.2308  156.7332 H   0  0  0  0  0  0  0  0  0  0  0  0
  151.0619  141.9344  157.1520 H   0  0  0  0  0  0  0  0  0  0  0  0
  151.5488  141.2421  159.5790 H   0  0  0  0  0  0  0  0  0  0  0  0
  153.1542  139.9987  159.7326 H   0  0  0  0  0  0  0  0  0  0  0  0
  153.6879  143.1899  158.8491 H   0  0  0  0  0  0  0  0  0  0  0  0
  152.1498  144.1637  157.3054 H   0  0  0  0  0  0  0  0  0  0  0  0
  150.7496  143.7038  158.2790 H   0  0  0  0  0  0  0  0  0  0  0  0
  152.8696  145.7475  159.0010 H   0  0  0  0  0  0  0  0  0  0  0  0
  151.1158  145.9787  159.0063 H   0  0  0  0  0  0  0  0  0  0  0  0
  152.3693  145.2999  161.3237 H   0  0  0  0  0  0  0  0  0  0  0  0
  150.8512  144.5003  160.9073 H   0  0  0  0  0  0  0  0  0  0  0  0
  148.3643  135.6442  153.8851 H   0  0  0  0  0  0  0  0  0  0  0  0
  147.0864  135.6727  155.1030 H   0  0  0  0  0  0  0  0  0  0  0  0
  1  2  1  0  0  0  0
  1 30  1  0  0  0  0
  1 31  1  0  0  0  0
  1 32  1  0  0  0  0
  2  3  1  0  0  0  0
  2 33  1  0  0  0  0
  2 34  1  0  0  0  0
  3  4  1  0  0  0  0
  4  5  1  0  0  0  0
  4 35  1  0  0  0  0
  4 36  1  0  0  0  0
  5  6  1  0  0  0  0
  5 37  1  0  0  0  0
  5 38  1  0  0  0  0
  6  7  1  0  0  0  0
  7 29  1  0  0  0  0
  7 28  1  0  0  0  0
  7  8  1  0  0  0  0
  8  9  1  0  0  0  0
  8 39  1  0  0  0  0
  8 40  1  0  0  0  0
  9 10  1  0  0  0  0
  9 41  1  0  0  0  0
  9 42  1  0  0  0  0
 10 11  1  0  0  0  0
 10 28  1  0  0  0  0
 11 16  1  0  0  0  0
 11 12  2  0  0  0  0
 12 13  1  0  0  0  0
 13 14  2  0  0  0  0
 13 43  1  0  0  0  0
 14 15  1  0  0  0  0
 15 19  1  0  0  0  0
 15 16  2  0  0  0  0
 16 17  1  0  0  0  0
 17 18  2  0  0  0  0
 18 19  1  0  0  0  0
 18 44  1  0  0  0  0
 19 20  1  0  0  0  0
 20 21  1  0  0  0  0
 20 45  1  0  0  0  0
 20 46  1  0  0  0  0
 21 22  1  0  0  0  0
 21 23  1  0  0  0  0
 21 47  1  0  0  0  0
 22 48  1  0  0  0  0
 23 27  1  0  0  0  0
 23 24  1  0  0  0  0
 23 49  1  0  0  0  0
 24 25  1  0  0  0  0
 24 50  1  0  0  0  0
 24 51  1  0  0  0  0
 25 26  1  0  0  0  0
 25 52  1  0  0  0  0
 25 53  1  0  0  0  0
 26 27  1  0  0  0  0
 26 54  1  0  0  0  0
 26 55  1  0  0  0  0
 28 56  1  0  0  0  0
 28 57  1  0  0  0  0
M  END
> <s_m_source_file>
AV-unprocessed.smi

> <i_m_source_file_index>
246

> <i_lp_mmshare_version>
43012

> <i_f3d_flags>
0

> <s_epik_input>
W0NIM11bQ0gyXU9bQ0gyXVtDSDJdT1tDQEhdMVtDSDJdW0NIMl1OKFtDSDJdMSljKG5bY0hdbjIpYyhjMjMpbltjSF1uM1tDSDJdW0NASF0oW09IXSlbQ0BASF00W0NIMl1bQ0gyXVtDSDJdTzQ=

> <s_epik_cmdline>
J2VwaWtfcHl0aG9uJywgJy1waCcsICc3LjAnLCAnLXRuJywgJzgnLCAnLW1hJywgJzIwMCcsICctbWV0YWxfYmluZGluZycsICctaW1hZScsICc8aW5maWxlLm1hZT4nLCAnLW9tYWUnLCAnPG91dGZpbGUubWFlPic=

> <r_lp_tautomer_probability>
1

> <r_epik_Ionization_Penalty>
0.0024631

> <r_epik_Ionization_Penalty_Charging>
0

> <r_epik_Ionization_Penalty_Neutral>
0.0024631

> <r_epik_State_Penalty>
0.00162428

> <r_epik_Charging_Adjusted_Penalty>
0.00162428

> <i_epik_Tot_Q>
0

> <i_epik_Tot_abs_Q>
0

> <r_epik_Metal_State_Penalty>
-0

> <b_epik_Metal_Only>
0

> <s_lp_Force_Field>
OPLS_2005

> <r_lp_Energy>
53.5717

> <b_lp_Chiralities_Consistent>
1

> <s_lp_Variant>
AV-unprocessed.smi:246-7

> <Gold.Version>
5.8.1

> <Gold.Id.Protein>
6NUR|6NUR_protein|mol2

> <Gold.PLP.Fitness>
46.6149

> <Gold.PLP.PLP>
-41.7561

> <Gold.PLP.part.hbond>
-1.9242

> <Gold.PLP.part.metal>
0.0000

> <Gold.PLP.part.buried>
-6.2469

> <Gold.PLP.part.nonpolar>
-34.2169

> <Gold.PLP.part.repulsive>
1.7477

> <Gold.PLP.ligand.clash>
0.0000

> <Gold.PLP.ligand.torsion>
1.3622

> <Gold.PLP.Chemscore.Hbond>
1.2578

> <Gold.PLP.Chemscore.CHOScore>
1.0000

> <Gold.PLP.Chemscore.Metal>
0.0000

> <Gold.Chemscore.Hbonds>
donor molecule, donor type, donor heavy atom, donor atom, acceptor molecule, acceptor atom, score
      P1  H  7989  7998       L1    14  0.72
      L1  C    13    43       P1  7957  1.00

> <Gold.PLP.Chemscore.Internal.Correction>
0.8099

> <Gold.Rescore>
     Score         DG    S(hbond)    S(metal)    S(lipo)     H(rot)  DE(clash)    DE(int)     intcor
     10.75     -12.56       0.82        0.00     104.90       3.10       0.46       1.34       ----

> <Gold.Chemscore.Fitness>
10.7530

> <Gold.Chemscore.DG>
-12.5575

> <Gold.Chemscore.ZeroCoef>
-5.4800

> <Gold.Chemscore.Hbond>
0.8224

> <Gold.Chemscore.Metal>
0.0000

> <Gold.Chemscore.Lipo>
104.8999

> <Gold.Chemscore.Internal_Hbond>
0.0000

> <Gold.Chemscore.DEClash>
0.4648

> <Gold.Chemscore.DEInternal>
1.3397

> <Gold.Chemscore.Rot>
3.1026

> <Gold.Chemscore.Internal.Correction>
   9.000000E+99

> <Gold.Chemscore.Hbonds>
donor molecule, donor type, donor heavy atom, donor atom, acceptor molecule, acceptor atom, score
      P1  H  7989  7998       L1    14  0.12
      P1  H  7997  8009       L1    22  0.01

> <Gold.Chemscore.Hbond.Weighted>
-2.7469

> <Gold.Chemscore.Metal.Weighted>
-0.0000

> <Gold.Chemscore.Lipo.Weighted>
-12.2733

> <Gold.Chemscore.Internal_Hbond.Weighted>
0.0000

> <Gold.Chemscore.DEClash.Weighted>
0.4648

> <Gold.Chemscore.DEInternal.Weighted>
1.3397

> <Gold.Chemscore.Rot.Weighted>
7.9426

> <Gold.Chemscore.Internal.Correction.Weighted>
   9.000000E+99

> <Gold.Protein.RotatedTorsions>
[ 6907 6896 6895 6894 ] final -109.81 input  -60.11 | X-H torsion
[ 7974 7965 7964 7962 ] final  -66.72 input  175.53 | X-H torsion
[ 8008 7997 7996 7995 ] final  141.93 input   59.86 | X-H torsion
[ 10167 10162 10161 10158 ] final  126.84 input  -65.29 | X-H torsion
[ 10718 10713 10712 10709 ] final  -95.73 input   66.30 | X-H torsion
[ 10763 10752 10751 10750 ] final   57.66 input  -60.55 | X-H torsion
[ 11005 11000 10999 10996 ] final -164.52 input  -57.11 | X-H torsion

> <Gold.Protein.ActiveResidues>
 VAL166  LYS551  ARG553  GLY616  TRP617  ASP618  TYR619  PRO620  LYS621  CYS622 
 ASP623  PHE694  ASN695  SER759  ASP760  ASP761  ALA762  ILE779  LEU786  VAL792 
 PHE793  MET794  SER795  GLU796  ALA797  LYS798  CYS799  TRP800  GLU811  SER814 

> <Gold.Protein.RotatedAtoms>
  150.7585  133.9474  159.3474 H   0  0  0  0  0  0  0  0  0  0  0  0  # atno 6907 bound_to 6896
  151.7388  135.0857  160.0322 H   0  0  0  0  0  0  0  0  0  0  0  0  # atno 6908 bound_to 6896
  152.3542  133.6179  159.6003 H   0  0  0  0  0  0  0  0  0  0  0  0  # atno 6909 bound_to 6896
  145.7383  140.8965  143.0543 H   0  0  0  0  0  0  0  0  0  0  0  0  # atno 7974 bound_to 7965
  156.2958  140.2302  156.4645 H   0  0  0  0  0  0  0  0  0  0  0  0  # atno 8008 bound_to 7997
  154.7989  140.0449  157.1279 H   0  0  0  0  0  0  0  0  0  0  0  0  # atno 8009 bound_to 7997
  154.9556  140.3048  155.5058 H   0  0  0  0  0  0  0  0  0  0  0  0  # atno 8010 bound_to 7997
  139.5610  144.6881  151.4044 H   0  0  0  0  0  0  0  0  0  0  0  0  # atno 10167 bound_to 10162
  156.0048  130.5121  150.6120 H   0  0  0  0  0  0  0  0  0  0  0  0  # atno 10718 bound_to 10713
  152.9854  135.5634  154.5427 H   0  0  0  0  0  0  0  0  0  0  0  0  # atno 10763 bound_to 10752
  154.4878  135.2791  155.1522 H   0  0  0  0  0  0  0  0  0  0  0  0  # atno 10764 bound_to 10752
  154.3004  135.6308  153.5475 H   0  0  0  0  0  0  0  0  0  0  0  0  # atno 10765 bound_to 10752
  140.5860  134.5093  157.5186 H   0  0  0  0  0  0  0  0  0  0  0  0  # atno 11005 bound_to 11000
  144.6876  139.9425  143.7475 LP  0  0  0  0  0  0  0  0  0  0  0  0  # atno 17320 bound_to 7965
  146.0472  139.3477  143.0661 LP  0  0  0  0  0  0  0  0  0  0  0  0  # atno 17321 bound_to 7965
  140.6889  143.7908  150.7226 LP  0  0  0  0  0  0  0  0  0  0  0  0  # atno 17342 bound_to 10162
  140.1384  143.4463  152.2209 LP  0  0  0  0  0  0  0  0  0  0  0  0  # atno 17343 bound_to 10162
  157.3950  131.0801  151.1359 LP  0  0  0  0  0  0  0  0  0  0  0  0  # atno 17370 bound_to 10713
  157.2039  130.6407  149.5749 LP  0  0  0  0  0  0  0  0  0  0  0  0  # atno 17371 bound_to 10713
  139.9295  134.7990  156.0970 LP  0  0  0  0  0  0  0  0  0  0  0  0  # atno 17394 bound_to 11000
  141.0966  133.6693  156.2658 LP  0  0  0  0  0  0  0  0  0  0  0  0  # atno 17395 bound_to 11000

$$$$
