AV-unprocessed.smi:437|AV-procd|sdf|2562|dock2
  -GOLD-   2262022533D 1   1.00000     0.00000
 Structure written by MMmdl.
 48 49  0  0  0  0  0  0  0  0  1 V2000
  144.2300  144.7323  153.6049 C   0  0  0  0  0  0  0  0  0  0  0  0
  144.8572  143.6815  154.4810 C   0  0  0  0  0  0  0  0  0  0  0  0
  145.6217  142.8193  153.8957 N   0  0  0  0  0  0  0  0  0  0  0  0
  146.2418  141.8088  154.6049 N   0  0  0  0  0  0  0  0  0  0  0  0
  147.0656  140.9156  153.7767 C   0  0  0  0  0  0  0  0  0  0  0  0
  148.4413  140.6124  154.3905 C   0  0  0  0  0  0  0  0  0  0  0  0
  148.9631  139.5049  154.2354 O   0  0  0  0  0  0  0  0  0  0  0  0
  148.9932  141.6365  155.0722 N   0  0  0  0  0  0  0  0  0  0  0  0
  150.1809  141.6561  155.7068 C   0  0  0  0  0  0  0  0  0  0  0  0
  151.1196  140.8830  155.5027 O   0  0  0  0  0  0  0  0  0  0  0  0
  150.2245  142.6459  156.6107 N   0  0  0  0  0  0  0  0  0  0  0  0
  151.4188  143.0865  157.3292 C   0  0  1  0  0  0  0  0  0  0  0  0
  151.2625  144.5623  157.7559 C   0  0  0  0  0  0  0  0  0  0  0  0
  152.4712  145.0490  158.5679 C   0  0  0  0  0  0  0  0  0  0  0  0
  152.7097  144.1523  159.7898 C   0  0  0  0  0  0  0  0  0  0  0  0
  152.8815  142.6847  159.3703 C   0  0  0  0  0  0  0  0  0  0  0  0
  151.6762  142.1738  158.5547 C   0  0  2  0  0  0  0  0  0  0  0  0
  151.8776  140.6993  158.1614 C   0  0  0  0  0  0  0  0  0  0  0  0
  146.1246  141.6196  155.9507 C   0  0  0  0  0  0  0  0  0  0  0  0
  146.6973  140.7036  156.5432 O   0  0  0  0  0  0  0  0  0  0  0  0
  145.2588  142.6012  156.6079 C   0  0  0  0  0  0  0  0  0  0  0  0
  145.1037  142.4362  158.0171 C   0  0  0  0  0  0  0  0  0  0  0  0
  144.9819  142.2820  159.1580 N   0  0  0  0  0  0  0  0  0  0  0  0
  144.6453  143.5984  155.9225 C   0  0  0  0  0  0  0  0  0  0  0  0
  143.7377  144.6427  156.5582 C   0  0  0  0  0  0  0  0  0  0  0  0
  144.6102  145.7223  153.8576 H   0  0  0  0  0  0  0  0  0  0  0  0
  143.1467  144.7438  153.7272 H   0  0  0  0  0  0  0  0  0  0  0  0
  144.4384  144.5584  152.5480 H   0  0  0  0  0  0  0  0  0  0  0  0
  146.5473  139.9675  153.6215 H   0  0  0  0  0  0  0  0  0  0  0  0
  147.1992  141.3400  152.7797 H   0  0  0  0  0  0  0  0  0  0  0  0
  148.4533  142.4884  155.1086 H   0  0  0  0  0  0  0  0  0  0  0  0
  149.3651  143.1289  156.8278 H   0  0  0  0  0  0  0  0  0  0  0  0
  152.2795  143.0068  156.6618 H   0  0  0  0  0  0  0  0  0  0  0  0
  151.1378  145.1985  156.8788 H   0  0  0  0  0  0  0  0  0  0  0  0
  150.3564  144.6806  158.3521 H   0  0  0  0  0  0  0  0  0  0  0  0
  153.3599  145.0518  157.9355 H   0  0  0  0  0  0  0  0  0  0  0  0
  152.3146  146.0798  158.8873 H   0  0  0  0  0  0  0  0  0  0  0  0
  153.5935  144.4898  160.3318 H   0  0  0  0  0  0  0  0  0  0  0  0
  151.8700  144.2411  160.4801 H   0  0  0  0  0  0  0  0  0  0  0  0
  153.7944  142.5810  158.7823 H   0  0  0  0  0  0  0  0  0  0  0  0
  153.0177  142.0685  160.2598 H   0  0  0  0  0  0  0  0  0  0  0  0
  150.7986  142.2221  159.2016 H   0  0  0  0  0  0  0  0  0  0  0  0
  152.7246  140.5834  157.4844 H   0  0  0  0  0  0  0  0  0  0  0  0
  150.9973  140.2892  157.6662 H   0  0  0  0  0  0  0  0  0  0  0  0
  152.0690  140.0829  159.0401 H   0  0  0  0  0  0  0  0  0  0  0  0
  143.7264  144.5712  157.6455 H   0  0  0  0  0  0  0  0  0  0  0  0
  142.7126  144.5192  156.2074 H   0  0  0  0  0  0  0  0  0  0  0  0
  144.0695  145.6497  156.3035 H   0  0  0  0  0  0  0  0  0  0  0  0
  1  2  1  0  0  0  0
  1 26  1  0  0  0  0
  1 27  1  0  0  0  0
  1 28  1  0  0  0  0
  2 24  1  0  0  0  0
  2  3  2  0  0  0  0
  3  4  1  0  0  0  0
  4  5  1  0  0  0  0
  4 19  1  0  0  0  0
  5  6  1  0  0  0  0
  5 29  1  0  0  0  0
  5 30  1  0  0  0  0
  6  7  2  0  0  0  0
  6  8  1  0  0  0  0
  8  9  1  0  0  0  0
  8 31  1  0  0  0  0
  9 10  2  0  0  0  0
  9 11  1  0  0  0  0
 11 12  1  0  0  0  0
 11 32  1  0  0  0  0
 12 17  1  0  0  0  0
 12 13  1  0  0  0  0
 12 33  1  0  0  0  0
 13 14  1  0  0  0  0
 13 34  1  0  0  0  0
 13 35  1  0  0  0  0
 14 15  1  0  0  0  0
 14 36  1  0  0  0  0
 14 37  1  0  0  0  0
 15 16  1  0  0  0  0
 15 38  1  0  0  0  0
 15 39  1  0  0  0  0
 16 17  1  0  0  0  0
 16 40  1  0  0  0  0
 16 41  1  0  0  0  0
 17 18  1  0  0  0  0
 17 42  1  0  0  0  0
 18 43  1  0  0  0  0
 18 44  1  0  0  0  0
 18 45  1  0  0  0  0
 19 20  2  0  0  0  0
 19 21  1  0  0  0  0
 21 22  1  0  0  0  0
 21 24  2  0  0  0  0
 22 23  3  0  0  0  0
 24 25  1  0  0  0  0
 25 46  1  0  0  0  0
 25 47  1  0  0  0  0
 25 48  1  0  0  0  0
M  END
> <s_m_source_file>
AV-unprocessed.smi

> <i_m_source_file_index>
437

> <i_lp_mmshare_version>
43012

> <i_f3d_flags>
0

> <s_epik_input>
TiNDYyhjMVtDSDNdKWMoPU8pbihuYzFbQ0gzXSlbQ0gyXUMoPU8pW05IXUMoPU8pW05IXVtDQEBIXTJbQ0gyXVtDSDJdW0NIMl1bQ0gyXVtDQEhdMltDSDNd

> <s_epik_cmdline>
J2VwaWtfcHl0aG9uJywgJy1waCcsICc3LjAnLCAnLXRuJywgJzgnLCAnLW1hJywgJzIwMCcsICctbWV0YWxfYmluZGluZycsICctaW1hZScsICc8aW5maWxlLm1hZT4nLCAnLW9tYWUnLCAnPG91dGZpbGUubWFlPic=

> <r_lp_tautomer_probability>
1

> <r_epik_Ionization_Penalty>
3.27035e-05

> <r_epik_Ionization_Penalty_Charging>
1.6965e-11

> <r_epik_Ionization_Penalty_Neutral>
3.27035e-05

> <r_epik_State_Penalty>
-0

> <r_epik_Charging_Adjusted_Penalty>
1.6965e-11

> <i_epik_Tot_Q>
0

> <i_epik_Tot_abs_Q>
0

> <r_epik_Metal_State_Penalty>
-0

> <b_epik_Metal_Only>
0

> <s_lp_Force_Field>
OPLS_2005

> <r_lp_Energy>
26.7465

> <b_lp_Chiralities_Consistent>
1

> <s_lp_Variant>
AV-unprocessed.smi:437-4

> <Gold.Version>
5.8.1

> <Gold.Id.Protein>
6NUR|6NUR_protein|mol2

> <Gold.PLP.Fitness>
54.1265

> <Gold.PLP.PLP>
-50.8558

> <Gold.PLP.part.hbond>
-3.0000

> <Gold.PLP.part.metal>
0.0000

> <Gold.PLP.part.buried>
-8.1795

> <Gold.PLP.part.nonpolar>
-39.9611

> <Gold.PLP.part.repulsive>
2.2406

> <Gold.PLP.ligand.clash>
0.0000

> <Gold.PLP.ligand.torsion>
0.9803

> <Gold.PLP.Chemscore.Hbond>
1.7359

> <Gold.PLP.Chemscore.CHOScore>
0.0000

> <Gold.PLP.Chemscore.Metal>
0.0000

> <Gold.Chemscore.Hbonds>
donor molecule, donor type, donor heavy atom, donor atom, acceptor molecule, acceptor atom, score
      L1  H     8    31       P1  8028  0.20
      L1  H    11    32       P1  8028  0.35
      P1  H  7989  7998       L1    10  0.67

> <Gold.PLP.Chemscore.Internal.Correction>
0.0237

> <Gold.Rescore>
     Score         DG    S(hbond)    S(metal)    S(lipo)     H(rot)  DE(clash)    DE(int)     intcor
     10.36     -15.40       0.34        0.00     109.45       1.57       0.28       4.76       ----

> <Gold.Chemscore.Fitness>
10.3595

> <Gold.Chemscore.DG>
-15.4014

> <Gold.Chemscore.ZeroCoef>
-5.4800

> <Gold.Chemscore.Hbond>
0.3362

> <Gold.Chemscore.Metal>
0.0000

> <Gold.Chemscore.Lipo>
109.4546

> <Gold.Chemscore.Internal_Hbond>
0.0000

> <Gold.Chemscore.DEClash>
0.2805

> <Gold.Chemscore.DEInternal>
4.7613

> <Gold.Chemscore.Rot>
1.5656

> <Gold.Chemscore.Internal.Correction>
   9.000000E+99

> <Gold.Chemscore.Hbonds>
donor molecule, donor type, donor heavy atom, donor atom, acceptor molecule, acceptor atom, score
      L1  H     8    31       P1  8028  0.20
      L1  H    11    32       P1  8028  0.31
      P1  H  7989  7998       L1    10  0.47

> <Gold.Chemscore.Hbond.Weighted>
-1.1231

> <Gold.Chemscore.Metal.Weighted>
-0.0000

> <Gold.Chemscore.Lipo.Weighted>
-12.8062

> <Gold.Chemscore.Internal_Hbond.Weighted>
0.0000

> <Gold.Chemscore.DEClash.Weighted>
0.2805

> <Gold.Chemscore.DEInternal.Weighted>
4.7613

> <Gold.Chemscore.Rot.Weighted>
4.0079

> <Gold.Chemscore.Internal.Correction.Weighted>
   9.000000E+99

> <Gold.Protein.RotatedTorsions>
[ 6907 6896 6895 6894 ] final  -48.66 input  -60.11 | X-H torsion
[ 7974 7965 7964 7962 ] final   -7.35 input  175.53 | X-H torsion
[ 8008 7997 7996 7995 ] final   -1.88 input   59.86 | X-H torsion
[ 10167 10162 10161 10158 ] final   90.15 input  -65.29 | X-H torsion
[ 10718 10713 10712 10709 ] final -158.17 input   66.30 | X-H torsion
[ 10763 10752 10751 10750 ] final   33.91 input  -60.55 | X-H torsion
[ 11005 11000 10999 10996 ] final -149.11 input  -57.11 | X-H torsion

> <Gold.Protein.ActiveResidues>
 VAL166  LYS551  ARG553  GLY616  TRP617  ASP618  TYR619  PRO620  LYS621  CYS622 
 ASP623  PHE694  ASN695  SER759  ASP760  ASP761  ALA762  ILE779  LEU786  VAL792 
 PHE793  MET794  SER795  GLU796  ALA797  LYS798  CYS799  TRP800  GLU811  SER814 

> <Gold.Protein.RotatedAtoms>
  150.8883  134.8284  159.7274 H   0  0  0  0  0  0  0  0  0  0  0  0  # atno 6907 bound_to 6896
  152.4821  134.4688  159.9638 H   0  0  0  0  0  0  0  0  0  0  0  0  # atno 6908 bound_to 6896
  151.4753  133.3520  159.2865 H   0  0  0  0  0  0  0  0  0  0  0  0  # atno 6909 bound_to 6896
  146.2309  140.2307  142.8340 H   0  0  0  0  0  0  0  0  0  0  0  0  # atno 7974 bound_to 7965
  154.6419  140.2548  155.7312 H   0  0  0  0  0  0  0  0  0  0  0  0  # atno 8008 bound_to 7997
  156.2533  140.2885  156.0737 H   0  0  0  0  0  0  0  0  0  0  0  0  # atno 8009 bound_to 7997
  155.1583  140.0383  157.2827 H   0  0  0  0  0  0  0  0  0  0  0  0  # atno 8010 bound_to 7997
  139.8501  144.6597  150.9179 H   0  0  0  0  0  0  0  0  0  0  0  0  # atno 10167 bound_to 10162
  156.5505  130.8603  151.2778 H   0  0  0  0  0  0  0  0  0  0  0  0  # atno 10718 bound_to 10713
  153.0189  135.6374  154.1586 H   0  0  0  0  0  0  0  0  0  0  0  0  # atno 10763 bound_to 10752
  154.1322  135.2840  155.3184 H   0  0  0  0  0  0  0  0  0  0  0  0  # atno 10764 bound_to 10752
  154.6186  135.5532  153.7612 H   0  0  0  0  0  0  0  0  0  0  0  0  # atno 10765 bound_to 10752
  140.7542  134.3371  157.5118 H   0  0  0  0  0  0  0  0  0  0  0  0  # atno 11005 bound_to 11000
  144.9560  140.8227  143.5542 LP  0  0  0  0  0  0  0  0  0  0  0  0  # atno 17320 bound_to 7965
  145.2272  139.2131  143.5062 LP  0  0  0  0  0  0  0  0  0  0  0  0  # atno 17321 bound_to 7965
  140.7788  143.3835  151.1435 LP  0  0  0  0  0  0  0  0  0  0  0  0  # atno 17342 bound_to 10162
  139.7473  143.8832  152.3067 LP  0  0  0  0  0  0  0  0  0  0  0  0  # atno 17343 bound_to 10162
  157.7388  130.9821  150.2277 LP  0  0  0  0  0  0  0  0  0  0  0  0  # atno 17370 bound_to 10713
  156.2889  130.3743  149.7861 LP  0  0  0  0  0  0  0  0  0  0  0  0  # atno 17371 bound_to 10713
  139.8782  134.9161  156.3148 LP  0  0  0  0  0  0  0  0  0  0  0  0  # atno 17394 bound_to 11000
  140.9722  133.7320  156.0551 LP  0  0  0  0  0  0  0  0  0  0  0  0  # atno 17395 bound_to 11000

$$$$
