AV-unprocessed.smi:40|AV-procd|sdf|368|dock8
  -GOLD-   2262016213D 1   1.00000     0.00000
 Structure written by MMmdl.
 47 48  0  0  0  0  0  0  0  0  1 V2000
  144.4223  131.9176  150.4964 C   0  0  0  0  0  0  0  0  0  0  0  0
  144.6075  133.4116  150.1995 C   0  0  0  0  0  0  0  0  0  0  0  0
  145.1211  134.2233  151.4002 C   0  0  0  0  0  0  0  0  0  0  0  0
  145.3065  135.7218  151.1012 C   0  0  0  0  0  0  0  0  0  0  0  0
  145.2246  136.5991  152.3576 C   0  0  0  0  0  0  0  0  0  0  0  0
  146.1861  137.6379  152.2758 O   0  0  0  0  0  0  0  0  0  0  0  0
  146.9060  137.9872  153.3567 C   0  0  0  0  0  0  0  0  0  0  0  0
  146.6974  137.5553  154.4902 O   0  0  0  0  0  0  0  0  0  0  0  0
  147.9312  138.9649  153.0277 N   0  0  0  0  0  0  0  0  0  0  0  0
  148.8481  139.5567  153.8330 C   0  0  0  0  0  0  0  0  0  0  0  0
  149.9260  138.9291  154.2779 N   0  0  0  0  0  0  0  0  0  0  0  0
  150.8568  139.4972  155.1048 C   0  0  0  0  0  0  0  0  0  0  0  0
  151.8354  138.8566  155.4869 O   0  0  0  0  0  0  0  0  0  0  0  0
  150.6412  140.8367  155.5035 N   0  0  0  0  0  0  0  0  0  0  0  0
  151.6534  141.4842  156.4265 C   0  0  1  0  0  0  0  0  0  0  0  0
  151.3057  142.8241  156.6330 O   0  0  0  0  0  0  0  0  0  0  0  0
  150.9276  143.0296  157.9908 C   0  0  2  0  0  0  0  0  0  0  0  0
  151.1901  144.4847  158.3947 C   0  0  0  0  0  0  0  0  0  0  0  0
  151.7737  142.0064  158.7446 C   0  0  1  0  0  0  0  0  0  0  0  0
  151.2812  141.7320  160.0426 O   0  0  0  0  0  0  0  0  0  0  0  0
  151.7386  140.8006  157.8118 C   0  0  1  0  0  0  0  0  0  0  0  0
  150.6440  139.9394  158.0905 O   0  0  0  0  0  0  0  0  0  0  0  0
  149.5073  141.5068  155.0680 C   0  0  0  0  0  0  0  0  0  0  0  0
  148.6041  140.9203  154.2533 C   0  0  0  0  0  0  0  0  0  0  0  0
  147.5112  141.5892  153.8464 F   0  0  0  0  0  0  0  0  0  0  0  0
  152.6022  141.4804  155.8876 H   0  0  0  0  0  0  0  0  0  0  0  0
  149.8683  142.7935  158.1023 H   0  0  0  0  0  0  0  0  0  0  0  0
  152.8006  142.3665  158.8226 H   0  0  0  0  0  0  0  0  0  0  0  0
  152.6579  140.2176  157.8750 H   0  0  0  0  0  0  0  0  0  0  0  0
  144.0024  131.4021  149.6323 H   0  0  0  0  0  0  0  0  0  0  0  0
  143.7429  131.7644  151.3352 H   0  0  0  0  0  0  0  0  0  0  0  0
  145.3691  131.4348  150.7365 H   0  0  0  0  0  0  0  0  0  0  0  0
  145.2795  133.5401  149.3502 H   0  0  0  0  0  0  0  0  0  0  0  0
  143.6465  133.8219  149.8876 H   0  0  0  0  0  0  0  0  0  0  0  0
  144.4065  134.1120  152.2167 H   0  0  0  0  0  0  0  0  0  0  0  0
  146.0582  133.7963  151.7593 H   0  0  0  0  0  0  0  0  0  0  0  0
  146.2769  135.8842  150.6330 H   0  0  0  0  0  0  0  0  0  0  0  0
  144.5585  136.0508  150.3789 H   0  0  0  0  0  0  0  0  0  0  0  0
  144.2250  137.0232  152.4609 H   0  0  0  0  0  0  0  0  0  0  0  0
  145.4173  135.9928  153.2437 H   0  0  0  0  0  0  0  0  0  0  0  0
  147.9764  139.1953  152.0456 H   0  0  0  0  0  0  0  0  0  0  0  0
  150.9306  144.6533  159.4399 H   0  0  0  0  0  0  0  0  0  0  0  0
  150.5957  145.1685  157.7889 H   0  0  0  0  0  0  0  0  0  0  0  0
  152.2399  144.7489  158.2634 H   0  0  0  0  0  0  0  0  0  0  0  0
  150.9530  140.8458  160.0571 H   0  0  0  0  0  0  0  0  0  0  0  0
  150.5632  139.8546  159.0281 H   0  0  0  0  0  0  0  0  0  0  0  0
  149.3175  142.5227  155.3788 H   0  0  0  0  0  0  0  0  0  0  0  0
  1  2  1  0  0  0  0
  1 30  1  0  0  0  0
  1 31  1  0  0  0  0
  1 32  1  0  0  0  0
  2  3  1  0  0  0  0
  2 33  1  0  0  0  0
  2 34  1  0  0  0  0
  3  4  1  0  0  0  0
  3 35  1  0  0  0  0
  3 36  1  0  0  0  0
  4  5  1  0  0  0  0
  4 37  1  0  0  0  0
  4 38  1  0  0  0  0
  5  6  1  0  0  0  0
  5 39  1  0  0  0  0
  5 40  1  0  0  0  0
  6  7  1  0  0  0  0
  7  8  2  0  0  0  0
  7  9  1  0  0  0  0
  9 10  1  0  0  0  0
  9 41  1  0  0  0  0
 10 24  1  0  0  0  0
 10 11  2  0  0  0  0
 11 12  1  0  0  0  0
 12 13  2  0  0  0  0
 12 14  1  0  0  0  0
 14 15  1  0  0  0  0
 14 23  1  0  0  0  0
 15 26  1  0  0  0  0
 15 21  1  0  0  0  0
 15 16  1  0  0  0  0
 16 17  1  0  0  0  0
 17 27  1  0  0  0  0
 17 18  1  0  0  0  0
 17 19  1  0  0  0  0
 18 42  1  0  0  0  0
 18 43  1  0  0  0  0
 18 44  1  0  0  0  0
 19 28  1  0  0  0  0
 19 20  1  0  0  0  0
 19 21  1  0  0  0  0
 20 45  1  0  0  0  0
 21 29  1  0  0  0  0
 21 22  1  0  0  0  0
 22 46  1  0  0  0  0
 23 24  2  0  0  0  0
 23 47  1  0  0  0  0
 24 25  1  0  0  0  0
M  END
> <s_m_source_file>
AV-unprocessed.smi

> <i_m_source_file_index>
40

> <i_lp_mmshare_version>
43012

> <i_f3d_flags>
0

> <s_epik_input>
W0NIM11bQ0gyXVtDSDJdW0NIMl1bQ0gyXU9DKD1PKVtOSF1jMW5jKD1PKW4oW2NIXWMxRilbQ0BASF0yT1tDQEhdKFtDSDNdKVtDQEBIXShbT0hdKVtDQEhdMltPSF0=

> <s_epik_cmdline>
J2VwaWtfcHl0aG9uJywgJy1waCcsICc3LjAnLCAnLXRuJywgJzgnLCAnLW1hJywgJzIwMCcsICctbWV0YWxfYmluZGluZycsICctaW1hZScsICc8aW5maWxlLm1hZT4nLCAnLW9tYWUnLCAnPG91dGZpbGUubWFlPic=

> <r_lp_tautomer_probability>
1

> <r_epik_Ionization_Penalty>
2.29506e-06

> <r_epik_Ionization_Penalty_Charging>
8.26867e-09

> <r_epik_Ionization_Penalty_Neutral>
2.2868e-06

> <r_epik_State_Penalty>
-0

> <r_epik_Charging_Adjusted_Penalty>
8.26867e-09

> <i_epik_Tot_Q>
0

> <i_epik_Tot_abs_Q>
0

> <r_epik_Metal_State_Penalty>
-0

> <b_epik_Metal_Only>
0

> <s_epik_Chemistry_Notes>
This compound has an ester and may undergo hydrolysis at high or low pH. This compound contains an acetal/aminal-like group ( X-CH(R)-Y where X, Y are N, S, or O) that may be acid/base labile, releasing an aldehyde.

> <s_lp_Force_Field>
OPLS_2005

> <r_lp_Energy>
42.3286

> <b_lp_Chiralities_Consistent>
1

> <s_lp_Variant>
AV-unprocessed.smi:40-2

> <Gold.Version>
5.8.1

> <Gold.Id.Protein>
6NUR|6NUR_protein|mol2

> <Gold.PLP.Fitness>
41.6106

> <Gold.PLP.PLP>
-40.0730

> <Gold.PLP.part.hbond>
-2.5470

> <Gold.PLP.part.metal>
0.0000

> <Gold.PLP.part.buried>
-1.9049

> <Gold.PLP.part.nonpolar>
-36.3095

> <Gold.PLP.part.repulsive>
0.7362

> <Gold.PLP.ligand.clash>
0.0000

> <Gold.PLP.ligand.torsion>
1.4956

> <Gold.PLP.Chemscore.Hbond>
0.4800

> <Gold.PLP.Chemscore.CHOScore>
1.0000

> <Gold.PLP.Chemscore.Metal>
0.0000

> <Gold.Chemscore.Hbonds>
donor molecule, donor type, donor heavy atom, donor atom, acceptor molecule, acceptor atom, score
      L1  H     9    41       P1  7957  0.50
      L1  C    23    47       P1  8028  1.00

> <Gold.PLP.Chemscore.Internal.Correction>
0.0889

> <Gold.Rescore>
     Score         DG    S(hbond)    S(metal)    S(lipo)     H(rot)  DE(clash)    DE(int)     intcor
      2.21      -7.51       0.58        0.00      81.80       3.70       2.02       3.29       ----

> <Gold.Chemscore.Fitness>
2.2117

> <Gold.Chemscore.DG>
-7.5146

> <Gold.Chemscore.ZeroCoef>
-5.4800

> <Gold.Chemscore.Hbond>
0.5764

> <Gold.Chemscore.Metal>
0.0000

> <Gold.Chemscore.Lipo>
81.7982

> <Gold.Chemscore.Internal_Hbond>
0.0000

> <Gold.Chemscore.DEClash>
2.0167

> <Gold.Chemscore.DEInternal>
3.2861

> <Gold.Chemscore.Rot>
3.6957

> <Gold.Chemscore.Internal.Correction>
   9.000000E+99

> <Gold.Chemscore.Hbonds>
donor molecule, donor type, donor heavy atom, donor atom, acceptor molecule, acceptor atom, score
      L1  H     9    41       P1  7957  0.48

> <Gold.Chemscore.Hbond.Weighted>
-1.9252

> <Gold.Chemscore.Metal.Weighted>
-0.0000

> <Gold.Chemscore.Lipo.Weighted>
-9.5704

> <Gold.Chemscore.Internal_Hbond.Weighted>
0.0000

> <Gold.Chemscore.DEClash.Weighted>
2.0167

> <Gold.Chemscore.DEInternal.Weighted>
3.2861

> <Gold.Chemscore.Rot.Weighted>
9.4610

> <Gold.Chemscore.Internal.Correction.Weighted>
   9.000000E+99

> <Gold.Protein.RotatedTorsions>
[ 6907 6896 6895 6894 ] final  129.43 input  -60.11 | X-H torsion
[ 7974 7965 7964 7962 ] final -101.86 input  175.53 | X-H torsion
[ 8008 7997 7996 7995 ] final   78.97 input   59.86 | X-H torsion
[ 10167 10162 10161 10158 ] final -150.45 input  -65.29 | X-H torsion
[ 10718 10713 10712 10709 ] final  163.78 input   66.30 | X-H torsion
[ 10763 10752 10751 10750 ] final   68.06 input  -60.55 | X-H torsion
[ 11005 11000 10999 10996 ] final   36.10 input  -57.11 | X-H torsion

> <Gold.Protein.ActiveResidues>
 VAL166  LYS551  ARG553  GLY616  TRP617  ASP618  TYR619  PRO620  LYS621  CYS622 
 ASP623  PHE694  ASN695  SER759  ASP760  ASP761  ALA762  ILE779  LEU786  VAL792 
 PHE793  MET794  SER795  GLU796  ALA797  LYS798  CYS799  TRP800  GLU811  SER814 

> <Gold.Protein.RotatedAtoms>
  152.3624  133.6314  159.6024 H   0  0  0  0  0  0  0  0  0  0  0  0  # atno 6907 bound_to 6896
  150.7610  133.9402  159.3462 H   0  0  0  0  0  0  0  0  0  0  0  0  # atno 6908 bound_to 6896
  151.7238  135.0890  160.0340 H   0  0  0  0  0  0  0  0  0  0  0  0  # atno 6909 bound_to 6896
  145.2761  140.9313  143.2958 H   0  0  0  0  0  0  0  0  0  0  0  0  # atno 7974 bound_to 7965
  155.8631  140.3453  155.5770 H   0  0  0  0  0  0  0  0  0  0  0  0  # atno 8008 bound_to 7997
  155.7911  140.0872  157.2028 H   0  0  0  0  0  0  0  0  0  0  0  0  # atno 8009 bound_to 7997
  154.4013  140.1483  156.3151 H   0  0  0  0  0  0  0  0  0  0  0  0  # atno 8010 bound_to 7997
  139.7353  143.8745  152.2547 H   0  0  0  0  0  0  0  0  0  0  0  0  # atno 10167 bound_to 10162
  157.1036  131.0449  151.2487 H   0  0  0  0  0  0  0  0  0  0  0  0  # atno 10718 bound_to 10713
  153.0216  135.5261  154.7075 H   0  0  0  0  0  0  0  0  0  0  0  0  # atno 10763 bound_to 10752
  154.6167  135.2884  155.0374 H   0  0  0  0  0  0  0  0  0  0  0  0  # atno 10764 bound_to 10752
  154.1376  135.6583  153.4987 H   0  0  0  0  0  0  0  0  0  0  0  0  # atno 10765 bound_to 10752
  140.2359  134.3472  155.7945 H   0  0  0  0  0  0  0  0  0  0  0  0  # atno 11005 bound_to 11000
  144.9293  139.4318  143.6503 LP  0  0  0  0  0  0  0  0  0  0  0  0  # atno 17320 bound_to 7965
  146.3231  139.8195  142.8929 LP  0  0  0  0  0  0  0  0  0  0  0  0  # atno 17321 bound_to 7965
  139.8680  144.7083  150.9021 LP  0  0  0  0  0  0  0  0  0  0  0  0  # atno 17342 bound_to 10162
  140.7778  143.3762  151.1560 LP  0  0  0  0  0  0  0  0  0  0  0  0  # atno 17343 bound_to 10162
  157.4619  130.7658  149.7244 LP  0  0  0  0  0  0  0  0  0  0  0  0  # atno 17370 bound_to 10713
  155.9867  130.3972  150.3198 LP  0  0  0  0  0  0  0  0  0  0  0  0  # atno 17371 bound_to 10713
  141.2214  133.7272  156.8808 LP  0  0  0  0  0  0  0  0  0  0  0  0  # atno 17394 bound_to 11000
  140.1702  134.9105  157.2824 LP  0  0  0  0  0  0  0  0  0  0  0  0  # atno 17395 bound_to 11000

$$$$
