AV-unprocessed.smi:2559|AV-procd|sdf|10036|dock5
  -GOLD-   2272014 83D 1   1.00000     0.00000
 Structure written by MMmdl.
 43 45  0  0  0  0  0  0  0  0  2 V2000
  153.0933  137.6555  158.9004 C   0  0  0  0  0  0  0  0  0  0  0  0
  152.4743  138.0822  157.6418 N   0  0  0  0  0  0  0  0  0  0  0  0
  152.2894  137.1989  156.6117 C   0  0  0  0  0  0  0  0  0  0  0  0
  152.6545  136.0330  156.7676 O   0  0  0  0  0  0  0  0  0  0  0  0
  151.7048  137.6271  155.4400 N   0  5  0  0  0  0  0  0  0  0  0  0
  151.2594  138.8963  155.1775 C   0  0  0  0  0  0  0  0  0  0  0  0
  150.7233  139.2806  154.1410 O   0  0  0  0  0  0  0  0  0  0  0  0
  151.4833  139.8166  156.3175 C   0  0  0  0  0  0  0  0  0  0  0  0
  152.0515  139.4311  157.4924 C   0  0  0  0  0  0  0  0  0  0  0  0
  152.1005  140.4806  158.3956 N   0  0  0  0  0  0  0  0  0  0  0  0
  151.5697  141.4936  157.7092 C   0  0  0  0  0  0  0  0  0  0  0  0
  151.4037  142.7707  158.2502 N   0  0  0  0  0  0  0  0  0  0  0  0
  150.7401  143.0927  159.5142 C   0  0  0  0  0  0  0  0  0  0  0  0
  151.5976  144.0294  160.3839 C   0  0  0  0  0  0  0  0  0  0  0  0
  151.9133  145.3247  159.6241 C   0  0  0  0  0  0  0  0  0  0  0  0
  152.5044  144.9958  158.2457 C   0  0  0  0  0  0  0  0  0  0  0  0
  151.6062  144.0014  157.4868 C   0  0  0  0  0  0  0  0  0  0  0  0
  151.1561  141.1726  156.4520 N   0  0  0  0  0  0  0  0  0  0  0  0
  150.4719  142.0362  155.4874 C   0  0  0  0  0  0  0  0  0  0  0  0
  149.1324  141.4401  155.0115 C   0  0  2  0  0  0  0  0  0  0  0  0
  148.5199  142.3352  154.1037 O   0  0  0  0  0  0  0  0  0  0  0  0
  148.1705  141.1899  156.1852 C   0  0  0  0  0  0  0  0  0  0  0  0
  148.1697  142.2953  157.0640 O   0  0  0  0  0  0  0  0  0  0  0  0
  154.0593  137.1835  158.7160 H   0  0  0  0  0  0  0  0  0  0  0  0
  152.4538  136.9352  159.4114 H   0  0  0  0  0  0  0  0  0  0  0  0
  153.2680  138.4846  159.5855 H   0  0  0  0  0  0  0  0  0  0  0  0
  149.7854  143.5716  159.2930 H   0  0  0  0  0  0  0  0  0  0  0  0
  150.4881  142.1822  160.0561 H   0  0  0  0  0  0  0  0  0  0  0  0
  151.0772  144.2601  161.3136 H   0  0  0  0  0  0  0  0  0  0  0  0
  152.5263  143.5322  160.6638 H   0  0  0  0  0  0  0  0  0  0  0  0
  150.9989  145.9059  159.4990 H   0  0  0  0  0  0  0  0  0  0  0  0
  152.6033  145.9444  160.1973 H   0  0  0  0  0  0  0  0  0  0  0  0
  152.6253  145.9099  157.6639 H   0  0  0  0  0  0  0  0  0  0  0  0
  153.5014  144.5702  158.3652 H   0  0  0  0  0  0  0  0  0  0  0  0
  152.0621  143.7629  156.5253 H   0  0  0  0  0  0  0  0  0  0  0  0
  150.6382  144.4537  157.2676 H   0  0  0  0  0  0  0  0  0  0  0  0
  150.3047  143.0105  155.9364 H   0  0  0  0  0  0  0  0  0  0  0  0
  151.1198  142.2474  154.6407 H   0  0  0  0  0  0  0  0  0  0  0  0
  149.3289  140.5012  154.4930 H   0  0  0  0  0  0  0  0  0  0  0  0
  148.4944  143.1934  154.4986 H   0  0  0  0  0  0  0  0  0  0  0  0
  147.1508  141.0695  155.8183 H   0  0  0  0  0  0  0  0  0  0  0  0
  148.4265  140.2768  156.7243 H   0  0  0  0  0  0  0  0  0  0  0  0
  148.0776  143.0841  156.5524 H   0  0  0  0  0  0  0  0  0  0  0  0
  1  2  1  0  0  0  0
  1 24  1  0  0  0  0
  1 25  1  0  0  0  0
  1 26  1  0  0  0  0
  2  9  1  0  0  0  0
  2  3  1  0  0  0  0
  3  4  2  0  0  0  0
  3  5  1  0  0  0  0
  5  6  1  0  0  0  0
  6  7  2  0  0  0  0
  6  8  1  0  0  0  0
  8 18  1  0  0  0  0
  8  9  2  0  0  0  0
  9 10  1  0  0  0  0
 10 11  2  0  0  0  0
 11 12  1  0  0  0  0
 11 18  1  0  0  0  0
 12 17  1  0  0  0  0
 12 13  1  0  0  0  0
 13 14  1  0  0  0  0
 13 27  1  0  0  0  0
 13 28  1  0  0  0  0
 14 15  1  0  0  0  0
 14 29  1  0  0  0  0
 14 30  1  0  0  0  0
 15 16  1  0  0  0  0
 15 31  1  0  0  0  0
 15 32  1  0  0  0  0
 16 17  1  0  0  0  0
 16 33  1  0  0  0  0
 16 34  1  0  0  0  0
 17 35  1  0  0  0  0
 17 36  1  0  0  0  0
 18 19  1  0  0  0  0
 19 20  1  0  0  0  0
 19 37  1  0  0  0  0
 19 38  1  0  0  0  0
 20 21  1  0  0  0  0
 20 22  1  0  0  0  0
 20 39  1  0  0  0  0
 21 40  1  0  0  0  0
 22 23  1  0  0  0  0
 22 41  1  0  0  0  0
 22 42  1  0  0  0  0
 23 43  1  0  0  0  0
M  CHG  1   5  -1
M  END
> <s_m_source_file>
AV-unprocessed.smi

> <i_m_source_file_index>
2559

> <i_lp_mmshare_version>
43012

> <i_f3d_flags>
0

> <s_epik_input>
Tz1jMVtuSF1jKD1PKW4oW0NIM10pYyhjMTIpbmMobjJbQ0gyXVtDQEhdKFtPSF0pW0NIMl1bT0hdKU4zW0NIMl1bQ0gyXVtDSDJdW0NIMl1bQ0gyXTM=

> <s_epik_cmdline>
J2VwaWtfcHl0aG9uJywgJy1waCcsICc3LjAnLCAnLXRuJywgJzgnLCAnLW1hJywgJzIwMCcsICctbWV0YWxfYmluZGluZycsICctaW1hZScsICc8aW5maWxlLm1hZT4nLCAnLW9tYWUnLCAnPG91dGZpbGUubWFlPic=

> <r_lp_tautomer_probability>
1

> <r_epik_Ionization_Penalty>
5.90509

> <r_epik_Ionization_Penalty_Charging>
0.0759636

> <r_epik_Ionization_Penalty_Neutral>
5.82913

> <r_epik_State_Penalty>
5.18635

> <r_epik_Charging_Adjusted_Penalty>
5.26231

> <i_epik_Tot_Q>
-1

> <i_epik_Tot_abs_Q>
1

> <r_epik_Metal_State_Penalty>
1.25614

> <b_epik_Metal_Only>
1

> <s_lp_Force_Field>
OPLS_2005

> <r_lp_Energy>
44.2417

> <b_lp_Chiralities_Consistent>
1

> <s_lp_Variant>
AV-unprocessed.smi:2559-3

> <Gold.Version>
5.8.1

> <Gold.Id.Protein>
6NUR|6NUR_protein|mol2

> <Gold.PLP.Fitness>
51.5648

> <Gold.PLP.PLP>
-40.2807

> <Gold.PLP.part.hbond>
-5.0000

> <Gold.PLP.part.metal>
0.0000

> <Gold.PLP.part.buried>
-3.4163

> <Gold.PLP.part.nonpolar>
-31.8832

> <Gold.PLP.part.repulsive>
0.2287

> <Gold.PLP.ligand.clash>
0.0000

> <Gold.PLP.ligand.torsion>
0.9386

> <Gold.PLP.Chemscore.Hbond>
4.1677

> <Gold.PLP.Chemscore.CHOScore>
0.0000

> <Gold.PLP.Chemscore.Metal>
0.0000

> <Gold.Chemscore.Hbonds>
donor molecule, donor type, donor heavy atom, donor atom, acceptor molecule, acceptor atom, score
      L1  H    21    40       P1  8028  1.00
      L1  H    23    43       P1  8028  1.00
      P1  H  7989  7998       L1     7  1.00
      P1  H  8011  8017       L1    21  0.15
      P1  H 10752 10764       L1     4  1.00

> <Gold.PLP.Chemscore.Internal.Correction>
0.6581

> <Gold.Rescore>
     Score         DG    S(hbond)    S(metal)    S(lipo)     H(rot)  DE(clash)    DE(int)     intcor
     13.72     -18.00       2.83        0.00      90.34       2.93       0.98       3.30       ----

> <Gold.Chemscore.Fitness>
13.7243

> <Gold.Chemscore.DG>
-18.0003

> <Gold.Chemscore.ZeroCoef>
-5.4800

> <Gold.Chemscore.Hbond>
2.8318

> <Gold.Chemscore.Metal>
0.0000

> <Gold.Chemscore.Lipo>
90.3448

> <Gold.Chemscore.Internal_Hbond>
0.0000

> <Gold.Chemscore.DEClash>
0.9792

> <Gold.Chemscore.DEInternal>
3.2969

> <Gold.Chemscore.Rot>
2.9330

> <Gold.Chemscore.Internal.Correction>
   9.000000E+99

> <Gold.Chemscore.Hbonds>
donor molecule, donor type, donor heavy atom, donor atom, acceptor molecule, acceptor atom, score
      L1  H    21    40       P1  8028  0.99
      L1  H    23    43       P1  8028  0.28
      P1  H  7989  7998       L1     7  0.74
      P1  H  8011  8017       L1    21  0.06
      P1  H 10752 10764       L1     4  0.65

> <Gold.Chemscore.Hbond.Weighted>
-9.4583

> <Gold.Chemscore.Metal.Weighted>
-0.0000

> <Gold.Chemscore.Lipo.Weighted>
-10.5703

> <Gold.Chemscore.Internal_Hbond.Weighted>
0.0000

> <Gold.Chemscore.DEClash.Weighted>
0.9792

> <Gold.Chemscore.DEInternal.Weighted>
3.2969

> <Gold.Chemscore.Rot.Weighted>
7.5084

> <Gold.Chemscore.Internal.Correction.Weighted>
   9.000000E+99

> <Gold.Protein.RotatedTorsions>
[ 6907 6896 6895 6894 ] final   89.60 input  -60.11 | X-H torsion
[ 7974 7965 7964 7962 ] final -156.95 input  175.53 | X-H torsion
[ 8008 7997 7996 7995 ] final  -14.26 input   59.86 | X-H torsion
[ 10167 10162 10161 10158 ] final  -32.82 input  -65.29 | X-H torsion
[ 10718 10713 10712 10709 ] final  -51.03 input   66.30 | X-H torsion
[ 10763 10752 10751 10750 ] final  -20.55 input  -60.55 | X-H torsion
[ 11005 11000 10999 10996 ] final  121.74 input  -57.11 | X-H torsion

> <Gold.Protein.ActiveResidues>
 VAL166  LYS551  ARG553  GLY616  TRP617  ASP618  TYR619  PRO620  LYS621  CYS622 
 ASP623  PHE694  ASN695  SER759  ASP760  ASP761  ALA762  ILE779  LEU786  VAL792 
 PHE793  MET794  SER795  GLU796  ALA797  LYS798  CYS799  TRP800  GLU811  SER814 

> <Gold.Protein.RotatedAtoms>
  152.5437  134.1941  159.8685 H   0  0  0  0  0  0  0  0  0  0  0  0  # atno 6907 bound_to 6896
  151.1934  133.4646  159.2602 H   0  0  0  0  0  0  0  0  0  0  0  0  # atno 6908 bound_to 6896
  151.1060  135.0012  159.8527 H   0  0  0  0  0  0  0  0  0  0  0  0  # atno 6909 bound_to 6896
  144.7570  140.4038  143.6005 H   0  0  0  0  0  0  0  0  0  0  0  0  # atno 7974 bound_to 7965
  154.5224  140.2227  155.8951 H   0  0  0  0  0  0  0  0  0  0  0  0  # atno 8008 bound_to 7997
  156.1677  140.3128  155.8882 H   0  0  0  0  0  0  0  0  0  0  0  0  # atno 8009 bound_to 7997
  155.3623  140.0462  157.3037 H   0  0  0  0  0  0  0  0  0  0  0  0  # atno 8010 bound_to 7997
  140.7215  143.3666  151.1859 H   0  0  0  0  0  0  0  0  0  0  0  0  # atno 10167 bound_to 10162
  156.1747  130.4149  149.9595 H   0  0  0  0  0  0  0  0  0  0  0  0  # atno 10718 bound_to 10713
  153.6222  135.6992  153.5306 H   0  0  0  0  0  0  0  0  0  0  0  0  # atno 10763 bound_to 10752
  153.2928  135.4152  155.1182 H   0  0  0  0  0  0  0  0  0  0  0  0  # atno 10764 bound_to 10752
  154.8540  135.3629  154.5763 H   0  0  0  0  0  0  0  0  0  0  0  0  # atno 10765 bound_to 10752
  139.9239  134.9639  156.8004 H   0  0  0  0  0  0  0  0  0  0  0  0  # atno 11005 bound_to 11000
  145.6746  139.1606  143.2735 LP  0  0  0  0  0  0  0  0  0  0  0  0  # atno 17320 bound_to 7965
  146.1591  140.6814  142.9286 LP  0  0  0  0  0  0  0  0  0  0  0  0  # atno 17321 bound_to 7965
  139.7229  143.9195  152.2992 LP  0  0  0  0  0  0  0  0  0  0  0  0  # atno 17342 bound_to 10162
  139.8958  144.6940  150.8720 LP  0  0  0  0  0  0  0  0  0  0  0  0  # atno 17343 bound_to 10162
  156.7384  130.9070  151.3630 LP  0  0  0  0  0  0  0  0  0  0  0  0  # atno 17370 bound_to 10713
  157.6827  130.9156  150.0308 LP  0  0  0  0  0  0  0  0  0  0  0  0  # atno 17371 bound_to 10713
  140.6394  133.9832  155.7700 LP  0  0  0  0  0  0  0  0  0  0  0  0  # atno 17394 bound_to 11000
  141.0781  134.0104  157.3427 LP  0  0  0  0  0  0  0  0  0  0  0  0  # atno 17395 bound_to 11000

$$$$
