AV-unprocessed.smi:844|AV-procd|sdf|3925|dock8
  -GOLD-   22720 1383D 1   1.00000     0.00000
 Structure written by MMmdl.
 33 35  0  0  0  0  0  0  0  0  2 V2000
  152.8786  139.8183  156.6149 O   0  0  0  0  0  0  0  0  0  0  0  0
  151.6557  140.3154  157.1183 C   0  0  2  0  0  0  0  0  0  0  0  0
  150.9243  141.0370  155.9682 C   0  0  0  0  0  0  0  0  0  0  0  0
  150.2411  140.1055  155.0619 N   0  0  0  0  0  0  0  0  0  0  0  0
  150.6496  138.9037  154.5713 C   0  0  0  0  0  0  0  0  0  0  0  0
  149.6652  138.4383  153.7532 N   0  3  0  0  0  0  0  0  0  0  0  0
  148.6109  139.3537  153.7244 C   0  0  0  0  0  0  0  0  0  0  0  0
  147.3983  139.3277  153.0425 C   0  0  0  0  0  0  0  0  0  0  0  0
  146.5407  140.4311  153.2342 C   0  0  0  0  0  0  0  0  0  0  0  0
  146.9000  141.5041  154.0759 C   0  0  0  0  0  0  0  0  0  0  0  0
  148.1324  141.5204  154.7618 C   0  0  0  0  0  0  0  0  0  0  0  0
  148.9736  140.4260  154.5662 C   0  0  0  0  0  0  0  0  0  0  0  0
  151.8506  141.2179  158.3318 C   0  0  0  0  0  0  0  0  0  0  0  0
  151.2417  142.4920  158.3773 C   0  0  0  0  0  0  0  0  0  0  0  0
  151.4042  143.3195  159.5049 C   0  0  0  0  0  0  0  0  0  0  0  0
  152.1745  142.8779  160.5972 C   0  0  0  0  0  0  0  0  0  0  0  0
  152.3281  143.6717  161.6832 F   0  0  0  0  0  0  0  0  0  0  0  0
  152.7810  141.6081  160.5611 C   0  0  0  0  0  0  0  0  0  0  0  0
  152.6197  140.7787  159.4343 C   0  0  0  0  0  0  0  0  0  0  0  0
  153.1990  139.5539  159.4235 F   0  0  0  0  0  0  0  0  0  0  0  0
  152.7750  138.8973  156.4298 H   0  0  0  0  0  0  0  0  0  0  0  0
  151.0791  139.4401  157.4171 H   0  0  0  0  0  0  0  0  0  0  0  0
  150.1755  141.7265  156.3612 H   0  0  0  0  0  0  0  0  0  0  0  0
  151.6182  141.6366  155.3772 H   0  0  0  0  0  0  0  0  0  0  0  0
  151.5890  138.4139  154.7840 H   0  0  0  0  0  0  0  0  0  0  0  0
  147.1205  138.5077  152.3967 H   0  0  0  0  0  0  0  0  0  0  0  0
  145.5879  140.4553  152.7253 H   0  0  0  0  0  0  0  0  0  0  0  0
  146.2168  142.3320  154.1983 H   0  0  0  0  0  0  0  0  0  0  0  0
  148.4003  142.3470  155.4034 H   0  0  0  0  0  0  0  0  0  0  0  0
  150.6424  142.8387  157.5479 H   0  0  0  0  0  0  0  0  0  0  0  0
  150.9360  144.2924  159.5325 H   0  0  0  0  0  0  0  0  0  0  0  0
  153.3691  141.2681  161.4009 H   0  0  0  0  0  0  0  0  0  0  0  0
  149.7126  137.5602  153.2523 H   0  0  0  0  0  0  0  0  0  0  0  0
  1  2  1  0  0  0  0
  1 21  1  0  0  0  0
  2  3  1  0  0  0  0
  2 13  1  0  0  0  0
  2 22  1  0  0  0  0
  3  4  1  0  0  0  0
  3 23  1  0  0  0  0
  3 24  1  0  0  0  0
  4 12  1  0  0  0  0
  4  5  1  0  0  0  0
  5  6  2  0  0  0  0
  5 25  1  0  0  0  0
  6  7  1  0  0  0  0
  6 33  1  0  0  0  0
  7 12  2  0  0  0  0
  7  8  1  0  0  0  0
  8  9  2  0  0  0  0
  8 26  1  0  0  0  0
  9 10  1  0  0  0  0
  9 27  1  0  0  0  0
 10 11  2  0  0  0  0
 10 28  1  0  0  0  0
 11 12  1  0  0  0  0
 11 29  1  0  0  0  0
 13 19  1  0  0  0  0
 13 14  2  0  0  0  0
 14 15  1  0  0  0  0
 14 30  1  0  0  0  0
 15 16  2  0  0  0  0
 15 31  1  0  0  0  0
 16 17  1  0  0  0  0
 16 18  1  0  0  0  0
 18 19  2  0  0  0  0
 18 32  1  0  0  0  0
 19 20  1  0  0  0  0
M  CHG  1   6   1
M  END
> <s_m_source_file>
AV-unprocessed.smi

> <i_m_source_file_index>
844

> <i_lp_mmshare_version>
43012

> <i_f3d_flags>
0

> <s_epik_input>
RmMxW2NIXWMoRilbY0hdW2NIXWMxW0NASF0oW09IXSlbQ0gyXW4oW2NIXW4yKWMoYzIzKVtjSF1bY0hdW2NIXVtjSF0z

> <s_epik_cmdline>
J2VwaWtfcHl0aG9uJywgJy1waCcsICc3LjAnLCAnLXRuJywgJzgnLCAnLW1hJywgJzIwMCcsICctbWV0YWxfYmluZGluZycsICctaW1hZScsICc8aW5maWxlLm1hZT4nLCAnLW9tYWUnLCAnPG91dGZpbGUubWFlPic=

> <r_epik_Ionization_Penalty>
1.3029

> <r_epik_Ionization_Penalty_Charging>
1.3029

> <r_epik_Ionization_Penalty_Neutral>
1.79538e-06

> <r_epik_State_Penalty>
1.377

> <r_epik_Charging_Adjusted_Penalty>
2.6799

> <i_epik_Tot_Q>
1

> <i_epik_Tot_abs_Q>
1

> <r_epik_Metal_State_Penalty>
5.40879

> <b_epik_Metal_Only>
0

> <s_lp_Force_Field>
OPLS_2005

> <r_lp_Energy>
17.7817

> <b_lp_Chiralities_Consistent>
1

> <s_lp_Variant>
AV-unprocessed.smi:844-3

> <Gold.Version>
5.8.1

> <Gold.Id.Protein>
6NUR|6NUR_protein|mol2

> <Gold.PLP.Fitness>
53.8597

> <Gold.PLP.PLP>
-46.0790

> <Gold.PLP.part.hbond>
-2.8349

> <Gold.PLP.part.metal>
0.0000

> <Gold.PLP.part.buried>
3.0896

> <Gold.PLP.part.nonpolar>
-45.2894

> <Gold.PLP.part.repulsive>
0.0595

> <Gold.PLP.ligand.clash>
0.0000

> <Gold.PLP.ligand.torsion>
0.6153

> <Gold.PLP.Chemscore.Hbond>
3.0000

> <Gold.PLP.Chemscore.CHOScore>
0.0000

> <Gold.PLP.Chemscore.Metal>
0.0000

> <Gold.Chemscore.Hbonds>
donor molecule, donor type, donor heavy atom, donor atom, acceptor molecule, acceptor atom, score
      L1  H     6    33       P1  7948  2.00
      P1  H  7997  8010       L1     1  1.00

> <Gold.PLP.Chemscore.Internal.Correction>
0.0114

> <Gold.Rescore>
     Score         DG    S(hbond)    S(metal)    S(lipo)     H(rot)  DE(clash)    DE(int)     intcor
     17.42     -19.60       1.98        0.00     109.09       2.06       1.65       0.53       ----

> <Gold.Chemscore.Fitness>
17.4245

> <Gold.Chemscore.DG>
-19.5979

> <Gold.Chemscore.ZeroCoef>
-5.4800

> <Gold.Chemscore.Hbond>
1.9842

> <Gold.Chemscore.Metal>
0.0000

> <Gold.Chemscore.Lipo>
109.0904

> <Gold.Chemscore.Internal_Hbond>
0.0000

> <Gold.Chemscore.DEClash>
1.6465

> <Gold.Chemscore.DEInternal>
0.5269

> <Gold.Chemscore.Rot>
2.0597

> <Gold.Chemscore.Internal.Correction>
   9.000000E+99

> <Gold.Chemscore.Hbonds>
donor molecule, donor type, donor heavy atom, donor atom, acceptor molecule, acceptor atom, score
      L1  H     6    33       P1  7948  0.63
      P1  H  7997  8010       L1     1  0.51

> <Gold.Chemscore.Hbond.Weighted>
-6.6271

> <Gold.Chemscore.Metal.Weighted>
-0.0000

> <Gold.Chemscore.Lipo.Weighted>
-12.7636

> <Gold.Chemscore.Internal_Hbond.Weighted>
0.0000

> <Gold.Chemscore.DEClash.Weighted>
1.6465

> <Gold.Chemscore.DEInternal.Weighted>
0.5269

> <Gold.Chemscore.Rot.Weighted>
5.2728

> <Gold.Chemscore.Internal.Correction.Weighted>
   9.000000E+99

> <Gold.Protein.RotatedTorsions>
[ 6907 6896 6895 6894 ] final   56.45 input  -60.11 | X-H torsion
[ 7974 7965 7964 7962 ] final  -46.71 input  175.53 | X-H torsion
[ 8008 7997 7996 7995 ] final   55.29 input   59.86 | X-H torsion
[ 10167 10162 10161 10158 ] final  -44.67 input  -65.29 | X-H torsion
[ 10718 10713 10712 10709 ] final -128.46 input   66.30 | X-H torsion
[ 10763 10752 10751 10750 ] final  -55.04 input  -60.55 | X-H torsion
[ 11005 11000 10999 10996 ] final -179.13 input  -57.11 | X-H torsion

> <Gold.Protein.ActiveResidues>
 VAL166  LYS551  ARG553  GLY616  TRP617  ASP618  TYR619  PRO620  LYS621  CYS622 
 ASP623  PHE694  ASN695  SER759  ASP760  ASP761  ALA762  ILE779  LEU786  VAL792 
 PHE793  MET794  SER795  GLU796  ALA797  LYS798  CYS799  TRP800  GLU811  SER814 

> <Gold.Protein.RotatedAtoms>
  152.3637  134.6835  160.0198 H   0  0  0  0  0  0  0  0  0  0  0  0  # atno 6907 bound_to 6896
  151.7149  133.3307  159.3308 H   0  0  0  0  0  0  0  0  0  0  0  0  # atno 6908 bound_to 6896
  150.7623  134.6433  159.6293 H   0  0  0  0  0  0  0  0  0  0  0  0  # atno 6909 bound_to 6896
  145.9691  140.7401  142.9419 H   0  0  0  0  0  0  0  0  0  0  0  0  # atno 7974 bound_to 7965
  155.4987  140.3474  155.4367 H   0  0  0  0  0  0  0  0  0  0  0  0  # atno 8008 bound_to 7997
  156.0928  140.1415  156.9598 H   0  0  0  0  0  0  0  0  0  0  0  0  # atno 8009 bound_to 7997
  154.4645  140.0922  156.6961 H   0  0  0  0  0  0  0  0  0  0  0  0  # atno 8010 bound_to 7997
  140.6888  143.2918  151.3529 H   0  0  0  0  0  0  0  0  0  0  0  0  # atno 10167 bound_to 10162
  156.1953  130.6822  151.0473 H   0  0  0  0  0  0  0  0  0  0  0  0  # atno 10718 bound_to 10713
  154.1845  135.6437  153.5043 H   0  0  0  0  0  0  0  0  0  0  0  0  # atno 10763 bound_to 10752
  153.0050  135.5414  154.6479 H   0  0  0  0  0  0  0  0  0  0  0  0  # atno 10764 bound_to 10752
  154.5852  135.2929  155.0665 H   0  0  0  0  0  0  0  0  0  0  0  0  # atno 10765 bound_to 10752
  140.4221  134.6596  157.4669 H   0  0  0  0  0  0  0  0  0  0  0  0  # atno 11005 bound_to 11000
  144.6832  140.2719  143.7304 LP  0  0  0  0  0  0  0  0  0  0  0  0  # atno 17320 bound_to 7965
  145.7931  139.1935  143.2091 LP  0  0  0  0  0  0  0  0  0  0  0  0  # atno 17321 bound_to 7965
  139.6270  144.0795  152.2443 LP  0  0  0  0  0  0  0  0  0  0  0  0  # atno 17342 bound_to 10162
  140.0257  144.6119  150.7529 LP  0  0  0  0  0  0  0  0  0  0  0  0  # atno 17343 bound_to 10162
  157.6953  131.0796  150.6986 LP  0  0  0  0  0  0  0  0  0  0  0  0  # atno 17370 bound_to 10713
  156.7043  130.4632  149.5564 LP  0  0  0  0  0  0  0  0  0  0  0  0  # atno 17371 bound_to 10713
  140.0193  134.6572  155.9263 LP  0  0  0  0  0  0  0  0  0  0  0  0  # atno 17394 bound_to 11000
  141.1780  133.6542  156.4904 LP  0  0  0  0  0  0  0  0  0  0  0  0  # atno 17395 bound_to 11000

$$$$
