#       Name:                AV-unprocessed.smi:3220
#       Creating user name   scv26
#       Creation time:       Fri Mar 27 18:14:24 2020


#       File generated by GOLD software.
#

@<TRIPOS>MOLECULE
AV-unprocessed.smi:3220
    38    39     1
SMALL
NO_CHARGES


@<TRIPOS>ATOM
      1 ****        -0.1255  -2.9272  -1.7275 C.3            1 S1                 0.0000
      2 ****         0.4029  -2.0324  -0.5967 C.3            1 S1                 0.0000
      3 ****         1.9383  -2.1033  -0.4880 C.3            1 S1                 0.0000
      4 ****         2.4425  -1.3959   0.6758 N.pl3          1 S1                 0.0000
      5 ****         2.9665  -0.1221   0.7453 C.2            1 S1                 0.0000
      6 ****         3.2984   0.1101   2.0492 C.2            1 S1                 0.0000
      7 ****         2.9345  -1.0964   2.7102 C.2            1 S1                 0.0000
      8 ****         2.4224  -1.9959   1.8855 N.2            1 S1                 0.0000
      9 ****        -0.0175  -0.6515  -0.8262 N.am           1 S1                 0.0000
     10 ****        -1.1079  -0.0674  -0.3069 C.2            1 S1                 0.0000
     11 ****        -1.9057  -0.6510   0.4273 O.2            1 S1                 0.0000
     12 ****        -1.3147   1.4088  -0.6641 C.3            1 S1                 0.0000
     13 ****        -2.7854   1.8026  -0.8983 C.3            1 S1                 0.0000
     14 ****        -3.1215   2.6623   0.3042 C.3            1 S1                 0.0000
     15 ****        -1.7690   3.2769   0.6336 C.3            1 S1                 0.0000
     16 ****        -0.8697   2.1968   0.4386 O.3            1 S1                 0.0000
     17 ****         0.1611  -3.9674  -1.5701 H              1 S1                 0.0000
     18 ****         0.2671  -2.6169  -2.6964 H              1 S1                 0.0000
     19 ****        -1.2141  -2.8919  -1.7816 H              1 S1                 0.0000
     20 ****        -0.0180  -2.3959   0.3428 H              1 S1                 0.0000
     21 ****         2.2636  -3.1427  -0.4214 H              1 S1                 0.0000
     22 ****         2.4077  -1.6876  -1.3808 H              1 S1                 0.0000
     23 ****         3.0549   0.5068  -0.1283 H              1 S1                 0.0000
     24 ****         3.7333   1.0055   2.4675 H              1 S1                 0.0000
     25 ****         3.0268  -1.3435   3.7574 H              1 S1                 0.0000
     26 ****         0.5792  -0.0885  -1.4146 H              1 S1                 0.0000
     27 ****        -0.7244   1.6660  -1.5454 H              1 S1                 0.0000
     28 ****        -2.8641   2.3937  -1.8115 H              1 S1                 0.0000
     29 ****        -3.4664   0.9566  -1.0011 H              1 S1                 0.0000
     30 ****        -3.8918   3.4059   0.0985 H              1 S1                 0.0000
     31 ****        -3.4586   2.0361   1.1313 H              1 S1                 0.0000
     32 ****        -1.5275   4.0838  -0.0600 H              1 S1                 0.0000
     33 ****        -1.7166   3.6659   1.6505 H              1 S1                 0.0000
     34 ****         2.0942  -2.9139   2.1082 LP             1 S1                 0.0000
     35 ****        -1.7567  -1.6109   0.6648 LP             1 S1                 0.0000
     36 ****        -2.7027  -0.1651   0.7862 LP             1 S1                 0.0000
     37 ****         0.0447   2.5534   0.2474 LP             1 S1                 0.0000
     38 ****        -0.8415   1.6321   1.2634 LP             1 S1                 0.0000
@<TRIPOS>BOND
    1    1    2 1     
    2    1   17 1     
    3    1   18 1     
    4    1   19 1     
    5    2    3 1     
    6    2    9 1     
    7    2   20 1     
    8    3    4 1     
    9    3   21 1     
   10    3   22 1     
   11    4    8 1     
   12    4    5 1     
   13    5    6 2     
   14    5   23 1     
   15    6    7 1     
   16    6   24 1     
   17    7    8 2     
   18    7   25 1     
   19    9   10 am    
   20    9   26 1     
   21   10   11 2     
   22   10   12 1     
   23   12   16 1     
   24   12   13 1     
   25   12   27 1     
   26   13   14 1     
   27   13   28 1     
   28   13   29 1     
   29   14   15 1     
   30   14   30 1     
   31   14   31 1     
   32   15   16 1     
   33   15   32 1     
   34   15   33 1     
   35    8   34 1     
   36   11   35 1     
   37   11   36 1     
   38   16   37 1     
   39   16   38 1     
@<TRIPOS>SUBSTRUCTURE
      1 S1             1
@<TRIPOS>SET
LONE_PAIRS      STATIC     ATOMS    <user>   **** ""
5 34 35 36 37 38
DONOR_HYDROGENS      STATIC     ATOMS    <user>   **** ""
1 26
ATOM$BLUE        STATIC     ATOMS    COLORGROUP SYSTEM
5 34 35 36 37 38
ATOM$RED        STATIC     ATOMS    COLORGROUP SYSTEM
1 26
