AV-unprocessed.smi:1202|AV-procd|sdf|5028|dock2
  -GOLD-   22720 4 53D 1   1.00000     0.00000
 Structure written by MMmdl.
 44 45  0  0  0  0  0  0  0  0  1 V2000
  146.5255  135.0104  154.8481 C   0  0  0  0  0  0  0  0  0  0  0  0
  146.7068  136.1439  153.9547 N   0  0  0  0  0  0  0  0  0  0  0  0
  146.2212  137.3721  154.1870 C   0  0  0  0  0  0  0  0  0  0  0  0
  145.5674  137.6620  155.1892 O   0  0  0  0  0  0  0  0  0  0  0  0
  146.5246  138.4429  153.1318 C   0  0  0  0  0  0  0  0  0  0  0  0
  147.4074  139.5358  153.6007 N   0  0  0  0  0  0  0  0  0  0  0  0
  148.5545  138.9576  154.3104 C   0  0  0  0  0  0  0  0  0  0  0  0
  149.5660  140.0521  154.6931 C   0  0  0  0  0  0  0  0  0  0  0  0
  148.8947  141.1240  155.5684 C   0  0  0  0  0  0  0  0  0  0  0  0
  149.8146  142.1839  155.9871 N   0  0  0  0  0  0  0  0  0  0  0  0
  150.8838  142.0748  156.7941 C   0  0  0  0  0  0  0  0  0  0  0  0
  151.2362  141.0200  157.3227 O   0  0  0  0  0  0  0  0  0  0  0  0
  151.6577  143.3755  157.0525 C   0  0  0  0  0  0  0  0  0  0  0  0
  151.6700  143.7748  158.4699 N   0  0  0  0  0  0  0  0  0  0  0  0
  150.9681  144.9478  158.8125 C   0  0  0  0  0  0  0  0  0  0  0  0
  150.9136  145.3991  160.0756 C   0  0  0  0  0  0  0  0  0  0  0  0
  151.6010  144.6480  161.0991 C   0  0  0  0  0  0  0  0  0  0  0  0
  152.2721  143.5226  160.7829 C   0  0  0  0  0  0  0  0  0  0  0  0
  152.3317  143.0239  159.4041 C   0  0  0  0  0  0  0  0  0  0  0  0
  152.9399  141.9952  159.1070 O   0  0  0  0  0  0  0  0  0  0  0  0
  147.6416  141.6587  154.8540 C   0  0  0  0  0  0  0  0  0  0  0  0
  146.7045  140.5033  154.4582 C   0  0  0  0  0  0  0  0  0  0  0  0
  147.0433  134.1371  154.4514 H   0  0  0  0  0  0  0  0  0  0  0  0
  145.4681  134.7631  154.9508 H   0  0  0  0  0  0  0  0  0  0  0  0
  146.9303  135.2265  155.8374 H   0  0  0  0  0  0  0  0  0  0  0  0
  147.2351  135.9870  153.1085 H   0  0  0  0  0  0  0  0  0  0  0  0
  146.9581  137.9758  152.2452 H   0  0  0  0  0  0  0  0  0  0  0  0
  145.5656  138.8611  152.8220 H   0  0  0  0  0  0  0  0  0  0  0  0
  148.2197  138.4234  155.2015 H   0  0  0  0  0  0  0  0  0  0  0  0
  149.0542  138.2272  153.6726 H   0  0  0  0  0  0  0  0  0  0  0  0
  150.4075  139.6073  155.2252 H   0  0  0  0  0  0  0  0  0  0  0  0
  149.9729  140.4930  153.7825 H   0  0  0  0  0  0  0  0  0  0  0  0
  148.5689  140.6414  156.4909 H   0  0  0  0  0  0  0  0  0  0  0  0
  149.6185  143.1026  155.6167 H   0  0  0  0  0  0  0  0  0  0  0  0
  152.6803  143.2695  156.6853 H   0  0  0  0  0  0  0  0  0  0  0  0
  151.2143  144.1604  156.4382 H   0  0  0  0  0  0  0  0  0  0  0  0
  150.4755  145.4467  157.9905 H   0  0  0  0  0  0  0  0  0  0  0  0
  150.3668  146.2979  160.3201 H   0  0  0  0  0  0  0  0  0  0  0  0
  151.5762  144.9894  162.1234 H   0  0  0  0  0  0  0  0  0  0  0  0
  152.7799  142.9734  161.5623 H   0  0  0  0  0  0  0  0  0  0  0  0
  147.1114  142.3574  155.5024 H   0  0  0  0  0  0  0  0  0  0  0  0
  147.9138  142.2154  153.9567 H   0  0  0  0  0  0  0  0  0  0  0  0
  145.8455  140.9312  153.9417 H   0  0  0  0  0  0  0  0  0  0  0  0
  146.3200  140.0044  155.3494 H   0  0  0  0  0  0  0  0  0  0  0  0
  1  2  1  0  0  0  0
  1 23  1  0  0  0  0
  1 24  1  0  0  0  0
  1 25  1  0  0  0  0
  2  3  1  0  0  0  0
  2 26  1  0  0  0  0
  3  4  2  0  0  0  0
  3  5  1  0  0  0  0
  5  6  1  0  0  0  0
  5 27  1  0  0  0  0
  5 28  1  0  0  0  0
  6 22  1  0  0  0  0
  6  7  1  0  0  0  0
  7  8  1  0  0  0  0
  7 29  1  0  0  0  0
  7 30  1  0  0  0  0
  8  9  1  0  0  0  0
  8 31  1  0  0  0  0
  8 32  1  0  0  0  0
  9 10  1  0  0  0  0
  9 21  1  0  0  0  0
  9 33  1  0  0  0  0
 10 11  1  0  0  0  0
 10 34  1  0  0  0  0
 11 12  2  0  0  0  0
 11 13  1  0  0  0  0
 13 14  1  0  0  0  0
 13 35  1  0  0  0  0
 13 36  1  0  0  0  0
 14 19  1  0  0  0  0
 14 15  1  0  0  0  0
 15 16  2  0  0  0  0
 15 37  1  0  0  0  0
 16 17  1  0  0  0  0
 16 38  1  0  0  0  0
 17 18  2  0  0  0  0
 17 39  1  0  0  0  0
 18 19  1  0  0  0  0
 18 40  1  0  0  0  0
 19 20  2  0  0  0  0
 21 22  1  0  0  0  0
 21 41  1  0  0  0  0
 21 42  1  0  0  0  0
 22 43  1  0  0  0  0
 22 44  1  0  0  0  0
M  END
> <s_m_source_file>
AV-unprocessed.smi

> <i_m_source_file_index>
1202

> <i_lp_mmshare_version>
43012

> <i_f3d_flags>
0

> <s_epik_input>
W0NIM11bTkhdQyg9TylbQ0gyXU4xW0NIMl1bQ0gyXVtDSF0oW0NIMl1bQ0gyXTEpW05IXUMoPU8pW0NIMl1uMltjSF1bY0hdW2NIXVtjSF1jMj1P

> <s_epik_cmdline>
J2VwaWtfcHl0aG9uJywgJy1waCcsICc3LjAnLCAnLXRuJywgJzgnLCAnLW1hJywgJzIwMCcsICctbWV0YWxfYmluZGluZycsICctaW1hZScsICc8aW5maWxlLm1hZT4nLCAnLW9tYWUnLCAnPG91dGZpbGUubWFlPic=

> <r_lp_tautomer_probability>
1

> <r_epik_Ionization_Penalty>
0.12485

> <r_epik_Ionization_Penalty_Charging>
3.59605e-07

> <r_epik_Ionization_Penalty_Neutral>
0.12485

> <r_epik_State_Penalty>
0.114323

> <r_epik_Charging_Adjusted_Penalty>
0.114323

> <i_epik_Tot_Q>
0

> <i_epik_Tot_abs_Q>
0

> <r_epik_Metal_State_Penalty>
0.117995

> <b_epik_Metal_Only>
0

> <s_lp_Force_Field>
OPLS_2005

> <r_lp_Energy>
24.2751

> <b_lp_Chiralities_Consistent>
1

> <s_lp_Variant>
AV-unprocessed.smi:1202-1

> <Gold.Version>
5.8.1

> <Gold.Id.Protein>
6NUR|6NUR_protein|mol2

> <Gold.PLP.Fitness>
47.0654

> <Gold.PLP.PLP>
-39.3678

> <Gold.PLP.part.hbond>
-2.0000

> <Gold.PLP.part.metal>
0.0000

> <Gold.PLP.part.buried>
-3.1527

> <Gold.PLP.part.nonpolar>
-36.2105

> <Gold.PLP.part.repulsive>
0.5950

> <Gold.PLP.ligand.clash>
0.0000

> <Gold.PLP.ligand.torsion>
0.2634

> <Gold.PLP.Chemscore.Hbond>
2.0000

> <Gold.PLP.Chemscore.CHOScore>
0.7264

> <Gold.PLP.Chemscore.Metal>
0.0000

> <Gold.Chemscore.Hbonds>
donor molecule, donor type, donor heavy atom, donor atom, acceptor molecule, acceptor atom, score
      L1  H     2    26       P1  7948  0.75
      L1  H    10    34       P1  8028  1.00
      L1  C    15    37       P1  8028  0.07
      L1  C    15    37       P1  8029  0.42

> <Gold.PLP.Chemscore.Internal.Correction>
0.0450

> <Gold.Rescore>
     Score         DG    S(hbond)    S(metal)    S(lipo)     H(rot)  DE(clash)    DE(int)     intcor
     14.19     -17.23       1.97        0.00      91.94       2.19       0.51       2.53       ----

> <Gold.Chemscore.Fitness>
14.1906

> <Gold.Chemscore.DG>
-17.2296

> <Gold.Chemscore.ZeroCoef>
-5.4800

> <Gold.Chemscore.Hbond>
1.9739

> <Gold.Chemscore.Metal>
0.0000

> <Gold.Chemscore.Lipo>
91.9421

> <Gold.Chemscore.Internal_Hbond>
0.0000

> <Gold.Chemscore.DEClash>
0.5122

> <Gold.Chemscore.DEInternal>
2.5267

> <Gold.Chemscore.Rot>
2.1877

> <Gold.Chemscore.Internal.Correction>
   9.000000E+99

> <Gold.Chemscore.Hbonds>
donor molecule, donor type, donor heavy atom, donor atom, acceptor molecule, acceptor atom, score
      L1  H     2    26       P1  7948  0.73
      L1  H    10    34       P1  8028  0.98

> <Gold.Chemscore.Hbond.Weighted>
-6.5929

> <Gold.Chemscore.Metal.Weighted>
-0.0000

> <Gold.Chemscore.Lipo.Weighted>
-10.7572

> <Gold.Chemscore.Internal_Hbond.Weighted>
0.0000

> <Gold.Chemscore.DEClash.Weighted>
0.5122

> <Gold.Chemscore.DEInternal.Weighted>
2.5267

> <Gold.Chemscore.Rot.Weighted>
5.6005

> <Gold.Chemscore.Internal.Correction.Weighted>
   9.000000E+99

> <Gold.Protein.RotatedTorsions>
[ 6907 6896 6895 6894 ] final   17.94 input  -60.11 | X-H torsion
[ 7974 7965 7964 7962 ] final  152.18 input  175.53 | X-H torsion
[ 8008 7997 7996 7995 ] final  112.47 input   59.86 | X-H torsion
[ 10167 10162 10161 10158 ] final   -2.24 input  -65.29 | X-H torsion
[ 10718 10713 10712 10709 ] final  119.11 input   66.30 | X-H torsion
[ 10763 10752 10751 10750 ] final   80.50 input  -60.55 | X-H torsion
[ 11005 11000 10999 10996 ] final   14.40 input  -57.11 | X-H torsion

> <Gold.Protein.ActiveResidues>
 VAL166  LYS551  ARG553  GLY616  TRP617  ASP618  TYR619  PRO620  LYS621  CYS622 
 ASP623  PHE694  ASN695  SER759  ASP760  ASP761  ALA762  ILE779  LEU786  VAL792 
 PHE793  MET794  SER795  GLU796  ALA797  LYS798  CYS799  TRP800  GLU811  SER814 

> <Gold.Protein.RotatedAtoms>
  151.8575  135.0536  160.0465 H   0  0  0  0  0  0  0  0  0  0  0  0  # atno 6907 bound_to 6896
  152.2688  133.5359  159.5435 H   0  0  0  0  0  0  0  0  0  0  0  0  # atno 6908 bound_to 6896
  150.7144  134.0642  159.3884 H   0  0  0  0  0  0  0  0  0  0  0  0  # atno 6909 bound_to 6896
  144.8240  139.6634  143.6088 H   0  0  0  0  0  0  0  0  0  0  0  0  # atno 7974 bound_to 7965
  156.2195  140.2999  155.9917 H   0  0  0  0  0  0  0  0  0  0  0  0  # atno 8008 bound_to 7997
  155.2519  140.0426  157.3005 H   0  0  0  0  0  0  0  0  0  0  0  0  # atno 8009 bound_to 7997
  154.5818  140.2377  155.8051 H   0  0  0  0  0  0  0  0  0  0  0  0  # atno 8010 bound_to 7997
  140.6843  143.6681  150.8209 H   0  0  0  0  0  0  0  0  0  0  0  0  # atno 10167 bound_to 10162
  157.5984  131.1054  150.7850 H   0  0  0  0  0  0  0  0  0  0  0  0  # atno 10718 bound_to 10713
  153.1038  135.4800  154.8915 H   0  0  0  0  0  0  0  0  0  0  0  0  # atno 10763 bound_to 10752
  154.7408  135.3082  154.8734 H   0  0  0  0  0  0  0  0  0  0  0  0  # atno 10764 bound_to 10752
  153.9342  135.6841  153.4798 H   0  0  0  0  0  0  0  0  0  0  0  0  # atno 10765 bound_to 10752
  140.4699  134.1042  155.7731 H   0  0  0  0  0  0  0  0  0  0  0  0  # atno 11005 bound_to 11000
  146.2546  139.6274  142.9404 LP  0  0  0  0  0  0  0  0  0  0  0  0  # atno 17320 bound_to 7965
  145.5041  141.0437  143.2524 LP  0  0  0  0  0  0  0  0  0  0  0  0  # atno 17321 bound_to 7965
  140.0385  143.5370  152.2728 LP  0  0  0  0  0  0  0  0  0  0  0  0  # atno 17342 bound_to 10162
  139.6189  144.7625  151.2785 LP  0  0  0  0  0  0  0  0  0  0  0  0  # atno 17343 bound_to 10162
  156.8255  130.4998  149.5338 LP  0  0  0  0  0  0  0  0  0  0  0  0  # atno 17370 bound_to 10713
  156.1052  130.5999  150.9959 LP  0  0  0  0  0  0  0  0  0  0  0  0  # atno 17371 bound_to 10713
  141.1582  133.8843  157.1921 LP  0  0  0  0  0  0  0  0  0  0  0  0  # atno 17394 bound_to 11000
  139.9892  135.0071  156.9934 LP  0  0  0  0  0  0  0  0  0  0  0  0  # atno 17395 bound_to 11000

$$$$
