AV-unprocessed.smi:1144|AV-procd|sdf|4876|dock3
  -GOLD-   22720 3443D 1   1.00000     0.00000
 Structure written by MMmdl.
 35 36  0  0  0  0  0  0  0  0  2 V2000
  149.5726  140.9728  156.0070 C   0  0  0  0  0  0  0  0  0  0  0  0
  150.5339  139.8496  156.0103 N   0  3  1  0  0  0  0  0  0  0  0  0
  151.2911  139.7428  154.7427 C   0  0  0  0  0  0  0  0  0  0  0  0
  152.2474  138.5404  154.7938 C   0  0  0  0  0  0  0  0  0  0  0  0
  153.1088  138.6672  155.9188 O   0  0  0  0  0  0  0  0  0  0  0  0
  152.3966  138.6684  157.1531 C   0  0  1  0  0  0  0  0  0  0  0  0
  153.4190  138.7285  158.2959 C   0  0  0  0  0  0  0  0  0  0  0  0
  152.8298  139.2530  159.5187 N   0  0  0  0  0  0  0  0  0  0  0  0
  153.0000  140.5492  159.9657 C   0  0  0  0  0  0  0  0  0  0  0  0
  153.6525  140.7411  161.1177 N   0  0  0  0  0  0  0  0  0  0  0  0
  153.8002  142.0175  161.5331 C   0  0  0  0  0  0  0  0  0  0  0  0
  153.2940  143.1030  160.7909 C   0  0  0  0  0  0  0  0  0  0  0  0
  152.6232  142.7819  159.5895 C   0  0  0  0  0  0  0  0  0  0  0  0
  152.0250  143.8500  158.6863 C   0  0  0  0  0  0  0  0  0  0  0  0
  152.9573  144.6935  158.2414 F   0  0  0  0  0  0  0  0  0  0  0  0
  151.4395  143.2742  157.6360 F   0  0  0  0  0  0  0  0  0  0  0  0
  151.1106  144.5479  159.3601 F   0  0  0  0  0  0  0  0  0  0  0  0
  152.4813  141.4980  159.1839 N   0  0  0  0  0  0  0  0  0  0  0  0
  151.4525  139.8867  157.1713 C   0  0  0  0  0  0  0  0  0  0  0  0
  150.0878  141.9297  155.9118 H   0  0  0  0  0  0  0  0  0  0  0  0
  148.9941  140.9858  156.9313 H   0  0  0  0  0  0  0  0  0  0  0  0
  148.8719  140.8768  155.1770 H   0  0  0  0  0  0  0  0  0  0  0  0
  150.5997  139.6338  153.9061 H   0  0  0  0  0  0  0  0  0  0  0  0
  151.8566  140.6609  154.5750 H   0  0  0  0  0  0  0  0  0  0  0  0
  151.6938  137.6016  154.8469 H   0  0  0  0  0  0  0  0  0  0  0  0
  152.8523  138.5025  153.8877 H   0  0  0  0  0  0  0  0  0  0  0  0
  151.8094  137.7522  157.2426 H   0  0  0  0  0  0  0  0  0  0  0  0
  153.8353  137.7376  158.4820 H   0  0  0  0  0  0  0  0  0  0  0  0
  154.2492  139.3774  158.0143 H   0  0  0  0  0  0  0  0  0  0  0  0
  152.2936  138.6287  160.1036 H   0  0  0  0  0  0  0  0  0  0  0  0
  154.3253  142.1739  162.4638 H   0  0  0  0  0  0  0  0  0  0  0  0
  153.4173  144.1205  161.1308 H   0  0  0  0  0  0  0  0  0  0  0  0
  152.0305  140.8123  157.1496 H   0  0  0  0  0  0  0  0  0  0  0  0
  150.8722  139.8933  158.0950 H   0  0  0  0  0  0  0  0  0  0  0  0
  149.9903  139.0025  156.0965 H   0  0  0  0  0  0  0  0  0  0  0  0
  1  2  1  0  0  0  0
  1 20  1  0  0  0  0
  1 21  1  0  0  0  0
  1 22  1  0  0  0  0
  2 19  1  0  0  0  0
  2  3  1  0  0  0  0
  2 35  1  0  0  0  0
  3  4  1  0  0  0  0
  3 23  1  0  0  0  0
  3 24  1  0  0  0  0
  4  5  1  0  0  0  0
  4 25  1  0  0  0  0
  4 26  1  0  0  0  0
  5  6  1  0  0  0  0
  6  7  1  0  0  0  0
  6 19  1  0  0  0  0
  6 27  1  0  0  0  0
  7  8  1  0  0  0  0
  7 28  1  0  0  0  0
  7 29  1  0  0  0  0
  8  9  1  0  0  0  0
  8 30  1  0  0  0  0
  9 18  1  0  0  0  0
  9 10  2  0  0  0  0
 10 11  1  0  0  0  0
 11 12  2  0  0  0  0
 11 31  1  0  0  0  0
 12 13  1  0  0  0  0
 12 32  1  0  0  0  0
 13 14  1  0  0  0  0
 13 18  2  0  0  0  0
 14 15  1  0  0  0  0
 14 16  1  0  0  0  0
 14 17  1  0  0  0  0
 19 33  1  0  0  0  0
 19 34  1  0  0  0  0
M  CHG  1   2   1
M  END
> <s_m_source_file>
AV-unprocessed.smi

> <i_m_source_file_index>
1144

> <i_lp_mmshare_version>
43012

> <i_f3d_flags>
0

> <s_epik_input>
W0NIM11OMVtDSDJdW0NIMl1PW0NASF0oW0NIMl0xKVtDSDJdW05IXWMybltjSF1bY0hdYyhuMilDKEYpKEYpRg==

> <s_epik_cmdline>
J2VwaWtfcHl0aG9uJywgJy1waCcsICc3LjAnLCAnLXRuJywgJzgnLCAnLW1hJywgJzIwMCcsICctbWV0YWxfYmluZGluZycsICctaW1hZScsICc8aW5maWxlLm1hZT4nLCAnLW9tYWUnLCAnPG91dGZpbGUubWFlPic=

> <r_lp_tautomer_probability>
1

> <r_epik_Ionization_Penalty>
0.178506

> <r_epik_Ionization_Penalty_Charging>
0.178504

> <r_epik_Ionization_Penalty_Neutral>
2.47225e-06

> <r_epik_State_Penalty>
0.167974

> <r_epik_Charging_Adjusted_Penalty>
0.346478

> <i_epik_Tot_Q>
1

> <i_epik_Tot_abs_Q>
1

> <r_epik_Metal_State_Penalty>
0.167974

> <b_epik_Metal_Only>
0

> <s_lp_Force_Field>
OPLS_2005

> <r_lp_Energy>
9.30015

> <b_lp_Chiralities_Consistent>
1

> <s_lp_Variant>
AV-unprocessed.smi:1144-1

> <Gold.Version>
5.8.1

> <Gold.Id.Protein>
6NUR|6NUR_protein|mol2

> <Gold.PLP.Fitness>
39.7618

> <Gold.PLP.PLP>
-38.6910

> <Gold.PLP.part.hbond>
-1.0000

> <Gold.PLP.part.metal>
0.0000

> <Gold.PLP.part.buried>
-1.9017

> <Gold.PLP.part.nonpolar>
-35.1364

> <Gold.PLP.part.repulsive>
0.1582

> <Gold.PLP.ligand.clash>
0.0000

> <Gold.PLP.ligand.torsion>
0.9677

> <Gold.PLP.Chemscore.Hbond>
1.0000

> <Gold.PLP.Chemscore.CHOScore>
0.0000

> <Gold.PLP.Chemscore.Metal>
0.0000

> <Gold.Chemscore.Hbonds>
donor molecule, donor type, donor heavy atom, donor atom, acceptor molecule, acceptor atom, score
      P1  H  7997  8010       L1     5  0.99

> <Gold.PLP.Chemscore.Internal.Correction>
0.0062

> <Gold.Rescore>
     Score         DG    S(hbond)    S(metal)    S(lipo)     H(rot)  DE(clash)    DE(int)     intcor
     11.04     -14.06       0.71        0.00      82.40       1.34       0.68       2.34       ----

> <Gold.Chemscore.Fitness>
11.0389

> <Gold.Chemscore.DG>
-14.0555

> <Gold.Chemscore.ZeroCoef>
-5.4800

> <Gold.Chemscore.Hbond>
0.7066

> <Gold.Chemscore.Metal>
0.0000

> <Gold.Chemscore.Lipo>
82.3962

> <Gold.Chemscore.Internal_Hbond>
0.0000

> <Gold.Chemscore.DEClash>
0.6815

> <Gold.Chemscore.DEInternal>
2.3351

> <Gold.Chemscore.Rot>
1.3379

> <Gold.Chemscore.Internal.Correction>
   9.000000E+99

> <Gold.Chemscore.Hbonds>
donor molecule, donor type, donor heavy atom, donor atom, acceptor molecule, acceptor atom, score
      P1  H  7997  8010       L1     5  0.41

> <Gold.Chemscore.Hbond.Weighted>
-2.3601

> <Gold.Chemscore.Metal.Weighted>
-0.0000

> <Gold.Chemscore.Lipo.Weighted>
-9.6404

> <Gold.Chemscore.Internal_Hbond.Weighted>
0.0000

> <Gold.Chemscore.DEClash.Weighted>
0.6815

> <Gold.Chemscore.DEInternal.Weighted>
2.3351

> <Gold.Chemscore.Rot.Weighted>
3.4250

> <Gold.Chemscore.Internal.Correction.Weighted>
   9.000000E+99

> <Gold.Protein.RotatedTorsions>
[ 6907 6896 6895 6894 ] final  119.29 input  -60.11 | X-H torsion
[ 7974 7965 7964 7962 ] final  140.53 input  175.53 | X-H torsion
[ 8008 7997 7996 7995 ] final   91.92 input   59.86 | X-H torsion
[ 10167 10162 10161 10158 ] final -147.06 input  -65.29 | X-H torsion
[ 10718 10713 10712 10709 ] final   92.87 input   66.30 | X-H torsion
[ 10763 10752 10751 10750 ] final -132.66 input  -60.55 | X-H torsion
[ 11005 11000 10999 10996 ] final  -96.77 input  -57.11 | X-H torsion

> <Gold.Protein.ActiveResidues>
 VAL166  LYS551  ARG553  GLY616  TRP617  ASP618  TYR619  PRO620  LYS621  CYS622 
 ASP623  PHE694  ASN695  SER759  ASP760  ASP761  ALA762  ILE779  LEU786  VAL792 
 PHE793  MET794  SER795  GLU796  ALA797  LYS798  CYS799  TRP800  GLU811  SER814 

> <Gold.Protein.RotatedAtoms>
  152.4482  133.7578  159.6729 H   0  0  0  0  0  0  0  0  0  0  0  0  # atno 6907 bound_to 6896
  150.8387  133.7960  159.3075 H   0  0  0  0  0  0  0  0  0  0  0  0  # atno 6908 bound_to 6896
  151.5592  135.1068  160.0020 H   0  0  0  0  0  0  0  0  0  0  0  0  # atno 6909 bound_to 6896
  144.9178  139.5207  143.5678 H   0  0  0  0  0  0  0  0  0  0  0  0  # atno 7974 bound_to 7965
  156.0294  140.3332  155.7123 H   0  0  0  0  0  0  0  0  0  0  0  0  # atno 8008 bound_to 7997
  155.5907  140.0646  157.2777 H   0  0  0  0  0  0  0  0  0  0  0  0  # atno 8009 bound_to 7997
  154.4347  140.1827  156.1059 H   0  0  0  0  0  0  0  0  0  0  0  0  # atno 8010 bound_to 7997
  139.7657  143.8312  152.2615 H   0  0  0  0  0  0  0  0  0  0  0  0  # atno 10167 bound_to 10162
  157.6957  131.0458  150.3948 H   0  0  0  0  0  0  0  0  0  0  0  0  # atno 10718 bound_to 10713
  154.8741  135.3791  154.4446 H   0  0  0  0  0  0  0  0  0  0  0  0  # atno 10763 bound_to 10752
  153.5127  135.7029  153.5777 H   0  0  0  0  0  0  0  0  0  0  0  0  # atno 10764 bound_to 10752
  153.4059  135.3936  155.1984 H   0  0  0  0  0  0  0  0  0  0  0  0  # atno 10765 bound_to 10752
  141.1401  133.8121  157.0615 H   0  0  0  0  0  0  0  0  0  0  0  0  # atno 11005 bound_to 11000
  146.3190  139.8035  142.8960 LP  0  0  0  0  0  0  0  0  0  0  0  0  # atno 17320 bound_to 7965
  145.3346  141.0274  143.3427 LP  0  0  0  0  0  0  0  0  0  0  0  0  # atno 17321 bound_to 7965
  139.8331  144.7244  150.9425 LP  0  0  0  0  0  0  0  0  0  0  0  0  # atno 17342 bound_to 10162
  140.7810  143.4052  151.1084 LP  0  0  0  0  0  0  0  0  0  0  0  0  # atno 17343 bound_to 10162
  156.4348  130.3979  149.6736 LP  0  0  0  0  0  0  0  0  0  0  0  0  # atno 17370 bound_to 10713
  156.3941  130.7642  151.2645 LP  0  0  0  0  0  0  0  0  0  0  0  0  # atno 17371 bound_to 10713
  140.0568  134.9776  157.1234 LP  0  0  0  0  0  0  0  0  0  0  0  0  # atno 17394 bound_to 11000
  140.3907  134.2187  155.7166 LP  0  0  0  0  0  0  0  0  0  0  0  0  # atno 17395 bound_to 11000

$$$$
