AV-unprocessed.smi:484|AV-procd|sdf|2689|dock2
  -GOLD-   2262023123D 1   1.00000     0.00000
 Structure written by MMmdl.
 47 49  0  0  0  0  0  0  0  0  2 V2000
  151.2736  139.3521  154.9779 C   0  0  0  0  0  0  0  0  0  0  0  0
  151.7730  137.9049  155.0490 C   0  0  0  0  0  0  0  0  0  0  0  0
  150.6487  136.9213  155.3124 C   0  0  0  0  0  0  0  0  0  0  0  0
  150.9310  135.5529  155.4954 C   0  0  0  0  0  0  0  0  0  0  0  0
  149.8857  134.6423  155.7411 C   0  0  0  0  0  0  0  0  0  0  0  0
  148.5470  135.0796  155.8071 C   0  0  0  0  0  0  0  0  0  0  0  0
  147.5879  134.1198  156.0487 O   0  0  0  0  0  0  0  0  0  0  0  0
  146.2384  134.5390  156.2096 C   0  0  0  0  0  0  0  0  0  0  0  0
  145.3849  133.9960  155.0523 C   0  0  2  0  0  0  0  0  0  0  0  0
  145.3928  132.5832  155.0935 O   0  0  0  0  0  0  0  0  0  0  0  0
  145.8073  134.5342  153.6698 C   0  0  0  0  0  0  0  0  0  0  0  0
  144.8710  134.1535  152.6005 N   0  0  0  0  0  0  0  0  0  0  0  0
  143.5377  134.4108  152.4735 C   0  0  0  0  0  0  0  0  0  0  0  0
  142.6861  135.1766  153.4358 C   0  0  0  0  0  0  0  0  0  0  0  0
  141.8402  134.3531  154.2113 O   0  0  0  0  0  0  0  0  0  0  0  0
  143.1287  133.8434  151.3026 N   0  3  0  0  0  0  0  0  0  0  0  0
  144.2067  133.2162  150.6776 C   0  0  0  0  0  0  0  0  0  0  0  0
  144.2804  132.5105  149.4806 C   0  0  0  0  0  0  0  0  0  0  0  0
  145.5441  131.9934  149.1278 C   0  0  0  0  0  0  0  0  0  0  0  0
  146.6716  132.1849  149.9524 C   0  0  0  0  0  0  0  0  0  0  0  0
  146.5841  132.9017  151.1639 C   0  0  0  0  0  0  0  0  0  0  0  0
  145.3313  133.4115  151.5055 C   0  0  0  0  0  0  0  0  0  0  0  0
  148.2690  136.4578  155.6243 C   0  0  0  0  0  0  0  0  0  0  0  0
  149.3143  137.3696  155.3796 C   0  0  0  0  0  0  0  0  0  0  0  0
  152.0986  140.0384  154.7869 H   0  0  0  0  0  0  0  0  0  0  0  0
  150.8009  139.6519  155.9137 H   0  0  0  0  0  0  0  0  0  0  0  0
  150.5437  139.4780  154.1775 H   0  0  0  0  0  0  0  0  0  0  0  0
  152.2708  137.6394  154.1155 H   0  0  0  0  0  0  0  0  0  0  0  0
  152.5244  137.8112  155.8342 H   0  0  0  0  0  0  0  0  0  0  0  0
  151.9500  135.1975  155.4488 H   0  0  0  0  0  0  0  0  0  0  0  0
  150.1140  133.5958  155.8797 H   0  0  0  0  0  0  0  0  0  0  0  0
  145.8352  134.2079  157.1683 H   0  0  0  0  0  0  0  0  0  0  0  0
  146.1993  135.6293  156.1905 H   0  0  0  0  0  0  0  0  0  0  0  0
  144.3522  134.2935  155.2366 H   0  0  0  0  0  0  0  0  0  0  0  0
  144.5215  132.2744  154.8976 H   0  0  0  0  0  0  0  0  0  0  0  0
  145.8444  135.6239  153.6937 H   0  0  0  0  0  0  0  0  0  0  0  0
  146.8109  134.2058  153.3995 H   0  0  0  0  0  0  0  0  0  0  0  0
  143.3271  135.7504  154.1052 H   0  0  0  0  0  0  0  0  0  0  0  0
  142.0750  135.8893  152.8815 H   0  0  0  0  0  0  0  0  0  0  0  0
  142.1014  133.4530  154.0875 H   0  0  0  0  0  0  0  0  0  0  0  0
  143.4171  132.3614  148.8486 H   0  0  0  0  0  0  0  0  0  0  0  0
  145.6505  131.4378  148.2073 H   0  0  0  0  0  0  0  0  0  0  0  0
  147.6237  131.7727  149.6508 H   0  0  0  0  0  0  0  0  0  0  0  0
  147.4543  133.0370  151.7886 H   0  0  0  0  0  0  0  0  0  0  0  0
  147.2615  136.8422  155.6670 H   0  0  0  0  0  0  0  0  0  0  0  0
  149.0872  138.4169  155.2443 H   0  0  0  0  0  0  0  0  0  0  0  0
  142.1765  133.8854  150.9625 H   0  0  0  0  0  0  0  0  0  0  0  0
  1  2  1  0  0  0  0
  1 25  1  0  0  0  0
  1 26  1  0  0  0  0
  1 27  1  0  0  0  0
  2  3  1  0  0  0  0
  2 28  1  0  0  0  0
  2 29  1  0  0  0  0
  3 24  1  0  0  0  0
  3  4  2  0  0  0  0
  4  5  1  0  0  0  0
  4 30  1  0  0  0  0
  5  6  2  0  0  0  0
  5 31  1  0  0  0  0
  6  7  1  0  0  0  0
  6 23  1  0  0  0  0
  7  8  1  0  0  0  0
  8  9  1  0  0  0  0
  8 32  1  0  0  0  0
  8 33  1  0  0  0  0
  9 10  1  0  0  0  0
  9 11  1  0  0  0  0
  9 34  1  0  0  0  0
 10 35  1  0  0  0  0
 11 12  1  0  0  0  0
 11 36  1  0  0  0  0
 11 37  1  0  0  0  0
 12 22  1  0  0  0  0
 12 13  1  0  0  0  0
 13 14  1  0  0  0  0
 13 16  2  0  0  0  0
 14 15  1  0  0  0  0
 14 38  1  0  0  0  0
 14 39  1  0  0  0  0
 15 40  1  0  0  0  0
 16 17  1  0  0  0  0
 16 47  1  0  0  0  0
 17 22  2  0  0  0  0
 17 18  1  0  0  0  0
 18 19  2  0  0  0  0
 18 41  1  0  0  0  0
 19 20  1  0  0  0  0
 19 42  1  0  0  0  0
 20 21  2  0  0  0  0
 20 43  1  0  0  0  0
 21 22  1  0  0  0  0
 21 44  1  0  0  0  0
 23 24  2  0  0  0  0
 23 45  1  0  0  0  0
 24 46  1  0  0  0  0
M  CHG  1  16   1
M  END
> <s_m_source_file>
AV-unprocessed.smi

> <i_m_source_file_index>
484

> <i_lp_mmshare_version>
43012

> <i_f3d_flags>
0

> <s_epik_input>
W0NIM11bQ0gyXWMxW2NIXVtjSF1jKFtjSF1bY0hdMSlPW0NIMl1bQ0BIXShbT0hdKVtDSDJdbihjKG4yKVtDSDJdW09IXSljKGMyMylbY0hdW2NIXVtjSF1bY0hdMw==

> <s_epik_cmdline>
J2VwaWtfcHl0aG9uJywgJy1waCcsICc3LjAnLCAnLXRuJywgJzgnLCAnLW1hJywgJzIwMCcsICctbWV0YWxfYmluZGluZycsICctaW1hZScsICc8aW5maWxlLm1hZT4nLCAnLW9tYWUnLCAnPG91dGZpbGUubWFlPic=

> <r_lp_tautomer_probability>
1

> <r_epik_Ionization_Penalty>
1.43166

> <r_epik_Ionization_Penalty_Charging>
1.43081

> <r_epik_Ionization_Penalty_Neutral>
0.000858184

> <r_epik_State_Penalty>
1.51538

> <r_epik_Charging_Adjusted_Penalty>
2.94618

> <i_epik_Tot_Q>
1

> <i_epik_Tot_abs_Q>
1

> <r_epik_Metal_State_Penalty>
5.56039

> <b_epik_Metal_Only>
0

> <s_lp_Force_Field>
OPLS_2005

> <r_lp_Energy>
18.7475

> <b_lp_Chiralities_Consistent>
1

> <s_lp_Variant>
AV-unprocessed.smi:484-3

> <Gold.Version>
5.8.1

> <Gold.Id.Protein>
6NUR|6NUR_protein|mol2

> <Gold.PLP.Fitness>
50.2665

> <Gold.PLP.PLP>
-36.6488

> <Gold.PLP.part.hbond>
-4.0000

> <Gold.PLP.part.metal>
0.0000

> <Gold.PLP.part.buried>
-1.2123

> <Gold.PLP.part.nonpolar>
-30.8778

> <Gold.PLP.part.repulsive>
0.0045

> <Gold.PLP.ligand.clash>
0.0000

> <Gold.PLP.ligand.torsion>
0.6158

> <Gold.PLP.Chemscore.Hbond>
4.8480

> <Gold.PLP.Chemscore.CHOScore>
0.0000

> <Gold.PLP.Chemscore.Metal>
0.0000

> <Gold.Chemscore.Hbonds>
donor molecule, donor type, donor heavy atom, donor atom, acceptor molecule, acceptor atom, score
      L1  H    10    35       P1 10957  1.00
      L1  H    15    40       P1 10957  1.00
      L1  H    16    47       P1 10186  1.89
      P1  H 11000 11005       L1    15  0.93

> <Gold.PLP.Chemscore.Internal.Correction>
0.3052

> <Gold.Rescore>
     Score         DG    S(hbond)    S(metal)    S(lipo)     H(rot)  DE(clash)    DE(int)     intcor
     17.33     -19.64       3.16        0.00     100.42       3.18       1.53       0.78       ----

> <Gold.Chemscore.Fitness>
17.3338

> <Gold.Chemscore.DG>
-19.6422

> <Gold.Chemscore.ZeroCoef>
-5.4800

> <Gold.Chemscore.Hbond>
3.1599

> <Gold.Chemscore.Metal>
0.0000

> <Gold.Chemscore.Lipo>
100.4191

> <Gold.Chemscore.Internal_Hbond>
0.0000

> <Gold.Chemscore.DEClash>
1.5302

> <Gold.Chemscore.DEInternal>
0.7782

> <Gold.Chemscore.Rot>
3.1801

> <Gold.Chemscore.Internal.Correction>
   9.000000E+99

> <Gold.Chemscore.Hbonds>
donor molecule, donor type, donor heavy atom, donor atom, acceptor molecule, acceptor atom, score
      L1  H    10    35       P1 10957  0.78
      L1  H    15    40       P1 10957  0.95
      L1  H    16    47       P1 10186  0.37
      P1  H 11000 11005       L1    15  0.19

> <Gold.Chemscore.Hbond.Weighted>
-10.5541

> <Gold.Chemscore.Metal.Weighted>
-0.0000

> <Gold.Chemscore.Lipo.Weighted>
-11.7490

> <Gold.Chemscore.Internal_Hbond.Weighted>
0.0000

> <Gold.Chemscore.DEClash.Weighted>
1.5302

> <Gold.Chemscore.DEInternal.Weighted>
0.7782

> <Gold.Chemscore.Rot.Weighted>
8.1410

> <Gold.Chemscore.Internal.Correction.Weighted>
   9.000000E+99

> <Gold.Protein.RotatedTorsions>
[ 6907 6896 6895 6894 ] final  -44.63 input  -60.11 | X-H torsion
[ 7974 7965 7964 7962 ] final   31.33 input  175.53 | X-H torsion
[ 8008 7997 7996 7995 ] final -132.77 input   59.86 | X-H torsion
[ 10167 10162 10161 10158 ] final  -58.02 input  -65.29 | X-H torsion
[ 10718 10713 10712 10709 ] final  163.43 input   66.30 | X-H torsion
[ 10763 10752 10751 10750 ] final -137.81 input  -60.55 | X-H torsion
[ 11005 11000 10999 10996 ] final   13.12 input  -57.11 | X-H torsion

> <Gold.Protein.ActiveResidues>
 VAL166  LYS551  ARG553  GLY616  TRP617  ASP618  TYR619  PRO620  LYS621  CYS622 
 ASP623  PHE694  ASN695  SER759  ASP760  ASP761  ALA762  ILE779  LEU786  VAL792 
 PHE793  MET794  SER795  GLU796  ALA797  LYS798  CYS799  TRP800  GLU811  SER814 

> <Gold.Protein.RotatedAtoms>
  150.9307  134.8722  159.7549 H   0  0  0  0  0  0  0  0  0  0  0  0  # atno 6907 bound_to 6896
  152.5036  134.4083  159.9450 H   0  0  0  0  0  0  0  0  0  0  0  0  # atno 6908 bound_to 6896
  151.4110  133.3687  159.2779 H   0  0  0  0  0  0  0  0  0  0  0  0  # atno 6909 bound_to 6896
  146.1556  139.6670  142.9068 H   0  0  0  0  0  0  0  0  0  0  0  0  # atno 7974 bound_to 7965
  155.3345  140.0469  157.3043 H   0  0  0  0  0  0  0  0  0  0  0  0  # atno 8008 bound_to 7997
  154.5310  140.2257  155.8769 H   0  0  0  0  0  0  0  0  0  0  0  0  # atno 8009 bound_to 7997
  156.1789  140.3078  155.9117 H   0  0  0  0  0  0  0  0  0  0  0  0  # atno 8010 bound_to 7997
  140.6223  143.2424  151.5451 H   0  0  0  0  0  0  0  0  0  0  0  0  # atno 10167 bound_to 10162
  157.1085  131.0461  151.2467 H   0  0  0  0  0  0  0  0  0  0  0  0  # atno 10718 bound_to 10713
  154.8653  135.3631  154.5283 H   0  0  0  0  0  0  0  0  0  0  0  0  # atno 10763 bound_to 10752
  153.5910  135.7015  153.5428 H   0  0  0  0  0  0  0  0  0  0  0  0  # atno 10764 bound_to 10752
  153.3374  135.4107  155.1506 H   0  0  0  0  0  0  0  0  0  0  0  0  # atno 10765 bound_to 10752
  140.4843  134.0904  155.7757 H   0  0  0  0  0  0  0  0  0  0  0  0  # atno 11005 bound_to 11000
  145.4716  141.0436  143.2696 LP  0  0  0  0  0  0  0  0  0  0  0  0  # atno 17320 bound_to 7965
  144.7960  139.6234  143.7093 LP  0  0  0  0  0  0  0  0  0  0  0  0  # atno 17321 bound_to 7965
  139.5449  144.2548  152.1423 LP  0  0  0  0  0  0  0  0  0  0  0  0  # atno 17342 bound_to 10162
  140.1771  144.4880  150.6548 LP  0  0  0  0  0  0  0  0  0  0  0  0  # atno 17343 bound_to 10162
  157.4579  130.7636  149.7210 LP  0  0  0  0  0  0  0  0  0  0  0  0  # atno 17370 bound_to 10713
  155.9856  130.3982  150.3253 LP  0  0  0  0  0  0  0  0  0  0  0  0  # atno 17371 bound_to 10713
  141.1516  133.8959  157.2084 LP  0  0  0  0  0  0  0  0  0  0  0  0  # atno 17394 bound_to 11000
  139.9808  135.0099  156.9743 LP  0  0  0  0  0  0  0  0  0  0  0  0  # atno 17395 bound_to 11000

$$$$
