AV-unprocessed.smi:2408|AV-procd|sdf|9520|dock10
  -GOLD-   2272013153D 1   1.00000     0.00000
 Structure written by MMmdl.
 47 49  0  0  0  0  0  0  0  0  1 V2000
  151.2460  138.2277  153.9765 C   0  0  0  0  0  0  0  0  0  0  0  0
  150.1316  139.1638  154.4106 C   0  0  0  0  0  0  0  0  0  0  0  0
  150.5192  140.4191  154.7293 N   0  0  0  0  0  0  0  0  0  0  0  0
  149.5748  141.2994  155.1216 C   0  0  0  0  0  0  0  0  0  0  0  0
  148.2096  140.9720  155.2211 C   0  0  0  0  0  0  0  0  0  0  0  0
  147.8073  139.6649  154.8883 C   0  0  0  0  0  0  0  0  0  0  0  0
  148.7831  138.7329  154.4597 C   0  0  0  0  0  0  0  0  0  0  0  0
  148.4690  137.3869  154.1260 N   0  0  0  0  0  0  0  0  0  0  0  0
  147.6102  136.5643  154.7506 C   0  0  0  0  0  0  0  0  0  0  0  0
  146.9503  136.8556  155.7481 O   0  0  0  0  0  0  0  0  0  0  0  0
  147.5285  135.3799  154.1189 N   0  0  0  0  0  0  0  0  0  0  0  0
  146.6658  134.2308  154.4523 C   0  0  0  0  0  0  0  0  0  0  0  0
  146.8109  133.0498  153.4492 C   0  0  0  0  0  0  0  0  0  0  0  0
  147.9249  132.5837  153.2053 O   0  0  0  0  0  0  0  0  0  0  0  0
  145.7006  132.5813  152.8562 N   0  0  0  0  0  0  0  0  0  0  0  0
  145.6577  131.4824  151.9048 C   0  0  0  0  0  0  0  0  0  0  0  0
  144.4542  131.5220  150.9865 C   0  0  0  0  0  0  0  0  0  0  0  0
  144.3627  132.5474  149.8810 C   0  0  0  0  0  0  0  0  0  0  0  0
  143.4440  132.6418  151.0756 C   0  0  0  0  0  0  0  0  0  0  0  0
  147.0560  133.7286  155.8641 C   0  0  0  0  0  0  0  0  0  0  0  0
  145.7566  133.3101  156.5488 C   0  0  0  0  0  0  0  0  0  0  0  0
  144.7398  134.3258  156.0469 C   0  0  0  0  0  0  0  0  0  0  0  0
  145.1760  134.6695  154.6173 C   0  0  0  0  0  0  0  0  0  0  0  0
  151.0491  137.8413  152.9762 H   0  0  0  0  0  0  0  0  0  0  0  0
  151.3224  137.3848  154.6637 H   0  0  0  0  0  0  0  0  0  0  0  0
  152.2115  138.7351  153.9555 H   0  0  0  0  0  0  0  0  0  0  0  0
  149.9183  142.2927  155.3696 H   0  0  0  0  0  0  0  0  0  0  0  0
  147.4881  141.7053  155.5497 H   0  0  0  0  0  0  0  0  0  0  0  0
  146.7659  139.3957  154.9802 H   0  0  0  0  0  0  0  0  0  0  0  0
  148.8637  137.0484  153.2607 H   0  0  0  0  0  0  0  0  0  0  0  0
  148.1155  135.2573  153.3070 H   0  0  0  0  0  0  0  0  0  0  0  0
  144.8189  133.0087  153.0999 H   0  0  0  0  0  0  0  0  0  0  0  0
  146.5714  131.4865  151.3084 H   0  0  0  0  0  0  0  0  0  0  0  0
  145.6379  130.5377  152.4504 H   0  0  0  0  0  0  0  0  0  0  0  0
  144.0599  130.5371  150.7421 H   0  0  0  0  0  0  0  0  0  0  0  0
  145.1612  133.2828  149.8029 H   0  0  0  0  0  0  0  0  0  0  0  0
  143.9269  132.2296  148.9359 H   0  0  0  0  0  0  0  0  0  0  0  0
  142.3972  132.3844  150.9286 H   0  0  0  0  0  0  0  0  0  0  0  0
  143.6318  133.4405  151.7907 H   0  0  0  0  0  0  0  0  0  0  0  0
  147.7816  132.9133  155.8501 H   0  0  0  0  0  0  0  0  0  0  0  0
  147.5089  134.5348  156.4441 H   0  0  0  0  0  0  0  0  0  0  0  0
  145.4707  132.3076  156.2276 H   0  0  0  0  0  0  0  0  0  0  0  0
  145.8383  133.3008  157.6361 H   0  0  0  0  0  0  0  0  0  0  0  0
  143.7171  133.9501  156.0937 H   0  0  0  0  0  0  0  0  0  0  0  0
  144.7892  135.2223  156.6665 H   0  0  0  0  0  0  0  0  0  0  0  0
  145.0247  135.7358  154.4468 H   0  0  0  0  0  0  0  0  0  0  0  0
  144.5232  134.1635  153.9044 H   0  0  0  0  0  0  0  0  0  0  0  0
  1  2  1  0  0  0  0
  1 24  1  0  0  0  0
  1 25  1  0  0  0  0
  1 26  1  0  0  0  0
  2  7  1  0  0  0  0
  2  3  2  0  0  0  0
  3  4  1  0  0  0  0
  4  5  2  0  0  0  0
  4 27  1  0  0  0  0
  5  6  1  0  0  0  0
  5 28  1  0  0  0  0
  6  7  2  0  0  0  0
  6 29  1  0  0  0  0
  7  8  1  0  0  0  0
  8  9  1  0  0  0  0
  8 30  1  0  0  0  0
  9 10  2  0  0  0  0
  9 11  1  0  0  0  0
 11 12  1  0  0  0  0
 11 31  1  0  0  0  0
 12 23  1  0  0  0  0
 12 13  1  0  0  0  0
 12 20  1  0  0  0  0
 13 14  2  0  0  0  0
 13 15  1  0  0  0  0
 15 16  1  0  0  0  0
 15 32  1  0  0  0  0
 16 17  1  0  0  0  0
 16 33  1  0  0  0  0
 16 34  1  0  0  0  0
 17 19  1  0  0  0  0
 17 18  1  0  0  0  0
 17 35  1  0  0  0  0
 18 19  1  0  0  0  0
 18 36  1  0  0  0  0
 18 37  1  0  0  0  0
 19 38  1  0  0  0  0
 19 39  1  0  0  0  0
 20 21  1  0  0  0  0
 20 40  1  0  0  0  0
 20 41  1  0  0  0  0
 21 22  1  0  0  0  0
 21 42  1  0  0  0  0
 21 43  1  0  0  0  0
 22 23  1  0  0  0  0
 22 44  1  0  0  0  0
 22 45  1  0  0  0  0
 23 46  1  0  0  0  0
 23 47  1  0  0  0  0
M  END
> <s_m_source_file>
AV-unprocessed.smi

> <i_m_source_file_index>
2408

> <i_lp_mmshare_version>
43012

> <i_f3d_flags>
0

> <s_epik_input>
W0NIM11jMW5bY0hdW2NIXVtjSF1jMVtOSF1DKD1PKVtOSF1DMihbQ0gyXVtDSDJdW0NIMl1bQ0gyXTIpQyg9TylbTkhdW0NIMl1bQ0hdM1tDSDJdW0NIMl0z

> <s_epik_cmdline>
J2VwaWtfcHl0aG9uJywgJy1waCcsICc3LjAnLCAnLXRuJywgJzgnLCAnLW1hJywgJzIwMCcsICctbWV0YWxfYmluZGluZycsICctaW1hZScsICc8aW5maWxlLm1hZT4nLCAnLW9tYWUnLCAnPG91dGZpbGUubWFlPic=

> <r_epik_Ionization_Penalty>
0.0173464

> <r_epik_Ionization_Penalty_Charging>
0

> <r_epik_Ionization_Penalty_Neutral>
0.0173464

> <r_epik_State_Penalty>
0.0137159

> <r_epik_Charging_Adjusted_Penalty>
0.0137159

> <i_epik_Tot_Q>
0

> <i_epik_Tot_abs_Q>
0

> <r_epik_Metal_State_Penalty>
0.0133255

> <b_epik_Metal_Only>
0

> <s_lp_Force_Field>
OPLS_2005

> <r_lp_Energy>
32.4155

> <b_lp_Chiralities_Consistent>
1

> <s_lp_Variant>
AV-unprocessed.smi:2408-1

> <Gold.Version>
5.8.1

> <Gold.Id.Protein>
6NUR|6NUR_protein|mol2

> <Gold.PLP.Fitness>
42.8412

> <Gold.PLP.PLP>
-32.6555

> <Gold.PLP.part.hbond>
-3.0000

> <Gold.PLP.part.metal>
0.0000

> <Gold.PLP.part.buried>
-7.0264

> <Gold.PLP.part.nonpolar>
-22.9020

> <Gold.PLP.part.repulsive>
0.2417

> <Gold.PLP.ligand.clash>
0.0000

> <Gold.PLP.ligand.torsion>
1.0210

> <Gold.PLP.Chemscore.Hbond>
2.8640

> <Gold.PLP.Chemscore.CHOScore>
1.0000

> <Gold.PLP.Chemscore.Metal>
0.0000

> <Gold.Chemscore.Hbonds>
donor molecule, donor type, donor heavy atom, donor atom, acceptor molecule, acceptor atom, score
      L1  H     8    30       P1  7948  1.00
      L1  H    11    31       P1  7948  0.88
      P1  H  7989  7998       L1     3  1.00
      L1  C     4    27       P1  8028  0.70

> <Gold.PLP.Chemscore.Internal.Correction>
0.6358

> <Gold.Rescore>
     Score         DG    S(hbond)    S(metal)    S(lipo)     H(rot)  DE(clash)    DE(int)     intcor
     16.01     -18.69       2.43        0.00      78.48       1.59       0.07       2.62       ----

> <Gold.Chemscore.Fitness>
16.0110

> <Gold.Chemscore.DG>
-18.6917

> <Gold.Chemscore.ZeroCoef>
-5.4800

> <Gold.Chemscore.Hbond>
2.4283

> <Gold.Chemscore.Metal>
0.0000

> <Gold.Chemscore.Lipo>
78.4808

> <Gold.Chemscore.Internal_Hbond>
0.0000

> <Gold.Chemscore.DEClash>
0.0651

> <Gold.Chemscore.DEInternal>
2.6156

> <Gold.Chemscore.Rot>
1.5941

> <Gold.Chemscore.Internal.Correction>
   9.000000E+99

> <Gold.Chemscore.Hbonds>
donor molecule, donor type, donor heavy atom, donor atom, acceptor molecule, acceptor atom, score
      L1  H     8    30       P1  7948  0.98
      L1  H    11    31       P1  7948  0.86
      P1  H  7989  7998       L1     3  0.47

> <Gold.Chemscore.Hbond.Weighted>
-8.1104

> <Gold.Chemscore.Metal.Weighted>
-0.0000

> <Gold.Chemscore.Lipo.Weighted>
-9.1823

> <Gold.Chemscore.Internal_Hbond.Weighted>
0.0000

> <Gold.Chemscore.DEClash.Weighted>
0.0651

> <Gold.Chemscore.DEInternal.Weighted>
2.6156

> <Gold.Chemscore.Rot.Weighted>
4.0809

> <Gold.Chemscore.Internal.Correction.Weighted>
   9.000000E+99

> <Gold.Protein.RotatedTorsions>
[ 6907 6896 6895 6894 ] final -112.72 input  -60.11 | X-H torsion
[ 7974 7965 7964 7962 ] final   44.42 input  175.53 | X-H torsion
[ 8008 7997 7996 7995 ] final   22.08 input   59.86 | X-H torsion
[ 10167 10162 10161 10158 ] final    2.52 input  -65.29 | X-H torsion
[ 10718 10713 10712 10709 ] final   28.49 input   66.30 | X-H torsion
[ 10763 10752 10751 10750 ] final -159.74 input  -60.55 | X-H torsion
[ 11005 11000 10999 10996 ] final  -48.63 input  -57.11 | X-H torsion

> <Gold.Protein.ActiveResidues>
 VAL166  LYS551  ARG553  GLY616  TRP617  ASP618  TYR619  PRO620  LYS621  CYS622 
 ASP623  PHE694  ASN695  SER759  ASP760  ASP761  ALA762  ILE779  LEU786  VAL792 
 PHE793  MET794  SER795  GLU796  ALA797  LYS798  CYS799  TRP800  GLU811  SER814 

> <Gold.Protein.RotatedAtoms>
  150.7778  133.9049  159.3351 H   0  0  0  0  0  0  0  0  0  0  0  0  # atno 6907 bound_to 6896
  151.6919  135.0943  160.0244 H   0  0  0  0  0  0  0  0  0  0  0  0  # atno 6908 bound_to 6896
  152.3820  133.6520  159.6204 H   0  0  0  0  0  0  0  0  0  0  0  0  # atno 6909 bound_to 6896
  146.0570  139.5077  142.9682 H   0  0  0  0  0  0  0  0  0  0  0  0  # atno 7974 bound_to 7965
  154.9603  140.3077  155.5034 H   0  0  0  0  0  0  0  0  0  0  0  0  # atno 8008 bound_to 7997
  156.2978  140.2302  156.4626 H   0  0  0  0  0  0  0  0  0  0  0  0  # atno 8009 bound_to 7997
  154.7971  140.0436  157.1234 H   0  0  0  0  0  0  0  0  0  0  0  0  # atno 8010 bound_to 7997
  140.6631  143.7251  150.7776 H   0  0  0  0  0  0  0  0  0  0  0  0  # atno 10167 bound_to 10162
  157.2341  130.7038  149.6327 H   0  0  0  0  0  0  0  0  0  0  0  0  # atno 10718 bound_to 10713
  154.7449  135.3078  154.8662 H   0  0  0  0  0  0  0  0  0  0  0  0  # atno 10763 bound_to 10752
  153.9466  135.6768  153.4748 H   0  0  0  0  0  0  0  0  0  0  0  0  # atno 10764 bound_to 10752
  153.1046  135.4895  154.8854 H   0  0  0  0  0  0  0  0  0  0  0  0  # atno 10765 bound_to 10752
  141.0712  133.6678  156.3469 H   0  0  0  0  0  0  0  0  0  0  0  0  # atno 11005 bound_to 11000
  145.6626  141.0237  143.1701 LP  0  0  0  0  0  0  0  0  0  0  0  0  # atno 17320 bound_to 7965
  144.7153  139.8218  143.7400 LP  0  0  0  0  0  0  0  0  0  0  0  0  # atno 17321 bound_to 7965
  140.0923  143.4865  152.2471 LP  0  0  0  0  0  0  0  0  0  0  0  0  # atno 17342 bound_to 10162
  139.5871  144.7535  151.3493 LP  0  0  0  0  0  0  0  0  0  0  0  0  # atno 17343 bound_to 10162
  155.9673  130.4479  150.5599 LP  0  0  0  0  0  0  0  0  0  0  0  0  # atno 17370 bound_to 10713
  157.3447  131.0723  151.1760 LP  0  0  0  0  0  0  0  0  0  0  0  0  # atno 17371 bound_to 10713
  140.5669  134.5878  157.5448 LP  0  0  0  0  0  0  0  0  0  0  0  0  # atno 17394 bound_to 11000
  139.9525  134.7592  156.0415 LP  0  0  0  0  0  0  0  0  0  0  0  0  # atno 17395 bound_to 11000

$$$$
