AV-unprocessed.smi:926|AV-procd|sdf|4186|dock5
  -GOLD-   22720 2 93D 1   1.00000     0.00000
 Structure written by MMmdl.
 37 39  0  0  0  0  0  0  0  0  1 V2000
  152.9270  139.5757  154.6975 O   0  0  0  0  0  0  0  0  0  0  0  0
  151.8455  139.2463  155.1876 C   0  0  0  0  0  0  0  0  0  0  0  0
  151.1287  137.9648  154.7455 C   0  0  0  0  0  0  0  0  0  0  0  0
  151.0273  136.9791  155.8080 N   0  0  0  0  0  0  0  0  0  0  0  0
  149.9632  136.4428  156.4097 C   0  0  0  0  0  0  0  0  0  0  0  0
  150.3161  135.5702  157.3411 N   0  0  0  0  0  0  0  0  0  0  0  0
  151.6998  135.5930  157.2853 N   0  0  0  0  0  0  0  0  0  0  0  0
  152.1275  136.4270  156.3773 N   0  0  0  0  0  0  0  0  0  0  0  0
  151.2227  139.9641  156.1348 N   0  0  0  0  0  0  0  0  0  0  0  0
  151.7260  141.2076  156.7054 C   0  0  0  0  0  0  0  0  0  0  0  0
  150.7709  141.7663  157.7745 C   0  0  0  0  0  0  0  0  0  0  0  0
  151.0153  143.2549  158.0923 C   0  0  1  0  0  0  0  0  0  0  0  0
  150.1945  143.7844  159.2882 C   0  0  0  0  0  0  0  0  0  0  0  0
  151.2613  144.4698  160.1624 C   0  0  1  0  0  0  0  0  0  0  0  0
  152.1194  143.3916  160.8501 C   0  0  0  0  0  0  0  0  0  0  0  0
  152.9752  142.8504  159.6904 C   0  0  0  0  0  0  0  0  0  0  0  0
  152.4600  143.6570  158.4807 C   0  0  2  0  0  0  0  0  0  0  0  0
  152.2246  145.0227  159.1179 C   0  0  0  0  0  0  0  0  0  0  0  0
  150.1220  138.2122  154.4069 H   0  0  0  0  0  0  0  0  0  0  0  0
  151.6561  137.5234  153.8982 H   0  0  0  0  0  0  0  0  0  0  0  0
  148.9403  136.6927  156.1692 H   0  0  0  0  0  0  0  0  0  0  0  0
  150.3379  139.6260  156.4852 H   0  0  0  0  0  0  0  0  0  0  0  0
  152.7213  141.0431  157.1211 H   0  0  0  0  0  0  0  0  0  0  0  0
  151.8433  141.9302  155.8974 H   0  0  0  0  0  0  0  0  0  0  0  0
  149.7441  141.6497  157.4254 H   0  0  0  0  0  0  0  0  0  0  0  0
  150.8365  141.1713  158.6852 H   0  0  0  0  0  0  0  0  0  0  0  0
  150.7353  143.8313  157.2086 H   0  0  0  0  0  0  0  0  0  0  0  0
  149.4472  144.5033  158.9498 H   0  0  0  0  0  0  0  0  0  0  0  0
  149.6710  142.9959  159.8302 H   0  0  0  0  0  0  0  0  0  0  0  0
  150.8527  145.2086  160.8523 H   0  0  0  0  0  0  0  0  0  0  0  0
  152.7533  143.8297  161.6221 H   0  0  0  0  0  0  0  0  0  0  0  0
  151.5121  142.6149  161.3166 H   0  0  0  0  0  0  0  0  0  0  0  0
  154.0292  143.0680  159.8686 H   0  0  0  0  0  0  0  0  0  0  0  0
  152.8886  141.7718  159.5641 H   0  0  0  0  0  0  0  0  0  0  0  0
  153.1522  143.6678  157.6384 H   0  0  0  0  0  0  0  0  0  0  0  0
  151.7632  145.7451  158.4422 H   0  0  0  0  0  0  0  0  0  0  0  0
  153.1258  145.4621  159.5495 H   0  0  0  0  0  0  0  0  0  0  0  0
  1  2  2  0  0  0  0
  2  3  1  0  0  0  0
  2  9  1  0  0  0  0
  3  4  1  0  0  0  0
  3 19  1  0  0  0  0
  3 20  1  0  0  0  0
  4  8  1  0  0  0  0
  4  5  1  0  0  0  0
  5  6  2  0  0  0  0
  5 21  1  0  0  0  0
  6  7  1  0  0  0  0
  7  8  2  0  0  0  0
  9 10  1  0  0  0  0
  9 22  1  0  0  0  0
 10 11  1  0  0  0  0
 10 23  1  0  0  0  0
 10 24  1  0  0  0  0
 11 12  1  0  0  0  0
 11 25  1  0  0  0  0
 11 26  1  0  0  0  0
 12 17  1  0  0  0  0
 12 13  1  0  0  0  0
 12 27  1  0  0  0  0
 13 14  1  0  0  0  0
 13 28  1  0  0  0  0
 13 29  1  0  0  0  0
 14 18  1  0  0  0  0
 14 15  1  0  0  0  0
 14 30  1  0  0  0  0
 15 16  1  0  0  0  0
 15 31  1  0  0  0  0
 15 32  1  0  0  0  0
 16 17  1  0  0  0  0
 16 33  1  0  0  0  0
 16 34  1  0  0  0  0
 17 18  1  0  0  0  0
 17 35  1  0  0  0  0
 18 36  1  0  0  0  0
 18 37  1  0  0  0  0
M  END
> <s_m_source_file>
AV-unprocessed.smi

> <i_m_source_file_index>
926

> <i_lp_mmshare_version>
43012

> <i_f3d_flags>
0

> <s_epik_input>
bjFubltjSF1uMVtDSDJdQyg9TylbTkhdW0NIMl1bQ0gyXVtDQEhdKFtDSDJdW0NASF0yMylbQ0BIXShbQ0gyXTMpW0NIMl1bQ0gyXTI=

> <s_epik_cmdline>
J2VwaWtfcHl0aG9uJywgJy1waCcsICc3LjAnLCAnLXRuJywgJzgnLCAnLW1hJywgJzIwMCcsICctbWV0YWxfYmluZGluZycsICctaW1hZScsICc8aW5maWxlLm1hZT4nLCAnLW9tYWUnLCAnPG91dGZpbGUubWFlPic=

> <r_lp_tautomer_probability>
1

> <r_epik_Ionization_Penalty>
4.22645e-07

> <r_epik_Ionization_Penalty_Charging>
0

> <r_epik_Ionization_Penalty_Neutral>
4.22645e-07

> <r_epik_State_Penalty>
-0

> <r_epik_Charging_Adjusted_Penalty>
0

> <i_epik_Tot_Q>
0

> <i_epik_Tot_abs_Q>
0

> <r_epik_Metal_State_Penalty>
-0

> <b_epik_Metal_Only>
0

> <s_lp_Force_Field>
OPLS_2005

> <r_lp_Energy>
51.6894

> <b_lp_Chiralities_Consistent>
1

> <s_lp_Variant>
AV-unprocessed.smi:926-4

> <Gold.Version>
5.8.1

> <Gold.Id.Protein>
6NUR|6NUR_protein|mol2

> <Gold.PLP.Fitness>
47.2954

> <Gold.PLP.PLP>
-39.9093

> <Gold.PLP.part.hbond>
-4.9952

> <Gold.PLP.part.metal>
0.0000

> <Gold.PLP.part.buried>
-6.6785

> <Gold.PLP.part.nonpolar>
-29.0290

> <Gold.PLP.part.repulsive>
0.1431

> <Gold.PLP.ligand.clash>
0.0000

> <Gold.PLP.ligand.torsion>
0.1301

> <Gold.PLP.Chemscore.Hbond>
2.5437

> <Gold.PLP.Chemscore.CHOScore>
0.0000

> <Gold.PLP.Chemscore.Metal>
0.0000

> <Gold.Chemscore.Hbonds>
donor molecule, donor type, donor heavy atom, donor atom, acceptor molecule, acceptor atom, score
      P1  H  7989  7998       L1     1  0.05
      P1  H  7997  8009       L1     1  1.00
      P1  H 10752 10764       L1     8  1.00

> <Gold.PLP.Chemscore.Internal.Correction>
0.0152

> <Gold.Rescore>
     Score         DG    S(hbond)    S(metal)    S(lipo)     H(rot)  DE(clash)    DE(int)     intcor
     16.36     -16.57       1.83        0.00      98.22       2.54       0.04       0.17       ----

> <Gold.Chemscore.Fitness>
16.3572

> <Gold.Chemscore.DG>
-16.5701

> <Gold.Chemscore.ZeroCoef>
-5.4800

> <Gold.Chemscore.Hbond>
1.8292

> <Gold.Chemscore.Metal>
0.0000

> <Gold.Chemscore.Lipo>
98.2241

> <Gold.Chemscore.Internal_Hbond>
0.0000

> <Gold.Chemscore.DEClash>
0.0411

> <Gold.Chemscore.DEInternal>
0.1717

> <Gold.Chemscore.Rot>
2.5436

> <Gold.Chemscore.Internal.Correction>
   9.000000E+99

> <Gold.Chemscore.Hbonds>
donor molecule, donor type, donor heavy atom, donor atom, acceptor molecule, acceptor atom, score
      P1  H  7997  8009       L1     1  0.93
      P1  H 10752 10764       L1     8  0.56

> <Gold.Chemscore.Hbond.Weighted>
-6.1096

> <Gold.Chemscore.Metal.Weighted>
-0.0000

> <Gold.Chemscore.Lipo.Weighted>
-11.4922

> <Gold.Chemscore.Internal_Hbond.Weighted>
0.0000

> <Gold.Chemscore.DEClash.Weighted>
0.0411

> <Gold.Chemscore.DEInternal.Weighted>
0.1717

> <Gold.Chemscore.Rot.Weighted>
6.5117

> <Gold.Chemscore.Internal.Correction.Weighted>
   9.000000E+99

> <Gold.Protein.RotatedTorsions>
[ 6907 6896 6895 6894 ] final  -70.14 input  -60.11 | X-H torsion
[ 7974 7965 7964 7962 ] final  -96.61 input  175.53 | X-H torsion
[ 8008 7997 7996 7995 ] final -131.32 input   59.86 | X-H torsion
[ 10167 10162 10161 10158 ] final   24.88 input  -65.29 | X-H torsion
[ 10718 10713 10712 10709 ] final   74.26 input   66.30 | X-H torsion
[ 10763 10752 10751 10750 ] final  -16.35 input  -60.55 | X-H torsion
[ 11005 11000 10999 10996 ] final  -13.20 input  -57.11 | X-H torsion

> <Gold.Protein.ActiveResidues>
 VAL166  LYS551  ARG553  GLY616  TRP617  ASP618  TYR619  PRO620  LYS621  CYS622 
 ASP623  PHE694  ASN695  SER759  ASP760  ASP761  ALA762  ILE779  LEU786  VAL792 
 PHE793  MET794  SER795  GLU796  ALA797  LYS798  CYS799  TRP800  GLU811  SER814 

> <Gold.Protein.RotatedAtoms>
  150.7272  134.5496  159.5787 H   0  0  0  0  0  0  0  0  0  0  0  0  # atno 6907 bound_to 6896
  152.2987  134.7634  160.0371 H   0  0  0  0  0  0  0  0  0  0  0  0  # atno 6908 bound_to 6896
  151.8222  133.3361  159.3624 H   0  0  0  0  0  0  0  0  0  0  0  0  # atno 6909 bound_to 6896
  145.3446  140.9466  143.2588 H   0  0  0  0  0  0  0  0  0  0  0  0  # atno 7974 bound_to 7965
  155.3104  140.0457  157.3034 H   0  0  0  0  0  0  0  0  0  0  0  0  # atno 8008 bound_to 7997
  154.5436  140.2295  155.8566 H   0  0  0  0  0  0  0  0  0  0  0  0  # atno 8009 bound_to 7997
  156.1904  140.3052  155.9327 H   0  0  0  0  0  0  0  0  0  0  0  0  # atno 8010 bound_to 7997
  140.5152  144.0095  150.6390 H   0  0  0  0  0  0  0  0  0  0  0  0  # atno 10167 bound_to 10162
  157.6584  130.9669  150.1185 H   0  0  0  0  0  0  0  0  0  0  0  0  # atno 10718 bound_to 10713
  153.5572  135.7010  153.5564 H   0  0  0  0  0  0  0  0  0  0  0  0  # atno 10763 bound_to 10752
  153.3462  135.4007  155.1610 H   0  0  0  0  0  0  0  0  0  0  0  0  # atno 10764 bound_to 10752
  154.8653  135.3754  154.5087 H   0  0  0  0  0  0  0  0  0  0  0  0  # atno 10765 bound_to 10752
  140.7736  133.8418  155.9229 H   0  0  0  0  0  0  0  0  0  0  0  0  # atno 11005 bound_to 11000
  144.8764  139.4965  143.6743 LP  0  0  0  0  0  0  0  0  0  0  0  0  # atno 17320 bound_to 7965
  146.2993  139.7376  142.9103 LP  0  0  0  0  0  0  0  0  0  0  0  0  # atno 17321 bound_to 7965
  140.3428  143.3009  152.0570 LP  0  0  0  0  0  0  0  0  0  0  0  0  # atno 17342 bound_to 10162
  139.4907  144.6430  151.6837 LP  0  0  0  0  0  0  0  0  0  0  0  0  # atno 17343 bound_to 10162
  156.2063  130.3663  149.8725 LP  0  0  0  0  0  0  0  0  0  0  0  0  # atno 17370 bound_to 10713
  156.6616  130.8784  151.3548 LP  0  0  0  0  0  0  0  0  0  0  0  0  # atno 17371 bound_to 10713
  140.9550  134.1730  157.4699 LP  0  0  0  0  0  0  0  0  0  0  0  0  # atno 17394 bound_to 11000
  139.8752  134.9923  156.5592 LP  0  0  0  0  0  0  0  0  0  0  0  0  # atno 17395 bound_to 11000

$$$$
