#       Name:                AV-unprocessed.smi:2188
#       Creating user name   scv26
#       Creation time:       Fri Mar 27 12:08:17 2020


#       File generated by GOLD software.
#

@<TRIPOS>MOLECULE
AV-unprocessed.smi:2188
    43    45     1
SMALL
NO_CHARGES


@<TRIPOS>ATOM
      1 ****         0.2578   1.4255  -1.0538 O.2            1 S1                 0.0000
      2 ****        -0.1758   0.4719  -0.3937 C.2            1 S1                 0.0000
      3 ****         0.6013  -0.4731   0.2213 N.pl3          1 S1                -1.0000
      4 ****         2.0640  -0.5197   0.2022 C.3            1 S1                 0.0000
      5 ****         2.5336  -1.9883   0.1827 C.3            1 S1                 0.0000
      6 ****         4.0470  -2.1483   0.1260 C.ar           1 S1                 0.0000
      7 ****         4.7262  -2.2006  -1.1111 C.ar           1 S1                 0.0000
      8 ****         6.1250  -2.3609  -1.1137 C.ar           1 S1                 0.0000
      9 ****         6.7894  -2.4678   0.1241 C.ar           1 S1                 0.0000
     10 ****         6.1529  -2.4260   1.3142 N.ar           1 S1                 0.0000
     11 ****         4.8111  -2.2706   1.3082 C.ar           1 S1                 0.0000
     12 ****        -1.6375   0.2966  -0.2642 C.2            1 S1                 0.0000
     13 ****        -2.1412  -0.9664  -0.2478 C.2            1 S1                 0.0000
     14 ****        -3.5527  -1.2236  -0.1091 C.2            1 S1                 0.0000
     15 ****        -4.3770  -0.1744  -0.0286 C.2            1 S1                 0.0000
     16 ****        -3.9370   1.1472  -0.0720 N.pl3          1 S1                 0.0000
     17 ****        -4.9631   2.1845  -0.0765 C.3            1 S1                 0.0000
     18 ****        -4.5470   3.3440   0.8098 C.3            1 S1                 0.0000
     19 ****        -3.0428   4.0417   0.0401 S.o2           1 S1                 0.0000
     20 ****        -3.3896   4.4825  -1.3202 O.2            1 S1                 0.0000
     21 ****        -2.4530   5.0051   0.9819 O.2            1 S1                 0.0000
     22 ****        -2.0848   2.6712  -0.0502 N.2            1 S1                 0.0000
     23 ****        -2.5481   1.4557  -0.1352 C.2            1 S1                 0.0000
     24 ****         2.4845  -0.0108  -0.6664 H              1 S1                 0.0000
     25 ****         2.4887  -0.0208   1.0739 H              1 S1                 0.0000
     26 ****         2.1610  -2.5085   1.0665 H              1 S1                 0.0000
     27 ****         2.1012  -2.5036  -0.6765 H              1 S1                 0.0000
     28 ****         4.1849  -2.1149  -2.0420 H              1 S1                 0.0000
     29 ****         6.6751  -2.4004  -2.0423 H              1 S1                 0.0000
     30 ****         7.8616  -2.5922   0.1585 H              1 S1                 0.0000
     31 ****         4.3330  -2.2426   2.2765 H              1 S1                 0.0000
     32 ****        -1.4941  -1.8262  -0.3491 H              1 S1                 0.0000
     33 ****        -3.9315  -2.2342  -0.0719 H              1 S1                 0.0000
     34 ****        -5.4446  -0.3033   0.0745 H              1 S1                 0.0000
     35 ****        -5.1339   2.5189  -1.1003 H              1 S1                 0.0000
     36 ****        -5.9133   1.7901   0.2848 H              1 S1                 0.0000
     37 ****        -5.3118   4.1191   0.8504 H              1 S1                 0.0000
     38 ****        -4.3193   3.0239   1.8272 H              1 S1                 0.0000
     39 ****         1.2437   1.5472  -1.1682 LP             1 S1                 0.0000
     40 ****        -0.3780   2.0739  -1.4724 LP             1 S1                 0.0000
     41 ****         0.1282  -1.1942   0.7276 LP             1 S1                 0.0000
     42 ****         6.6589  -2.5075   2.1729 LP             1 S1                 0.0000
     43 ****        -1.0923   2.7932  -0.0381 LP             1 S1                 0.0000
@<TRIPOS>BOND
    1    1    2 2     
    2    2    3 1     
    3    2   12 1     
    4    3    4 1     
    5    4    5 1     
    6    4   24 1     
    7    4   25 1     
    8    5    6 1     
    9    5   26 1     
   10    5   27 1     
   11    6   11 ar    
   12    6    7 ar    
   13    7    8 ar    
   14    7   28 1     
   15    8    9 ar    
   16    8   29 1     
   17    9   10 ar    
   18    9   30 1     
   19   10   11 ar    
   20   11   31 1     
   21   12   23 1     
   22   12   13 2     
   23   13   14 1     
   24   13   32 1     
   25   14   15 2     
   26   14   33 1     
   27   15   16 1     
   28   15   34 1     
   29   16   23 1     
   30   16   17 1     
   31   17   18 1     
   32   17   35 1     
   33   17   36 1     
   34   18   19 1     
   35   18   37 1     
   36   18   38 1     
   37   19   20 2     
   38   19   21 2     
   39   19   22 1     
   40   22   23 2     
   41    1   39 1     
   42    1   40 1     
   43    3   41 1     
   44   10   42 1     
   45   22   43 1     
@<TRIPOS>SUBSTRUCTURE
      1 S1             1
@<TRIPOS>SET
LONE_PAIRS      STATIC     ATOMS    <user>   **** ""
7 39 40 41 42 20 21 43
ATOM$BLUE        STATIC     ATOMS    COLORGROUP SYSTEM
7 39 40 41 42 20 21 43
