AV-unprocessed.smi:3068|AV-procd|sdf|11698|dock2
  -GOLD-   2272017103D 1   1.00000     0.00000
 Structure written by MMmdl.
 40 42  0  0  0  0  0  0  0  0  2 V2000
  151.0871  137.1782  159.4842 N   0  0  0  0  0  0  0  0  0  0  0  0
  151.1437  137.2882  158.3335 C   0  0  0  0  0  0  0  0  0  0  0  0
  151.2154  137.4285  156.8848 C   0  0  0  0  0  0  0  0  0  0  0  0
  151.3585  138.6845  156.4021 N   0  0  0  0  0  0  0  0  0  0  0  0
  151.4297  138.8278  155.0618 C   0  0  0  0  0  0  0  0  0  0  0  0
  151.3602  137.7185  154.1970 C   0  0  0  0  0  0  0  0  0  0  0  0
  151.2187  136.4618  154.6695 N   0  0  0  0  0  0  0  0  0  0  0  0
  151.1446  136.3035  156.0150 C   0  0  0  0  0  0  0  0  0  0  0  0
  150.9936  134.9998  156.5237 N   0  0  0  0  0  0  0  0  0  0  0  0
  149.7423  134.2615  156.4006 C   0  0  0  0  0  0  0  0  0  0  0  0
  149.2164  134.2337  154.9554 C   0  0  2  0  0  0  0  0  0  0  0  0
  147.9153  135.0432  154.8102 C   0  0  0  0  0  0  0  0  0  0  0  0
  147.3902  134.9418  153.4292 N   0  3  2  0  0  0  0  0  0  0  0  0
  146.1566  135.7443  153.2323 C   0  0  0  0  0  0  0  0  0  0  0  0
  145.6920  135.6939  151.7683 C   0  0  0  0  0  0  0  0  0  0  0  0
  145.4866  134.2439  151.3110 C   0  0  0  0  0  0  0  0  0  0  0  0
  146.7660  133.4308  151.5504 C   0  0  0  0  0  0  0  0  0  0  0  0
  147.2192  133.5208  153.0211 C   0  0  1  0  0  0  0  0  0  0  0  0
  148.5322  132.7469  153.2513 C   0  0  0  0  0  0  0  0  0  0  0  0
  148.9415  132.8811  154.6062 O   0  0  0  0  0  0  0  0  0  0  0  0
  151.5435  139.8309  154.6780 H   0  0  0  0  0  0  0  0  0  0  0  0
  151.4184  137.8393  153.1254 H   0  0  0  0  0  0  0  0  0  0  0  0
  151.7996  134.5178  156.8966 H   0  0  0  0  0  0  0  0  0  0  0  0
  149.9070  133.2435  156.7542 H   0  0  0  0  0  0  0  0  0  0  0  0
  148.9977  134.6964  157.0683 H   0  0  0  0  0  0  0  0  0  0  0  0
  149.9709  134.6423  154.2806 H   0  0  0  0  0  0  0  0  0  0  0  0
  147.1647  134.6803  155.5142 H   0  0  0  0  0  0  0  0  0  0  0  0
  148.1019  136.0905  155.0515 H   0  0  0  0  0  0  0  0  0  0  0  0
  145.3685  135.3717  153.8889 H   0  0  0  0  0  0  0  0  0  0  0  0
  146.3456  136.7797  153.5188 H   0  0  0  0  0  0  0  0  0  0  0  0
  144.7658  136.2572  151.6508 H   0  0  0  0  0  0  0  0  0  0  0  0
  146.4330  136.1791  151.1315 H   0  0  0  0  0  0  0  0  0  0  0  0
  144.6565  133.7972  151.8598 H   0  0  0  0  0  0  0  0  0  0  0  0
  145.2146  134.2167  150.2554 H   0  0  0  0  0  0  0  0  0  0  0  0
  146.5968  132.3896  151.2731 H   0  0  0  0  0  0  0  0  0  0  0  0
  147.5575  133.7993  150.8959 H   0  0  0  0  0  0  0  0  0  0  0  0
  146.4460  133.0786  153.6522 H   0  0  0  0  0  0  0  0  0  0  0  0
  148.3880  131.6879  153.0355 H   0  0  0  0  0  0  0  0  0  0  0  0
  149.3218  133.1011  152.5863 H   0  0  0  0  0  0  0  0  0  0  0  0
  148.0937  135.3358  152.8210 H   0  0  0  0  0  0  0  0  0  0  0  0
  1  2  3  0  0  0  0
  2  3  1  0  0  0  0
  3  8  1  0  0  0  0
  3  4  2  0  0  0  0
  4  5  1  0  0  0  0
  5  6  2  0  0  0  0
  5 21  1  0  0  0  0
  6  7  1  0  0  0  0
  6 22  1  0  0  0  0
  7  8  2  0  0  0  0
  8  9  1  0  0  0  0
  9 10  1  0  0  0  0
  9 23  1  0  0  0  0
 10 11  1  0  0  0  0
 10 24  1  0  0  0  0
 10 25  1  0  0  0  0
 11 20  1  0  0  0  0
 11 12  1  0  0  0  0
 11 26  1  0  0  0  0
 12 13  1  0  0  0  0
 12 27  1  0  0  0  0
 12 28  1  0  0  0  0
 13 18  1  0  0  0  0
 13 14  1  0  0  0  0
 13 40  1  0  0  0  0
 14 15  1  0  0  0  0
 14 29  1  0  0  0  0
 14 30  1  0  0  0  0
 15 16  1  0  0  0  0
 15 31  1  0  0  0  0
 15 32  1  0  0  0  0
 16 17  1  0  0  0  0
 16 33  1  0  0  0  0
 16 34  1  0  0  0  0
 17 18  1  0  0  0  0
 17 35  1  0  0  0  0
 17 36  1  0  0  0  0
 18 19  1  0  0  0  0
 18 37  1  0  0  0  0
 19 20  1  0  0  0  0
 19 38  1  0  0  0  0
 19 39  1  0  0  0  0
M  CHG  1  13   1
M  END
> <s_m_source_file>
AV-unprocessed.smi

> <i_m_source_file_index>
3068

> <i_lp_mmshare_version>
43012

> <i_f3d_flags>
0

> <s_epik_input>
TiNDYzFuW2NIXVtjSF1uYzFbTkhdW0NIMl1bQ0BIXShbQ0gyXTIpT1tDSDJdW0NAQEhdKE4yMylbQ0gyXVtDSDJdW0NIMl1bQ0gyXTM=

> <s_epik_cmdline>
J2VwaWtfcHl0aG9uJywgJy1waCcsICc3LjAnLCAnLXRuJywgJzgnLCAnLW1hJywgJzIwMCcsICctbWV0YWxfYmluZGluZycsICctaW1hZScsICc8aW5maWxlLm1hZT4nLCAnLW9tYWUnLCAnPG91dGZpbGUubWFlPic=

> <r_epik_Ionization_Penalty>
0.0804321

> <r_epik_Ionization_Penalty_Charging>
0.0803403

> <r_epik_Ionization_Penalty_Neutral>
9.17277e-05

> <r_epik_State_Penalty>
0.0711481

> <r_epik_Charging_Adjusted_Penalty>
0.151488

> <i_epik_Tot_Q>
1

> <i_epik_Tot_abs_Q>
1

> <r_epik_Metal_State_Penalty>
0.0711481

> <b_epik_Metal_Only>
0

> <s_lp_Force_Field>
OPLS_2005

> <r_lp_Energy>
36.4506

> <b_lp_Chiralities_Consistent>
1

> <s_lp_Variant>
AV-unprocessed.smi:3068-1

> <Gold.Version>
5.8.1

> <Gold.Id.Protein>
6NUR|6NUR_protein|mol2

> <Gold.PLP.Fitness>
40.0144

> <Gold.PLP.PLP>
-28.2128

> <Gold.PLP.part.hbond>
-3.0000

> <Gold.PLP.part.metal>
0.0000

> <Gold.PLP.part.buried>
-4.4019

> <Gold.PLP.part.nonpolar>
-22.5913

> <Gold.PLP.part.repulsive>
0.3796

> <Gold.PLP.ligand.clash>
0.0000

> <Gold.PLP.ligand.torsion>
1.4308

> <Gold.PLP.Chemscore.Hbond>
4.0000

> <Gold.PLP.Chemscore.CHOScore>
0.8831

> <Gold.PLP.Chemscore.Metal>
0.0000

> <Gold.Chemscore.Hbonds>
donor molecule, donor type, donor heavy atom, donor atom, acceptor molecule, acceptor atom, score
      L1  H    13    40       P1  7948  2.00
      P1  H  6896  6909       L1     1  0.83
      P1  H 10752 10765       L1     7  1.00
      L1  C     6    22       P1  7949  0.90

> <Gold.PLP.Chemscore.Internal.Correction>
0.0140

> <Gold.Rescore>
     Score         DG    S(hbond)    S(metal)    S(lipo)     H(rot)  DE(clash)    DE(int)     intcor
     14.93     -16.46       2.08        0.00      63.22       1.32       0.07       1.46       ----

> <Gold.Chemscore.Fitness>
14.9272

> <Gold.Chemscore.DG>
-16.4603

> <Gold.Chemscore.ZeroCoef>
-5.4800

> <Gold.Chemscore.Hbond>
2.0841

> <Gold.Chemscore.Metal>
0.0000

> <Gold.Chemscore.Lipo>
63.2194

> <Gold.Chemscore.Internal_Hbond>
0.0000

> <Gold.Chemscore.DEClash>
0.0727

> <Gold.Chemscore.DEInternal>
1.4605

> <Gold.Chemscore.Rot>
1.3193

> <Gold.Chemscore.Internal.Correction>
   9.000000E+99

> <Gold.Chemscore.Hbonds>
donor molecule, donor type, donor heavy atom, donor atom, acceptor molecule, acceptor atom, score
      L1  H    13    40       P1  7948  0.95
      P1  H  6896  6909       L1     1  0.45
      P1  H 10752 10765       L1     7  0.12

> <Gold.Chemscore.Hbond.Weighted>
-6.9610

> <Gold.Chemscore.Metal.Weighted>
-0.0000

> <Gold.Chemscore.Lipo.Weighted>
-7.3967

> <Gold.Chemscore.Internal_Hbond.Weighted>
0.0000

> <Gold.Chemscore.DEClash.Weighted>
0.0727

> <Gold.Chemscore.DEInternal.Weighted>
1.4605

> <Gold.Chemscore.Rot.Weighted>
3.3774

> <Gold.Chemscore.Internal.Correction.Weighted>
   9.000000E+99

> <Gold.Protein.RotatedTorsions>
[ 6907 6896 6895 6894 ] final   98.44 input  -60.11 | X-H torsion
[ 7974 7965 7964 7962 ] final -146.57 input  175.53 | X-H torsion
[ 8008 7997 7996 7995 ] final  -53.89 input   59.86 | X-H torsion
[ 10167 10162 10161 10158 ] final   76.45 input  -65.29 | X-H torsion
[ 10718 10713 10712 10709 ] final  176.31 input   66.30 | X-H torsion
[ 10763 10752 10751 10750 ] final  161.32 input  -60.55 | X-H torsion
[ 11005 11000 10999 10996 ] final  177.23 input  -57.11 | X-H torsion

> <Gold.Protein.ActiveResidues>
 VAL166  LYS551  ARG553  GLY616  TRP617  ASP618  TYR619  PRO620  LYS621  CYS622 
 ASP623  PHE694  ASN695  SER759  ASP760  ASP761  ALA762  ILE779  LEU786  VAL792 
 PHE793  MET794  SER795  GLU796  ALA797  LYS798  CYS799  TRP800  GLU811  SER814 

> <Gold.Protein.RotatedAtoms>
  152.5409  134.0580  159.8139 H   0  0  0  0  0  0  0  0  0  0  0  0  # atno 6907 bound_to 6896
  151.0712  133.5457  159.2634 H   0  0  0  0  0  0  0  0  0  0  0  0  # atno 6908 bound_to 6896
  151.2320  135.0566  159.9045 H   0  0  0  0  0  0  0  0  0  0  0  0  # atno 6909 bound_to 6896
  144.8151  140.5439  143.5616 H   0  0  0  0  0  0  0  0  0  0  0  0  # atno 7974 bound_to 7965
  154.4146  140.1189  156.5226 H   0  0  0  0  0  0  0  0  0  0  0  0  # atno 8008 bound_to 7997
  155.6686  140.3496  155.4790 H   0  0  0  0  0  0  0  0  0  0  0  0  # atno 8009 bound_to 7997
  155.9652  140.1130  157.0851 H   0  0  0  0  0  0  0  0  0  0  0  0  # atno 8010 bound_to 7997
  139.9921  144.5749  150.7809 H   0  0  0  0  0  0  0  0  0  0  0  0  # atno 10167 bound_to 10162
  156.9220  130.9944  151.3003 H   0  0  0  0  0  0  0  0  0  0  0  0  # atno 10718 bound_to 10713
  154.2612  135.2768  155.2777 H   0  0  0  0  0  0  0  0  0  0  0  0  # atno 10763 bound_to 10752
  154.5382  135.5710  153.6820 H   0  0  0  0  0  0  0  0  0  0  0  0  # atno 10764 bound_to 10752
  152.9962  135.6244  154.2762 H   0  0  0  0  0  0  0  0  0  0  0  0  # atno 10765 bound_to 10752
  140.3818  134.6939  157.4455 H   0  0  0  0  0  0  0  0  0  0  0  0  # atno 11005 bound_to 11000
  145.5234  139.1476  143.3539 LP  0  0  0  0  0  0  0  0  0  0  0  0  # atno 17320 bound_to 7965
  146.2453  140.5375  142.8916 LP  0  0  0  0  0  0  0  0  0  0  0  0  # atno 17321 bound_to 7965
  140.7451  143.2870  151.3436 LP  0  0  0  0  0  0  0  0  0  0  0  0  # atno 17342 bound_to 10162
  139.6332  144.0680  152.2494 LP  0  0  0  0  0  0  0  0  0  0  0  0  # atno 17343 bound_to 10162
  157.5901  130.8438  149.8647 LP  0  0  0  0  0  0  0  0  0  0  0  0  # atno 17370 bound_to 10713
  156.0486  130.3722  150.1256 LP  0  0  0  0  0  0  0  0  0  0  0  0  # atno 17371 bound_to 10713
  140.0472  134.6182  155.8906 LP  0  0  0  0  0  0  0  0  0  0  0  0  # atno 17394 bound_to 11000
  141.1921  133.6574  156.5485 LP  0  0  0  0  0  0  0  0  0  0  0  0  # atno 17395 bound_to 11000

$$$$
