AV-unprocessed.smi:1789|AV-procd|sdf|7214|dock3
  -GOLD-   22720 8453D 1   1.00000     0.00000
 Structure written by MMmdl.
 34 35  0  0  0  0  0  0  0  0  1 V2000
  153.3298  142.2338  161.4118 C   0  0  0  0  0  0  0  0  0  0  0  0
  152.5482  142.7799  160.2665 C   0  0  0  0  0  0  0  0  0  0  0  0
  151.8740  142.1902  159.2341 C   0  0  0  0  0  0  0  0  0  0  0  0
  151.3578  143.3003  158.5140 C   0  0  0  0  0  0  0  0  0  0  0  0
  150.5795  143.1117  157.3431 N   0  0  0  0  0  0  0  0  0  0  0  0
  150.4292  141.9791  156.6354 C   0  0  0  0  0  0  0  0  0  0  0  0
  150.9712  140.9040  156.8948 O   0  0  0  0  0  0  0  0  0  0  0  0
  149.6096  142.1615  155.5892 N   0  0  0  0  0  0  0  0  0  0  0  0
  149.2507  141.1344  154.6155 C   0  0  2  0  0  0  0  0  0  0  0  0
  148.0118  141.5659  153.8039 C   0  0  0  0  0  0  0  0  0  0  0  0
  147.5811  140.4708  152.8151 C   0  0  0  0  0  0  0  0  0  0  0  0
  147.3282  139.1375  153.5398 C   0  0  1  0  0  0  0  0  0  0  0  0
  147.0072  138.1404  152.5933 O   0  0  0  0  0  0  0  0  0  0  0  0
  148.5632  138.7020  154.3477 C   0  0  0  0  0  0  0  0  0  0  0  0
  148.9930  139.7979  155.3369 C   0  0  0  0  0  0  0  0  0  0  0  0
  151.6895  144.4622  159.0562 N   0  0  0  0  0  0  0  0  0  0  0  0
  152.4544  144.1346  160.1819 O   0  0  0  0  0  0  0  0  0  0  0  0
  153.1954  141.1553  161.4964 H   0  0  0  0  0  0  0  0  0  0  0  0
  153.0110  142.6882  162.3500 H   0  0  0  0  0  0  0  0  0  0  0  0
  154.3935  142.4336  161.2824 H   0  0  0  0  0  0  0  0  0  0  0  0
  151.7678  141.1350  159.0309 H   0  0  0  0  0  0  0  0  0  0  0  0
  150.0873  143.9264  157.0077 H   0  0  0  0  0  0  0  0  0  0  0  0
  149.2092  143.0778  155.4513 H   0  0  0  0  0  0  0  0  0  0  0  0
  150.0872  140.9880  153.9290 H   0  0  0  0  0  0  0  0  0  0  0  0
  147.1853  141.7876  154.4805 H   0  0  0  0  0  0  0  0  0  0  0  0
  148.2196  142.4872  153.2581 H   0  0  0  0  0  0  0  0  0  0  0  0
  146.6819  140.7865  152.2847 H   0  0  0  0  0  0  0  0  0  0  0  0
  148.3581  140.3424  152.0601 H   0  0  0  0  0  0  0  0  0  0  0  0
  146.4768  139.2476  154.2128 H   0  0  0  0  0  0  0  0  0  0  0  0
  147.8114  137.7844  152.2472 H   0  0  0  0  0  0  0  0  0  0  0  0
  148.3510  137.7792  154.8889 H   0  0  0  0  0  0  0  0  0  0  0  0
  149.3910  138.4818  153.6716 H   0  0  0  0  0  0  0  0  0  0  0  0
  149.8914  139.4800  155.8674 H   0  0  0  0  0  0  0  0  0  0  0  0
  148.2166  139.9272  156.0924 H   0  0  0  0  0  0  0  0  0  0  0  0
  1  2  1  0  0  0  0
  1 18  1  0  0  0  0
  1 19  1  0  0  0  0
  1 20  1  0  0  0  0
  2 17  1  0  0  0  0
  2  3  2  0  0  0  0
  3  4  1  0  0  0  0
  3 21  1  0  0  0  0
  4  5  1  0  0  0  0
  4 16  2  0  0  0  0
  5  6  1  0  0  0  0
  5 22  1  0  0  0  0
  6  7  2  0  0  0  0
  6  8  1  0  0  0  0
  8  9  1  0  0  0  0
  8 23  1  0  0  0  0
  9 15  1  0  0  0  0
  9 10  1  0  0  0  0
  9 24  1  0  0  0  0
 10 11  1  0  0  0  0
 10 25  1  0  0  0  0
 10 26  1  0  0  0  0
 11 12  1  0  0  0  0
 11 27  1  0  0  0  0
 11 28  1  0  0  0  0
 12 13  1  0  0  0  0
 12 14  1  0  0  0  0
 12 29  1  0  0  0  0
 13 30  1  0  0  0  0
 14 15  1  0  0  0  0
 14 31  1  0  0  0  0
 14 32  1  0  0  0  0
 15 33  1  0  0  0  0
 15 34  1  0  0  0  0
 16 17  1  0  0  0  0
M  END
> <s_m_source_file>
AV-unprocessed.smi

> <i_m_source_file_index>
1789

> <i_lp_mmshare_version>
43012

> <i_f3d_flags>
0

> <s_epik_input>
W0NIM11jMVtjSF1jKG5vMSlbTkhdQyg9TylbTkhdW0NAQEhdMltDSDJdW0NIMl1bQ0BASF0oW09IXSlbQ0gyXVtDSDJdMg==

> <s_epik_cmdline>
J2VwaWtfcHl0aG9uJywgJy1waCcsICc3LjAnLCAnLXRuJywgJzgnLCAnLW1hJywgJzIwMCcsICctbWV0YWxfYmluZGluZycsICctaW1hZScsICc8aW5maWxlLm1hZT4nLCAnLW9tYWUnLCAnPG91dGZpbGUubWFlPic=

> <r_lp_tautomer_probability>
1

> <r_epik_Ionization_Penalty>
2.38512e-05

> <r_epik_Ionization_Penalty_Charging>
0

> <r_epik_Ionization_Penalty_Neutral>
2.38512e-05

> <r_epik_State_Penalty>
-0

> <r_epik_Charging_Adjusted_Penalty>
0

> <i_epik_Tot_Q>
0

> <i_epik_Tot_abs_Q>
0

> <r_epik_Metal_State_Penalty>
-0

> <b_epik_Metal_Only>
0

> <s_lp_Force_Field>
OPLS_2005

> <r_lp_Energy>
5.01305

> <b_lp_Chiralities_Consistent>
1

> <s_lp_Variant>
AV-unprocessed.smi:1789-1

> <Gold.Version>
5.8.1

> <Gold.Id.Protein>
6NUR|6NUR_protein|mol2

> <Gold.PLP.Fitness>
40.0758

> <Gold.PLP.PLP>
-31.6315

> <Gold.PLP.part.hbond>
-3.0000

> <Gold.PLP.part.metal>
0.0000

> <Gold.PLP.part.buried>
-2.6693

> <Gold.PLP.part.nonpolar>
-25.9816

> <Gold.PLP.part.repulsive>
0.2849

> <Gold.PLP.ligand.clash>
0.0000

> <Gold.PLP.ligand.torsion>
0.2677

> <Gold.PLP.Chemscore.Hbond>
2.9920

> <Gold.PLP.Chemscore.CHOScore>
0.0000

> <Gold.PLP.Chemscore.Metal>
0.0000

> <Gold.Chemscore.Hbonds>
donor molecule, donor type, donor heavy atom, donor atom, acceptor molecule, acceptor atom, score
      L1  H     5    22       P1  8028  0.99
      L1  H     8    23       P1  8028  1.00
      L1  H    13    30       P1  7948  1.00

> <Gold.PLP.Chemscore.Internal.Correction>
0.0036

> <Gold.Rescore>
     Score         DG    S(hbond)    S(metal)    S(lipo)     H(rot)  DE(clash)    DE(int)     intcor
     15.38     -19.78       2.92        0.00      71.55       1.49       1.36       3.04       ----

> <Gold.Chemscore.Fitness>
15.3802

> <Gold.Chemscore.DG>
-19.7815

> <Gold.Chemscore.ZeroCoef>
-5.4800

> <Gold.Chemscore.Hbond>
2.9165

> <Gold.Chemscore.Metal>
0.0000

> <Gold.Chemscore.Lipo>
71.5512

> <Gold.Chemscore.Internal_Hbond>
0.0000

> <Gold.Chemscore.DEClash>
1.3592

> <Gold.Chemscore.DEInternal>
3.0421

> <Gold.Chemscore.Rot>
1.4887

> <Gold.Chemscore.Internal.Correction>
   9.000000E+99

> <Gold.Chemscore.Hbonds>
donor molecule, donor type, donor heavy atom, donor atom, acceptor molecule, acceptor atom, score
      L1  H     5    22       P1  8028  0.88
      L1  H     8    23       P1  8028  1.00
      L1  H    13    30       P1  7948  0.95

> <Gold.Chemscore.Hbond.Weighted>
-9.7411

> <Gold.Chemscore.Metal.Weighted>
-0.0000

> <Gold.Chemscore.Lipo.Weighted>
-8.3715

> <Gold.Chemscore.Internal_Hbond.Weighted>
0.0000

> <Gold.Chemscore.DEClash.Weighted>
1.3592

> <Gold.Chemscore.DEInternal.Weighted>
3.0421

> <Gold.Chemscore.Rot.Weighted>
3.8111

> <Gold.Chemscore.Internal.Correction.Weighted>
   9.000000E+99

> <Gold.Protein.RotatedTorsions>
[ 6907 6896 6895 6894 ] final -162.73 input  -60.11 | X-H torsion
[ 7974 7965 7964 7962 ] final  128.11 input  175.53 | X-H torsion
[ 8008 7997 7996 7995 ] final   74.88 input   59.86 | X-H torsion
[ 10167 10162 10161 10158 ] final  164.79 input  -65.29 | X-H torsion
[ 10718 10713 10712 10709 ] final   45.52 input   66.30 | X-H torsion
[ 10763 10752 10751 10750 ] final   34.35 input  -60.55 | X-H torsion
[ 11005 11000 10999 10996 ] final  151.08 input  -57.11 | X-H torsion

> <Gold.Protein.ActiveResidues>
 VAL166  LYS551  ARG553  GLY616  TRP617  ASP618  TYR619  PRO620  LYS621  CYS622 
 ASP623  PHE694  ASN695  SER759  ASP760  ASP761  ALA762  ILE779  LEU786  VAL792 
 PHE793  MET794  SER795  GLU796  ALA797  LYS798  CYS799  TRP800  GLU811  SER814 

> <Gold.Protein.RotatedAtoms>
  151.3850  133.3808  159.2714 H   0  0  0  0  0  0  0  0  0  0  0  0  # atno 6907 bound_to 6896
  150.9549  134.8945  159.7705 H   0  0  0  0  0  0  0  0  0  0  0  0  # atno 6908 bound_to 6896
  152.5126  134.3806  159.9402 H   0  0  0  0  0  0  0  0  0  0  0  0  # atno 6909 bound_to 6896
  145.0431  139.3946  143.5092 H   0  0  0  0  0  0  0  0  0  0  0  0  # atno 7974 bound_to 7965
  155.8047  140.3475  155.5423 H   0  0  0  0  0  0  0  0  0  0  0  0  # atno 8008 bound_to 7997
  155.8502  140.0955  157.1700 H   0  0  0  0  0  0  0  0  0  0  0  0  # atno 8009 bound_to 7997
  154.4007  140.1378  156.3822 H   0  0  0  0  0  0  0  0  0  0  0  0  # atno 8010 bound_to 7997
  139.4894  144.4199  151.9198 H   0  0  0  0  0  0  0  0  0  0  0  0  # atno 10167 bound_to 10162
  157.4384  130.8066  149.7670 H   0  0  0  0  0  0  0  0  0  0  0  0  # atno 10718 bound_to 10713
  153.0168  135.6363  154.1655 H   0  0  0  0  0  0  0  0  0  0  0  0  # atno 10763 bound_to 10752
  154.1393  135.2835  155.3166 H   0  0  0  0  0  0  0  0  0  0  0  0  # atno 10764 bound_to 10752
  154.6136  135.5548  153.7561 H   0  0  0  0  0  0  0  0  0  0  0  0  # atno 10765 bound_to 10752
  140.1187  134.8877  157.2041 H   0  0  0  0  0  0  0  0  0  0  0  0  # atno 11005 bound_to 11000
  146.3511  140.0042  142.8673 LP  0  0  0  0  0  0  0  0  0  0  0  0  # atno 17320 bound_to 7965
  145.1622  140.9679  143.4370 LP  0  0  0  0  0  0  0  0  0  0  0  0  # atno 17321 bound_to 7965
  140.3643  144.2934  150.5929 LP  0  0  0  0  0  0  0  0  0  0  0  0  # atno 17342 bound_to 10162
  140.5375  143.2230  151.8139 LP  0  0  0  0  0  0  0  0  0  0  0  0  # atno 17343 bound_to 10162
  155.9939  130.3921  150.2881 LP  0  0  0  0  0  0  0  0  0  0  0  0  # atno 17370 bound_to 10713
  157.1043  131.0204  151.3073 LP  0  0  0  0  0  0  0  0  0  0  0  0  # atno 17371 bound_to 10713
  140.2994  134.3149  155.7294 LP  0  0  0  0  0  0  0  0  0  0  0  0  # atno 17394 bound_to 11000
  141.2147  133.7582  156.9618 LP  0  0  0  0  0  0  0  0  0  0  0  0  # atno 17395 bound_to 11000

$$$$
