#       Name:                AV-unprocessed.smi:1752
#       Creating user name   scv26
#       Creation time:       Fri Mar 27 08:27:56 2020


#       File generated by GOLD software.
#

@<TRIPOS>MOLECULE
AV-unprocessed.smi:1752
    46    47     1
SMALL
NO_CHARGES


@<TRIPOS>ATOM
      1 ****        -3.3202   0.3718  -1.2947 C.3            1 S1                 0.0000
      2 ****        -2.2702   0.5528  -0.1862 C.3            1 S1                 0.0000
      3 ****        -2.3680  -0.5148   0.9259 C.3            1 S1                 0.0000
      4 ****        -3.6747  -0.5488   1.5576 N.pl3          1 S1                 0.0000
      5 ****        -4.2066   0.3402   2.4677 C.2            1 S1                 0.0000
      6 ****        -5.4615  -0.0993   2.7787 C.2            1 S1                 0.0000
      7 ****        -5.6078  -1.2819   2.0008 C.2            1 S1                 0.0000
      8 ****        -4.5360  -1.5496   1.2725 N.2            1 S1                 0.0000
      9 ****        -0.9386   0.5358  -0.7849 N.am           1 S1                 0.0000
     10 ****         0.1615   1.1083  -0.2648 C.2            1 S1                 0.0000
     11 ****         0.1388   1.7427   0.7908 O.2            1 S1                 0.0000
     12 ****         1.2764   0.9816  -1.0277 N.am           1 S1                 0.0000
     13 ****         1.4328  -0.0251  -2.1016 C.3            1 S1                 0.0000
     14 ****         2.8824  -0.5334  -2.2868 C.3            1 S1                 0.0000
     15 ****         3.5234  -1.1633  -1.0307 C.3            1 S1                 0.0000
     16 ****         3.2745  -0.4296   0.2397 N.4            1 S1                 1.0000
     17 ****         3.9837  -1.0509   1.3799 C.3            1 S1                 0.0000
     18 ****         3.4838   1.0423   0.1811 C.3            1 S1                 0.0000
     19 ****         2.4753   1.7836  -0.7290 C.3            1 S1                 0.0000
     20 ****        -4.3341   0.4693  -0.9057 H              1 S1                 0.0000
     21 ****        -3.2370  -0.6095  -1.7630 H              1 S1                 0.0000
     22 ****        -3.2013   1.1246  -2.0746 H              1 S1                 0.0000
     23 ****        -2.4357   1.5355   0.2595 H              1 S1                 0.0000
     24 ****        -2.1444  -1.5037   0.5214 H              1 S1                 0.0000
     25 ****        -1.6274  -0.3247   1.7038 H              1 S1                 0.0000
     26 ****        -3.6544   1.2026   2.8116 H              1 S1                 0.0000
     27 ****        -6.1673   0.3545   3.4583 H              1 S1                 0.0000
     28 ****        -6.4555  -1.9491   1.9446 H              1 S1                 0.0000
     29 ****        -0.8473   0.0565  -1.6689 H              1 S1                 0.0000
     30 ****         0.8114  -0.9009  -1.9074 H              1 S1                 0.0000
     31 ****         1.0745   0.4082  -3.0361 H              1 S1                 0.0000
     32 ****         2.8876  -1.2797  -3.0819 H              1 S1                 0.0000
     33 ****         3.5243   0.2607  -2.6672 H              1 S1                 0.0000
     34 ****         3.1348  -2.1750  -0.9089 H              1 S1                 0.0000
     35 ****         4.5979  -1.2628  -1.1909 H              1 S1                 0.0000
     36 ****         5.0640  -0.9472   1.2709 H              1 S1                 0.0000
     37 ****         3.7468  -2.1130   1.4494 H              1 S1                 0.0000
     38 ****         3.6881  -0.5861   2.3209 H              1 S1                 0.0000
     39 ****         3.3663   1.4377   1.1912 H              1 S1                 0.0000
     40 ****         4.5088   1.2667  -0.1172 H              1 S1                 0.0000
     41 ****         2.9520   2.0816  -1.6625 H              1 S1                 0.0000
     42 ****         2.2093   2.7387  -0.2722 H              1 S1                 0.0000
     43 ****         2.2903  -0.5474   0.4345 H              1 S1                 0.0000
     44 ****        -4.3952  -2.3199   0.6506 LP             1 S1                 0.0000
     45 ****        -0.7195   1.8465   1.2934 LP             1 S1                 0.0000
     46 ****         0.9786   2.1539   1.1452 LP             1 S1                 0.0000
@<TRIPOS>BOND
    1    1    2 1     
    2    1   20 1     
    3    1   21 1     
    4    1   22 1     
    5    2    3 1     
    6    2    9 1     
    7    2   23 1     
    8    3    4 1     
    9    3   24 1     
   10    3   25 1     
   11    4    8 1     
   12    4    5 1     
   13    5    6 2     
   14    5   26 1     
   15    6    7 1     
   16    6   27 1     
   17    7    8 2     
   18    7   28 1     
   19    9   10 am    
   20    9   29 1     
   21   10   11 2     
   22   10   12 am    
   23   12   19 1     
   24   12   13 1     
   25   13   14 1     
   26   13   30 1     
   27   13   31 1     
   28   14   15 1     
   29   14   32 1     
   30   14   33 1     
   31   15   16 1     
   32   15   34 1     
   33   15   35 1     
   34   16   17 1     
   35   16   18 1     
   36   16   43 1     
   37   17   36 1     
   38   17   37 1     
   39   17   38 1     
   40   18   19 1     
   41   18   39 1     
   42   18   40 1     
   43   19   41 1     
   44   19   42 1     
   45    8   44 1     
   46   11   45 1     
   47   11   46 1     
@<TRIPOS>SUBSTRUCTURE
      1 S1             1
@<TRIPOS>SET
LONE_PAIRS      STATIC     ATOMS    <user>   **** ""
3 44 45 46
DONOR_HYDROGENS      STATIC     ATOMS    <user>   **** ""
2 29 43
ATOM$BLUE        STATIC     ATOMS    COLORGROUP SYSTEM
3 44 45 46
ATOM$RED        STATIC     ATOMS    COLORGROUP SYSTEM
2 29 43
