AV-unprocessed.smi:2784|AV-procd|sdf|10728|dock1
  -GOLD-   2272015163D 1   1.00000     0.00000
 Structure written by MMmdl.
 31 32  0  0  0  0  0  0  0  0  1 V2000
  146.0212  142.9998  153.6894 C   0  0  0  0  0  0  0  0  0  0  0  0
  147.0755  142.3634  154.3934 O   0  0  0  0  0  0  0  0  0  0  0  0
  147.8920  141.5305  153.5743 C   0  0  2  0  0  0  0  0  0  0  0  0
  147.1753  140.1944  153.3520 C   0  0  0  0  0  0  0  0  0  0  0  0
  147.4717  139.3976  154.6196 C   0  0  0  0  0  0  0  0  0  0  0  0
  148.9050  139.7823  154.9975 C   0  0  0  0  0  0  0  0  0  0  0  0
  149.1834  141.1444  154.3313 C   0  0  2  0  0  0  0  0  0  0  0  0
  149.5933  142.1442  155.3154 N   0  0  0  0  0  0  0  0  0  0  0  0
  150.5367  141.9554  156.2493 C   0  0  0  0  0  0  0  0  0  0  0  0
  151.1578  140.9004  156.3836 O   0  0  0  0  0  0  0  0  0  0  0  0
  150.7078  143.0562  156.9998 N   0  0  0  0  0  0  0  0  0  0  0  0
  151.6220  143.2395  158.0676 C   0  0  0  0  0  0  0  0  0  0  0  0
  152.3692  142.2973  158.6453 N   0  0  0  0  0  0  0  0  0  0  0  0
  153.0859  142.9708  159.6240 C   0  0  0  0  0  0  0  0  0  0  0  0
  152.7281  144.2939  159.5817 C   0  0  0  0  0  0  0  0  0  0  0  0
  151.7974  144.4800  158.5950 O   0  0  0  0  0  0  0  0  0  0  0  0
  145.4308  143.5991  154.3822 H   0  0  0  0  0  0  0  0  0  0  0  0
  145.3544  142.2780  153.2179 H   0  0  0  0  0  0  0  0  0  0  0  0
  146.4127  143.6676  152.9210 H   0  0  0  0  0  0  0  0  0  0  0  0
  148.1356  142.0311  152.6351 H   0  0  0  0  0  0  0  0  0  0  0  0
  146.1070  140.2961  153.1615 H   0  0  0  0  0  0  0  0  0  0  0  0
  147.6143  139.6854  152.4929 H   0  0  0  0  0  0  0  0  0  0  0  0
  146.7884  139.7072  155.4115 H   0  0  0  0  0  0  0  0  0  0  0  0
  147.3496  138.3235  154.4777 H   0  0  0  0  0  0  0  0  0  0  0  0
  149.0293  139.8044  156.0811 H   0  0  0  0  0  0  0  0  0  0  0  0
  149.6033  139.0385  154.6117 H   0  0  0  0  0  0  0  0  0  0  0  0
  149.9898  141.0043  153.6086 H   0  0  0  0  0  0  0  0  0  0  0  0
  149.1377  143.0436  155.2686 H   0  0  0  0  0  0  0  0  0  0  0  0
  150.1249  143.8506  156.7820 H   0  0  0  0  0  0  0  0  0  0  0  0
  153.7874  142.4613  160.2679 H   0  0  0  0  0  0  0  0  0  0  0  0
  153.0214  145.1682  160.1439 H   0  0  0  0  0  0  0  0  0  0  0  0
  1  2  1  0  0  0  0
  1 17  1  0  0  0  0
  1 18  1  0  0  0  0
  1 19  1  0  0  0  0
  2  3  1  0  0  0  0
  3  7  1  0  0  0  0
  3  4  1  0  0  0  0
  3 20  1  0  0  0  0
  4  5  1  0  0  0  0
  4 21  1  0  0  0  0
  4 22  1  0  0  0  0
  5  6  1  0  0  0  0
  5 23  1  0  0  0  0
  5 24  1  0  0  0  0
  6  7  1  0  0  0  0
  6 25  1  0  0  0  0
  6 26  1  0  0  0  0
  7  8  1  0  0  0  0
  7 27  1  0  0  0  0
  8  9  1  0  0  0  0
  8 28  1  0  0  0  0
  9 10  2  0  0  0  0
  9 11  1  0  0  0  0
 11 12  1  0  0  0  0
 11 29  1  0  0  0  0
 12 16  1  0  0  0  0
 12 13  2  0  0  0  0
 13 14  1  0  0  0  0
 14 15  2  0  0  0  0
 14 30  1  0  0  0  0
 15 16  1  0  0  0  0
 15 31  1  0  0  0  0
M  END
> <s_m_source_file>
AV-unprocessed.smi

> <i_m_source_file_index>
2784

> <i_lp_mmshare_version>
43012

> <i_f3d_flags>
0

> <s_epik_input>
W0NIM11PW0NAQEhdMVtDSDJdW0NIMl1bQ0gyXVtDQEhdMVtOSF1DKD1PKVtOSF1jMm5bY0hdW2NIXW8y

> <s_epik_cmdline>
J2VwaWtfcHl0aG9uJywgJy1waCcsICc3LjAnLCAnLXRuJywgJzgnLCAnLW1hJywgJzIwMCcsICctbWV0YWxfYmluZGluZycsICctaW1hZScsICc8aW5maWxlLm1hZT4nLCAnLW9tYWUnLCAnPG91dGZpbGUubWFlPic=

> <r_lp_tautomer_probability>
0.785861

> <r_epik_Ionization_Penalty>
4.58897e-05

> <r_epik_Ionization_Penalty_Charging>
0

> <r_epik_Ionization_Penalty_Neutral>
4.58897e-05

> <r_epik_State_Penalty>
0.0380021

> <r_epik_Charging_Adjusted_Penalty>
0.0380021

> <i_epik_Tot_Q>
0

> <i_epik_Tot_abs_Q>
0

> <r_epik_Metal_State_Penalty>
0.0585611

> <b_epik_Metal_Only>
0

> <s_lp_Force_Field>
OPLS_2005

> <r_lp_Energy>
20.0171

> <b_lp_Chiralities_Consistent>
1

> <s_lp_Variant>
AV-unprocessed.smi:2784-3

> <Gold.Version>
5.8.1

> <Gold.Id.Protein>
6NUR|6NUR_protein|mol2

> <Gold.PLP.Fitness>
36.8450

> <Gold.PLP.PLP>
-31.4911

> <Gold.PLP.part.hbond>
-2.0000

> <Gold.PLP.part.metal>
0.0000

> <Gold.PLP.part.buried>
-6.4279

> <Gold.PLP.part.nonpolar>
-24.0329

> <Gold.PLP.part.repulsive>
0.4495

> <Gold.PLP.ligand.clash>
0.0000

> <Gold.PLP.ligand.torsion>
0.2710

> <Gold.PLP.Chemscore.Hbond>
1.9600

> <Gold.PLP.Chemscore.CHOScore>
0.0000

> <Gold.PLP.Chemscore.Metal>
0.0000

> <Gold.Chemscore.Hbonds>
donor molecule, donor type, donor heavy atom, donor atom, acceptor molecule, acceptor atom, score
      L1  H     8    28       P1  8028  1.00
      L1  H    11    29       P1  8028  1.00

> <Gold.PLP.Chemscore.Internal.Correction>
0.0157

> <Gold.Rescore>
     Score         DG    S(hbond)    S(metal)    S(lipo)     H(rot)  DE(clash)    DE(int)     intcor
     13.28     -16.02       1.89        0.00      65.05       1.32       0.12       2.62       ----

> <Gold.Chemscore.Fitness>
13.2824

> <Gold.Chemscore.DG>
-16.0235

> <Gold.Chemscore.ZeroCoef>
-5.4800

> <Gold.Chemscore.Hbond>
1.8923

> <Gold.Chemscore.Metal>
0.0000

> <Gold.Chemscore.Lipo>
65.0549

> <Gold.Chemscore.Internal_Hbond>
0.0000

> <Gold.Chemscore.DEClash>
0.1224

> <Gold.Chemscore.DEInternal>
2.6187

> <Gold.Chemscore.Rot>
1.3235

> <Gold.Chemscore.Internal.Correction>
   9.000000E+99

> <Gold.Chemscore.Hbonds>
donor molecule, donor type, donor heavy atom, donor atom, acceptor molecule, acceptor atom, score
      L1  H     8    28       P1  8028  0.99
      L1  H    11    29       P1  8028  0.96

> <Gold.Chemscore.Hbond.Weighted>
-6.3202

> <Gold.Chemscore.Metal.Weighted>
-0.0000

> <Gold.Chemscore.Lipo.Weighted>
-7.6114

> <Gold.Chemscore.Internal_Hbond.Weighted>
0.0000

> <Gold.Chemscore.DEClash.Weighted>
0.1224

> <Gold.Chemscore.DEInternal.Weighted>
2.6187

> <Gold.Chemscore.Rot.Weighted>
3.3882

> <Gold.Chemscore.Internal.Correction.Weighted>
   9.000000E+99

> <Gold.Protein.RotatedTorsions>
[ 6907 6896 6895 6894 ] final  -23.30 input  -60.11 | X-H torsion
[ 7974 7965 7964 7962 ] final -114.39 input  175.53 | X-H torsion
[ 8008 7997 7996 7995 ] final  -64.83 input   59.86 | X-H torsion
[ 10167 10162 10161 10158 ] final -116.49 input  -65.29 | X-H torsion
[ 10718 10713 10712 10709 ] final  -86.60 input   66.30 | X-H torsion
[ 10763 10752 10751 10750 ] final  175.60 input  -60.55 | X-H torsion
[ 11005 11000 10999 10996 ] final -133.22 input  -57.11 | X-H torsion

> <Gold.Protein.ActiveResidues>
 VAL166  LYS551  ARG553  GLY616  TRP617  ASP618  TYR619  PRO620  LYS621  CYS622 
 ASP623  PHE694  ASN695  SER759  ASP760  ASP761  ALA762  ILE779  LEU786  VAL792 
 PHE793  MET794  SER795  GLU796  ALA797  LYS798  CYS799  TRP800  GLU811  SER814 

> <Gold.Protein.RotatedAtoms>
  151.2060  135.0462  159.8891 H   0  0  0  0  0  0  0  0  0  0  0  0  # atno 6907 bound_to 6896
  152.5429  134.0797  159.8240 H   0  0  0  0  0  0  0  0  0  0  0  0  # atno 6908 bound_to 6896
  151.0944  133.5243  159.2645 H   0  0  0  0  0  0  0  0  0  0  0  0  # atno 6909 bound_to 6896
  145.1208  140.8668  143.3815 H   0  0  0  0  0  0  0  0  0  0  0  0  # atno 7974 bound_to 7965
  154.4635  140.0945  156.6957 H   0  0  0  0  0  0  0  0  0  0  0  0  # atno 8008 bound_to 7997
  155.4925  140.3471  155.4339 H   0  0  0  0  0  0  0  0  0  0  0  0  # atno 8009 bound_to 7997
  156.0914  140.1398  156.9576 H   0  0  0  0  0  0  0  0  0  0  0  0  # atno 8010 bound_to 7997
  140.0787  143.4809  152.1938 H   0  0  0  0  0  0  0  0  0  0  0  0  # atno 10167 bound_to 10162
  155.9989  130.4770  150.4739 H   0  0  0  0  0  0  0  0  0  0  0  0  # atno 10718 bound_to 10713
  154.4698  135.2770  155.1651 H   0  0  0  0  0  0  0  0  0  0  0  0  # atno 10763 bound_to 10752
  154.3404  135.6171  153.5597 H   0  0  0  0  0  0  0  0  0  0  0  0  # atno 10764 bound_to 10752
  152.9863  135.5787  154.5077 H   0  0  0  0  0  0  0  0  0  0  0  0  # atno 10765 bound_to 10752
  140.9100  134.1580  157.4397 H   0  0  0  0  0  0  0  0  0  0  0  0  # atno 11005 bound_to 11000
  145.0743  139.3008  143.5816 LP  0  0  0  0  0  0  0  0  0  0  0  0  # atno 17320 bound_to 7965
  146.3521  140.0228  142.8657 LP  0  0  0  0  0  0  0  0  0  0  0  0  # atno 17321 bound_to 7965
  139.5793  144.7502  151.3683 LP  0  0  0  0  0  0  0  0  0  0  0  0  # atno 17342 bound_to 10162
  140.7089  143.7442  150.7531 LP  0  0  0  0  0  0  0  0  0  0  0  0  # atno 17343 bound_to 10162
  157.2751  131.0595  151.2234 LP  0  0  0  0  0  0  0  0  0  0  0  0  # atno 17370 bound_to 10713
  157.3300  130.6980  149.6319 LP  0  0  0  0  0  0  0  0  0  0  0  0  # atno 17371 bound_to 10713
  139.8756  134.9932  156.5632 LP  0  0  0  0  0  0  0  0  0  0  0  0  # atno 17394 bound_to 11000
  140.8122  133.8420  155.8820 LP  0  0  0  0  0  0  0  0  0  0  0  0  # atno 17395 bound_to 11000

$$$$
