AV-unprocessed.smi:703|AV-procd|sdf|3431|dock6
  -GOLD-   22720 0413D 1   1.00000     0.00000
 Structure written by MMmdl.
 38 39  0  0  0  0  0  0  0  0  2 V2000
  145.6956  137.1549  152.4688 C   0  0  0  0  0  0  0  0  0  0  0  0
  146.4018  137.1231  153.8309 C   0  0  0  0  0  0  0  0  0  0  0  0
  147.3977  136.0294  153.9210 N   0  3  2  0  0  0  0  0  0  0  0  0
  146.8341  134.6635  153.8869 C   0  0  0  0  0  0  0  0  0  0  0  0
  147.8636  133.7689  154.5820 C   0  0  1  0  0  0  0  0  0  0  0  0
  148.9322  133.2582  153.6014 C   0  0  0  0  0  0  0  0  0  0  0  0
  148.4539  134.6913  155.6573 C   0  0  2  0  0  0  0  0  0  0  0  0
  147.7080  134.5363  156.9104 N   0  0  0  0  0  0  0  0  0  0  0  0
  148.6024  134.3835  158.3782 S   0  0  0  0  0  0  0  0  0  0  0  0
  149.3998  133.1519  158.2790 O   0  0  0  0  0  0  0  0  0  0  0  0
  149.2677  135.6701  158.6349 O   0  0  0  0  0  0  0  0  0  0  0  0
  147.2770  134.1465  159.6351 C   0  0  0  0  0  0  0  0  0  0  0  0
  147.4236  135.1780  160.7169 C   0  0  0  0  0  0  0  0  0  0  0  0
  147.6183  134.9753  162.1110 C   0  0  0  0  0  0  0  0  0  0  0  0
  147.6856  136.2437  162.6109 C   0  0  0  0  0  0  0  0  0  0  0  0
  147.5409  137.1548  161.6159 O   0  0  0  0  0  0  0  0  0  0  0  0
  147.3727  136.4646  160.4102 N   0  0  0  0  0  0  0  0  0  0  0  0
  148.2923  136.1171  155.0977 C   0  0  0  0  0  0  0  0  0  0  0  0
  145.0125  138.0024  152.4095 H   0  0  0  0  0  0  0  0  0  0  0  0
  145.1101  136.2516  152.2969 H   0  0  0  0  0  0  0  0  0  0  0  0
  146.4134  137.2516  151.6538 H   0  0  0  0  0  0  0  0  0  0  0  0
  146.9148  138.0742  153.9798 H   0  0  0  0  0  0  0  0  0  0  0  0
  145.6718  137.0308  154.6365 H   0  0  0  0  0  0  0  0  0  0  0  0
  145.9013  134.6421  154.4529 H   0  0  0  0  0  0  0  0  0  0  0  0
  146.6104  134.3422  152.8689 H   0  0  0  0  0  0  0  0  0  0  0  0
  147.3749  132.8988  155.0240 H   0  0  0  0  0  0  0  0  0  0  0  0
  149.4608  134.0803  153.1179 H   0  0  0  0  0  0  0  0  0  0  0  0
  148.4845  132.6443  152.8194 H   0  0  0  0  0  0  0  0  0  0  0  0
  149.6727  132.6448  154.1158 H   0  0  0  0  0  0  0  0  0  0  0  0
  149.5016  134.4535  155.8484 H   0  0  0  0  0  0  0  0  0  0  0  0
  147.0146  133.7923  156.8317 H   0  0  0  0  0  0  0  0  0  0  0  0
  146.3110  134.2267  159.1358 H   0  0  0  0  0  0  0  0  0  0  0  0
  147.3604  133.1391  160.0420 H   0  0  0  0  0  0  0  0  0  0  0  0
  147.7008  134.0469  162.6564 H   0  0  0  0  0  0  0  0  0  0  0  0
  147.8263  136.6433  163.6044 H   0  0  0  0  0  0  0  0  0  0  0  0
  149.2534  136.5165  154.7727 H   0  0  0  0  0  0  0  0  0  0  0  0
  147.8981  136.8031  155.8496 H   0  0  0  0  0  0  0  0  0  0  0  0
  148.0011  136.1069  153.1148 H   0  0  0  0  0  0  0  0  0  0  0  0
  1  2  1  0  0  0  0
  1 19  1  0  0  0  0
  1 20  1  0  0  0  0
  1 21  1  0  0  0  0
  2  3  1  0  0  0  0
  2 22  1  0  0  0  0
  2 23  1  0  0  0  0
  3 18  1  0  0  0  0
  3  4  1  0  0  0  0
  3 38  1  0  0  0  0
  4  5  1  0  0  0  0
  4 24  1  0  0  0  0
  4 25  1  0  0  0  0
  5  6  1  0  0  0  0
  5  7  1  0  0  0  0
  5 26  1  0  0  0  0
  6 27  1  0  0  0  0
  6 28  1  0  0  0  0
  6 29  1  0  0  0  0
  7  8  1  0  0  0  0
  7 18  1  0  0  0  0
  7 30  1  0  0  0  0
  8  9  1  0  0  0  0
  8 31  1  0  0  0  0
  9 10  2  0  0  0  0
  9 11  2  0  0  0  0
  9 12  1  0  0  0  0
 12 13  1  0  0  0  0
 12 32  1  0  0  0  0
 12 33  1  0  0  0  0
 13 17  2  0  0  0  0
 13 14  1  0  0  0  0
 14 15  2  0  0  0  0
 14 34  1  0  0  0  0
 15 16  1  0  0  0  0
 15 35  1  0  0  0  0
 16 17  1  0  0  0  0
 18 36  1  0  0  0  0
 18 37  1  0  0  0  0
M  CHG  1   3   1
M  END
> <s_m_source_file>
AV-unprocessed.smi

> <i_m_source_file_index>
703

> <i_lp_mmshare_version>
43012

> <i_f3d_flags>
0

> <s_epik_input>
W0NIM11bQ0gyXU4xW0NIMl1bQ0BASF0oW0NIM10pW0NASF0oW0NIMl0xKVtOSF1TKD1PKSg9TylbQ0gyXWMyW2NIXVtjSF1vbjI=

> <s_epik_cmdline>
J2VwaWtfcHl0aG9uJywgJy1waCcsICc3LjAnLCAnLXRuJywgJzgnLCAnLW1hJywgJzIwMCcsICctbWV0YWxfYmluZGluZycsICctaW1hZScsICc8aW5maWxlLm1hZT4nLCAnLW9tYWUnLCAnPG91dGZpbGUubWFlPic=

> <r_epik_Ionization_Penalty>
0.00324529

> <r_epik_Ionization_Penalty_Charging>
0.0019384

> <r_epik_Ionization_Penalty_Neutral>
0.00130689

> <r_epik_State_Penalty>
0.00218682

> <r_epik_Charging_Adjusted_Penalty>
0.00412522

> <i_epik_Tot_Q>
1

> <i_epik_Tot_abs_Q>
1

> <r_epik_Metal_State_Penalty>
0.310831

> <b_epik_Metal_Only>
0

> <s_lp_Force_Field>
OPLS_2005

> <r_lp_Energy>
19.6136

> <b_lp_Chiralities_Consistent>
1

> <s_lp_Variant>
AV-unprocessed.smi:703-6

> <Gold.Version>
5.8.1

> <Gold.Id.Protein>
6NUR|6NUR_protein|mol2

> <Gold.PLP.Fitness>
38.0849

> <Gold.PLP.PLP>
-25.1641

> <Gold.PLP.part.hbond>
-4.9995

> <Gold.PLP.part.metal>
0.0000

> <Gold.PLP.part.buried>
-2.7753

> <Gold.PLP.part.nonpolar>
-17.1531

> <Gold.PLP.part.repulsive>
0.0000

> <Gold.PLP.ligand.clash>
0.0000

> <Gold.PLP.ligand.torsion>
0.8238

> <Gold.PLP.Chemscore.Hbond>
4.8040

> <Gold.PLP.Chemscore.CHOScore>
0.0000

> <Gold.PLP.Chemscore.Metal>
0.0000

> <Gold.Chemscore.Hbonds>
donor molecule, donor type, donor heavy atom, donor atom, acceptor molecule, acceptor atom, score
      L1  H     3    38       P1  7948  2.00
      P1  H  6896  6907       L1    10  1.00
      P1  H  6896  6908       L1    11  0.03
      P1  H  6931  6943       L1    16  0.98
      P1  H  6934  6947       L1    16  0.76

> <Gold.PLP.Chemscore.Internal.Correction>
0.1566

> <Gold.Rescore>
     Score         DG    S(hbond)    S(metal)    S(lipo)     H(rot)  DE(clash)    DE(int)     intcor
     14.14     -16.28       2.84        0.00      53.75       1.94       0.00       2.14       ----

> <Gold.Chemscore.Fitness>
14.1369

> <Gold.Chemscore.DG>
-16.2816

> <Gold.Chemscore.ZeroCoef>
-5.4800

> <Gold.Chemscore.Hbond>
2.8383

> <Gold.Chemscore.Metal>
0.0000

> <Gold.Chemscore.Lipo>
53.7463

> <Gold.Chemscore.Internal_Hbond>
0.0000

> <Gold.Chemscore.DEClash>
0.0000

> <Gold.Chemscore.DEInternal>
2.1447

> <Gold.Chemscore.Rot>
1.9400

> <Gold.Chemscore.Internal.Correction>
   9.000000E+99

> <Gold.Chemscore.Hbonds>
donor molecule, donor type, donor heavy atom, donor atom, acceptor molecule, acceptor atom, score
      L1  H     3    38       P1  7948  0.97
      P1  H  6896  6907       L1    10  0.43
      P1  H  6896  6908       L1    11  0.02
      P1  H  6931  6943       L1    16  0.28
      P1  H  6934  6947       L1    16  0.16

> <Gold.Chemscore.Hbond.Weighted>
-9.4798

> <Gold.Chemscore.Metal.Weighted>
-0.0000

> <Gold.Chemscore.Lipo.Weighted>
-6.2883

> <Gold.Chemscore.Internal_Hbond.Weighted>
0.0000

> <Gold.Chemscore.DEClash.Weighted>
0.0000

> <Gold.Chemscore.DEInternal.Weighted>
2.1447

> <Gold.Chemscore.Rot.Weighted>
4.9665

> <Gold.Chemscore.Internal.Correction.Weighted>
   9.000000E+99

> <Gold.Protein.RotatedTorsions>
[ 6907 6896 6895 6894 ] final -138.35 input  -60.11 | X-H torsion
[ 7974 7965 7964 7962 ] final  -19.89 input  175.53 | X-H torsion
[ 8008 7997 7996 7995 ] final   91.11 input   59.86 | X-H torsion
[ 10167 10162 10161 10158 ] final  102.21 input  -65.29 | X-H torsion
[ 10718 10713 10712 10709 ] final  -36.40 input   66.30 | X-H torsion
[ 10763 10752 10751 10750 ] final  -41.09 input  -60.55 | X-H torsion
[ 11005 11000 10999 10996 ] final  -98.18 input  -57.11 | X-H torsion

> <Gold.Protein.ActiveResidues>
 VAL166  LYS551  ARG553  GLY616  TRP617  ASP618  TYR619  PRO620  LYS621  CYS622 
 ASP623  PHE694  ASN695  SER759  ASP760  ASP761  ALA762  ILE779  LEU786  VAL792 
 PHE793  MET794  SER795  GLU796  ALA797  LYS798  CYS799  TRP800  GLU811  SER814 

> <Gold.Protein.RotatedAtoms>
  151.0339  133.5765  159.2657 H   0  0  0  0  0  0  0  0  0  0  0  0  # atno 6907 bound_to 6896
  151.2837  135.0720  159.9188 H   0  0  0  0  0  0  0  0  0  0  0  0  # atno 6908 bound_to 6896
  152.5350  134.0050  159.7966 H   0  0  0  0  0  0  0  0  0  0  0  0  # atno 6909 bound_to 6896
  146.1817  140.4125  142.8492 H   0  0  0  0  0  0  0  0  0  0  0  0  # atno 7974 bound_to 7965
  156.0199  140.3341  155.7027 H   0  0  0  0  0  0  0  0  0  0  0  0  # atno 8008 bound_to 7997
  155.6038  140.0658  157.2743 H   0  0  0  0  0  0  0  0  0  0  0  0  # atno 8009 bound_to 7997
  154.4312  140.1805  156.1188 H   0  0  0  0  0  0  0  0  0  0  0  0  # atno 8010 bound_to 7997
  139.7370  144.7021  151.0634 H   0  0  0  0  0  0  0  0  0  0  0  0  # atno 10167 bound_to 10162
  156.3273  130.4274  149.7905 H   0  0  0  0  0  0  0  0  0  0  0  0  # atno 10718 bound_to 10713
  153.9567  135.6744  153.4744 H   0  0  0  0  0  0  0  0  0  0  0  0  # atno 10763 bound_to 10752
  153.0858  135.4900  154.8590 H   0  0  0  0  0  0  0  0  0  0  0  0  # atno 10764 bound_to 10752
  154.7295  135.3135  154.8874 H   0  0  0  0  0  0  0  0  0  0  0  0  # atno 10765 bound_to 10752
  141.1354  133.8226  157.0805 H   0  0  0  0  0  0  0  0  0  0  0  0  # atno 11005 bound_to 11000
  144.8327  140.6733  143.6280 LP  0  0  0  0  0  0  0  0  0  0  0  0  # atno 17320 bound_to 7965
  145.4055  139.1589  143.4154 LP  0  0  0  0  0  0  0  0  0  0  0  0  # atno 17321 bound_to 7965
  140.7780  143.4972  150.9818 LP  0  0  0  0  0  0  0  0  0  0  0  0  # atno 17342 bound_to 10162
  139.8660  143.7253  152.3170 LP  0  0  0  0  0  0  0  0  0  0  0  0  # atno 17343 bound_to 10162
  156.5190  130.8206  151.3197 LP  0  0  0  0  0  0  0  0  0  0  0  0  # atno 17370 bound_to 10713
  157.7423  130.9889  150.2511 LP  0  0  0  0  0  0  0  0  0  0  0  0  # atno 17371 bound_to 10713
  140.0455  134.9833  157.1040 LP  0  0  0  0  0  0  0  0  0  0  0  0  # atno 17394 bound_to 11000
  140.4070  134.2022  155.7163 LP  0  0  0  0  0  0  0  0  0  0  0  0  # atno 17395 bound_to 11000

$$$$
