AV-unprocessed.smi:1715|AV-procd|sdf|6915|dock5
  -GOLD-   22720 8123D 1   1.00000     0.00000
 Structure written by MMmdl.
 41 42  0  0  0  0  0  0  0  0  2 V2000
  144.8278  133.2375  151.3113 C   0  0  0  0  0  0  0  0  0  0  0  0
  145.9118  132.1976  151.6134 C   0  0  1  0  0  0  0  0  0  0  0  0
  147.0756  132.7967  152.4232 C   0  0  0  0  0  0  0  0  0  0  0  0
  148.0592  131.7464  152.7740 N   0  3  1  0  0  0  0  0  0  0  0  0
  149.2500  132.2985  153.4663 C   0  0  0  0  0  0  0  0  0  0  0  0
  148.8760  133.2971  154.5793 C   0  0  0  0  0  0  0  0  0  0  0  0
  149.1488  134.6727  154.1799 N   0  0  0  0  0  0  0  0  0  0  0  0
  149.9402  135.5240  154.8479 C   0  0  0  0  0  0  0  0  0  0  0  0
  150.5258  135.2300  155.8903 O   0  0  0  0  0  0  0  0  0  0  0  0
  150.0017  136.7173  154.2351 N   0  0  0  0  0  0  0  0  0  0  0  0
  150.7231  137.8638  154.6539 C   0  0  0  0  0  0  0  0  0  0  0  0
  150.4151  139.1977  154.2715 C   0  0  0  0  0  0  0  0  0  0  0  0
  151.2579  140.0636  154.8158 N   0  0  0  0  0  0  0  0  0  0  0  0
  152.1003  139.2951  155.5428 N   0  0  0  0  0  0  0  0  0  0  0  0
  151.8128  137.9497  155.4741 C   0  0  0  0  0  0  0  0  0  0  0  0
  147.3935  130.6494  153.5194 C   0  0  0  0  0  0  0  0  0  0  0  0
  146.1959  130.0870  152.7287 C   0  0  2  0  0  0  0  0  0  0  0  0
  146.6072  129.2205  151.5249 C   0  0  0  0  0  0  0  0  0  0  0  0
  145.3093  131.1426  152.3582 O   0  0  0  0  0  0  0  0  0  0  0  0
  152.8585  139.6986  156.0745 H   0  0  0  0  0  0  0  0  0  0  0  0
  145.2295  134.0668  150.7286 H   0  0  0  0  0  0  0  0  0  0  0  0
  144.4057  133.6467  152.2297 H   0  0  0  0  0  0  0  0  0  0  0  0
  144.0122  132.7944  150.7393 H   0  0  0  0  0  0  0  0  0  0  0  0
  146.2849  131.8128  150.6641 H   0  0  0  0  0  0  0  0  0  0  0  0
  147.5616  133.5782  151.8376 H   0  0  0  0  0  0  0  0  0  0  0  0
  146.7032  133.2654  153.3359 H   0  0  0  0  0  0  0  0  0  0  0  0
  149.8089  131.4794  153.9215 H   0  0  0  0  0  0  0  0  0  0  0  0
  149.9165  132.7558  152.7335 H   0  0  0  0  0  0  0  0  0  0  0  0
  147.8254  133.2123  154.8577 H   0  0  0  0  0  0  0  0  0  0  0  0
  149.4544  133.0850  155.4787 H   0  0  0  0  0  0  0  0  0  0  0  0
  148.7093  134.9982  153.3311 H   0  0  0  0  0  0  0  0  0  0  0  0
  149.4755  136.8189  153.3797 H   0  0  0  0  0  0  0  0  0  0  0  0
  149.6242  139.5590  153.6306 H   0  0  0  0  0  0  0  0  0  0  0  0
  152.3940  137.2068  155.9999 H   0  0  0  0  0  0  0  0  0  0  0  0
  148.0936  129.8438  153.7372 H   0  0  0  0  0  0  0  0  0  0  0  0
  147.0481  131.0321  154.4812 H   0  0  0  0  0  0  0  0  0  0  0  0
  145.6295  129.4413  153.4006 H   0  0  0  0  0  0  0  0  0  0  0  0
  147.1693  128.3461  151.8535 H   0  0  0  0  0  0  0  0  0  0  0  0
  147.2366  129.7618  150.8190 H   0  0  0  0  0  0  0  0  0  0  0  0
  145.7300  128.8631  150.9855 H   0  0  0  0  0  0  0  0  0  0  0  0
  148.3852  131.3589  151.8999 H   0  0  0  0  0  0  0  0  0  0  0  0
  1  2  1  0  0  0  0
  1 21  1  0  0  0  0
  1 22  1  0  0  0  0
  1 23  1  0  0  0  0
  2 19  1  0  0  0  0
  2  3  1  0  0  0  0
  2 24  1  0  0  0  0
  3  4  1  0  0  0  0
  3 25  1  0  0  0  0
  3 26  1  0  0  0  0
  4  5  1  0  0  0  0
  4 16  1  0  0  0  0
  4 41  1  0  0  0  0
  5  6  1  0  0  0  0
  5 27  1  0  0  0  0
  5 28  1  0  0  0  0
  6  7  1  0  0  0  0
  6 29  1  0  0  0  0
  6 30  1  0  0  0  0
  7  8  1  0  0  0  0
  7 31  1  0  0  0  0
  8  9  2  0  0  0  0
  8 10  1  0  0  0  0
 10 11  1  0  0  0  0
 10 32  1  0  0  0  0
 11 15  2  0  0  0  0
 11 12  1  0  0  0  0
 12 13  2  0  0  0  0
 12 33  1  0  0  0  0
 13 14  1  0  0  0  0
 14 20  1  0  0  0  0
 14 15  1  0  0  0  0
 15 34  1  0  0  0  0
 16 17  1  0  0  0  0
 16 35  1  0  0  0  0
 16 36  1  0  0  0  0
 17 18  1  0  0  0  0
 17 19  1  0  0  0  0
 17 37  1  0  0  0  0
 18 38  1  0  0  0  0
 18 39  1  0  0  0  0
 18 40  1  0  0  0  0
M  CHG  1   4   1
M  END
> <s_m_source_file>
AV-unprocessed.smi

> <i_m_source_file_index>
1715

> <i_lp_mmshare_version>
43012

> <i_f3d_flags>
0

> <s_epik_input>
W0NIM11bQ0BASF0xW0NIMl1OKFtDSDJdW0NASF0oTzEpW0NIM10pW0NIMl1bQ0gyXVtOSF1DKD1PKVtOSF1jMltjSF1uW25IXVtjSF0y

> <s_epik_cmdline>
J2VwaWtfcHl0aG9uJywgJy1waCcsICc3LjAnLCAnLXRuJywgJzgnLCAnLW1hJywgJzIwMCcsICctbWV0YWxfYmluZGluZycsICctaW1hZScsICc8aW5maWxlLm1hZT4nLCAnLW9tYWUnLCAnPG91dGZpbGUubWFlPic=

> <r_lp_tautomer_probability>
0.5

> <r_epik_Ionization_Penalty>
0.646007

> <r_epik_Ionization_Penalty_Charging>
0.645968

> <r_epik_Ionization_Penalty_Neutral>
3.91671e-05

> <r_epik_State_Penalty>
0.664063

> <r_epik_Charging_Adjusted_Penalty>
1.31003

> <i_epik_Tot_Q>
1

> <i_epik_Tot_abs_Q>
1

> <r_epik_Metal_State_Penalty>
0.664064

> <b_epik_Metal_Only>
0

> <s_lp_Force_Field>
OPLS_2005

> <r_lp_Energy>
20.0624

> <b_lp_Chiralities_Consistent>
1

> <s_lp_Variant>
AV-unprocessed.smi:1715-7

> <Gold.Version>
5.8.1

> <Gold.Id.Protein>
6NUR|6NUR_protein|mol2

> <Gold.PLP.Fitness>
44.8133

> <Gold.PLP.PLP>
-31.6349

> <Gold.PLP.part.hbond>
-4.8667

> <Gold.PLP.part.metal>
0.0000

> <Gold.PLP.part.buried>
-3.3547

> <Gold.PLP.part.nonpolar>
-23.4655

> <Gold.PLP.part.repulsive>
0.5458

> <Gold.PLP.ligand.clash>
0.0000

> <Gold.PLP.ligand.torsion>
0.5879

> <Gold.PLP.Chemscore.Hbond>
3.7820

> <Gold.PLP.Chemscore.CHOScore>
0.9962

> <Gold.PLP.Chemscore.Metal>
0.0000

> <Gold.Chemscore.Hbonds>
donor molecule, donor type, donor heavy atom, donor atom, acceptor molecule, acceptor atom, score
      L1  H     4    41       P1 10747  1.00
      L1  H     7    31       P1  7948  0.83
      L1  H    10    32       P1  7948  1.00
      P1  H  7989  7998       L1    13  0.95
      L1  C    12    33       P1  7957  1.00

> <Gold.PLP.Chemscore.Internal.Correction>
0.0195

> <Gold.Rescore>
     Score         DG    S(hbond)    S(metal)    S(lipo)     H(rot)  DE(clash)    DE(int)     intcor
     17.59     -19.25       2.80        0.00      74.31       1.67       0.23       1.43       ----

> <Gold.Chemscore.Fitness>
17.5923

> <Gold.Chemscore.DG>
-19.2458

> <Gold.Chemscore.ZeroCoef>
-5.4800

> <Gold.Chemscore.Hbond>
2.7961

> <Gold.Chemscore.Metal>
0.0000

> <Gold.Chemscore.Lipo>
74.3122

> <Gold.Chemscore.Internal_Hbond>
0.0000

> <Gold.Chemscore.DEClash>
0.2268

> <Gold.Chemscore.DEInternal>
1.4267

> <Gold.Chemscore.Rot>
1.6671

> <Gold.Chemscore.Internal.Correction>
   9.000000E+99

> <Gold.Chemscore.Hbonds>
donor molecule, donor type, donor heavy atom, donor atom, acceptor molecule, acceptor atom, score
      L1  H     4    41       P1 10747  1.00
      L1  H     7    31       P1  7948  0.50
      L1  H    10    32       P1  7948  0.77
      P1  H  7989  7998       L1    13  0.21

> <Gold.Chemscore.Hbond.Weighted>
-9.3389

> <Gold.Chemscore.Metal.Weighted>
-0.0000

> <Gold.Chemscore.Lipo.Weighted>
-8.6945

> <Gold.Chemscore.Internal_Hbond.Weighted>
0.0000

> <Gold.Chemscore.DEClash.Weighted>
0.2268

> <Gold.Chemscore.DEInternal.Weighted>
1.4267

> <Gold.Chemscore.Rot.Weighted>
4.2677

> <Gold.Chemscore.Internal.Correction.Weighted>
   9.000000E+99

> <Gold.Protein.RotatedTorsions>
[ 6907 6896 6895 6894 ] final  -26.95 input  -60.11 | X-H torsion
[ 7974 7965 7964 7962 ] final   64.06 input  175.53 | X-H torsion
[ 8008 7997 7996 7995 ] final -129.21 input   59.86 | X-H torsion
[ 10167 10162 10161 10158 ] final -123.39 input  -65.29 | X-H torsion
[ 10718 10713 10712 10709 ] final   56.98 input   66.30 | X-H torsion
[ 10763 10752 10751 10750 ] final   66.66 input  -60.55 | X-H torsion
[ 11005 11000 10999 10996 ] final -142.21 input  -57.11 | X-H torsion

> <Gold.Protein.ActiveResidues>
 VAL166  LYS551  ARG553  GLY616  TRP617  ASP618  TYR619  PRO620  LYS621  CYS622 
 ASP623  PHE694  ASN695  SER759  ASP760  ASP761  ALA762  ILE779  LEU786  VAL792 
 PHE793  MET794  SER795  GLU796  ALA797  LYS798  CYS799  TRP800  GLU811  SER814 

> <Gold.Protein.RotatedAtoms>
  151.1538  135.0240  159.8679 H   0  0  0  0  0  0  0  0  0  0  0  0  # atno 6907 bound_to 6896
  152.5452  134.1358  159.8468 H   0  0  0  0  0  0  0  0  0  0  0  0  # atno 6908 bound_to 6896
  151.1446  133.4902  159.2629 H   0  0  0  0  0  0  0  0  0  0  0  0  # atno 6909 bound_to 6896
  145.8546  139.3275  143.0855 H   0  0  0  0  0  0  0  0  0  0  0  0  # atno 7974 bound_to 7965
  155.2755  140.0442  157.3011 H   0  0  0  0  0  0  0  0  0  0  0  0  # atno 8008 bound_to 7997
  154.5628  140.2351  155.8278 H   0  0  0  0  0  0  0  0  0  0  0  0  # atno 8009 bound_to 7997
  156.2061  140.3012  155.9637 H   0  0  0  0  0  0  0  0  0  0  0  0  # atno 8010 bound_to 7997
  140.0040  143.5510  152.2291 H   0  0  0  0  0  0  0  0  0  0  0  0  # atno 10167 bound_to 10162
  157.5476  130.8742  149.8915 H   0  0  0  0  0  0  0  0  0  0  0  0  # atno 10718 bound_to 10713
  153.0150  135.5312  154.6859 H   0  0  0  0  0  0  0  0  0  0  0  0  # atno 10763 bound_to 10752
  154.6007  135.2868  155.0541 H   0  0  0  0  0  0  0  0  0  0  0  0  # atno 10764 bound_to 10752
  154.1599  135.6549  153.5036 H   0  0  0  0  0  0  0  0  0  0  0  0  # atno 10765 bound_to 10752
  140.8248  134.2588  157.4884 H   0  0  0  0  0  0  0  0  0  0  0  0  # atno 11005 bound_to 11000
  145.9319  140.9042  143.0352 LP  0  0  0  0  0  0  0  0  0  0  0  0  # atno 17320 bound_to 7965
  144.6728  140.1429  143.7436 LP  0  0  0  0  0  0  0  0  0  0  0  0  # atno 17321 bound_to 7965
  139.6251  144.7636  151.2656 LP  0  0  0  0  0  0  0  0  0  0  0  0  # atno 17342 bound_to 10162
  140.7407  143.6578  150.8191 LP  0  0  0  0  0  0  0  0  0  0  0  0  # atno 17343 bound_to 10162
  156.0549  130.3710  150.1114 LP  0  0  0  0  0  0  0  0  0  0  0  0  # atno 17370 bound_to 10713
  156.9289  130.9707  151.3536 LP  0  0  0  0  0  0  0  0  0  0  0  0  # atno 17371 bound_to 10713
  139.8707  134.9554  156.4207 LP  0  0  0  0  0  0  0  0  0  0  0  0  # atno 17394 bound_to 11000
  140.9061  133.7745  155.9737 LP  0  0  0  0  0  0  0  0  0  0  0  0  # atno 17395 bound_to 11000

$$$$
