AV-unprocessed.smi:1432|AV-procd|sdf|5834|dock1
  -GOLD-   22720 5493D 1   1.00000     0.00000
 Structure written by MMmdl.
 47 48  0  0  0  0  0  0  0  0  2 V2000
  146.6308  138.6215  151.0548 C   0  0  0  0  0  0  0  0  0  0  0  0
  146.1903  137.5943  152.1189 C   0  0  1  0  0  0  0  0  0  0  0  0
  145.8124  136.2776  151.4005 C   0  0  0  0  0  0  0  0  0  0  0  0
  145.3865  135.1783  152.3779 C   0  0  0  0  0  0  0  0  0  0  0  0
  146.4856  134.9688  153.4197 C   0  0  0  0  0  0  0  0  0  0  0  0
  146.7960  136.2921  154.1301 C   0  0  0  0  0  0  0  0  0  0  0  0
  147.2322  137.3423  153.1673 N   0  3  2  0  0  0  0  0  0  0  0  0
  147.7217  138.5579  153.8817 C   0  0  0  0  0  0  0  0  0  0  0  0
  149.1380  138.3902  154.4750 C   0  0  0  0  0  0  0  0  0  0  0  0
  149.7659  139.6795  154.7538 N   0  0  0  0  0  0  0  0  0  0  0  0
  150.1335  140.1195  155.9670 C   0  0  0  0  0  0  0  0  0  0  0  0
  149.9080  139.5027  157.0081 O   0  0  0  0  0  0  0  0  0  0  0  0
  150.8852  141.4555  156.0082 C   0  0  0  0  0  0  0  0  0  0  0  0
  151.4732  141.7214  157.3323 N   0  0  0  0  0  0  0  0  0  0  0  0
  151.1293  142.9341  157.9616 C   0  0  0  0  0  0  0  0  0  0  0  0
  151.5835  143.2806  159.1816 C   0  0  0  0  0  0  0  0  0  0  0  0
  151.2371  144.6173  159.8189 C   0  0  0  0  0  0  0  0  0  0  0  0
  149.9163  144.7768  159.9055 F   0  0  0  0  0  0  0  0  0  0  0  0
  151.7525  144.7182  161.0447 F   0  0  0  0  0  0  0  0  0  0  0  0
  151.7267  145.6111  159.0791 F   0  0  0  0  0  0  0  0  0  0  0  0
  152.4895  142.3479  159.8221 C   0  0  0  0  0  0  0  0  0  0  0  0
  152.8331  141.1862  159.2322 C   0  0  0  0  0  0  0  0  0  0  0  0
  152.3118  140.8128  157.9160 C   0  0  0  0  0  0  0  0  0  0  0  0
  152.6060  139.7477  157.3720 O   0  0  0  0  0  0  0  0  0  0  0  0
  145.9366  138.6313  150.2140 H   0  0  0  0  0  0  0  0  0  0  0  0
  147.6191  138.3877  150.6582 H   0  0  0  0  0  0  0  0  0  0  0  0
  146.6468  139.6407  151.4383 H   0  0  0  0  0  0  0  0  0  0  0  0
  145.2991  137.9809  152.6164 H   0  0  0  0  0  0  0  0  0  0  0  0
  145.0037  136.4574  150.6911 H   0  0  0  0  0  0  0  0  0  0  0  0
  146.6591  135.9224  150.8119 H   0  0  0  0  0  0  0  0  0  0  0  0
  144.4544  135.4590  152.8703 H   0  0  0  0  0  0  0  0  0  0  0  0
  145.1914  134.2492  151.8412 H   0  0  0  0  0  0  0  0  0  0  0  0
  146.1730  134.2181  154.1463 H   0  0  0  0  0  0  0  0  0  0  0  0
  147.3879  134.5844  152.9411 H   0  0  0  0  0  0  0  0  0  0  0  0
  145.9153  136.6402  154.6723 H   0  0  0  0  0  0  0  0  0  0  0  0
  147.5653  136.1110  154.8788 H   0  0  0  0  0  0  0  0  0  0  0  0
  147.7822  139.4092  153.2092 H   0  0  0  0  0  0  0  0  0  0  0  0
  147.0117  138.8436  154.6590 H   0  0  0  0  0  0  0  0  0  0  0  0
  149.0700  137.8413  155.4144 H   0  0  0  0  0  0  0  0  0  0  0  0
  149.7680  137.7806  153.8263 H   0  0  0  0  0  0  0  0  0  0  0  0
  149.9761  140.2639  153.9572 H   0  0  0  0  0  0  0  0  0  0  0  0
  151.6694  141.4691  155.2483 H   0  0  0  0  0  0  0  0  0  0  0  0
  150.1899  142.2449  155.7196 H   0  0  0  0  0  0  0  0  0  0  0  0
  150.4653  143.5662  157.3898 H   0  0  0  0  0  0  0  0  0  0  0  0
  152.8960  142.5826  160.7949 H   0  0  0  0  0  0  0  0  0  0  0  0
  153.5082  140.5138  159.7408 H   0  0  0  0  0  0  0  0  0  0  0  0
  148.0320  136.9699  152.6746 H   0  0  0  0  0  0  0  0  0  0  0  0
  1  2  1  0  0  0  0
  1 25  1  0  0  0  0
  1 26  1  0  0  0  0
  1 27  1  0  0  0  0
  2  7  1  0  0  0  0
  2  3  1  0  0  0  0
  2 28  1  0  0  0  0
  3  4  1  0  0  0  0
  3 29  1  0  0  0  0
  3 30  1  0  0  0  0
  4  5  1  0  0  0  0
  4 31  1  0  0  0  0
  4 32  1  0  0  0  0
  5  6  1  0  0  0  0
  5 33  1  0  0  0  0
  5 34  1  0  0  0  0
  6  7  1  0  0  0  0
  6 35  1  0  0  0  0
  6 36  1  0  0  0  0
  7  8  1  0  0  0  0
  7 47  1  0  0  0  0
  8  9  1  0  0  0  0
  8 37  1  0  0  0  0
  8 38  1  0  0  0  0
  9 10  1  0  0  0  0
  9 39  1  0  0  0  0
  9 40  1  0  0  0  0
 10 11  1  0  0  0  0
 10 41  1  0  0  0  0
 11 12  2  0  0  0  0
 11 13  1  0  0  0  0
 13 14  1  0  0  0  0
 13 42  1  0  0  0  0
 13 43  1  0  0  0  0
 14 23  1  0  0  0  0
 14 15  1  0  0  0  0
 15 16  2  0  0  0  0
 15 44  1  0  0  0  0
 16 17  1  0  0  0  0
 16 21  1  0  0  0  0
 17 18  1  0  0  0  0
 17 19  1  0  0  0  0
 17 20  1  0  0  0  0
 21 22  2  0  0  0  0
 21 45  1  0  0  0  0
 22 23  1  0  0  0  0
 22 46  1  0  0  0  0
 23 24  2  0  0  0  0
M  CHG  1   7   1
M  END
> <s_m_source_file>
AV-unprocessed.smi

> <i_m_source_file_index>
1432

> <i_lp_mmshare_version>
43012

> <i_f3d_flags>
0

> <s_epik_input>
W0NIM11bQ0BASF0xW0NIMl1bQ0gyXVtDSDJdW0NIMl1OMVtDSDJdW0NIMl1bTkhdQyg9TylbQ0gyXW4yW2NIXWMoQyhGKShGKUYpW2NIXVtjSF1jMj1P

> <s_epik_cmdline>
J2VwaWtfcHl0aG9uJywgJy1waCcsICc3LjAnLCAnLXRuJywgJzgnLCAnLW1hJywgJzIwMCcsICctbWV0YWxfYmluZGluZycsICctaW1hZScsICc8aW5maWxlLm1hZT4nLCAnLW9tYWUnLCAnPG91dGZpbGUubWFlPic=

> <r_lp_tautomer_probability>
1

> <r_epik_Ionization_Penalty>
0.00237222

> <r_epik_Ionization_Penalty_Charging>
0.00237213

> <r_epik_Ionization_Penalty_Neutral>
8.2065e-08

> <r_epik_State_Penalty>
0.00163922

> <r_epik_Charging_Adjusted_Penalty>
0.00401135

> <i_epik_Tot_Q>
1

> <i_epik_Tot_abs_Q>
1

> <r_epik_Metal_State_Penalty>
-0

> <b_epik_Metal_Only>
0

> <s_lp_Force_Field>
OPLS_2005

> <r_lp_Energy>
36.6546

> <b_lp_Chiralities_Consistent>
1

> <s_lp_Variant>
AV-unprocessed.smi:1432-4

> <Gold.Version>
5.8.1

> <Gold.Id.Protein>
6NUR|6NUR_protein|mol2

> <Gold.PLP.Fitness>
54.8808

> <Gold.PLP.PLP>
-44.4401

> <Gold.PLP.part.hbond>
-2.0000

> <Gold.PLP.part.metal>
0.0000

> <Gold.PLP.part.buried>
-0.5219

> <Gold.PLP.part.nonpolar>
-42.4187

> <Gold.PLP.part.repulsive>
0.1265

> <Gold.PLP.ligand.clash>
0.0000

> <Gold.PLP.ligand.torsion>
0.5064

> <Gold.PLP.Chemscore.Hbond>
3.0000

> <Gold.PLP.Chemscore.CHOScore>
0.7587

> <Gold.PLP.Chemscore.Metal>
0.0000

> <Gold.Chemscore.Hbonds>
donor molecule, donor type, donor heavy atom, donor atom, acceptor molecule, acceptor atom, score
      L1  H     7    47       P1  7948  1.50
      P1  H  7997  8008       L1    24  1.00
      L1  C    15    44       P1  8028  0.84

> <Gold.PLP.Chemscore.Internal.Correction>
0.1773

> <Gold.Rescore>
     Score         DG    S(hbond)    S(metal)    S(lipo)     H(rot)  DE(clash)    DE(int)     intcor
     13.82     -18.29       1.88        0.00     101.21       2.08       0.79       3.68       ----

> <Gold.Chemscore.Fitness>
13.8167

> <Gold.Chemscore.DG>
-18.2872

> <Gold.Chemscore.ZeroCoef>
-5.4800

> <Gold.Chemscore.Hbond>
1.8803

> <Gold.Chemscore.Metal>
0.0000

> <Gold.Chemscore.Lipo>
101.2131

> <Gold.Chemscore.Internal_Hbond>
0.0000

> <Gold.Chemscore.DEClash>
0.7938

> <Gold.Chemscore.DEInternal>
3.6768

> <Gold.Chemscore.Rot>
2.0762

> <Gold.Chemscore.Internal.Correction>
   9.000000E+99

> <Gold.Chemscore.Hbonds>
donor molecule, donor type, donor heavy atom, donor atom, acceptor molecule, acceptor atom, score
      L1  H     7    47       P1  7948  0.75
      P1  H  7997  8008       L1    24  0.39

> <Gold.Chemscore.Hbond.Weighted>
-6.2803

> <Gold.Chemscore.Metal.Weighted>
-0.0000

> <Gold.Chemscore.Lipo.Weighted>
-11.8419

> <Gold.Chemscore.Internal_Hbond.Weighted>
0.0000

> <Gold.Chemscore.DEClash.Weighted>
0.7938

> <Gold.Chemscore.DEInternal.Weighted>
3.6768

> <Gold.Chemscore.Rot.Weighted>
5.3150

> <Gold.Chemscore.Internal.Correction.Weighted>
   9.000000E+99

> <Gold.Protein.RotatedTorsions>
[ 6907 6896 6895 6894 ] final  147.48 input  -60.11 | X-H torsion
[ 7974 7965 7964 7962 ] final -107.30 input  175.53 | X-H torsion
[ 8008 7997 7996 7995 ] final  -57.60 input   59.86 | X-H torsion
[ 10167 10162 10161 10158 ] final -148.93 input  -65.29 | X-H torsion
[ 10718 10713 10712 10709 ] final -158.43 input   66.30 | X-H torsion
[ 10763 10752 10751 10750 ] final  157.07 input  -60.55 | X-H torsion
[ 11005 11000 10999 10996 ] final  106.97 input  -57.11 | X-H torsion

> <Gold.Protein.ActiveResidues>
 VAL166  LYS551  ARG553  GLY616  TRP617  ASP618  TYR619  PRO620  LYS621  CYS622 
 ASP623  PHE694  ASN695  SER759  ASP760  ASP761  ALA762  ILE779  LEU786  VAL792 
 PHE793  MET794  SER795  GLU796  ALA797  LYS798  CYS799  TRP800  GLU811  SER814 

> <Gold.Protein.RotatedAtoms>
  152.1542  133.4541  159.4828 H   0  0  0  0  0  0  0  0  0  0  0  0  # atno 6907 bound_to 6896
  150.6899  134.2152  159.4384 H   0  0  0  0  0  0  0  0  0  0  0  0  # atno 6908 bound_to 6896
  152.0050  134.9907  160.0617 H   0  0  0  0  0  0  0  0  0  0  0  0  # atno 6909 bound_to 6896
  145.2070  140.9080  143.3336 H   0  0  0  0  0  0  0  0  0  0  0  0  # atno 7974 bound_to 7965
  154.4274  140.1103  156.5824 H   0  0  0  0  0  0  0  0  0  0  0  0  # atno 8008 bound_to 7997
  155.6099  140.3494  155.4600 H   0  0  0  0  0  0  0  0  0  0  0  0  # atno 8009 bound_to 7997
  156.0108  140.1218  157.0445 H   0  0  0  0  0  0  0  0  0  0  0  0  # atno 8010 bound_to 7997
  139.7488  143.8550  152.2581 H   0  0  0  0  0  0  0  0  0  0  0  0  # atno 10167 bound_to 10162
  156.5540  130.8618  151.2789 H   0  0  0  0  0  0  0  0  0  0  0  0  # atno 10718 bound_to 10713
  154.1945  135.2793  155.3011 H   0  0  0  0  0  0  0  0  0  0  0  0  # atno 10763 bound_to 10752
  154.5903  135.5562  153.7275 H   0  0  0  0  0  0  0  0  0  0  0  0  # atno 10764 bound_to 10752
  153.0104  135.6366  154.2083 H   0  0  0  0  0  0  0  0  0  0  0  0  # atno 10765 bound_to 10752
  139.8821  134.9386  156.5748 H   0  0  0  0  0  0  0  0  0  0  0  0  # atno 11005 bound_to 11000
  144.9892  139.3706  143.6223 LP  0  0  0  0  0  0  0  0  0  0  0  0  # atno 17320 bound_to 7965
  146.3405  139.9067  142.8786 LP  0  0  0  0  0  0  0  0  0  0  0  0  # atno 17321 bound_to 7965
  139.8522  144.7159  150.9200 LP  0  0  0  0  0  0  0  0  0  0  0  0  # atno 17342 bound_to 10162
  140.7795  143.3889  151.1344 LP  0  0  0  0  0  0  0  0  0  0  0  0  # atno 17343 bound_to 10162
  157.7382  130.9809  150.2237 LP  0  0  0  0  0  0  0  0  0  0  0  0  # atno 17370 bound_to 10713
  156.2859  130.3739  149.7889 LP  0  0  0  0  0  0  0  0  0  0  0  0  # atno 17371 bound_to 10713
  140.8071  133.8458  155.8777 LP  0  0  0  0  0  0  0  0  0  0  0  0  # atno 17394 bound_to 11000
  140.9540  134.1742  157.4706 LP  0  0  0  0  0  0  0  0  0  0  0  0  # atno 17395 bound_to 11000

$$$$
