AV-unprocessed.smi:861|AV-procd|sdf|3971|dock2
  -GOLD-   22720 1443D 1   1.00000     0.00000
 Structure written by MMmdl.
 43 44  0  0  0  0  0  0  0  0  1 V2000
  152.4303  143.1913  161.4823 C   0  0  0  0  0  0  0  0  0  0  0  0
  152.5920  142.9399  159.9733 C   0  0  0  0  0  0  0  0  0  0  0  0
  152.0817  144.1499  159.1755 C   0  0  0  0  0  0  0  0  0  0  0  0
  151.8924  141.6457  159.5087 C   0  0  0  0  0  0  0  0  0  0  0  0
  151.8411  141.4794  157.9767 C   0  0  0  0  0  0  0  0  0  0  0  0
  151.3686  140.1763  157.5085 N   0  0  0  0  0  0  0  0  0  0  0  0
  150.9603  140.2449  156.1097 C   0  0  0  0  0  0  0  0  0  0  0  0
  150.4529  138.8894  155.5922 C   0  0  0  0  0  0  0  0  0  0  0  0
  149.3807  138.4441  156.4148 O   0  0  0  0  0  0  0  0  0  0  0  0
  149.7487  138.2993  157.7845 C   0  0  2  0  0  0  0  0  0  0  0  0
  148.5294  137.8098  158.5847 C   0  0  0  0  0  0  0  0  0  0  0  0
  148.7515  136.5031  159.1936 N   0  0  0  0  0  0  0  0  0  0  0  0
  148.1063  136.1372  160.3840 C   0  0  0  0  0  0  0  0  0  0  0  0
  148.0127  134.7699  160.7124 C   0  0  0  0  0  0  0  0  0  0  0  0
  147.3654  134.4289  161.9124 C   0  0  0  0  0  0  0  0  0  0  0  0
  146.8616  135.4833  162.6957 C   0  0  0  0  0  0  0  0  0  0  0  0
  146.9823  136.7804  162.3347 N   0  0  0  0  0  0  0  0  0  0  0  0
  147.6002  137.1024  161.1926 N   0  0  0  0  0  0  0  0  0  0  0  0
  150.2515  139.6630  158.3001 C   0  0  0  0  0  0  0  0  0  0  0  0
  151.3785  143.2591  161.7625 H   0  0  0  0  0  0  0  0  0  0  0  0
  152.9110  144.1251  161.7756 H   0  0  0  0  0  0  0  0  0  0  0  0
  152.8847  142.3995  162.0769 H   0  0  0  0  0  0  0  0  0  0  0  0
  153.6576  142.8418  159.7622 H   0  0  0  0  0  0  0  0  0  0  0  0
  151.0133  144.3038  159.3303 H   0  0  0  0  0  0  0  0  0  0  0  0
  152.2474  144.0165  158.1060 H   0  0  0  0  0  0  0  0  0  0  0  0
  152.5966  145.0637  159.4735 H   0  0  0  0  0  0  0  0  0  0  0  0
  152.3841  140.7809  159.9564 H   0  0  0  0  0  0  0  0  0  0  0  0
  150.8762  141.6531  159.9017 H   0  0  0  0  0  0  0  0  0  0  0  0
  151.2267  142.2703  157.5441 H   0  0  0  0  0  0  0  0  0  0  0  0
  152.8467  141.6357  157.5869 H   0  0  0  0  0  0  0  0  0  0  0  0
  150.1734  140.9913  155.9900 H   0  0  0  0  0  0  0  0  0  0  0  0
  151.7980  140.5736  155.4936 H   0  0  0  0  0  0  0  0  0  0  0  0
  150.0986  138.9831  154.5655 H   0  0  0  0  0  0  0  0  0  0  0  0
  151.2542  138.1492  155.5901 H   0  0  0  0  0  0  0  0  0  0  0  0
  150.5536  137.5663  157.8689 H   0  0  0  0  0  0  0  0  0  0  0  0
  148.3375  138.5061  159.4015 H   0  0  0  0  0  0  0  0  0  0  0  0
  147.6296  137.8170  157.9686 H   0  0  0  0  0  0  0  0  0  0  0  0
  149.1346  135.7730  158.6111 H   0  0  0  0  0  0  0  0  0  0  0  0
  148.4211  134.0059  160.0670 H   0  0  0  0  0  0  0  0  0  0  0  0
  147.2588  133.3999  162.2214 H   0  0  0  0  0  0  0  0  0  0  0  0
  146.3548  135.2848  163.6284 H   0  0  0  0  0  0  0  0  0  0  0  0
  150.5494  139.5467  159.3412 H   0  0  0  0  0  0  0  0  0  0  0  0
  149.4303  140.3812  158.2875 H   0  0  0  0  0  0  0  0  0  0  0  0
  1  2  1  0  0  0  0
  1 20  1  0  0  0  0
  1 21  1  0  0  0  0
  1 22  1  0  0  0  0
  2  3  1  0  0  0  0
  2  4  1  0  0  0  0
  2 23  1  0  0  0  0
  3 24  1  0  0  0  0
  3 25  1  0  0  0  0
  3 26  1  0  0  0  0
  4  5  1  0  0  0  0
  4 27  1  0  0  0  0
  4 28  1  0  0  0  0
  5  6  1  0  0  0  0
  5 29  1  0  0  0  0
  5 30  1  0  0  0  0
  6 19  1  0  0  0  0
  6  7  1  0  0  0  0
  7  8  1  0  0  0  0
  7 31  1  0  0  0  0
  7 32  1  0  0  0  0
  8  9  1  0  0  0  0
  8 33  1  0  0  0  0
  8 34  1  0  0  0  0
  9 10  1  0  0  0  0
 10 11  1  0  0  0  0
 10 19  1  0  0  0  0
 10 35  1  0  0  0  0
 11 12  1  0  0  0  0
 11 36  1  0  0  0  0
 11 37  1  0  0  0  0
 12 13  1  0  0  0  0
 12 38  1  0  0  0  0
 13 18  1  0  0  0  0
 13 14  2  0  0  0  0
 14 15  1  0  0  0  0
 14 39  1  0  0  0  0
 15 16  2  0  0  0  0
 15 40  1  0  0  0  0
 16 17  1  0  0  0  0
 16 41  1  0  0  0  0
 17 18  2  0  0  0  0
 19 42  1  0  0  0  0
 19 43  1  0  0  0  0
M  END
> <s_m_source_file>
AV-unprocessed.smi

> <i_m_source_file_index>
861

> <i_lp_mmshare_version>
43012

> <i_f3d_flags>
0

> <s_epik_input>
W0NIM11bQ0hdKFtDSDNdKVtDSDJdW0NIMl1OMVtDSDJdW0NIMl1PW0NASF0oW0NIMl0xKVtDSDJdW05IXWMyW2NIXVtjSF1bY0hdbm4y

> <s_epik_cmdline>
J2VwaWtfcHl0aG9uJywgJy1waCcsICc3LjAnLCAnLXRuJywgJzgnLCAnLW1hJywgJzIwMCcsICctbWV0YWxfYmluZGluZycsICctaW1hZScsICc8aW5maWxlLm1hZT4nLCAnLW9tYWUnLCAnPG91dGZpbGUubWFlPic=

> <r_lp_tautomer_probability>
0.999978

> <r_epik_Ionization_Penalty>
1.1508

> <r_epik_Ionization_Penalty_Charging>
0

> <r_epik_Ionization_Penalty_Neutral>
1.1508

> <r_epik_State_Penalty>
1.22808

> <r_epik_Charging_Adjusted_Penalty>
1.22808

> <i_epik_Tot_Q>
0

> <i_epik_Tot_abs_Q>
0

> <r_epik_Metal_State_Penalty>
1.22149

> <b_epik_Metal_Only>
0

> <s_lp_Force_Field>
OPLS_2005

> <r_lp_Energy>
31.1204

> <b_lp_Chiralities_Consistent>
1

> <s_lp_Variant>
AV-unprocessed.smi:861-6

> <Gold.Version>
5.8.1

> <Gold.Id.Protein>
6NUR|6NUR_protein|mol2

> <Gold.PLP.Fitness>
40.5861

> <Gold.PLP.PLP>
-37.4037

> <Gold.PLP.part.hbond>
-2.0000

> <Gold.PLP.part.metal>
0.0000

> <Gold.PLP.part.buried>
-6.0178

> <Gold.PLP.part.nonpolar>
-29.8481

> <Gold.PLP.part.repulsive>
0.1720

> <Gold.PLP.ligand.clash>
0.0000

> <Gold.PLP.ligand.torsion>
1.2698

> <Gold.PLP.Chemscore.Hbond>
1.8560

> <Gold.PLP.Chemscore.CHOScore>
0.0000

> <Gold.PLP.Chemscore.Metal>
0.0000

> <Gold.Chemscore.Hbonds>
donor molecule, donor type, donor heavy atom, donor atom, acceptor molecule, acceptor atom, score
      P1  H  6931  6943       L1    18  0.96
      P1  H  6934  6947       L1    18  0.91

> <Gold.PLP.Chemscore.Internal.Correction>
0.1540

> <Gold.Rescore>
     Score         DG    S(hbond)    S(metal)    S(lipo)     H(rot)  DE(clash)    DE(int)     intcor
     14.72     -15.88       1.03        0.00      95.90       1.66       0.09       1.07       ----

> <Gold.Chemscore.Fitness>
14.7179

> <Gold.Chemscore.DG>
-15.8765

> <Gold.Chemscore.ZeroCoef>
-5.4800

> <Gold.Chemscore.Hbond>
1.0250

> <Gold.Chemscore.Metal>
0.0000

> <Gold.Chemscore.Lipo>
95.8994

> <Gold.Chemscore.Internal_Hbond>
0.0000

> <Gold.Chemscore.DEClash>
0.0871

> <Gold.Chemscore.DEInternal>
1.0715

> <Gold.Chemscore.Rot>
1.6591

> <Gold.Chemscore.Internal.Correction>
   9.000000E+99

> <Gold.Chemscore.Hbonds>
donor molecule, donor type, donor heavy atom, donor atom, acceptor molecule, acceptor atom, score
      P1  H  6931  6943       L1    18  0.18
      P1  H  6934  6947       L1    18  0.39

> <Gold.Chemscore.Hbond.Weighted>
-3.4236

> <Gold.Chemscore.Metal.Weighted>
-0.0000

> <Gold.Chemscore.Lipo.Weighted>
-11.2202

> <Gold.Chemscore.Internal_Hbond.Weighted>
0.0000

> <Gold.Chemscore.DEClash.Weighted>
0.0871

> <Gold.Chemscore.DEInternal.Weighted>
1.0715

> <Gold.Chemscore.Rot.Weighted>
4.2474

> <Gold.Chemscore.Internal.Correction.Weighted>
   9.000000E+99

> <Gold.Protein.RotatedTorsions>
[ 6907 6896 6895 6894 ] final    7.63 input  -60.11 | X-H torsion
[ 7974 7965 7964 7962 ] final   63.25 input  175.53 | X-H torsion
[ 8008 7997 7996 7995 ] final  168.35 input   59.86 | X-H torsion
[ 10167 10162 10161 10158 ] final   -0.35 input  -65.29 | X-H torsion
[ 10718 10713 10712 10709 ] final  137.50 input   66.30 | X-H torsion
[ 10763 10752 10751 10750 ] final   16.15 input  -60.55 | X-H torsion
[ 11005 11000 10999 10996 ] final   -4.54 input  -57.11 | X-H torsion

> <Gold.Protein.ActiveResidues>
 VAL166  LYS551  ARG553  GLY616  TRP617  ASP618  TYR619  PRO620  LYS621  CYS622 
 ASP623  PHE694  ASN695  SER759  ASP760  ASP761  ALA762  ILE779  LEU786  VAL792 
 PHE793  MET794  SER795  GLU796  ALA797  LYS798  CYS799  TRP800  GLU811  SER814 

> <Gold.Protein.RotatedAtoms>
  151.6930  135.0943  160.0236 H   0  0  0  0  0  0  0  0  0  0  0  0  # atno 6907 bound_to 6896
  152.3767  133.6486  159.6137 H   0  0  0  0  0  0  0  0  0  0  0  0  # atno 6908 bound_to 6896
  150.7714  133.9098  159.3407 H   0  0  0  0  0  0  0  0  0  0  0  0  # atno 6909 bound_to 6896
  145.8640  139.3333  143.0802 H   0  0  0  0  0  0  0  0  0  0  0  0  # atno 7974 bound_to 7965
  156.1554  140.1593  156.8701 H   0  0  0  0  0  0  0  0  0  0  0  0  # atno 8008 bound_to 7997
  154.5110  140.0801  156.8026 H   0  0  0  0  0  0  0  0  0  0  0  0  # atno 8009 bound_to 7997
  155.3813  140.3405  155.4249 H   0  0  0  0  0  0  0  0  0  0  0  0  # atno 8010 bound_to 7997
  140.6764  143.6904  150.8032 H   0  0  0  0  0  0  0  0  0  0  0  0  # atno 10167 bound_to 10162
  157.4354  131.1052  151.0204 H   0  0  0  0  0  0  0  0  0  0  0  0  # atno 10718 bound_to 10713
  153.1458  135.6769  153.8957 H   0  0  0  0  0  0  0  0  0  0  0  0  # atno 10763 bound_to 10752
  153.8399  135.3106  155.3426 H   0  0  0  0  0  0  0  0  0  0  0  0  # atno 10764 bound_to 10752
  154.7824  135.4881  153.9957 H   0  0  0  0  0  0  0  0  0  0  0  0  # atno 10765 bound_to 10752
  140.6814  133.9150  155.8558 H   0  0  0  0  0  0  0  0  0  0  0  0  # atno 11005 bound_to 11000
  145.9215  140.9112  143.0403 LP  0  0  0  0  0  0  0  0  0  0  0  0  # atno 17320 bound_to 7965
  144.6726  140.1295  143.7444 LP  0  0  0  0  0  0  0  0  0  0  0  0  # atno 17321 bound_to 7965
  140.0598  143.5166  152.2633 LP  0  0  0  0  0  0  0  0  0  0  0  0  # atno 17342 bound_to 10162
  139.6058  144.7596  151.3064 LP  0  0  0  0  0  0  0  0  0  0  0  0  # atno 17343 bound_to 10162
  157.1085  130.6012  149.5476 LP  0  0  0  0  0  0  0  0  0  0  0  0  # atno 17370 bound_to 10713
  155.9928  130.4987  150.7356 LP  0  0  0  0  0  0  0  0  0  0  0  0  # atno 17371 bound_to 10713
  141.0314  134.0750  157.4009 LP  0  0  0  0  0  0  0  0  0  0  0  0  # atno 17394 bound_to 11000
  139.8950  135.0139  156.6982 LP  0  0  0  0  0  0  0  0  0  0  0  0  # atno 17395 bound_to 11000

$$$$
