AV-unprocessed.smi:331|AV-procd|sdf|2350|dock6
  -GOLD-   2262022263D 1   1.00000     0.00000
 Structure written by MMmdl.
 36 37  0  0  0  0  0  0  0  0  1 V2000
  153.5618  140.2308  157.7055 O   0  0  0  0  0  0  0  0  0  0  0  0
  152.5468  140.8775  157.4538 C   0  0  0  0  0  0  0  0  0  0  0  0
  151.5977  140.4629  156.5986 N   0  0  0  0  0  0  0  0  0  0  0  0
  151.6748  139.2598  155.7774 C   0  0  0  0  0  0  0  0  0  0  0  0
  151.3385  139.5434  154.3009 C   0  0  0  0  0  0  0  0  0  0  0  0
  149.8456  139.6430  154.0360 C   0  0  0  0  0  0  0  0  0  0  0  0
  149.0829  138.4947  153.7373 C   0  0  0  0  0  0  0  0  0  0  0  0
  147.7064  138.6424  153.4809 C   0  0  0  0  0  0  0  0  0  0  0  0
  147.1490  139.9354  153.5378 C   0  0  0  0  0  0  0  0  0  0  0  0
  147.8689  141.0416  153.8244 N   0  0  0  0  0  0  0  0  0  0  0  0
  149.1886  140.8912  154.0680 C   0  0  0  0  0  0  0  0  0  0  0  0
  152.3006  142.0682  158.0283 N   0  0  0  0  0  0  0  0  0  0  0  0
  153.1320  142.7881  158.9963 C   0  0  0  0  0  0  0  0  0  0  0  0
  153.3451  141.9423  160.2661 C   0  0  0  0  0  0  0  0  0  0  0  0
  153.0836  142.8787  161.4466 C   0  0  0  0  0  0  0  0  0  0  0  0
  152.0518  143.8692  160.9176 C   0  0  0  0  0  0  0  0  0  0  0  0
  152.4628  144.0974  159.4625 C   0  0  0  0  0  0  0  0  0  0  0  0
  150.7892  141.0530  156.4664 H   0  0  0  0  0  0  0  0  0  0  0  0
  152.6591  138.7973  155.8641 H   0  0  0  0  0  0  0  0  0  0  0  0
  150.9608  138.5420  156.1818 H   0  0  0  0  0  0  0  0  0  0  0  0
  151.8158  140.4724  153.9862 H   0  0  0  0  0  0  0  0  0  0  0  0
  151.7598  138.7597  153.6702 H   0  0  0  0  0  0  0  0  0  0  0  0
  149.5446  137.5189  153.6961 H   0  0  0  0  0  0  0  0  0  0  0  0
  147.0925  137.7856  153.2456 H   0  0  0  0  0  0  0  0  0  0  0  0
  146.0966  140.0853  153.3464 H   0  0  0  0  0  0  0  0  0  0  0  0
  149.7377  141.7948  154.2890 H   0  0  0  0  0  0  0  0  0  0  0  0
  151.4065  142.4896  157.8212 H   0  0  0  0  0  0  0  0  0  0  0  0
  154.1060  143.0117  158.5565 H   0  0  0  0  0  0  0  0  0  0  0  0
  152.6298  141.1185  160.3047 H   0  0  0  0  0  0  0  0  0  0  0  0
  154.3428  141.5037  160.3062 H   0  0  0  0  0  0  0  0  0  0  0  0
  152.7411  142.3480  162.3354 H   0  0  0  0  0  0  0  0  0  0  0  0
  154.0012  143.4082  161.7068 H   0  0  0  0  0  0  0  0  0  0  0  0
  151.0588  143.4189  160.9533 H   0  0  0  0  0  0  0  0  0  0  0  0
  152.0203  144.7936  161.4955 H   0  0  0  0  0  0  0  0  0  0  0  0
  153.1924  144.9069  159.4177 H   0  0  0  0  0  0  0  0  0  0  0  0
  151.6152  144.3972  158.8446 H   0  0  0  0  0  0  0  0  0  0  0  0
  1  2  2  0  0  0  0
  2  3  1  0  0  0  0
  2 12  1  0  0  0  0
  3  4  1  0  0  0  0
  3 18  1  0  0  0  0
  4  5  1  0  0  0  0
  4 19  1  0  0  0  0
  4 20  1  0  0  0  0
  5  6  1  0  0  0  0
  5 21  1  0  0  0  0
  5 22  1  0  0  0  0
  6 11  1  0  0  0  0
  6  7  2  0  0  0  0
  7  8  1  0  0  0  0
  7 23  1  0  0  0  0
  8  9  2  0  0  0  0
  8 24  1  0  0  0  0
  9 10  1  0  0  0  0
  9 25  1  0  0  0  0
 10 11  2  0  0  0  0
 11 26  1  0  0  0  0
 12 13  1  0  0  0  0
 12 27  1  0  0  0  0
 13 17  1  0  0  0  0
 13 14  1  0  0  0  0
 13 28  1  0  0  0  0
 14 15  1  0  0  0  0
 14 29  1  0  0  0  0
 14 30  1  0  0  0  0
 15 16  1  0  0  0  0
 15 31  1  0  0  0  0
 15 32  1  0  0  0  0
 16 17  1  0  0  0  0
 16 33  1  0  0  0  0
 16 34  1  0  0  0  0
 17 35  1  0  0  0  0
 17 36  1  0  0  0  0
M  END
> <s_m_source_file>
AV-unprocessed.smi

> <i_m_source_file_index>
331

> <i_lp_mmshare_version>
43012

> <i_f3d_flags>
0

> <s_epik_input>
W0NIMl0xW0NIMl1bQ0gyXVtDSDJdW0NIXTFbTkhdQyg9TylbTkhdW0NIMl1bQ0gyXWMyW2NIXVtjSF1bY0hdbltjSF0y

> <s_epik_cmdline>
J2VwaWtfcHl0aG9uJywgJy1waCcsICc3LjAnLCAnLXRuJywgJzgnLCAnLW1hJywgJzIwMCcsICctbWV0YWxfYmluZGluZycsICctaW1hZScsICc8aW5maWxlLm1hZT4nLCAnLW9tYWUnLCAnPG91dGZpbGUubWFlPic=

> <r_epik_Ionization_Penalty>
0.0144384

> <r_epik_Ionization_Penalty_Charging>
0

> <r_epik_Ionization_Penalty_Neutral>
0.0144384

> <r_epik_State_Penalty>
0.0112394

> <r_epik_Charging_Adjusted_Penalty>
0.0112394

> <i_epik_Tot_Q>
0

> <i_epik_Tot_abs_Q>
0

> <r_epik_Metal_State_Penalty>
0.0109726

> <b_epik_Metal_Only>
0

> <s_lp_Force_Field>
OPLS_2005

> <r_lp_Energy>
25.692

> <b_lp_Chiralities_Consistent>
1

> <s_lp_Variant>
AV-unprocessed.smi:331-1

> <Gold.Version>
5.8.1

> <Gold.Id.Protein>
6NUR|6NUR_protein|mol2

> <Gold.PLP.Fitness>
43.5830

> <Gold.PLP.PLP>
-38.6006

> <Gold.PLP.part.hbond>
-1.0000

> <Gold.PLP.part.metal>
0.0000

> <Gold.PLP.part.buried>
-1.3832

> <Gold.PLP.part.nonpolar>
-35.0474

> <Gold.PLP.part.repulsive>
0.3160

> <Gold.PLP.ligand.clash>
0.0000

> <Gold.PLP.ligand.torsion>
0.5124

> <Gold.PLP.Chemscore.Hbond>
1.0000

> <Gold.PLP.Chemscore.CHOScore>
1.0000

> <Gold.PLP.Chemscore.Metal>
0.0000

> <Gold.Chemscore.Hbonds>
donor molecule, donor type, donor heavy atom, donor atom, acceptor molecule, acceptor atom, score
      P1  H  7997  8010       L1     1  0.23
      L1  C     9    25       P1 10175  0.84

> <Gold.PLP.Chemscore.Internal.Correction>
0.0072

> <Gold.Rescore>
     Score         DG    S(hbond)    S(metal)    S(lipo)     H(rot)  DE(clash)    DE(int)     intcor
     16.46     -17.09       0.87        0.00     107.35       1.51       0.11       0.53       ----

> <Gold.Chemscore.Fitness>
16.4582

> <Gold.Chemscore.DG>
-17.0921

> <Gold.Chemscore.ZeroCoef>
-5.4800

> <Gold.Chemscore.Hbond>
0.8703

> <Gold.Chemscore.Metal>
0.0000

> <Gold.Chemscore.Lipo>
107.3548

> <Gold.Chemscore.Internal_Hbond>
0.0000

> <Gold.Chemscore.DEClash>
0.1061

> <Gold.Chemscore.DEInternal>
0.5278

> <Gold.Chemscore.Rot>
1.5060

> <Gold.Chemscore.Internal.Correction>
   9.000000E+99

> <Gold.Chemscore.Hbonds>
donor molecule, donor type, donor heavy atom, donor atom, acceptor molecule, acceptor atom, score
      P1  H  7997  8010       L1     1  0.24

> <Gold.Chemscore.Hbond.Weighted>
-2.9069

> <Gold.Chemscore.Metal.Weighted>
-0.0000

> <Gold.Chemscore.Lipo.Weighted>
-12.5605

> <Gold.Chemscore.Internal_Hbond.Weighted>
0.0000

> <Gold.Chemscore.DEClash.Weighted>
0.1061

> <Gold.Chemscore.DEInternal.Weighted>
0.5278

> <Gold.Chemscore.Rot.Weighted>
3.8553

> <Gold.Chemscore.Internal.Correction.Weighted>
   9.000000E+99

> <Gold.Protein.RotatedTorsions>
[ 6907 6896 6895 6894 ] final -152.01 input  -60.11 | X-H torsion
[ 7974 7965 7964 7962 ] final   86.04 input  175.53 | X-H torsion
[ 8008 7997 7996 7995 ] final   37.42 input   59.86 | X-H torsion
[ 10167 10162 10161 10158 ] final  123.53 input  -65.29 | X-H torsion
[ 10718 10713 10712 10709 ] final  148.33 input   66.30 | X-H torsion
[ 10763 10752 10751 10750 ] final   -5.16 input  -60.55 | X-H torsion
[ 11005 11000 10999 10996 ] final  -16.15 input  -57.11 | X-H torsion

> <Gold.Protein.ActiveResidues>
 VAL166  LYS551  ARG553  GLY616  TRP617  ASP618  TYR619  PRO620  LYS621  CYS622 
 ASP623  PHE694  ASN695  SER759  ASP760  ASP761  ALA762  ILE779  LEU786  VAL792 
 PHE793  MET794  SER795  GLU796  ALA797  LYS798  CYS799  TRP800  GLU811  SER814 

> <Gold.Protein.RotatedAtoms>
  151.2214  133.4500  159.2600 H   0  0  0  0  0  0  0  0  0  0  0  0  # atno 6907 bound_to 6896
  151.0881  134.9899  159.8399 H   0  0  0  0  0  0  0  0  0  0  0  0  # atno 6908 bound_to 6896
  152.5431  134.2150  159.8818 H   0  0  0  0  0  0  0  0  0  0  0  0  # atno 6909 bound_to 6896
  145.5776  139.2321  143.2371 H   0  0  0  0  0  0  0  0  0  0  0  0  # atno 7974 bound_to 7965
  155.2035  140.3317  155.4339 H   0  0  0  0  0  0  0  0  0  0  0  0  # atno 8008 bound_to 7997
  156.2398  140.1889  156.7070 H   0  0  0  0  0  0  0  0  0  0  0  0  # atno 8009 bound_to 7997
  154.6126  140.0607  156.9498 H   0  0  0  0  0  0  0  0  0  0  0  0  # atno 8010 bound_to 7997
  139.5794  144.6979  151.3568 H   0  0  0  0  0  0  0  0  0  0  0  0  # atno 10167 bound_to 10162
  157.3100  131.0886  151.1324 H   0  0  0  0  0  0  0  0  0  0  0  0  # atno 10718 bound_to 10713
  153.3947  135.7003  153.6469 H   0  0  0  0  0  0  0  0  0  0  0  0  # atno 10763 bound_to 10752
  153.5028  135.3648  155.2548 H   0  0  0  0  0  0  0  0  0  0  0  0  # atno 10764 bound_to 10752
  154.8705  135.4116  154.3270 H   0  0  0  0  0  0  0  0  0  0  0  0  # atno 10765 bound_to 10752
  140.8038  133.8193  155.9496 H   0  0  0  0  0  0  0  0  0  0  0  0  # atno 11005 bound_to 11000
  146.1740  140.6602  142.9220 LP  0  0  0  0  0  0  0  0  0  0  0  0  # atno 17320 bound_to 7965
  144.7409  140.4939  143.6870 LP  0  0  0  0  0  0  0  0  0  0  0  0  # atno 17321 bound_to 7965
  140.7073  143.7480  150.7505 LP  0  0  0  0  0  0  0  0  0  0  0  0  # atno 17342 bound_to 10162
  140.1008  143.4789  152.2426 LP  0  0  0  0  0  0  0  0  0  0  0  0  # atno 17343 bound_to 10162
  157.2649  130.6677  149.5992 LP  0  0  0  0  0  0  0  0  0  0  0  0  # atno 17370 bound_to 10713
  155.9677  130.4497  150.5668 LP  0  0  0  0  0  0  0  0  0  0  0  0  # atno 17371 bound_to 10713
  140.9267  134.2073  157.4891 LP  0  0  0  0  0  0  0  0  0  0  0  0  # atno 17394 bound_to 11000
  139.8719  134.9816  156.5121 LP  0  0  0  0  0  0  0  0  0  0  0  0  # atno 17395 bound_to 11000

$$$$
