#       Name:                AV-unprocessed.smi:1079
#       Creating user name   scv26
#       Creation time:       Fri Mar 27 03:22:52 2020


#       File generated by GOLD software.
#

@<TRIPOS>MOLECULE
AV-unprocessed.smi:1079
    52    53     1
SMALL
NO_CHARGES


@<TRIPOS>ATOM
      1 ****        -4.4421   3.1953   0.1294 C.3            1 S1                 0.0000
      2 ****        -3.8339   1.9207   0.0242 O.3            1 S1                 0.0000
      3 ****        -4.0934   1.2934  -1.2210 C.3            1 S1                 0.0000
      4 ****        -3.3780  -0.0671  -1.2679 C.3            1 S1                 0.0000
      5 ****        -1.9322   0.0520  -1.2632 N.am           1 S1                 0.0000
      6 ****        -1.1486  -0.0112  -0.1065 C.2            1 S1                 0.0000
      7 ****        -1.7917  -0.1928   1.1092 N.pl3          1 S1                 0.0000
      8 ****         0.2096   0.1328  -0.1509 C.2            1 S1                 0.0000
      9 ****         1.0006   0.0331   1.0095 N.am           1 S1                 0.0000
     10 ****         1.2003  -1.3135   1.5677 C.3            1 S1                 0.0000
     11 ****         2.4669  -1.9798   1.0578 C.ar           1 S1                 0.0000
     12 ****         2.4504  -2.6844  -0.1645 C.ar           1 S1                 0.0000
     13 ****         3.6247  -3.2927  -0.6480 C.ar           1 S1                 0.0000
     14 ****         4.8206  -3.2001   0.0897 C.ar           1 S1                 0.0000
     15 ****         4.8415  -2.4982   1.3104 C.ar           1 S1                 0.0000
     16 ****         3.6671  -1.8892   1.7939 C.ar           1 S1                 0.0000
     17 ****         1.5339   1.1265   1.6143 C.2            1 S1                 0.0000
     18 ****         1.1912   2.5232   1.0823 C.3            1 S1                 0.0000
     19 ****         2.2668   1.0491   2.6004 O.2            1 S1                 0.0000
     20 ****         0.8980   0.3334  -1.4339 C.2            1 S1                 0.0000
     21 ****         2.1142   0.4382  -1.5883 O.2            1 S1                 0.0000
     22 ****         0.0603   0.4042  -2.5434 N.am           1 S1                 0.0000
     23 ****        -1.3245   0.2863  -2.5201 C.2            1 S1                 0.0000
     24 ****        -1.9562   0.3881  -3.5724 O.2            1 S1                 0.0000
     25 ****         0.4956   0.5567  -3.4416 H              1 S1                 0.0000
     26 ****        -4.2140   3.6301   1.1026 H              1 S1                 0.0000
     27 ****        -5.5267   3.1241   0.0376 H              1 S1                 0.0000
     28 ****        -4.0688   3.8743  -0.6382 H              1 S1                 0.0000
     29 ****        -5.1678   1.1432  -1.3352 H              1 S1                 0.0000
     30 ****        -3.7667   1.9299  -2.0447 H              1 S1                 0.0000
     31 ****        -3.6610  -0.6983  -0.4265 H              1 S1                 0.0000
     32 ****        -3.6584  -0.6393  -2.1542 H              1 S1                 0.0000
     33 ****        -2.7966  -0.2779   1.1668 H              1 S1                 0.0000
     34 ****        -1.2773  -0.4306   1.9454 H              1 S1                 0.0000
     35 ****         1.2122  -1.2881   2.6587 H              1 S1                 0.0000
     36 ****         0.3560  -1.9548   1.3111 H              1 S1                 0.0000
     37 ****         1.5370  -2.7551  -0.7369 H              1 S1                 0.0000
     38 ****         3.6085  -3.8292  -1.5851 H              1 S1                 0.0000
     39 ****         5.7212  -3.6666  -0.2814 H              1 S1                 0.0000
     40 ****         5.7588  -2.4258   1.8760 H              1 S1                 0.0000
     41 ****         3.6915  -1.3495   2.7292 H              1 S1                 0.0000
     42 ****         0.1154   2.6427   0.9499 H              1 S1                 0.0000
     43 ****         1.6858   2.7068   0.1286 H              1 S1                 0.0000
     44 ****         1.5246   3.2902   1.7823 H              1 S1                 0.0000
     45 ****        -4.1851   1.3369   0.7562 LP             1 S1                 0.0000
     46 ****        -2.8452   2.0280   0.1288 LP             1 S1                 0.0000
     47 ****         2.4912   0.1548   2.9876 LP             1 S1                 0.0000
     48 ****         2.6378   1.8805   3.0141 LP             1 S1                 0.0000
     49 ****         2.7247   0.3882  -0.7979 LP             1 S1                 0.0000
     50 ****         2.4921   0.5733  -2.5042 LP             1 S1                 0.0000
     51 ****        -2.9527   0.3049  -3.5674 LP             1 S1                 0.0000
     52 ****        -1.4726   0.5539  -4.4319 LP             1 S1                 0.0000
@<TRIPOS>BOND
    1    1    2 1     
    2    1   26 1     
    3    1   27 1     
    4    1   28 1     
    5    2    3 1     
    6    3    4 1     
    7    3   29 1     
    8    3   30 1     
    9    4    5 1     
   10    4   31 1     
   11    4   32 1     
   12    5   23 1     
   13    5    6 1     
   14    6    7 1     
   15    6    8 2     
   16    7   33 1     
   17    7   34 1     
   18    8    9 1     
   19    8   20 1     
   20    9   10 1     
   21    9   17 am    
   22   10   11 1     
   23   10   35 1     
   24   10   36 1     
   25   11   16 ar    
   26   11   12 ar    
   27   12   13 ar    
   28   12   37 1     
   29   13   14 ar    
   30   13   38 1     
   31   14   15 ar    
   32   14   39 1     
   33   15   16 ar    
   34   15   40 1     
   35   16   41 1     
   36   17   18 1     
   37   17   19 2     
   38   18   42 1     
   39   18   43 1     
   40   18   44 1     
   41   20   21 2     
   42   20   22 1     
   43   22   25 1     
   44   22   23 1     
   45   23   24 2     
   46    2   45 1     
   47    2   46 1     
   48   19   47 1     
   49   19   48 1     
   50   21   49 1     
   51   21   50 1     
   52   24   51 1     
   53   24   52 1     
@<TRIPOS>SUBSTRUCTURE
      1 S1             1
@<TRIPOS>SET
LONE_PAIRS      STATIC     ATOMS    <user>   **** ""
8 45 46 47 48 49 50 51 52
DONOR_HYDROGENS      STATIC     ATOMS    <user>   **** ""
3 33 34 25
ATOM$BLUE        STATIC     ATOMS    COLORGROUP SYSTEM
8 45 46 47 48 49 50 51 52
ATOM$RED        STATIC     ATOMS    COLORGROUP SYSTEM
3 33 34 25
