AV-unprocessed.smi:1762|AV-procd|sdf|7114|dock8
  -GOLD-   22720 8343D 1   1.00000     0.00000
 Structure written by MMmdl.
 53 54  0  0  0  0  0  0  0  0  2 V2000
  149.2630  130.8292  154.2936 C   0  0  0  0  0  0  0  0  0  0  0  0
  148.1210  131.7738  153.9038 C   0  0  1  0  0  0  0  0  0  0  0  0
  148.6464  133.1065  153.3261 C   0  0  0  0  0  0  0  0  0  0  0  0
  147.5305  133.9824  152.8644 N   0  3  2  0  0  0  0  0  0  0  0  0
  146.7796  134.6848  153.9655 C   0  0  1  0  0  0  0  0  0  0  0  0
  147.7505  135.3828  154.9419 C   0  0  0  0  0  0  0  0  0  0  0  0
  147.8196  135.0141  156.1149 O   0  0  0  0  0  0  0  0  0  0  0  0
  148.4858  136.3911  154.4461 N   0  0  0  0  0  0  0  0  0  0  0  0
  149.4401  137.1838  155.2127 C   0  0  0  0  0  0  0  0  0  0  0  0
  149.7312  138.5315  154.5305 C   0  0  0  0  0  0  0  0  0  0  0  0
  150.1395  139.6030  155.5239 C   0  0  0  0  0  0  0  0  0  0  0  0
  150.4861  139.2642  156.8495 C   0  0  0  0  0  0  0  0  0  0  0  0
  150.8525  140.2988  157.7322 C   0  0  0  0  0  0  0  0  0  0  0  0
  150.8570  141.6251  157.2587 C   0  0  0  0  0  0  0  0  0  0  0  0
  150.4937  141.8590  155.9175 C   0  0  0  0  0  0  0  0  0  0  0  0
  150.1412  140.8742  155.0627 N   0  0  0  0  0  0  0  0  0  0  0  0
  145.6927  135.6893  153.4539 C   0  0  0  0  0  0  0  0  0  0  0  0
  146.2353  136.7705  152.4961 C   0  0  0  0  0  0  0  0  0  0  0  0
  144.8853  136.3466  154.5910 C   0  0  0  0  0  0  0  0  0  0  0  0
  146.7118  133.2103  151.8894 C   0  0  0  0  0  0  0  0  0  0  0  0
  146.2009  131.8929  152.5068 C   0  0  1  0  0  0  0  0  0  0  0  0
  145.3988  131.0594  151.5018 C   0  0  0  0  0  0  0  0  0  0  0  0
  147.3218  131.1196  152.9235 O   0  0  0  0  0  0  0  0  0  0  0  0
  149.8979  131.2766  155.0586 H   0  0  0  0  0  0  0  0  0  0  0  0
  149.8912  130.5912  153.4347 H   0  0  0  0  0  0  0  0  0  0  0  0
  148.8748  129.8915  154.6921 H   0  0  0  0  0  0  0  0  0  0  0  0
  147.5174  131.9572  154.7934 H   0  0  0  0  0  0  0  0  0  0  0  0
  149.2938  133.6044  154.0469 H   0  0  0  0  0  0  0  0  0  0  0  0
  149.2844  132.8968  152.4662 H   0  0  0  0  0  0  0  0  0  0  0  0
  146.2489  133.9201  154.5333 H   0  0  0  0  0  0  0  0  0  0  0  0
  148.3758  136.6293  153.4710 H   0  0  0  0  0  0  0  0  0  0  0  0
  149.0682  137.3386  156.2271 H   0  0  0  0  0  0  0  0  0  0  0  0
  150.3620  136.6088  155.3046 H   0  0  0  0  0  0  0  0  0  0  0  0
  150.5213  138.4098  153.7882 H   0  0  0  0  0  0  0  0  0  0  0  0
  148.8515  138.8779  153.9860 H   0  0  0  0  0  0  0  0  0  0  0  0
  150.4712  138.2375  157.1847 H   0  0  0  0  0  0  0  0  0  0  0  0
  151.1244  140.0790  158.7542 H   0  0  0  0  0  0  0  0  0  0  0  0
  151.1319  142.4437  157.9074 H   0  0  0  0  0  0  0  0  0  0  0  0
  150.4853  142.8634  155.5209 H   0  0  0  0  0  0  0  0  0  0  0  0
  144.9458  135.1161  152.9069 H   0  0  0  0  0  0  0  0  0  0  0  0
  146.9114  137.4585  153.0036 H   0  0  0  0  0  0  0  0  0  0  0  0
  145.4203  137.3657  152.0834 H   0  0  0  0  0  0  0  0  0  0  0  0
  146.7753  136.3388  151.6540 H   0  0  0  0  0  0  0  0  0  0  0  0
  145.4870  137.0473  155.1708 H   0  0  0  0  0  0  0  0  0  0  0  0
  144.4880  135.5975  155.2765 H   0  0  0  0  0  0  0  0  0  0  0  0
  144.0374  136.9049  154.1928 H   0  0  0  0  0  0  0  0  0  0  0  0
  145.8960  133.7938  151.4689 H   0  0  0  0  0  0  0  0  0  0  0  0
  147.3478  132.9753  151.0343 H   0  0  0  0  0  0  0  0  0  0  0  0
  145.5625  132.1003  153.3668 H   0  0  0  0  0  0  0  0  0  0  0  0
  144.5187  131.6021  151.1558 H   0  0  0  0  0  0  0  0  0  0  0  0
  145.0575  130.1276  151.9535 H   0  0  0  0  0  0  0  0  0  0  0  0
  146.0004  130.8055  150.6286 H   0  0  0  0  0  0  0  0  0  0  0  0
  147.9604  134.7284  152.3356 H   0  0  0  0  0  0  0  0  0  0  0  0
  1  2  1  0  0  0  0
  1 24  1  0  0  0  0
  1 25  1  0  0  0  0
  1 26  1  0  0  0  0
  2 23  1  0  0  0  0
  2  3  1  0  0  0  0
  2 27  1  0  0  0  0
  3  4  1  0  0  0  0
  3 28  1  0  0  0  0
  3 29  1  0  0  0  0
  4  5  1  0  0  0  0
  4 20  1  0  0  0  0
  4 53  1  0  0  0  0
  5  6  1  0  0  0  0
  5 17  1  0  0  0  0
  5 30  1  0  0  0  0
  6  7  2  0  0  0  0
  6  8  1  0  0  0  0
  8  9  1  0  0  0  0
  8 31  1  0  0  0  0
  9 10  1  0  0  0  0
  9 32  1  0  0  0  0
  9 33  1  0  0  0  0
 10 11  1  0  0  0  0
 10 34  1  0  0  0  0
 10 35  1  0  0  0  0
 11 16  1  0  0  0  0
 11 12  2  0  0  0  0
 12 13  1  0  0  0  0
 12 36  1  0  0  0  0
 13 14  2  0  0  0  0
 13 37  1  0  0  0  0
 14 15  1  0  0  0  0
 14 38  1  0  0  0  0
 15 16  2  0  0  0  0
 15 39  1  0  0  0  0
 17 18  1  0  0  0  0
 17 19  1  0  0  0  0
 17 40  1  0  0  0  0
 18 41  1  0  0  0  0
 18 42  1  0  0  0  0
 18 43  1  0  0  0  0
 19 44  1  0  0  0  0
 19 45  1  0  0  0  0
 19 46  1  0  0  0  0
 20 21  1  0  0  0  0
 20 47  1  0  0  0  0
 20 48  1  0  0  0  0
 21 22  1  0  0  0  0
 21 23  1  0  0  0  0
 21 49  1  0  0  0  0
 22 50  1  0  0  0  0
 22 51  1  0  0  0  0
 22 52  1  0  0  0  0
M  CHG  1   4   1
M  END
> <s_m_source_file>
AV-unprocessed.smi

> <i_m_source_file_index>
1762

> <i_lp_mmshare_version>
43012

> <i_f3d_flags>
0

> <s_epik_input>
W0NIM11bQ0BASF0xW0NIMl1OKFtDSDJdW0NASF0oTzEpW0NIM10pW0NAQEhdKFtDSF0oW0NIM10pW0NIM10pQyg9TylbTkhdW0NIMl1bQ0gyXWMyW2NIXVtjSF1bY0hdW2NIXW4y

> <s_epik_cmdline>
J2VwaWtfcHl0aG9uJywgJy1waCcsICc3LjAnLCAnLXRuJywgJzgnLCAnLW1hJywgJzIwMCcsICctbWV0YWxfYmluZGluZycsICctaW1hZScsICc8aW5maWxlLm1hZT4nLCAnLW9tYWUnLCAnPG91dGZpbGUubWFlPic=

> <r_epik_Ionization_Penalty>
2.27005

> <r_epik_Ionization_Penalty_Charging>
2.24983

> <r_epik_Ionization_Penalty_Neutral>
0.0202209

> <r_epik_State_Penalty>
2.40228

> <r_epik_Charging_Adjusted_Penalty>
4.65211

> <i_epik_Tot_Q>
1

> <i_epik_Tot_abs_Q>
1

> <r_epik_Metal_State_Penalty>
2.40762

> <b_epik_Metal_Only>
0

> <s_lp_Force_Field>
OPLS_2005

> <r_lp_Energy>
25.1603

> <b_lp_Chiralities_Consistent>
1

> <s_lp_Variant>
AV-unprocessed.smi:1762-16

> <Gold.Version>
5.8.1

> <Gold.Id.Protein>
6NUR|6NUR_protein|mol2

> <Gold.PLP.Fitness>
43.2633

> <Gold.PLP.PLP>
-30.4562

> <Gold.PLP.part.hbond>
-3.0000

> <Gold.PLP.part.metal>
0.0000

> <Gold.PLP.part.buried>
-3.1030

> <Gold.PLP.part.nonpolar>
-24.8431

> <Gold.PLP.part.repulsive>
0.8921

> <Gold.PLP.ligand.clash>
0.0000

> <Gold.PLP.ligand.torsion>
0.5610

> <Gold.PLP.Chemscore.Hbond>
3.5771

> <Gold.PLP.Chemscore.CHOScore>
0.9969

> <Gold.PLP.Chemscore.Metal>
0.0000

> <Gold.Chemscore.Hbonds>
donor molecule, donor type, donor heavy atom, donor atom, acceptor molecule, acceptor atom, score
      L1  H     4    53       P1  7948  2.00
      L1  H     8    31       P1  7948  0.85
      P1  H  7989  7998       L1    16  0.54
      L1  C    15    39       P1  8028  1.00

> <Gold.PLP.Chemscore.Internal.Correction>
0.2071

> <Gold.Rescore>
     Score         DG    S(hbond)    S(metal)    S(lipo)     H(rot)  DE(clash)    DE(int)     intcor
     17.08     -18.15       2.24        0.00      80.84       1.66       0.24       0.83       ----

> <Gold.Chemscore.Fitness>
17.0824

> <Gold.Chemscore.DG>
-18.1466

> <Gold.Chemscore.ZeroCoef>
-5.4800

> <Gold.Chemscore.Hbond>
2.2356

> <Gold.Chemscore.Metal>
0.0000

> <Gold.Chemscore.Lipo>
80.8394

> <Gold.Chemscore.Internal_Hbond>
0.0000

> <Gold.Chemscore.DEClash>
0.2377

> <Gold.Chemscore.DEInternal>
0.8265

> <Gold.Chemscore.Rot>
1.6635

> <Gold.Chemscore.Internal.Correction>
   9.000000E+99

> <Gold.Chemscore.Hbonds>
donor molecule, donor type, donor heavy atom, donor atom, acceptor molecule, acceptor atom, score
      L1  H     4    53       P1  7948  0.55
      L1  H     8    31       P1  7948  0.83
      P1  H  7989  7998       L1    16  0.14

> <Gold.Chemscore.Hbond.Weighted>
-7.4670

> <Gold.Chemscore.Metal.Weighted>
-0.0000

> <Gold.Chemscore.Lipo.Weighted>
-9.4582

> <Gold.Chemscore.Internal_Hbond.Weighted>
0.0000

> <Gold.Chemscore.DEClash.Weighted>
0.2377

> <Gold.Chemscore.DEInternal.Weighted>
0.8265

> <Gold.Chemscore.Rot.Weighted>
4.2586

> <Gold.Chemscore.Internal.Correction.Weighted>
   9.000000E+99

> <Gold.Protein.RotatedTorsions>
[ 6907 6896 6895 6894 ] final  -53.48 input  -60.11 | X-H torsion
[ 7974 7965 7964 7962 ] final  161.83 input  175.53 | X-H torsion
[ 8008 7997 7996 7995 ] final  147.04 input   59.86 | X-H torsion
[ 10167 10162 10161 10158 ] final -175.15 input  -65.29 | X-H torsion
[ 10718 10713 10712 10709 ] final  142.86 input   66.30 | X-H torsion
[ 10763 10752 10751 10750 ] final    1.73 input  -60.55 | X-H torsion
[ 11005 11000 10999 10996 ] final -124.93 input  -57.11 | X-H torsion

> <Gold.Protein.ActiveResidues>
 VAL166  LYS551  ARG553  GLY616  TRP617  ASP618  TYR619  PRO620  LYS621  CYS622 
 ASP623  PHE694  ASN695  SER759  ASP760  ASP761  ALA762  ILE779  LEU786  VAL792 
 PHE793  MET794  SER795  GLU796  ALA797  LYS798  CYS799  TRP800  GLU811  SER814 

> <Gold.Protein.RotatedAtoms>
  150.8423  134.7720  159.6942 H   0  0  0  0  0  0  0  0  0  0  0  0  # atno 6907 bound_to 6896
  152.4508  134.5395  159.9844 H   0  0  0  0  0  0  0  0  0  0  0  0  # atno 6908 bound_to 6896
  151.5532  133.3376  159.2993 H   0  0  0  0  0  0  0  0  0  0  0  0  # atno 6909 bound_to 6896
  144.7666  139.7953  143.6313 H   0  0  0  0  0  0  0  0  0  0  0  0  # atno 7974 bound_to 7965
  156.2837  140.2166  156.5474 H   0  0  0  0  0  0  0  0  0  0  0  0  # atno 8008 bound_to 7997
  154.7319  140.0495  157.0756 H   0  0  0  0  0  0  0  0  0  0  0  0  # atno 8009 bound_to 7997
  155.0342  140.3138  155.4750 H   0  0  0  0  0  0  0  0  0  0  0  0  # atno 8010 bound_to 7997
  139.5596  144.1903  152.1217 H   0  0  0  0  0  0  0  0  0  0  0  0  # atno 10167 bound_to 10162
  157.3756  131.0985  151.0787 H   0  0  0  0  0  0  0  0  0  0  0  0  # atno 10718 bound_to 10713
  153.3044  135.6958  153.7173 H   0  0  0  0  0  0  0  0  0  0  0  0  # atno 10763 bound_to 10752
  153.6074  135.3451  155.2967 H   0  0  0  0  0  0  0  0  0  0  0  0  # atno 10764 bound_to 10752
  154.8559  135.4355  154.2165 H   0  0  0  0  0  0  0  0  0  0  0  0  # atno 10765 bound_to 10752
  140.9802  134.0683  157.3773 H   0  0  0  0  0  0  0  0  0  0  0  0  # atno 11005 bound_to 11000
  146.1779  139.4958  142.9885 LP  0  0  0  0  0  0  0  0  0  0  0  0  # atno 17320 bound_to 7965
  145.6451  141.0276  143.1791 LP  0  0  0  0  0  0  0  0  0  0  0  0  # atno 17321 bound_to 7965
  140.1414  144.5199  150.6742 LP  0  0  0  0  0  0  0  0  0  0  0  0  # atno 17342 bound_to 10162
  140.6874  143.2357  151.5224 LP  0  0  0  0  0  0  0  0  0  0  0  0  # atno 17343 bound_to 10162
  157.1875  130.6337  149.5693 LP  0  0  0  0  0  0  0  0  0  0  0  0  # atno 17370 bound_to 10713
  155.9764  130.4733  150.6529 LP  0  0  0  0  0  0  0  0  0  0  0  0  # atno 17371 bound_to 10713
  139.8947  135.0137  156.6965 LP  0  0  0  0  0  0  0  0  0  0  0  0  # atno 17394 bound_to 11000
  140.7197  133.9151  155.8139 LP  0  0  0  0  0  0  0  0  0  0  0  0  # atno 17395 bound_to 11000

$$$$
