AV-unprocessed.smi:569|AV-procd|sdf|2960|dock7
  -GOLD-   2262023463D 1   1.00000     0.00000
 Structure written by MMmdl.
 37 38  0  0  0  0  0  0  0  0  1 V2000
  149.6730  144.8604  160.1015 C   0  0  0  0  0  0  0  0  0  0  0  0
  150.9283  144.1574  159.7136 C   0  0  0  0  0  0  0  0  0  0  0  0
  151.4051  143.0900  160.3588 N   0  0  0  0  0  0  0  0  0  0  0  0
  152.5962  142.6108  159.8038 C   0  0  0  0  0  0  0  0  0  0  0  0
  153.2656  141.4014  160.3924 C   0  0  0  0  0  0  0  0  0  0  0  0
  153.2329  140.2474  159.3893 C   0  0  0  0  0  0  0  0  0  0  0  0
  154.2806  139.7188  159.0180 O   0  0  0  0  0  0  0  0  0  0  0  0
  152.0177  139.8584  158.9740 N   0  0  0  0  0  0  0  0  0  0  0  0
  151.7321  138.7124  158.1147 C   0  0  2  0  0  0  0  0  0  0  0  0
  152.3473  138.9362  156.7203 C   0  0  0  0  0  0  0  0  0  0  0  0
  151.6374  140.0628  155.9463 C   0  0  0  0  0  0  0  0  0  0  0  0
  150.1204  139.8135  155.8365 C   0  0  2  0  0  0  0  0  0  0  0  0
  149.4193  140.9529  155.0834 C   0  0  0  0  0  0  0  0  0  0  0  0
  149.5022  139.5993  157.2317 C   0  0  0  0  0  0  0  0  0  0  0  0
  150.2120  138.4697  157.9995 C   0  0  0  0  0  0  0  0  0  0  0  0
  153.0230  143.3480  158.7258 C   0  0  0  0  0  0  0  0  0  0  0  0
  151.9338  144.6566  158.3592 S   0  0  0  0  0  0  0  0  0  0  0  0
  149.0294  144.2000  160.6835 H   0  0  0  0  0  0  0  0  0  0  0  0
  149.1306  145.1784  159.2109 H   0  0  0  0  0  0  0  0  0  0  0  0
  149.9088  145.7392  160.7016 H   0  0  0  0  0  0  0  0  0  0  0  0
  154.3012  141.6222  160.6532 H   0  0  0  0  0  0  0  0  0  0  0  0
  152.7734  141.0938  161.3163 H   0  0  0  0  0  0  0  0  0  0  0  0
  151.2187  140.3624  159.3298 H   0  0  0  0  0  0  0  0  0  0  0  0
  152.1992  137.8298  158.5553 H   0  0  0  0  0  0  0  0  0  0  0  0
  153.4116  139.1576  156.8089 H   0  0  0  0  0  0  0  0  0  0  0  0
  152.2776  138.0113  156.1463 H   0  0  0  0  0  0  0  0  0  0  0  0
  151.8190  141.0185  156.4399 H   0  0  0  0  0  0  0  0  0  0  0  0
  152.0728  140.1478  154.9502 H   0  0  0  0  0  0  0  0  0  0  0  0
  149.9723  138.8989  155.2606 H   0  0  0  0  0  0  0  0  0  0  0  0
  149.5286  141.9018  155.6097 H   0  0  0  0  0  0  0  0  0  0  0  0
  148.3529  140.7534  154.9748 H   0  0  0  0  0  0  0  0  0  0  0  0
  149.8346  141.0768  154.0830 H   0  0  0  0  0  0  0  0  0  0  0  0
  149.5557  140.5246  157.8073 H   0  0  0  0  0  0  0  0  0  0  0  0
  148.4423  139.3614  157.1361 H   0  0  0  0  0  0  0  0  0  0  0  0
  150.0397  137.5251  157.4823 H   0  0  0  0  0  0  0  0  0  0  0  0
  149.7661  138.3552  158.9882 H   0  0  0  0  0  0  0  0  0  0  0  0
  153.9033  143.1933  158.1198 H   0  0  0  0  0  0  0  0  0  0  0  0
  1  2  1  0  0  0  0
  1 18  1  0  0  0  0
  1 19  1  0  0  0  0
  1 20  1  0  0  0  0
  2 17  1  0  0  0  0
  2  3  2  0  0  0  0
  3  4  1  0  0  0  0
  4  5  1  0  0  0  0
  4 16  2  0  0  0  0
  5  6  1  0  0  0  0
  5 21  1  0  0  0  0
  5 22  1  0  0  0  0
  6  7  2  0  0  0  0
  6  8  1  0  0  0  0
  8  9  1  0  0  0  0
  8 23  1  0  0  0  0
  9 15  1  0  0  0  0
  9 10  1  0  0  0  0
  9 24  1  0  0  0  0
 10 11  1  0  0  0  0
 10 25  1  0  0  0  0
 10 26  1  0  0  0  0
 11 12  1  0  0  0  0
 11 27  1  0  0  0  0
 11 28  1  0  0  0  0
 12 13  1  0  0  0  0
 12 14  1  0  0  0  0
 12 29  1  0  0  0  0
 13 30  1  0  0  0  0
 13 31  1  0  0  0  0
 13 32  1  0  0  0  0
 14 15  1  0  0  0  0
 14 33  1  0  0  0  0
 14 34  1  0  0  0  0
 15 35  1  0  0  0  0
 15 36  1  0  0  0  0
 16 17  1  0  0  0  0
 16 37  1  0  0  0  0
M  END
> <s_m_source_file>
AV-unprocessed.smi

> <i_m_source_file_index>
569

> <i_lp_mmshare_version>
43012

> <i_f3d_flags>
0

> <s_epik_input>
W0NIM11jMW5jKFtjSF1zMSlbQ0gyXUMoPU8pW05IXVtDQEBIXTJbQ0gyXVtDSDJdW0NAQEhdKFtDSDNdKVtDSDJdW0NIMl0y

> <s_epik_cmdline>
J2VwaWtfcHl0aG9uJywgJy1waCcsICc3LjAnLCAnLXRuJywgJzgnLCAnLW1hJywgJzIwMCcsICctbWV0YWxfYmluZGluZycsICctaW1hZScsICc8aW5maWxlLm1hZT4nLCAnLW9tYWUnLCAnPG91dGZpbGUubWFlPic=

> <r_lp_tautomer_probability>
1

> <r_epik_Ionization_Penalty>
6.63234e-05

> <r_epik_Ionization_Penalty_Charging>
0

> <r_epik_Ionization_Penalty_Neutral>
6.63234e-05

> <r_epik_State_Penalty>
-0

> <r_epik_Charging_Adjusted_Penalty>
0

> <i_epik_Tot_Q>
0

> <i_epik_Tot_abs_Q>
0

> <r_epik_Metal_State_Penalty>
-0

> <b_epik_Metal_Only>
0

> <s_lp_Force_Field>
OPLS_2005

> <r_lp_Energy>
5.61603

> <b_lp_Chiralities_Consistent>
1

> <s_lp_Variant>
AV-unprocessed.smi:569-2

> <Gold.Version>
5.8.1

> <Gold.Id.Protein>
6NUR|6NUR_protein|mol2

> <Gold.PLP.Fitness>
40.2341

> <Gold.PLP.PLP>
-37.6029

> <Gold.PLP.part.hbond>
-1.9802

> <Gold.PLP.part.metal>
0.0000

> <Gold.PLP.part.buried>
-4.8419

> <Gold.PLP.part.nonpolar>
-31.5292

> <Gold.PLP.part.repulsive>
0.2075

> <Gold.PLP.ligand.clash>
0.0000

> <Gold.PLP.ligand.torsion>
0.0783

> <Gold.PLP.Chemscore.Hbond>
0.9280

> <Gold.PLP.Chemscore.CHOScore>
0.0000

> <Gold.PLP.Chemscore.Metal>
0.0000

> <Gold.Chemscore.Hbonds>
donor molecule, donor type, donor heavy atom, donor atom, acceptor molecule, acceptor atom, score
      P1  H  7997  8010       L1     7  0.99

> <Gold.PLP.Chemscore.Internal.Correction>
0.0039

> <Gold.Rescore>
     Score         DG    S(hbond)    S(metal)    S(lipo)     H(rot)  DE(clash)    DE(int)     intcor
     17.27     -17.61       0.98        0.00     103.34       1.26       0.20       0.14       ----

> <Gold.Chemscore.Fitness>
17.2733

> <Gold.Chemscore.DG>
-17.6137

> <Gold.Chemscore.ZeroCoef>
-5.4800

> <Gold.Chemscore.Hbond>
0.9803

> <Gold.Chemscore.Metal>
0.0000

> <Gold.Chemscore.Lipo>
103.3352

> <Gold.Chemscore.Internal_Hbond>
0.0000

> <Gold.Chemscore.DEClash>
0.2008

> <Gold.Chemscore.DEInternal>
0.1396

> <Gold.Chemscore.Rot>
1.2620

> <Gold.Chemscore.Internal.Correction>
   9.000000E+99

> <Gold.Chemscore.Hbonds>
donor molecule, donor type, donor heavy atom, donor atom, acceptor molecule, acceptor atom, score
      P1  H  7997  8010       L1     7  0.93

> <Gold.Chemscore.Hbond.Weighted>
-3.2741

> <Gold.Chemscore.Metal.Weighted>
-0.0000

> <Gold.Chemscore.Lipo.Weighted>
-12.0902

> <Gold.Chemscore.Internal_Hbond.Weighted>
0.0000

> <Gold.Chemscore.DEClash.Weighted>
0.2008

> <Gold.Chemscore.DEInternal.Weighted>
0.1396

> <Gold.Chemscore.Rot.Weighted>
3.2306

> <Gold.Chemscore.Internal.Correction.Weighted>
   9.000000E+99

> <Gold.Protein.RotatedTorsions>
[ 6907 6896 6895 6894 ] final   17.00 input  -60.11 | X-H torsion
[ 7974 7965 7964 7962 ] final   98.50 input  175.53 | X-H torsion
[ 8008 7997 7996 7995 ] final   -8.31 input   59.86 | X-H torsion
[ 10167 10162 10161 10158 ] final   98.32 input  -65.29 | X-H torsion
[ 10718 10713 10712 10709 ] final -171.70 input   66.30 | X-H torsion
[ 10763 10752 10751 10750 ] final   78.43 input  -60.55 | X-H torsion
[ 11005 11000 10999 10996 ] final   49.27 input  -57.11 | X-H torsion

> <Gold.Protein.ActiveResidues>
 VAL166  LYS551  ARG553  GLY616  TRP617  ASP618  TYR619  PRO620  LYS621  CYS622 
 ASP623  PHE694  ASN695  SER759  ASP760  ASP761  ALA762  ILE779  LEU786  VAL792 
 PHE793  MET794  SER795  GLU796  ALA797  LYS798  CYS799  TRP800  GLU811  SER814 

> <Gold.Protein.RotatedAtoms>
  151.8427  135.0584  160.0449 H   0  0  0  0  0  0  0  0  0  0  0  0  # atno 6907 bound_to 6896
  152.2796  133.5454  159.5498 H   0  0  0  0  0  0  0  0  0  0  0  0  # atno 6908 bound_to 6896
  150.7184  134.0498  159.3837 H   0  0  0  0  0  0  0  0  0  0  0  0  # atno 6909 bound_to 6896
  145.4113  139.2333  143.3246 H   0  0  0  0  0  0  0  0  0  0  0  0  # atno 7974 bound_to 7965
  154.5753  140.2384  155.8132 H   0  0  0  0  0  0  0  0  0  0  0  0  # atno 8008 bound_to 7997
  156.2138  140.3018  155.9750 H   0  0  0  0  0  0  0  0  0  0  0  0  # atno 8009 bound_to 7997
  155.2638  140.0415  157.2990 H   0  0  0  0  0  0  0  0  0  0  0  0  # atno 8010 bound_to 7997
  139.7719  144.6919  151.0143 H   0  0  0  0  0  0  0  0  0  0  0  0  # atno 10167 bound_to 10162
  156.7447  130.9355  151.3112 H   0  0  0  0  0  0  0  0  0  0  0  0  # atno 10718 bound_to 10713
  153.0874  135.4877  154.8623 H   0  0  0  0  0  0  0  0  0  0  0  0  # atno 10763 bound_to 10752
  154.7227  135.3043  154.9023 H   0  0  0  0  0  0  0  0  0  0  0  0  # atno 10764 bound_to 10752
  153.9683  135.6804  153.4799 H   0  0  0  0  0  0  0  0  0  0  0  0  # atno 10765 bound_to 10752
  140.1118  134.4945  155.8671 H   0  0  0  0  0  0  0  0  0  0  0  0  # atno 11005 bound_to 11000
  146.2703  140.4825  142.8817 LP  0  0  0  0  0  0  0  0  0  0  0  0  # atno 17320 bound_to 7965
  144.8307  140.6702  143.6293 LP  0  0  0  0  0  0  0  0  0  0  0  0  # atno 17321 bound_to 7965
  140.7814  143.4579  151.0320 LP  0  0  0  0  0  0  0  0  0  0  0  0  # atno 17342 bound_to 10162
  139.8262  143.7753  152.3178 LP  0  0  0  0  0  0  0  0  0  0  0  0  # atno 17343 bound_to 10162
  157.6803  130.9134  150.0251 LP  0  0  0  0  0  0  0  0  0  0  0  0  # atno 17370 bound_to 10713
  156.1441  130.3642  149.9537 LP  0  0  0  0  0  0  0  0  0  0  0  0  # atno 17371 bound_to 10713
  141.2132  133.6730  156.6719 LP  0  0  0  0  0  0  0  0  0  0  0  0  # atno 17394 bound_to 11000
  140.3081  134.8108  157.4154 LP  0  0  0  0  0  0  0  0  0  0  0  0  # atno 17395 bound_to 11000

$$$$
