AV-unprocessed.smi:1269|AV-procd|sdf|5329|dock6
  -GOLD-   22720 4463D 1   1.00000     0.00000
 Structure written by MMmdl.
 44 45  0  0  0  0  0  0  0  0  2 V2000
  136.0240  138.8102  154.4060 C   0  0  0  0  0  0  0  0  0  0  0  0
  136.8468  137.6618  154.5804 O   0  0  0  0  0  0  0  0  0  0  0  0
  138.1671  137.7362  154.1869 C   0  0  0  0  0  0  0  0  0  0  0  0
  138.9894  136.6067  154.3682 C   0  0  0  0  0  0  0  0  0  0  0  0
  140.3374  136.6725  153.9671 C   0  0  0  0  0  0  0  0  0  0  0  0
  140.8260  137.8748  153.4002 C   0  0  0  0  0  0  0  0  0  0  0  0
  142.1568  138.0745  152.9387 N   0  0  0  0  0  0  0  0  0  0  0  0
  143.1857  137.2101  152.9111 C   0  0  0  0  0  0  0  0  0  0  0  0
  143.1613  136.0541  153.3312 O   0  0  0  0  0  0  0  0  0  0  0  0
  144.2702  137.7680  152.3526 N   0  0  0  0  0  0  0  0  0  0  0  0
  145.5727  137.1243  152.1696 C   0  0  2  0  0  0  0  0  0  0  0  0
  146.6614  138.2048  152.1133 C   0  0  0  0  0  0  0  0  0  0  0  0
  145.5914  136.2417  150.8999 C   0  0  0  0  0  0  0  0  0  0  0  0
  145.2927  134.8141  151.1792 N   0  3  0  0  0  0  0  0  0  0  0  0
  144.3866  134.2011  150.1804 C   0  0  0  0  0  0  0  0  0  0  0  0
  144.0550  132.7538  150.5831 C   0  0  0  0  0  0  0  0  0  0  0  0
  145.2578  132.0070  150.7227 O   0  0  0  0  0  0  0  0  0  0  0  0
  146.1057  132.5421  151.7322 C   0  0  0  0  0  0  0  0  0  0  0  0
  146.5049  133.9789  151.3589 C   0  0  0  0  0  0  0  0  0  0  0  0
  139.9184  138.9451  153.2573 C   0  0  0  0  0  0  0  0  0  0  0  0
  138.6250  138.8880  153.6376 N   0  0  0  0  0  0  0  0  0  0  0  0
  135.0185  138.5903  154.7641 H   0  0  0  0  0  0  0  0  0  0  0  0
  135.9470  139.0897  153.3542 H   0  0  0  0  0  0  0  0  0  0  0  0
  136.3996  139.6613  154.9762 H   0  0  0  0  0  0  0  0  0  0  0  0
  138.5913  135.7025  154.8047 H   0  0  0  0  0  0  0  0  0  0  0  0
  140.9541  135.7977  154.0953 H   0  0  0  0  0  0  0  0  0  0  0  0
  142.3557  139.0064  152.6049 H   0  0  0  0  0  0  0  0  0  0  0  0
  144.1953  138.7253  152.0395 H   0  0  0  0  0  0  0  0  0  0  0  0
  145.7911  136.5048  153.0405 H   0  0  0  0  0  0  0  0  0  0  0  0
  147.6515  137.7591  152.0128 H   0  0  0  0  0  0  0  0  0  0  0  0
  146.6649  138.8076  153.0223 H   0  0  0  0  0  0  0  0  0  0  0  0
  146.5127  138.8776  151.2679 H   0  0  0  0  0  0  0  0  0  0  0  0
  144.8450  136.6325  150.2062 H   0  0  0  0  0  0  0  0  0  0  0  0
  146.5512  136.3209  150.3868 H   0  0  0  0  0  0  0  0  0  0  0  0
  143.4648  134.7800  150.1093 H   0  0  0  0  0  0  0  0  0  0  0  0
  144.8572  134.2206  149.1962 H   0  0  0  0  0  0  0  0  0  0  0  0
  143.4882  132.7295  151.5154 H   0  0  0  0  0  0  0  0  0  0  0  0
  143.4336  132.2840  149.8205 H   0  0  0  0  0  0  0  0  0  0  0  0
  145.6022  132.5174  152.7004 H   0  0  0  0  0  0  0  0  0  0  0  0
  146.9938  131.9155  151.8181 H   0  0  0  0  0  0  0  0  0  0  0  0
  147.0909  133.9768  150.4385 H   0  0  0  0  0  0  0  0  0  0  0  0
  147.1410  134.3926  152.1408 H   0  0  0  0  0  0  0  0  0  0  0  0
  140.2396  139.8811  152.8234 H   0  0  0  0  0  0  0  0  0  0  0  0
  144.7941  134.7971  152.0578 H   0  0  0  0  0  0  0  0  0  0  0  0
  1  2  1  0  0  0  0
  1 22  1  0  0  0  0
  1 23  1  0  0  0  0
  1 24  1  0  0  0  0
  2  3  1  0  0  0  0
  3 21  1  0  0  0  0
  3  4  2  0  0  0  0
  4  5  1  0  0  0  0
  4 25  1  0  0  0  0
  5  6  2  0  0  0  0
  5 26  1  0  0  0  0
  6  7  1  0  0  0  0
  6 20  1  0  0  0  0
  7  8  1  0  0  0  0
  7 27  1  0  0  0  0
  8  9  2  0  0  0  0
  8 10  1  0  0  0  0
 10 11  1  0  0  0  0
 10 28  1  0  0  0  0
 11 12  1  0  0  0  0
 11 13  1  0  0  0  0
 11 29  1  0  0  0  0
 12 30  1  0  0  0  0
 12 31  1  0  0  0  0
 12 32  1  0  0  0  0
 13 14  1  0  0  0  0
 13 33  1  0  0  0  0
 13 34  1  0  0  0  0
 14 19  1  0  0  0  0
 14 15  1  0  0  0  0
 14 44  1  0  0  0  0
 15 16  1  0  0  0  0
 15 35  1  0  0  0  0
 15 36  1  0  0  0  0
 16 17  1  0  0  0  0
 16 37  1  0  0  0  0
 16 38  1  0  0  0  0
 17 18  1  0  0  0  0
 18 19  1  0  0  0  0
 18 39  1  0  0  0  0
 18 40  1  0  0  0  0
 19 41  1  0  0  0  0
 19 42  1  0  0  0  0
 20 21  2  0  0  0  0
 20 43  1  0  0  0  0
M  CHG  1  14   1
M  END
> <s_m_source_file>
AV-unprocessed.smi

> <i_m_source_file_index>
1269

> <i_lp_mmshare_version>
43012

> <i_f3d_flags>
0

> <s_epik_input>
W0NIM11PYzFbY0hdW2NIXWMoW2NIXW4xKVtOSF1DKD1PKVtOSF1bQ0BIXShbQ0gzXSlbQ0gyXU4yW0NIMl1bQ0gyXU9bQ0gyXVtDSDJdMg==

> <s_epik_cmdline>
J2VwaWtfcHl0aG9uJywgJy1waCcsICc3LjAnLCAnLXRuJywgJzgnLCAnLW1hJywgJzIwMCcsICctbWV0YWxfYmluZGluZycsICctaW1hZScsICc8aW5maWxlLm1hZT4nLCAnLW9tYWUnLCAnPG91dGZpbGUubWFlPic=

> <r_lp_tautomer_probability>
1

> <r_epik_Ionization_Penalty>
0.602604

> <r_epik_Ionization_Penalty_Charging>
0.602531

> <r_epik_Ionization_Penalty_Neutral>
7.37831e-05

> <r_epik_State_Penalty>
0.617039

> <r_epik_Charging_Adjusted_Penalty>
1.21957

> <i_epik_Tot_Q>
1

> <i_epik_Tot_abs_Q>
1

> <r_epik_Metal_State_Penalty>
0.617045

> <b_epik_Metal_Only>
0

> <s_lp_Force_Field>
OPLS_2005

> <r_lp_Energy>
25.4267

> <b_lp_Chiralities_Consistent>
1

> <s_lp_Variant>
AV-unprocessed.smi:1269-3

> <Gold.Version>
5.8.1

> <Gold.Id.Protein>
6NUR|6NUR_protein|mol2

> <Gold.PLP.Fitness>
44.3939

> <Gold.PLP.PLP>
-38.2438

> <Gold.PLP.part.hbond>
-3.0000

> <Gold.PLP.part.metal>
0.0000

> <Gold.PLP.part.buried>
-2.1344

> <Gold.PLP.part.nonpolar>
-33.0005

> <Gold.PLP.part.repulsive>
0.4289

> <Gold.PLP.ligand.clash>
0.0000

> <Gold.PLP.ligand.torsion>
1.3679

> <Gold.PLP.Chemscore.Hbond>
1.9520

> <Gold.PLP.Chemscore.CHOScore>
1.0000

> <Gold.PLP.Chemscore.Metal>
0.0000

> <Gold.Chemscore.Hbonds>
donor molecule, donor type, donor heavy atom, donor atom, acceptor molecule, acceptor atom, score
      L1  H     7    27       P1 10175  0.98
      L1  H    10    28       P1 10175  0.94
      L1  C    20    43       P1 10160  1.00

> <Gold.PLP.Chemscore.Internal.Correction>
0.0300

> <Gold.Rescore>
     Score         DG    S(hbond)    S(metal)    S(lipo)     H(rot)  DE(clash)    DE(int)     intcor
     14.31     -17.05       1.95        0.00      82.27       1.78       0.29       2.46       ----

> <Gold.Chemscore.Fitness>
14.3053

> <Gold.Chemscore.DG>
-17.0536

> <Gold.Chemscore.ZeroCoef>
-5.4800

> <Gold.Chemscore.Hbond>
1.9478

> <Gold.Chemscore.Metal>
0.0000

> <Gold.Chemscore.Lipo>
82.2652

> <Gold.Chemscore.Internal_Hbond>
0.0000

> <Gold.Chemscore.DEClash>
0.2867

> <Gold.Chemscore.DEInternal>
2.4616

> <Gold.Chemscore.Rot>
1.7801

> <Gold.Chemscore.Internal.Correction>
   9.000000E+99

> <Gold.Chemscore.Hbonds>
donor molecule, donor type, donor heavy atom, donor atom, acceptor molecule, acceptor atom, score
      L1  H     7    27       P1 10175  0.90
      L1  H    10    28       P1 10175  0.91

> <Gold.Chemscore.Hbond.Weighted>
-6.5056

> <Gold.Chemscore.Metal.Weighted>
-0.0000

> <Gold.Chemscore.Lipo.Weighted>
-9.6250

> <Gold.Chemscore.Internal_Hbond.Weighted>
0.0000

> <Gold.Chemscore.DEClash.Weighted>
0.2867

> <Gold.Chemscore.DEInternal.Weighted>
2.4616

> <Gold.Chemscore.Rot.Weighted>
4.5570

> <Gold.Chemscore.Internal.Correction.Weighted>
   9.000000E+99

> <Gold.Protein.RotatedTorsions>
[ 6907 6896 6895 6894 ] final   17.49 input  -60.11 | X-H torsion
[ 7974 7965 7964 7962 ] final    2.00 input  175.53 | X-H torsion
[ 8008 7997 7996 7995 ] final   99.21 input   59.86 | X-H torsion
[ 10167 10162 10161 10158 ] final   22.72 input  -65.29 | X-H torsion
[ 10718 10713 10712 10709 ] final  117.39 input   66.30 | X-H torsion
[ 10763 10752 10751 10750 ] final    0.34 input  -60.55 | X-H torsion
[ 11005 11000 10999 10996 ] final  157.98 input  -57.11 | X-H torsion

> <Gold.Protein.ActiveResidues>
 VAL166  LYS551  ARG553  GLY616  TRP617  ASP618  TYR619  PRO620  LYS621  CYS622 
 ASP623  PHE694  ASN695  SER759  ASP760  ASP761  ALA762  ILE779  LEU786  VAL792 
 PHE793  MET794  SER795  GLU796  ALA797  LYS798  CYS799  TRP800  GLU811  SER814 

> <Gold.Protein.RotatedAtoms>
  151.8505  135.0559  160.0458 H   0  0  0  0  0  0  0  0  0  0  0  0  # atno 6907 bound_to 6896
  152.2740  133.5404  159.5465 H   0  0  0  0  0  0  0  0  0  0  0  0  # atno 6908 bound_to 6896
  150.7163  134.0574  159.3861 H   0  0  0  0  0  0  0  0  0  0  0  0  # atno 6909 bound_to 6896
  146.2442  140.0902  142.8352 H   0  0  0  0  0  0  0  0  0  0  0  0  # atno 7974 bound_to 7965
  156.1082  140.3232  155.8036 H   0  0  0  0  0  0  0  0  0  0  0  0  # atno 8008 bound_to 7997
  155.4719  140.0547  157.2995 H   0  0  0  0  0  0  0  0  0  0  0  0  # atno 8009 bound_to 7997
  154.4742  140.2025  155.9934 H   0  0  0  0  0  0  0  0  0  0  0  0  # atno 8010 bound_to 7997
  140.5326  143.9815  150.6474 H   0  0  0  0  0  0  0  0  0  0  0  0  # atno 10167 bound_to 10162
  157.6099  131.1036  150.7609 H   0  0  0  0  0  0  0  0  0  0  0  0  # atno 10718 bound_to 10713
  153.3219  135.6969  153.7023 H   0  0  0  0  0  0  0  0  0  0  0  0  # atno 10763 bound_to 10752
  153.5859  135.3489  155.2893 H   0  0  0  0  0  0  0  0  0  0  0  0  # atno 10764 bound_to 10752
  154.8599  135.4306  154.2385 H   0  0  0  0  0  0  0  0  0  0  0  0  # atno 10765 bound_to 10752
  140.1822  134.8468  157.2815 H   0  0  0  0  0  0  0  0  0  0  0  0  # atno 11005 bound_to 11000
  145.0657  140.9120  143.4912 LP  0  0  0  0  0  0  0  0  0  0  0  0  # atno 17320 bound_to 7965
  145.1026  139.2812  143.5678 LP  0  0  0  0  0  0  0  0  0  0  0  0  # atno 17321 bound_to 7965
  140.3194  143.3147  152.0799 LP  0  0  0  0  0  0  0  0  0  0  0  0  # atno 17342 bound_to 10162
  139.4959  144.6584  151.6521 LP  0  0  0  0  0  0  0  0  0  0  0  0  # atno 17343 bound_to 10162
  156.7988  130.4914  149.5373 LP  0  0  0  0  0  0  0  0  0  0  0  0  # atno 17370 bound_to 10713
  156.1198  130.6102  151.0176 LP  0  0  0  0  0  0  0  0  0  0  0  0  # atno 17371 bound_to 10713
  140.2255  134.3972  155.7546 LP  0  0  0  0  0  0  0  0  0  0  0  0  # atno 17394 bound_to 11000
  141.2223  133.7188  156.8558 LP  0  0  0  0  0  0  0  0  0  0  0  0  # atno 17395 bound_to 11000

$$$$
