AV-unprocessed.smi:175|AV-procd|sdf|1432|dock2
  -GOLD-   2262019213D 1   1.00000     0.00000
 Structure written by MMmdl.
 47 50  0  0  0  0  0  0  0  0  1 V2000
  146.3146  129.2872  151.7480 C   0  0  0  0  0  0  0  0  0  0  0  0
  146.1984  130.8065  151.5483 C   0  0  1  0  0  0  0  0  0  0  0  0
  144.8167  131.1481  151.6285 O   0  0  0  0  0  0  0  0  0  0  0  0
  144.6968  132.4607  152.1469 C   0  0  0  0  0  0  0  0  0  0  0  0
  145.7652  132.4829  153.2289 C   0  0  0  0  0  0  0  0  0  0  0  0
  146.9164  131.7082  152.5924 C   0  0  2  0  0  0  0  0  0  0  0  0
  147.7192  132.6353  151.8808 O   0  0  0  0  0  0  0  0  0  0  0  0
  147.8206  130.9833  153.6239 C   0  0  0  0  0  0  0  0  0  0  0  0
  147.9964  131.7278  154.8617 N   0  0  0  0  0  0  0  0  0  0  0  0
  147.8703  131.2408  156.1441 C   0  0  0  0  0  0  0  0  0  0  0  0
  148.0709  132.1127  157.0947 N   0  0  0  0  0  0  0  0  0  0  0  0
  148.3657  133.2866  156.4143 C   0  0  0  0  0  0  0  0  0  0  0  0
  148.6801  134.6086  156.8212 C   0  0  0  0  0  0  0  0  0  0  0  0
  148.7534  134.9547  158.1249 N   0  0  0  0  0  0  0  0  0  0  0  0
  148.8443  136.3921  158.3737 C   0  0  0  0  0  0  0  0  0  0  0  0
  147.8784  136.5939  159.5243 C   0  0  0  0  0  0  0  0  0  0  0  0
  147.6647  137.6892  160.0411 O   0  0  0  0  0  0  0  0  0  0  0  0
  147.3179  135.4314  159.8628 N   0  0  0  0  0  0  0  0  0  0  0  0
  146.3217  135.2097  160.9087 C   0  0  0  0  0  0  0  0  0  0  0  0
  146.9542  134.7632  162.2389 C   0  0  0  0  0  0  0  0  0  0  0  0
  146.0152  134.1967  162.9956 F   0  0  0  0  0  0  0  0  0  0  0  0
  147.9172  133.8687  162.0173 F   0  0  0  0  0  0  0  0  0  0  0  0
  147.4634  135.7999  162.9038 F   0  0  0  0  0  0  0  0  0  0  0  0
  147.7692  134.3400  159.0168 C   0  0  0  0  0  0  0  0  0  0  0  0
  148.9293  135.5322  155.8557 N   0  0  0  0  0  0  0  0  0  0  0  0
  148.8664  135.1812  154.5674 C   0  0  0  0  0  0  0  0  0  0  0  0
  148.5798  133.9887  154.0396 N   0  0  0  0  0  0  0  0  0  0  0  0
  148.3319  133.0622  155.0102 C   0  0  0  0  0  0  0  0  0  0  0  0
  147.3511  128.9547  151.6882 H   0  0  0  0  0  0  0  0  0  0  0  0
  145.7581  128.7552  150.9760 H   0  0  0  0  0  0  0  0  0  0  0  0
  145.9105  128.9778  152.7121 H   0  0  0  0  0  0  0  0  0  0  0  0
  146.5393  131.0470  150.5395 H   0  0  0  0  0  0  0  0  0  0  0  0
  144.9116  133.1900  151.3644 H   0  0  0  0  0  0  0  0  0  0  0  0
  143.6967  132.6516  152.5360 H   0  0  0  0  0  0  0  0  0  0  0  0
  146.0329  133.4909  153.5486 H   0  0  0  0  0  0  0  0  0  0  0  0
  145.3894  131.9468  154.1011 H   0  0  0  0  0  0  0  0  0  0  0  0
  148.2120  132.1649  151.2259 H   0  0  0  0  0  0  0  0  0  0  0  0
  147.4014  130.0107  153.8832 H   0  0  0  0  0  0  0  0  0  0  0  0
  148.8063  130.7919  153.1984 H   0  0  0  0  0  0  0  0  0  0  0  0
  147.6174  130.2120  156.3547 H   0  0  0  0  0  0  0  0  0  0  0  0
  149.8572  136.6644  158.6713 H   0  0  0  0  0  0  0  0  0  0  0  0
  148.5502  137.0028  157.5180 H   0  0  0  0  0  0  0  0  0  0  0  0
  145.7409  136.1213  161.0575 H   0  0  0  0  0  0  0  0  0  0  0  0
  145.6144  134.4522  160.5682 H   0  0  0  0  0  0  0  0  0  0  0  0
  146.9240  133.8907  158.4926 H   0  0  0  0  0  0  0  0  0  0  0  0
  148.2481  133.5669  159.6183 H   0  0  0  0  0  0  0  0  0  0  0  0
  149.0758  135.9680  153.8579 H   0  0  0  0  0  0  0  0  0  0  0  0
  1  2  1  0  0  0  0
  1 29  1  0  0  0  0
  1 30  1  0  0  0  0
  1 31  1  0  0  0  0
  2  6  1  0  0  0  0
  2  3  1  0  0  0  0
  2 32  1  0  0  0  0
  3  4  1  0  0  0  0
  4  5  1  0  0  0  0
  4 33  1  0  0  0  0
  4 34  1  0  0  0  0
  5  6  1  0  0  0  0
  5 35  1  0  0  0  0
  5 36  1  0  0  0  0
  6  7  1  0  0  0  0
  6  8  1  0  0  0  0
  7 37  1  0  0  0  0
  8  9  1  0  0  0  0
  8 38  1  0  0  0  0
  8 39  1  0  0  0  0
  9 28  1  0  0  0  0
  9 10  1  0  0  0  0
 10 11  2  0  0  0  0
 10 40  1  0  0  0  0
 11 12  1  0  0  0  0
 12 28  2  0  0  0  0
 12 13  1  0  0  0  0
 13 14  1  0  0  0  0
 13 25  2  0  0  0  0
 14 24  1  0  0  0  0
 14 15  1  0  0  0  0
 15 16  1  0  0  0  0
 15 41  1  0  0  0  0
 15 42  1  0  0  0  0
 16 17  2  0  0  0  0
 16 18  1  0  0  0  0
 18 19  1  0  0  0  0
 18 24  1  0  0  0  0
 19 20  1  0  0  0  0
 19 43  1  0  0  0  0
 19 44  1  0  0  0  0
 20 21  1  0  0  0  0
 20 22  1  0  0  0  0
 20 23  1  0  0  0  0
 24 45  1  0  0  0  0
 24 46  1  0  0  0  0
 25 26  1  0  0  0  0
 26 27  2  0  0  0  0
 26 47  1  0  0  0  0
 27 28  1  0  0  0  0
M  END
> <s_m_source_file>
AV-unprocessed.smi

> <i_m_source_file_index>
175

> <i_lp_mmshare_version>
43012

> <i_f3d_flags>
0

> <s_epik_input>
W0NIMl0xW0NIMl1PW0NAQEhdKFtDSDNdKVtDQEBdMShbT0hdKVtDSDJdbihbY0hdbjIpYyhjMjMpbltjSF1uYzNONFtDSDJdQyg9TylOKFtDSDJdNClbQ0gyXUMoRikoRilG

> <s_epik_cmdline>
J2VwaWtfcHl0aG9uJywgJy1waCcsICc3LjAnLCAnLXRuJywgJzgnLCAnLW1hJywgJzIwMCcsICctbWV0YWxfYmluZGluZycsICctaW1hZScsICc8aW5maWxlLm1hZT4nLCAnLW9tYWUnLCAnPG91dGZpbGUubWFlPic=

> <r_lp_tautomer_probability>
1

> <r_epik_Ionization_Penalty>
0.000307802

> <r_epik_Ionization_Penalty_Charging>
0

> <r_epik_Ionization_Penalty_Neutral>
0.000307802

> <r_epik_State_Penalty>
-0

> <r_epik_Charging_Adjusted_Penalty>
0

> <i_epik_Tot_Q>
0

> <i_epik_Tot_abs_Q>
0

> <r_epik_Metal_State_Penalty>
-0

> <b_epik_Metal_Only>
0

> <s_epik_Chemistry_Notes>
This compound contains an acetal/aminal-like group ( X-CH(R)-Y where X, Y are N, S, or O) that may be acid/base labile, releasing an aldehyde.

> <s_lp_Force_Field>
OPLS_2005

> <r_lp_Energy>
36.4888

> <b_lp_Chiralities_Consistent>
1

> <s_lp_Variant>
AV-unprocessed.smi:175-4

> <Gold.Version>
5.8.1

> <Gold.Id.Protein>
6NUR|6NUR_protein|mol2

> <Gold.PLP.Fitness>
44.4187

> <Gold.PLP.PLP>
-36.2094

> <Gold.PLP.part.hbond>
-3.9833

> <Gold.PLP.part.metal>
0.0000

> <Gold.PLP.part.buried>
-1.3547

> <Gold.PLP.part.nonpolar>
-32.1689

> <Gold.PLP.part.repulsive>
0.3034

> <Gold.PLP.ligand.clash>
0.0000

> <Gold.PLP.ligand.torsion>
1.5540

> <Gold.PLP.Chemscore.Hbond>
2.6744

> <Gold.PLP.Chemscore.CHOScore>
0.9906

> <Gold.PLP.Chemscore.Metal>
0.0000

> <Gold.Chemscore.Hbonds>
donor molecule, donor type, donor heavy atom, donor atom, acceptor molecule, acceptor atom, score
      L1  H     7    37       P1 10747  1.00
      P1  H  6931  6943       L1    17  0.07
      P1  H  6934  6947       L1    17  0.75
      L1  C    26    47       P1  7948  0.91

> <Gold.PLP.Chemscore.Internal.Correction>
0.3223

> <Gold.Rescore>
     Score         DG    S(hbond)    S(metal)    S(lipo)     H(rot)  DE(clash)    DE(int)     intcor
      8.52     -11.87       2.17        0.00      59.39       3.05       0.26       3.09       ----

> <Gold.Chemscore.Fitness>
8.5195

> <Gold.Chemscore.DG>
-11.8691

> <Gold.Chemscore.ZeroCoef>
-5.4800

> <Gold.Chemscore.Hbond>
2.1691

> <Gold.Chemscore.Metal>
0.0000

> <Gold.Chemscore.Lipo>
59.3920

> <Gold.Chemscore.Internal_Hbond>
0.0000

> <Gold.Chemscore.DEClash>
0.2596

> <Gold.Chemscore.DEInternal>
3.0899

> <Gold.Chemscore.Rot>
3.0487

> <Gold.Chemscore.Internal.Correction>
   9.000000E+99

> <Gold.Chemscore.Hbonds>
donor molecule, donor type, donor heavy atom, donor atom, acceptor molecule, acceptor atom, score
      L1  H     7    37       P1 10747  1.00
      P1  H  6931  6943       L1    17  0.07
      P1  H  6934  6947       L1    17  0.76

> <Gold.Chemscore.Hbond.Weighted>
-7.2448

> <Gold.Chemscore.Metal.Weighted>
-0.0000

> <Gold.Chemscore.Lipo.Weighted>
-6.9489

> <Gold.Chemscore.Internal_Hbond.Weighted>
0.0000

> <Gold.Chemscore.DEClash.Weighted>
0.2596

> <Gold.Chemscore.DEInternal.Weighted>
3.0899

> <Gold.Chemscore.Rot.Weighted>
7.8046

> <Gold.Chemscore.Internal.Correction.Weighted>
   9.000000E+99

> <Gold.Protein.RotatedTorsions>
[ 6907 6896 6895 6894 ] final -112.70 input  -60.11 | X-H torsion
[ 7974 7965 7964 7962 ] final   64.98 input  175.53 | X-H torsion
[ 8008 7997 7996 7995 ] final  -14.54 input   59.86 | X-H torsion
[ 10167 10162 10161 10158 ] final  137.59 input  -65.29 | X-H torsion
[ 10718 10713 10712 10709 ] final  179.36 input   66.30 | X-H torsion
[ 10763 10752 10751 10750 ] final  -56.39 input  -60.55 | X-H torsion
[ 11005 11000 10999 10996 ] final -139.14 input  -57.11 | X-H torsion

> <Gold.Protein.ActiveResidues>
 VAL166  LYS551  ARG553  GLY616  TRP617  ASP618  TYR619  PRO620  LYS621  CYS622 
 ASP623  PHE694  ASN695  SER759  ASP760  ASP761  ALA762  ILE779  LEU786  VAL792 
 PHE793  MET794  SER795  GLU796  ALA797  LYS798  CYS799  TRP800  GLU811  SER814 

> <Gold.Protein.RotatedAtoms>
  150.7777  133.9051  159.3352 H   0  0  0  0  0  0  0  0  0  0  0  0  # atno 6907 bound_to 6896
  151.6921  135.0942  160.0245 H   0  0  0  0  0  0  0  0  0  0  0  0  # atno 6908 bound_to 6896
  152.3818  133.6519  159.6203 H   0  0  0  0  0  0  0  0  0  0  0  0  # atno 6909 bound_to 6896
  145.8438  139.3212  143.0915 H   0  0  0  0  0  0  0  0  0  0  0  0  # atno 7974 bound_to 7965
  154.5202  140.2220  155.8991 H   0  0  0  0  0  0  0  0  0  0  0  0  # atno 8008 bound_to 7997
  156.1653  140.3133  155.8842 H   0  0  0  0  0  0  0  0  0  0  0  0  # atno 8009 bound_to 7997
  155.3669  140.0464  157.3036 H   0  0  0  0  0  0  0  0  0  0  0  0  # atno 8010 bound_to 7997
  139.5139  144.6401  151.5592 H   0  0  0  0  0  0  0  0  0  0  0  0  # atno 10167 bound_to 10162
  156.8769  130.9803  151.3066 H   0  0  0  0  0  0  0  0  0  0  0  0  # atno 10718 bound_to 10713
  154.2058  135.6403  153.5100 H   0  0  0  0  0  0  0  0  0  0  0  0  # atno 10763 bound_to 10752
  153.0001  135.5462  154.6267 H   0  0  0  0  0  0  0  0  0  0  0  0  # atno 10764 bound_to 10752
  154.5691  135.2915  155.0818 H   0  0  0  0  0  0  0  0  0  0  0  0  # atno 10765 bound_to 10752
  140.8548  134.2241  157.4740 H   0  0  0  0  0  0  0  0  0  0  0  0  # atno 11005 bound_to 11000
  145.9435  140.8962  143.0296 LP  0  0  0  0  0  0  0  0  0  0  0  0  # atno 17320 bound_to 7965
  144.6732  140.1581  143.7424 LP  0  0  0  0  0  0  0  0  0  0  0  0  # atno 17321 bound_to 7965
  140.6164  143.9340  150.6492 LP  0  0  0  0  0  0  0  0  0  0  0  0  # atno 17342 bound_to 10162
  140.2599  143.3531  152.1332 LP  0  0  0  0  0  0  0  0  0  0  0  0  # atno 17343 bound_to 10162
  157.6163  130.8621  149.9034 LP  0  0  0  0  0  0  0  0  0  0  0  0  # atno 17370 bound_to 10713
  156.0697  130.3687  150.0802 LP  0  0  0  0  0  0  0  0  0  0  0  0  # atno 17371 bound_to 10713
  139.8705  134.9701  156.4689 LP  0  0  0  0  0  0  0  0  0  0  0  0  # atno 17394 bound_to 11000
  140.8749  133.7960  155.9404 LP  0  0  0  0  0  0  0  0  0  0  0  0  # atno 17395 bound_to 11000

$$$$
