AV-unprocessed.smi:1969|AV-procd|sdf|7959|dock4
  -GOLD-   2272010133D 1   1.00000     0.00000
 Structure written by MMmdl.
 44 45  0  0  0  0  0  0  0  0  1 V2000
  153.4350  140.7921  160.2860 C   0  0  0  0  0  0  0  0  0  0  0  0
  152.9255  141.6539  159.1262 C   0  0  1  0  0  0  0  0  0  0  0  0
  151.9742  140.8711  158.2031 C   0  0  0  0  0  0  0  0  0  0  0  0
  151.4340  141.7556  157.1805 N   0  0  0  0  0  0  0  0  0  0  0  0
  150.6842  141.0876  156.2023 C   0  0  0  0  0  0  0  0  0  0  0  0
  151.0825  139.7965  155.8001 C   0  0  0  0  0  0  0  0  0  0  0  0
  150.3250  139.1303  154.8185 C   0  0  0  0  0  0  0  0  0  0  0  0
  149.1905  139.7661  154.2757 C   0  0  0  0  0  0  0  0  0  0  0  0
  148.4564  139.0781  153.2729 N   0  0  0  0  0  0  0  0  0  0  0  0
  147.2099  139.3226  152.8261 C   0  0  0  0  0  0  0  0  0  0  0  0
  146.4810  140.2214  153.2435 O   0  0  0  0  0  0  0  0  0  0  0  0
  146.6941  138.3964  151.7233 C   0  0  0  0  0  0  0  0  0  0  0  0
  145.7647  137.4744  152.2729 O   0  0  0  0  0  0  0  0  0  0  0  0
  145.4782  136.3962  151.3968 C   0  0  0  0  0  0  0  0  0  0  0  0
  144.4793  135.4464  152.0686 C   0  0  0  0  0  0  0  0  0  0  0  0
  143.3675  136.1169  152.3677 F   0  0  0  0  0  0  0  0  0  0  0  0
  144.1682  134.4472  151.2432 F   0  0  0  0  0  0  0  0  0  0  0  0
  144.9979  134.9534  153.1930 F   0  0  0  0  0  0  0  0  0  0  0  0
  148.8810  141.0688  154.7370 C   0  0  0  0  0  0  0  0  0  0  0  0
  149.6047  141.7137  155.6769 N   0  0  0  0  0  0  0  0  0  0  0  0
  150.7493  142.9084  157.7516 C   0  0  0  0  0  0  0  0  0  0  0  0
  151.6797  143.6747  158.7126 C   0  0  2  0  0  0  0  0  0  0  0  0
  152.7636  144.4974  157.9934 C   0  0  0  0  0  0  0  0  0  0  0  0
  152.2365  142.7771  159.6776 O   0  0  0  0  0  0  0  0  0  0  0  0
  153.9798  139.9224  159.9180 H   0  0  0  0  0  0  0  0  0  0  0  0
  152.6109  140.4347  160.9042 H   0  0  0  0  0  0  0  0  0  0  0  0
  154.1102  141.3602  160.9262 H   0  0  0  0  0  0  0  0  0  0  0  0
  153.7884  141.9972  158.5554 H   0  0  0  0  0  0  0  0  0  0  0  0
  152.5050  140.0433  157.7307 H   0  0  0  0  0  0  0  0  0  0  0  0
  151.1575  140.4411  158.7853 H   0  0  0  0  0  0  0  0  0  0  0  0
  151.9517  139.3244  156.2343 H   0  0  0  0  0  0  0  0  0  0  0  0
  150.6115  138.1409  154.4925 H   0  0  0  0  0  0  0  0  0  0  0  0
  148.9029  138.2547  152.8953 H   0  0  0  0  0  0  0  0  0  0  0  0
  146.2194  138.9892  150.9394 H   0  0  0  0  0  0  0  0  0  0  0  0
  147.5395  137.8686  151.2796 H   0  0  0  0  0  0  0  0  0  0  0  0
  145.0617  136.7754  150.4621 H   0  0  0  0  0  0  0  0  0  0  0  0
  146.3957  135.8585  151.1520 H   0  0  0  0  0  0  0  0  0  0  0  0
  148.0509  141.6329  154.3416 H   0  0  0  0  0  0  0  0  0  0  0  0
  150.3962  143.5671  156.9571 H   0  0  0  0  0  0  0  0  0  0  0  0
  149.8685  142.5672  158.2973 H   0  0  0  0  0  0  0  0  0  0  0  0
  151.0674  144.3820  159.2726 H   0  0  0  0  0  0  0  0  0  0  0  0
  152.3111  145.2602  157.3596 H   0  0  0  0  0  0  0  0  0  0  0  0
  153.3963  143.8811  157.3552 H   0  0  0  0  0  0  0  0  0  0  0  0
  153.4063  145.0058  158.7122 H   0  0  0  0  0  0  0  0  0  0  0  0
  1  2  1  0  0  0  0
  1 25  1  0  0  0  0
  1 26  1  0  0  0  0
  1 27  1  0  0  0  0
  2 24  1  0  0  0  0
  2  3  1  0  0  0  0
  2 28  1  0  0  0  0
  3  4  1  0  0  0  0
  3 29  1  0  0  0  0
  3 30  1  0  0  0  0
  4  5  1  0  0  0  0
  4 21  1  0  0  0  0
  5 20  1  0  0  0  0
  5  6  2  0  0  0  0
  6  7  1  0  0  0  0
  6 31  1  0  0  0  0
  7  8  2  0  0  0  0
  7 32  1  0  0  0  0
  8  9  1  0  0  0  0
  8 19  1  0  0  0  0
  9 10  1  0  0  0  0
  9 33  1  0  0  0  0
 10 11  2  0  0  0  0
 10 12  1  0  0  0  0
 12 13  1  0  0  0  0
 12 34  1  0  0  0  0
 12 35  1  0  0  0  0
 13 14  1  0  0  0  0
 14 15  1  0  0  0  0
 14 36  1  0  0  0  0
 14 37  1  0  0  0  0
 15 16  1  0  0  0  0
 15 17  1  0  0  0  0
 15 18  1  0  0  0  0
 19 20  2  0  0  0  0
 19 38  1  0  0  0  0
 21 22  1  0  0  0  0
 21 39  1  0  0  0  0
 21 40  1  0  0  0  0
 22 23  1  0  0  0  0
 22 24  1  0  0  0  0
 22 41  1  0  0  0  0
 23 42  1  0  0  0  0
 23 43  1  0  0  0  0
 23 44  1  0  0  0  0
M  END
> <s_m_source_file>
AV-unprocessed.smi

> <i_m_source_file_index>
1969

> <i_lp_mmshare_version>
43012

> <i_f3d_flags>
0

> <s_epik_input>
W0NIM11bQ0BASF0xW0NIMl1OKFtDSDJdW0NASF0oTzEpW0NIM10pYzJbY0hdW2NIXWMoW2NIXW4yKVtOSF1DKD1PKVtDSDJdT1tDSDJdQyhGKShGKUY=

> <s_epik_cmdline>
J2VwaWtfcHl0aG9uJywgJy1waCcsICc3LjAnLCAnLXRuJywgJzgnLCAnLW1hJywgJzIwMCcsICctbWV0YWxfYmluZGluZycsICctaW1hZScsICc8aW5maWxlLm1hZT4nLCAnLW9tYWUnLCAnPG91dGZpbGUubWFlPic=

> <r_lp_tautomer_probability>
1

> <r_epik_Ionization_Penalty>
0.000531129

> <r_epik_Ionization_Penalty_Charging>
0

> <r_epik_Ionization_Penalty_Neutral>
0.000531129

> <r_epik_State_Penalty>
0.000331002

> <r_epik_Charging_Adjusted_Penalty>
0.000331002

> <i_epik_Tot_Q>
0

> <i_epik_Tot_abs_Q>
0

> <r_epik_Metal_State_Penalty>
-0

> <b_epik_Metal_Only>
0

> <s_lp_Force_Field>
OPLS_2005

> <r_lp_Energy>
27.2534

> <b_lp_Chiralities_Consistent>
1

> <s_lp_Variant>
AV-unprocessed.smi:1969-3

> <Gold.Version>
5.8.1

> <Gold.Id.Protein>
6NUR|6NUR_protein|mol2

> <Gold.PLP.Fitness>
45.8641

> <Gold.PLP.PLP>
-45.5101

> <Gold.PLP.part.hbond>
-1.7078

> <Gold.PLP.part.metal>
0.0000

> <Gold.PLP.part.buried>
-2.4898

> <Gold.PLP.part.nonpolar>
-43.7741

> <Gold.PLP.part.repulsive>
1.7140

> <Gold.PLP.ligand.clash>
0.0000

> <Gold.PLP.ligand.torsion>
0.8456

> <Gold.PLP.Chemscore.Hbond>
0.6175

> <Gold.PLP.Chemscore.CHOScore>
0.0000

> <Gold.PLP.Chemscore.Metal>
0.0000

> <Gold.Chemscore.Hbonds>
donor molecule, donor type, donor heavy atom, donor atom, acceptor molecule, acceptor atom, score
      L1  H     9    33       P1  7948  0.47

> <Gold.PLP.Chemscore.Internal.Correction>
0.1927

> <Gold.Rescore>
     Score         DG    S(hbond)    S(metal)    S(lipo)     H(rot)  DE(clash)    DE(int)     intcor
     10.66     -14.70       0.49        0.00     107.46       1.94       2.02       2.01       ----

> <Gold.Chemscore.Fitness>
10.6612

> <Gold.Chemscore.DG>
-14.6983

> <Gold.Chemscore.ZeroCoef>
-5.4800

> <Gold.Chemscore.Hbond>
0.4855

> <Gold.Chemscore.Metal>
0.0000

> <Gold.Chemscore.Lipo>
107.4595

> <Gold.Chemscore.Internal_Hbond>
0.0000

> <Gold.Chemscore.DEClash>
2.0222

> <Gold.Chemscore.DEInternal>
2.0149

> <Gold.Chemscore.Rot>
1.9438

> <Gold.Chemscore.Internal.Correction>
   9.000000E+99

> <Gold.Chemscore.Hbonds>
donor molecule, donor type, donor heavy atom, donor atom, acceptor molecule, acceptor atom, score
      L1  H     9    33       P1  7948  0.47

> <Gold.Chemscore.Hbond.Weighted>
-1.6216

> <Gold.Chemscore.Metal.Weighted>
-0.0000

> <Gold.Chemscore.Lipo.Weighted>
-12.5728

> <Gold.Chemscore.Internal_Hbond.Weighted>
0.0000

> <Gold.Chemscore.DEClash.Weighted>
2.0222

> <Gold.Chemscore.DEInternal.Weighted>
2.0149

> <Gold.Chemscore.Rot.Weighted>
4.9761

> <Gold.Chemscore.Internal.Correction.Weighted>
   9.000000E+99

> <Gold.Protein.RotatedTorsions>
[ 6907 6896 6895 6894 ] final  157.89 input  -60.11 | X-H torsion
[ 7974 7965 7964 7962 ] final -140.37 input  175.53 | X-H torsion
[ 8008 7997 7996 7995 ] final   19.48 input   59.86 | X-H torsion
[ 10167 10162 10161 10158 ] final    2.06 input  -65.29 | X-H torsion
[ 10718 10713 10712 10709 ] final   -8.31 input   66.30 | X-H torsion
[ 10763 10752 10751 10750 ] final   98.00 input  -60.55 | X-H torsion
[ 11005 11000 10999 10996 ] final -170.72 input  -57.11 | X-H torsion

> <Gold.Protein.ActiveResidues>
 VAL166  LYS551  ARG553  GLY616  TRP617  ASP618  TYR619  PRO620  LYS621  CYS622 
 ASP623  PHE694  ASN695  SER759  ASP760  ASP761  ALA762  ILE779  LEU786  VAL792 
 PHE793  MET794  SER795  GLU796  ALA797  LYS798  CYS799  TRP800  GLU811  SER814 

> <Gold.Protein.RotatedAtoms>
  152.0084  133.3852  159.4209 H   0  0  0  0  0  0  0  0  0  0  0  0  # atno 6907 bound_to 6896
  150.6902  134.3757  159.5021 H   0  0  0  0  0  0  0  0  0  0  0  0  # atno 6908 bound_to 6896
  152.1514  134.8985  160.0598 H   0  0  0  0  0  0  0  0  0  0  0  0  # atno 6909 bound_to 6896
  144.8603  140.6208  143.5333 H   0  0  0  0  0  0  0  0  0  0  0  0  # atno 7974 bound_to 7965
  154.9214  140.3028  155.5214 H   0  0  0  0  0  0  0  0  0  0  0  0  # atno 8008 bound_to 7997
  156.3009  140.2371  156.4200 H   0  0  0  0  0  0  0  0  0  0  0  0  # atno 8009 bound_to 7997
  154.8327  140.0417  157.1477 H   0  0  0  0  0  0  0  0  0  0  0  0  # atno 8010 bound_to 7997
  140.6653  143.7195  150.7816 H   0  0  0  0  0  0  0  0  0  0  0  0  # atno 10167 bound_to 10162
  156.7045  130.5103  149.5908 H   0  0  0  0  0  0  0  0  0  0  0  0  # atno 10718 bound_to 10713
  153.2837  135.4163  155.1102 H   0  0  0  0  0  0  0  0  0  0  0  0  # atno 10763 bound_to 10752
  154.8498  135.3501  154.6077 H   0  0  0  0  0  0  0  0  0  0  0  0  # atno 10764 bound_to 10752
  153.6498  135.7053  153.5270 H   0  0  0  0  0  0  0  0  0  0  0  0  # atno 10765 bound_to 10752
  140.5164  134.5752  157.5034 H   0  0  0  0  0  0  0  0  0  0  0  0  # atno 11005 bound_to 11000
  145.4326  139.1547  143.4014 LP  0  0  0  0  0  0  0  0  0  0  0  0  # atno 17320 bound_to 7965
  146.2855  140.4443  142.8759 LP  0  0  0  0  0  0  0  0  0  0  0  0  # atno 17321 bound_to 7965
  140.0871  143.4913  152.2499 LP  0  0  0  0  0  0  0  0  0  0  0  0  # atno 17342 bound_to 10162
  139.5900  144.7546  151.3424 LP  0  0  0  0  0  0  0  0  0  0  0  0  # atno 17343 bound_to 10162
  156.1705  130.6434  151.0831 LP  0  0  0  0  0  0  0  0  0  0  0  0  # atno 17370 bound_to 10713
  157.6960  131.0793  150.6967 LP  0  0  0  0  0  0  0  0  0  0  0  0  # atno 17371 bound_to 10713
  139.9630  134.7420  156.0196 LP  0  0  0  0  0  0  0  0  0  0  0  0  # atno 17394 bound_to 11000
  141.1358  133.6575  156.3590 LP  0  0  0  0  0  0  0  0  0  0  0  0  # atno 17395 bound_to 11000

$$$$
